REMARK SMILES O=C(NCCCNC(=O)c1nn2cc(Br)cnc2c1Br)c1ccc(-c2c3nc(c(-c4cc(S(=O)(=O)[O-])ccc4F)c4ccc([nH]4)c(-c4cc(S(=O)(=O)[O-])ccc4F)c4nc(c(-c5cc(S(=O)(=O)[O-])ccc5F)c5ccc2[nH]5)C=C4)C=C3)cc1
REMARK SMILES IDX 1 1 2 2 3 3 21 5 22 6 83 7 23 8 82 9 24 10 25 11 26 12 76 13
REMARK SMILES IDX 27 14 81 15 75 16 77 17 28 18 80 19 74 20 73 21 29 23 61 24
REMARK SMILES IDX 41 25 60 26 42 27 45 28 59 29 78 30 43 31 44 32 58 34 79 35
REMARK SMILES IDX 46 36 30 37 31 38 39 39 32 40 38 41 40 42 37 43 33 44 34 45
REMARK SMILES IDX 35 46 36 47 62 48 63 49 71 50 64 51 70 52 72 53 69 54 65 55
REMARK SMILES IDX 66 56 67 57 68 58 47 59 48 60 56 61 49 62 55 63 57 64 54 65
REMARK SMILES IDX 50 66 51 67 52 68 53 69 4 70 5 71 6 72 7 73 8 74 9 76 10 77
REMARK SMILES IDX 11 78 19 79 12 80 18 81 20 82 13 83 17 84 14 85 16 86 15 87
REMARK H PARENT 3 4 77 22 45 33 7 75
REMARK Flexibility Score: inf
ROOT
ATOM      1  O   UNL     1       1.268  -0.227  -0.514  1.00  0.00    -0.269 OA
ATOM      2  C   UNL     1       2.324  -0.141   0.120  1.00  0.00     0.251 C 
ATOM      3  N   UNL     1       3.317  -1.007  -0.252  1.00  0.00    -0.352 N 
ATOM      4  H   UNL     1       3.001  -1.704  -0.871  1.00  0.00     0.163 HD
ENDROOT
BRANCH   2   5
ATOM      5  C   UNL     1       2.405   0.822   1.252  1.00  0.00     0.039 A 
ATOM      6  C   UNL     1       3.580   1.280   1.848  1.00  0.00     0.014 A 
ATOM      7  C   UNL     1       1.173   1.296   1.745  1.00  0.00     0.014 A 
ATOM      8  C   UNL     1       3.526   2.127   2.955  1.00  0.00     0.010 A 
ATOM      9  C   UNL     1       1.113   2.156   2.838  1.00  0.00     0.010 A 
ATOM     10  C   UNL     1       2.293   2.558   3.458  1.00  0.00    -0.014 A 
BRANCH  10  11
ATOM     11  C   UNL     1       2.291   3.622   4.466  1.00  0.00     0.031 A 
ATOM     12  C   UNL     1       2.831   4.920   3.969  1.00  0.00     0.074 A 
ATOM     13  C   UNL     1       1.704   3.546   5.679  1.00  0.00     0.049 A 
ATOM     14  N   UNL     1       3.858   5.579   4.396  1.00  0.00    -0.248 NA
ATOM     15  C   UNL     1       2.214   5.497   2.761  1.00  0.00     0.031 C 
ATOM     16  C   UNL     1       0.892   2.448   6.204  1.00  0.00     0.029 A 
ATOM     17  N   UNL     1       1.620   4.490   6.666  1.00  0.00    -0.354 N 
ATOM     18  C   UNL     1       3.873   6.767   3.670  1.00  0.00     0.074 A 
ATOM     19  C   UNL     1       2.965   6.582   2.571  1.00  0.00     0.031 C 
ATOM     20  C   UNL     1       0.233   2.869   7.307  1.00  0.00     0.029 A 
ATOM     21  C   UNL     1       0.655   4.221   7.636  1.00  0.00     0.049 A 
ATOM     22  H   UNL     1       2.192   5.292   6.689  1.00  0.00     0.167 HD
ATOM     23  C   UNL     1       4.435   7.901   4.170  1.00  0.00     0.034 A 
ATOM     24  C   UNL     1       0.196   5.064   8.603  1.00  0.00     0.034 A 
ATOM     25  C   UNL     1       5.393   7.609   5.207  1.00  0.00     0.049 A 
ATOM     26  C   UNL     1       1.252   6.083   8.816  1.00  0.00     0.074 A 
ATOM     27  C   UNL     1       6.521   6.813   5.288  1.00  0.00     0.029 A 
ATOM     28  N   UNL     1       5.056   7.896   6.509  1.00  0.00    -0.354 N 
ATOM     29  N   UNL     1       2.438   5.817   9.293  1.00  0.00    -0.248 NA
ATOM     30  C   UNL     1       1.135   7.348   8.108  1.00  0.00     0.031 C 
ATOM     31  C   UNL     1       6.480   6.251   6.597  1.00  0.00     0.029 A 
ATOM     32  C   UNL     1       5.374   6.789   7.255  1.00  0.00     0.049 A 
ATOM     33  H   UNL     1       4.663   8.735   6.842  1.00  0.00     0.167 HD
ATOM     34  C   UNL     1       3.295   6.653   8.598  1.00  0.00     0.074 A 
ATOM     35  C   UNL     1       2.428   7.637   7.955  1.00  0.00     0.031 C 
ATOM     36  C   UNL     1       4.599   6.316   8.384  1.00  0.00     0.034 A 
BRANCH  23  37
ATOM     37  C   UNL     1       3.837   9.279   3.980  1.00  0.00     0.023 A 
ATOM     38  C   UNL     1       4.549  10.384   4.485  1.00  0.00     0.031 A 
ATOM     39  C   UNL     1       2.494   9.531   3.608  1.00  0.00     0.131 A 
ATOM     40  C   UNL     1       3.913  11.624   4.678  1.00  0.00     0.055 A 
ATOM     41  C   UNL     1       1.890  10.783   3.734  1.00  0.00     0.041 A 
ATOM     42  F   UNL     1       1.664   8.564   3.198  1.00  0.00    -0.206 F 
ATOM     43  C   UNL     1       2.589  11.832   4.300  1.00  0.00     0.022 A 
BRANCH  40  44
ATOM     44  S   UNL     1       4.799  12.916   5.586  1.00  0.00     0.124 S 
ATOM     45  O   UNL     1       5.055  12.253   6.859  1.00  0.00    -0.237 OA
ATOM     46  O   UNL     1       5.960  13.143   4.732  1.00  0.00    -0.237 OA
ATOM     47  O   UNL     1       3.838  14.016   5.633  1.00  0.00    -0.744 OA
ENDBRANCH  40  44
ENDBRANCH  23  37
BRANCH  24  48
ATOM     48  C   UNL     1      -1.191   5.208   9.146  1.00  0.00     0.023 A 
ATOM     49  C   UNL     1      -1.480   6.031  10.261  1.00  0.00     0.031 A 
ATOM     50  C   UNL     1      -2.305   4.739   8.415  1.00  0.00     0.131 A 
ATOM     51  C   UNL     1      -2.818   6.358  10.589  1.00  0.00     0.055 A 
ATOM     52  C   UNL     1      -3.625   5.056   8.750  1.00  0.00     0.041 A 
ATOM     53  F   UNL     1      -2.155   4.028   7.289  1.00  0.00    -0.206 F 
ATOM     54  C   UNL     1      -3.888   5.879   9.832  1.00  0.00     0.022 A 
BRANCH  51  55
ATOM     55  S   UNL     1      -3.193   7.532  11.934  1.00  0.00     0.124 S 
ATOM     56  O   UNL     1      -3.090   6.684  13.117  1.00  0.00    -0.237 OA
ATOM     57  O   UNL     1      -2.159   8.547  11.772  1.00  0.00    -0.237 OA
ATOM     58  O   UNL     1      -4.548   7.986  11.617  1.00  0.00    -0.744 OA
ENDBRANCH  51  55
ENDBRANCH  24  48
BRANCH  36  59
ATOM     59  C   UNL     1       5.230   5.227   9.219  1.00  0.00     0.023 A 
ATOM     60  C   UNL     1       4.849   3.867   9.210  1.00  0.00     0.031 A 
ATOM     61  C   UNL     1       6.392   5.581   9.928  1.00  0.00     0.131 A 
ATOM     62  C   UNL     1       5.637   2.917   9.893  1.00  0.00     0.055 A 
ATOM     63  C   UNL     1       7.176   4.637  10.586  1.00  0.00     0.041 A 
ATOM     64  F   UNL     1       6.817   6.856   9.943  1.00  0.00    -0.206 F 
ATOM     65  C   UNL     1       6.801   3.300  10.570  1.00  0.00     0.022 A 
BRANCH  62  66
ATOM     66  S   UNL     1       5.191   1.149   9.871  1.00  0.00     0.124 S 
ATOM     67  O   UNL     1       3.877   1.129  10.504  1.00  0.00    -0.237 OA
ATOM     68  O   UNL     1       5.226   0.822   8.448  1.00  0.00    -0.237 OA
ATOM     69  O   UNL     1       6.253   0.516  10.657  1.00  0.00    -0.744 OA
ENDBRANCH  62  66
ENDBRANCH  36  59
ENDBRANCH  10  11
ENDBRANCH   2   5
BRANCH   3  70
ATOM     70  C   UNL     1       4.729  -1.132   0.056  1.00  0.00     0.118 C 
BRANCH  70  71
ATOM     71  C   UNL     1       5.060  -1.791   1.393  1.00  0.00     0.042 C 
BRANCH  71  72
ATOM     72  C   UNL     1       4.520  -3.208   1.567  1.00  0.00     0.118 C 
BRANCH  72  73
ATOM     73  N   UNL     1       5.050  -4.150   0.593  1.00  0.00    -0.351 N 
ATOM     74  C   UNL     1       5.779  -5.306   0.790  1.00  0.00     0.273 C 
ATOM     75  H   UNL     1       4.860  -3.931  -0.347  1.00  0.00     0.163 HD
ATOM     76  O   UNL     1       6.160  -5.931  -0.194  1.00  0.00    -0.267 OA
BRANCH  74  77
ATOM     77  C   UNL     1       6.081  -5.727   2.160  1.00  0.00     0.167 A 
ATOM     78  N   UNL     1       7.355  -5.805   2.591  1.00  0.00    -0.160 NA
ATOM     79  C   UNL     1       5.187  -6.125   3.176  1.00  0.00     0.095 A 
ATOM     80  N   UNL     1       7.264  -6.155   3.896  1.00  0.00    -0.219 N 
ATOM     81  C   UNL     1       5.941  -6.339   4.303  1.00  0.00     0.170 A 
ATOM     82  Br  UNL     1       3.327  -6.304   3.020  1.00  0.00    -0.044 Br
ATOM     83  C   UNL     1       8.313  -6.341   4.789  1.00  0.00     0.132 A 
ATOM     84  N   UNL     1       5.614  -6.658   5.594  1.00  0.00    -0.235 NA
ATOM     85  C   UNL     1       8.062  -6.652   6.067  1.00  0.00     0.054 A 
ATOM     86  C   UNL     1       6.615  -6.772   6.419  1.00  0.00     0.131 A 
ATOM     87  Br  UNL     1       9.348  -6.953   7.359  1.00  0.00    -0.047 Br
ENDBRANCH  74  77
ENDBRANCH  72  73
ENDBRANCH  71  72
ENDBRANCH  70  71
ENDBRANCH   3  70
TORSDOF 13
