REMARK SMILES COc1cccc(N2CCN(c3ccc(NC(=O)c4ccc(F)cc4)c(C(=O)NCCCNC(=O)c4ccc(-c5c6nc(c(-c7cc(S(=O)(=O)[O-])ccc7F)c7ccc([nH]7)c(-c7cc(S(=O)(=O)[O-])ccc7F)c7nc(c(-c8cc(S(=O)(=O)[O-])ccc8F)c8ccc5[nH]8)C=C7)C=C6)cc4)c3)CC2)c1
REMARK SMILES IDX 31 1 30 2 29 3 27 4 28 5 26 7 12 8 13 9 99 10 14 11 15 12
REMARK SMILES IDX 11 13 8 14 9 15 101 16 10 17 100 18 7 19 3 20 4 21 102 22
REMARK SMILES IDX 5 23 6 24 2 25 1 26 16 27 17 28 18 30 19 31 20 32 25 33
REMARK SMILES IDX 21 34 24 35 22 36 23 37 32 38 33 39 34 40 35 42 36 43 37 44
REMARK SMILES IDX 98 45 38 46 97 47 39 48 40 49 41 50 91 51 42 52 96 53 90 54
REMARK SMILES IDX 92 55 43 56 95 57 89 58 88 59 44 61 76 62 56 63 75 64 57 65
REMARK SMILES IDX 60 66 74 67 93 68 58 69 59 70 73 72 94 73 61 74 45 75 46 76
REMARK SMILES IDX 54 77 47 78 53 79 55 80 52 81 48 82 49 83 50 84 51 85 77 86
REMARK SMILES IDX 78 87 86 88 79 89 85 90 87 91 84 92 80 93 81 94 82 95 83 96
REMARK SMILES IDX 62 97 63 98 71 99 64 100 70 101 72 102 69 103 65 104 66 105
REMARK SMILES IDX 67 106 68 107
REMARK H PARENT 29 6 16 29 33 41 92 60 60 71
REMARK Flexibility Score: inf
ROOT
ATOM      1  C   UNL     1       7.742  -4.861  -6.449  1.00  0.00     0.042 C 
ENDROOT
BRANCH   1   2
ATOM      2  C   UNL     1       8.456  -4.301  -5.231  1.00  0.00     0.118 C 
BRANCH   2   3
ATOM      3  N   UNL     1       9.839  -3.890  -5.456  1.00  0.00    -0.352 N 
ATOM      4  C   UNL     1      10.509  -2.687  -5.360  1.00  0.00     0.253 C 
ATOM      5  O   UNL     1      11.720  -2.695  -5.589  1.00  0.00    -0.269 OA
ATOM      6  H   UNL     1      10.420  -4.633  -5.737  1.00  0.00     0.163 HD
BRANCH   4   7
ATOM      7  C   UNL     1       9.824  -1.383  -5.101  1.00  0.00     0.065 A 
ATOM      8  C   UNL     1       7.754  -0.250  -4.422  1.00  0.00     0.038 A 
ATOM      9  C   UNL     1       8.207   0.867  -5.125  1.00  0.00     0.028 A 
ATOM     10  C   UNL     1       8.637  -1.330  -4.355  1.00  0.00     0.042 A 
ATOM     11  C   UNL     1       9.479   0.911  -5.699  1.00  0.00     0.029 A 
ATOM     12  C   UNL     1      10.340  -0.182  -5.621  1.00  0.00     0.054 A 
BRANCH   8  13
ATOM     13  N   UNL     1       6.491  -0.281  -3.865  1.00  0.00    -0.368 N 
ATOM     14  N   UNL     1       4.012  -1.722  -4.047  1.00  0.00    -0.368 N 
ATOM     15  C   UNL     1       4.402  -0.830  -5.146  1.00  0.00     0.138 C 
ATOM     16  C   UNL     1       5.114  -2.295  -3.267  1.00  0.00     0.138 C 
ATOM     17  C   UNL     1       5.342   0.286  -4.622  1.00  0.00     0.138 C 
ATOM     18  C   UNL     1       6.085  -1.197  -2.775  1.00  0.00     0.138 C 
BRANCH  14  19
ATOM     19  C   UNL     1       2.701  -1.766  -3.624  1.00  0.00     0.040 A 
ATOM     20  C   UNL     1       0.995  -1.505  -1.901  1.00  0.00     0.120 A 
ATOM     21  C   UNL     1       0.013  -1.938  -2.787  1.00  0.00     0.046 A 
ATOM     22  C   UNL     1       2.332  -1.447  -2.310  1.00  0.00     0.072 A 
ATOM     23  C   UNL     1       0.356  -2.253  -4.099  1.00  0.00     0.006 A 
ATOM     24  C   UNL     1       1.687  -2.150  -4.513  1.00  0.00     0.026 A 
BRANCH  20  25
ATOM     25  O   UNL     1       0.582  -1.219  -0.626  1.00  0.00    -0.497 OA
ATOM     26  C   UNL     1       1.094   0.014  -0.129  1.00  0.00     0.278 C 
ENDBRANCH  20  25
ENDBRANCH  14  19
ENDBRANCH   8  13
BRANCH  12  27
ATOM     27  N   UNL     1      11.702  -0.090  -6.003  1.00  0.00    -0.321 N 
ATOM     28  C   UNL     1      12.557   0.994  -6.089  1.00  0.00     0.255 C 
ATOM     29  H   UNL     1      12.113  -0.950  -6.251  1.00  0.00     0.170 HD
ATOM     30  O   UNL     1      13.686   0.879  -6.563  1.00  0.00    -0.269 OA
BRANCH  28  31
ATOM     31  C   UNL     1      12.167   2.322  -5.561  1.00  0.00     0.040 A 
ATOM     32  C   UNL     1      12.252   3.428  -6.416  1.00  0.00     0.017 A 
ATOM     33  C   UNL     1      11.678   2.475  -4.254  1.00  0.00     0.017 A 
ATOM     34  C   UNL     1      11.754   4.663  -5.999  1.00  0.00     0.040 A 
ATOM     35  C   UNL     1      11.168   3.709  -3.848  1.00  0.00     0.040 A 
ATOM     36  C   UNL     1      11.196   4.786  -4.729  1.00  0.00     0.123 A 
ATOM     37  F   UNL     1      10.668   5.958  -4.353  1.00  0.00    -0.207 F 
ENDBRANCH  28  31
ENDBRANCH  12  27
ENDBRANCH   4   7
ENDBRANCH   2   3
ENDBRANCH   1   2
BRANCH   1  38
ATOM     38  C   UNL     1       8.237  -6.223  -6.899  1.00  0.00     0.118 C 
BRANCH  38  39
ATOM     39  N   UNL     1       8.098  -7.245  -5.868  1.00  0.00    -0.352 N 
ATOM     40  C   UNL     1       7.209  -8.288  -5.736  1.00  0.00     0.251 C 
ATOM     41  H   UNL     1       8.754  -7.177  -5.137  1.00  0.00     0.163 HD
ATOM     42  O   UNL     1       7.146  -8.880  -4.664  1.00  0.00    -0.269 OA
BRANCH  40  43
ATOM     43  C   UNL     1       6.323  -8.679  -6.857  1.00  0.00     0.039 A 
ATOM     44  C   UNL     1       5.017  -9.097  -6.583  1.00  0.00     0.014 A 
ATOM     45  C   UNL     1       6.778  -8.661  -8.175  1.00  0.00     0.014 A 
ATOM     46  C   UNL     1       4.150  -9.408  -7.636  1.00  0.00     0.010 A 
ATOM     47  C   UNL     1       5.887  -8.861  -9.223  1.00  0.00     0.010 A 
ATOM     48  C   UNL     1       4.562  -9.243  -8.968  1.00  0.00    -0.014 A 
BRANCH  48  49
ATOM     49  C   UNL     1       3.640  -9.477 -10.112  1.00  0.00     0.031 A 
ATOM     50  C   UNL     1       3.977 -10.520 -11.146  1.00  0.00     0.074 A 
ATOM     51  C   UNL     1       2.546  -8.704 -10.261  1.00  0.00     0.049 A 
ATOM     52  N   UNL     1       3.374 -10.794 -12.274  1.00  0.00    -0.248 NA
ATOM     53  C   UNL     1       5.173 -11.339 -10.892  1.00  0.00     0.031 C 
ATOM     54  C   UNL     1       2.130  -7.639  -9.345  1.00  0.00     0.029 A 
ATOM     55  N   UNL     1       1.586  -8.685 -11.243  1.00  0.00    -0.354 N 
ATOM     56  C   UNL     1       4.122 -11.806 -12.867  1.00  0.00     0.074 A 
ATOM     57  C   UNL     1       5.264 -12.040 -12.011  1.00  0.00     0.031 C 
ATOM     58  C   UNL     1       0.985  -7.098  -9.788  1.00  0.00     0.029 A 
ATOM     59  C   UNL     1       0.614  -7.729 -11.050  1.00  0.00     0.049 A 
ATOM     60  H   UNL     1       1.593  -9.298 -12.013  1.00  0.00     0.167 HD
ATOM     61  C   UNL     1       3.864 -12.499 -14.005  1.00  0.00     0.034 A 
ATOM     62  C   UNL     1      -0.445  -7.389 -11.812  1.00  0.00     0.034 A 
ATOM     63  C   UNL     1       2.715 -12.260 -14.842  1.00  0.00     0.049 A 
ATOM     64  C   UNL     1      -0.681  -8.137 -13.102  1.00  0.00     0.074 A 
ATOM     65  C   UNL     1       2.336 -12.924 -15.996  1.00  0.00     0.029 A 
ATOM     66  N   UNL     1       1.759 -11.277 -14.620  1.00  0.00    -0.354 N 
ATOM     67  N   UNL     1       0.017  -9.117 -13.629  1.00  0.00    -0.248 NA
ATOM     68  C   UNL     1      -1.851  -7.739 -13.894  1.00  0.00     0.031 C 
ATOM     69  C   UNL     1       1.196 -12.297 -16.509  1.00  0.00     0.029 A 
ATOM     70  C   UNL     1       0.810 -11.298 -15.630  1.00  0.00     0.049 A 
ATOM     71  H   UNL     1       1.756 -10.656 -13.856  1.00  0.00     0.167 HD
ATOM     72  C   UNL     1      -0.656  -9.478 -14.794  1.00  0.00     0.074 A 
ATOM     73  C   UNL     1      -1.819  -8.620 -14.883  1.00  0.00     0.031 C 
ATOM     74  C   UNL     1      -0.345 -10.434 -15.706  1.00  0.00     0.034 A 
BRANCH  61  75
ATOM     75  C   UNL     1       4.854 -13.566 -14.409  1.00  0.00     0.023 A 
ATOM     76  C   UNL     1       5.107 -14.683 -13.592  1.00  0.00     0.031 A 
ATOM     77  C   UNL     1       5.573 -13.458 -15.613  1.00  0.00     0.131 A 
ATOM     78  C   UNL     1       6.107 -15.600 -13.947  1.00  0.00     0.055 A 
ATOM     79  C   UNL     1       6.503 -14.424 -16.004  1.00  0.00     0.041 A 
ATOM     80  F   UNL     1       5.393 -12.405 -16.425  1.00  0.00    -0.206 F 
ATOM     81  C   UNL     1       6.787 -15.494 -15.162  1.00  0.00     0.022 A 
BRANCH  78  82
ATOM     82  S   UNL     1       6.610 -16.844 -12.726  1.00  0.00     0.124 S 
ATOM     83  O   UNL     1       7.039 -16.003 -11.611  1.00  0.00    -0.237 OA
ATOM     84  O   UNL     1       5.380 -17.600 -12.521  1.00  0.00    -0.237 OA
ATOM     85  O   UNL     1       7.685 -17.569 -13.400  1.00  0.00    -0.744 OA
ENDBRANCH  78  82
ENDBRANCH  61  75
BRANCH  62  86
ATOM     86  C   UNL     1      -1.364  -6.289 -11.395  1.00  0.00     0.023 A 
ATOM     87  C   UNL     1      -2.722  -6.544 -11.143  1.00  0.00     0.031 A 
ATOM     88  C   UNL     1      -0.917  -4.959 -11.303  1.00  0.00     0.131 A 
ATOM     89  C   UNL     1      -3.596  -5.480 -10.874  1.00  0.00     0.055 A 
ATOM     90  C   UNL     1      -1.779  -3.912 -10.970  1.00  0.00     0.041 A 
ATOM     91  F   UNL     1       0.371  -4.656 -11.531  1.00  0.00    -0.206 F 
ATOM     92  C   UNL     1      -3.132  -4.167 -10.771  1.00  0.00     0.022 A 
BRANCH  89  93
ATOM     93  S   UNL     1      -5.375  -5.824 -10.777  1.00  0.00     0.124 S 
ATOM     94  O   UNL     1      -5.628  -6.437 -12.075  1.00  0.00    -0.237 OA
ATOM     95  O   UNL     1      -5.448  -6.712  -9.621  1.00  0.00    -0.237 OA
ATOM     96  O   UNL     1      -5.966  -4.502 -10.584  1.00  0.00    -0.744 OA
ENDBRANCH  89  93
ENDBRANCH  62  86
BRANCH  74  97
ATOM     97  C   UNL     1      -1.313 -10.641 -16.846  1.00  0.00     0.023 A 
ATOM     98  C   UNL     1      -1.530  -9.657 -17.826  1.00  0.00     0.031 A 
ATOM     99  C   UNL     1      -2.033 -11.846 -16.948  1.00  0.00     0.131 A 
ATOM    100  C   UNL     1      -2.482  -9.872 -18.833  1.00  0.00     0.055 A 
ATOM    101  C   UNL     1      -2.929 -12.081 -17.991  1.00  0.00     0.041 A 
ATOM    102  F   UNL     1      -1.869 -12.820 -16.038  1.00  0.00    -0.206 F 
ATOM    103  C   UNL     1      -3.169 -11.085 -18.933  1.00  0.00     0.022 A 
BRANCH 100 104
ATOM    104  S   UNL     1      -2.884  -8.507 -19.957  1.00  0.00     0.124 S 
ATOM    105  O   UNL     1      -3.333  -7.473 -19.030  1.00  0.00    -0.237 OA
ATOM    106  O   UNL     1      -1.606  -8.259 -20.616  1.00  0.00    -0.237 OA
ATOM    107  O   UNL     1      -3.926  -9.065 -20.816  1.00  0.00    -0.744 OA
ENDBRANCH 100 104
ENDBRANCH  74  97
ENDBRANCH  48  49
ENDBRANCH  40  43
ENDBRANCH  38  39
ENDBRANCH   1  38
TORSDOF 18
