REMARK SMILES CCC(CC)(NC(=O)c1c(C)noc1C)C(=O)NCCCNC(=O)c1ccc(-c2c3nc(c(-c4cc(S(=O)(=O)[O-])ccc4F)c4ccc([nH]4)c(-c4cc(S(=O)(=O)[O-])ccc4F)c4nc(c(-c5cc(S(=O)(=O)[O-])ccc5F)c5ccc2[nH]5)C=C4)C=C3)cc1
REMARK SMILES IDX 20 1 19 2 18 3 16 4 17 5 3 7 2 8 1 9 4 10 5 11 6 12 7 13
REMARK SMILES IDX 8 15 9 16 10 17 14 18 11 19 12 20 13 21 15 22 21 23 22 24
REMARK SMILES IDX 23 25 24 27 25 28 26 29 87 30 27 31 86 32 28 33 29 34 30 35
REMARK SMILES IDX 80 36 31 37 85 38 79 39 81 40 32 41 84 42 78 43 77 44 33 46
REMARK SMILES IDX 65 47 45 48 64 49 46 50 49 51 63 52 82 53 47 54 48 55 62 57
REMARK SMILES IDX 83 58 50 59 34 60 35 61 43 62 36 63 42 64 44 65 41 66 37 67
REMARK SMILES IDX 38 68 39 69 40 70 66 71 67 72 75 73 68 74 74 75 76 76 73 77
REMARK SMILES IDX 69 78 70 79 71 80 72 81 51 82 52 83 60 84 53 85 59 86 61 87
REMARK SMILES IDX 58 88 54 89 55 90 56 91 57 92
REMARK H PARENT 18 6 6 14 22 26 81 45 49 56
REMARK Flexibility Score: inf
ROOT
ATOM      1  C   UNL     1       2.326   4.338   4.502  1.00  0.00     0.042 C 
ENDROOT
BRANCH   1   2
ATOM      2  C   UNL     1       1.902   4.439   3.031  1.00  0.00     0.117 C 
BRANCH   2   3
ATOM      3  N   UNL     1       2.550   3.628   1.996  1.00  0.00    -0.354 N 
ATOM      4  C   UNL     1       2.240   2.432   1.377  1.00  0.00     0.245 C 
ATOM      5  O   UNL     1       2.802   2.196   0.303  1.00  0.00    -0.272 OA
ATOM      6  H   UNL     1       3.391   4.023   1.670  1.00  0.00     0.163 HD
BRANCH   4   7
ATOM      7  C   UNL     1       1.097   1.536   1.886  1.00  0.00     0.118 C 
BRANCH   7   8
ATOM      8  C   UNL     1       1.065   0.058   1.410  1.00  0.00     0.035 C 
ATOM      9  C   UNL     1       0.948  -0.223  -0.084  1.00  0.00     0.007 C 
ENDBRANCH   7   8
BRANCH   7  10
ATOM     10  C   UNL     1      -0.177   2.295   1.355  1.00  0.00     0.035 C 
ATOM     11  C   UNL     1      -1.551   1.756   1.713  1.00  0.00     0.007 C 
ENDBRANCH   7  10
BRANCH   7  12
ATOM     12  N   UNL     1       1.200   1.517   3.355  1.00  0.00    -0.337 N 
ATOM     13  C   UNL     1       2.109   1.011   4.263  1.00  0.00     0.257 C 
ATOM     14  H   UNL     1       0.443   1.971   3.792  1.00  0.00     0.164 HD
ATOM     15  O   UNL     1       1.594   0.882   5.382  1.00  0.00    -0.269 OA
BRANCH  13  16
ATOM     16  C   UNL     1       3.516   0.606   4.082  1.00  0.00     0.105 A 
ATOM     17  C   UNL     1       4.137  -0.338   5.000  1.00  0.00     0.093 A 
ATOM     18  C   UNL     1       4.628   1.012   3.338  1.00  0.00     0.146 A 
ATOM     19  C   UNL     1       3.577  -0.996   6.207  1.00  0.00     0.071 C 
ATOM     20  N   UNL     1       5.409  -0.589   4.698  1.00  0.00    -0.084 NA
ATOM     21  O   UNL     1       5.702   0.235   3.661  1.00  0.00    -0.361 OA
ATOM     22  C   UNL     1       5.081   2.056   2.397  1.00  0.00     0.092 C 
ENDBRANCH  13  16
ENDBRANCH   7  12
ENDBRANCH   4   7
ENDBRANCH   2   3
ENDBRANCH   1   2
BRANCH   1  23
ATOM     23  C   UNL     1       3.784   4.486   4.912  1.00  0.00     0.118 C 
BRANCH  23  24
ATOM     24  N   UNL     1       4.463   5.622   4.327  1.00  0.00    -0.352 N 
ATOM     25  C   UNL     1       5.365   6.481   4.908  1.00  0.00     0.251 C 
ATOM     26  H   UNL     1       4.249   5.804   3.384  1.00  0.00     0.163 HD
ATOM     27  O   UNL     1       5.788   7.431   4.250  1.00  0.00    -0.269 OA
BRANCH  25  28
ATOM     28  C   UNL     1       5.785   6.309   6.321  1.00  0.00     0.039 A 
ATOM     29  C   UNL     1       5.755   7.430   7.156  1.00  0.00     0.014 A 
ATOM     30  C   UNL     1       6.214   5.078   6.828  1.00  0.00     0.014 A 
ATOM     31  C   UNL     1       6.089   7.305   8.508  1.00  0.00     0.010 A 
ATOM     32  C   UNL     1       6.504   4.945   8.191  1.00  0.00     0.010 A 
ATOM     33  C   UNL     1       6.434   6.055   9.049  1.00  0.00    -0.014 A 
BRANCH  33  34
ATOM     34  C   UNL     1       6.685   5.911  10.511  1.00  0.00     0.031 A 
ATOM     35  C   UNL     1       8.061   5.592  11.032  1.00  0.00     0.074 A 
ATOM     36  C   UNL     1       5.661   6.053  11.377  1.00  0.00     0.049 A 
ATOM     37  N   UNL     1       8.462   5.442  12.270  1.00  0.00    -0.248 NA
ATOM     38  C   UNL     1       9.117   5.402  10.030  1.00  0.00     0.031 C 
ATOM     39  C   UNL     1       4.273   6.331  10.999  1.00  0.00     0.029 A 
ATOM     40  N   UNL     1       5.621   5.984  12.749  1.00  0.00    -0.354 N 
ATOM     41  C   UNL     1       9.819   5.141  12.198  1.00  0.00     0.074 A 
ATOM     42  C   UNL     1      10.154   5.076  10.790  1.00  0.00     0.031 C 
ATOM     43  C   UNL     1       3.526   6.433  12.111  1.00  0.00     0.029 A 
ATOM     44  C   UNL     1       4.367   6.189  13.279  1.00  0.00     0.049 A 
ATOM     45  H   UNL     1       6.416   5.804  13.301  1.00  0.00     0.167 HD
ATOM     46  C   UNL     1      10.705   4.955  13.210  1.00  0.00     0.034 A 
ATOM     47  C   UNL     1       3.938   6.175  14.557  1.00  0.00     0.034 A 
ATOM     48  C   UNL     1      10.358   5.014  14.611  1.00  0.00     0.049 A 
ATOM     49  C   UNL     1       4.934   5.927  15.663  1.00  0.00     0.074 A 
ATOM     50  C   UNL     1      11.189   4.884  15.712  1.00  0.00     0.029 A 
ATOM     51  N   UNL     1       9.075   5.203  15.109  1.00  0.00    -0.354 N 
ATOM     52  N   UNL     1       6.225   5.701  15.577  1.00  0.00    -0.248 NA
ATOM     53  C   UNL     1       4.417   5.945  17.037  1.00  0.00     0.031 C 
ATOM     54  C   UNL     1      10.401   4.923  16.868  1.00  0.00     0.029 A 
ATOM     55  C   UNL     1       9.088   5.159  16.497  1.00  0.00     0.049 A 
ATOM     56  H   UNL     1       8.272   5.348  14.558  1.00  0.00     0.167 HD
ATOM     57  C   UNL     1       6.676   5.582  16.889  1.00  0.00     0.074 A 
ATOM     58  C   UNL     1       5.524   5.777  17.744  1.00  0.00     0.031 C 
ATOM     59  C   UNL     1       7.932   5.339  17.345  1.00  0.00     0.034 A 
BRANCH  46  60
ATOM     60  C   UNL     1      12.134   4.639  12.831  1.00  0.00     0.023 A 
ATOM     61  C   UNL     1      12.929   5.556  12.120  1.00  0.00     0.031 A 
ATOM     62  C   UNL     1      12.706   3.400  13.170  1.00  0.00     0.131 A 
ATOM     63  C   UNL     1      14.220   5.193  11.706  1.00  0.00     0.055 A 
ATOM     64  C   UNL     1      14.020   3.076  12.826  1.00  0.00     0.041 A 
ATOM     65  F   UNL     1      11.993   2.477  13.835  1.00  0.00    -0.206 F 
ATOM     66  C   UNL     1      14.780   3.968  12.075  1.00  0.00     0.022 A 
BRANCH  63  67
ATOM     67  S   UNL     1      15.103   6.287  10.560  1.00  0.00     0.124 S 
ATOM     68  O   UNL     1      14.175   6.343   9.432  1.00  0.00    -0.237 OA
ATOM     69  O   UNL     1      15.240   7.513  11.336  1.00  0.00    -0.237 OA
ATOM     70  O   UNL     1      16.350   5.572  10.296  1.00  0.00    -0.744 OA
ENDBRANCH  63  67
ENDBRANCH  46  60
BRANCH  47  71
ATOM     71  C   UNL     1       2.495   6.388  14.872  1.00  0.00     0.023 A 
ATOM     72  C   UNL     1       2.070   7.502  15.613  1.00  0.00     0.031 A 
ATOM     73  C   UNL     1       1.525   5.450  14.476  1.00  0.00     0.131 A 
ATOM     74  C   UNL     1       0.719   7.627  15.975  1.00  0.00     0.055 A 
ATOM     75  C   UNL     1       0.174   5.607  14.793  1.00  0.00     0.041 A 
ATOM     76  F   UNL     1       1.877   4.368  13.764  1.00  0.00    -0.206 F 
ATOM     77  C   UNL     1      -0.233   6.694  15.558  1.00  0.00     0.022 A 
BRANCH  74  78
ATOM     78  S   UNL     1       0.235   8.987  17.074  1.00  0.00     0.124 S 
ATOM     79  O   UNL     1       1.075   8.739  18.241  1.00  0.00    -0.237 OA
ATOM     80  O   UNL     1       0.577  10.159  16.275  1.00  0.00    -0.237 OA
ATOM     81  O   UNL     1      -1.195   8.768  17.276  1.00  0.00    -0.744 OA
ENDBRANCH  74  78
ENDBRANCH  47  71
BRANCH  59  82
ATOM     82  C   UNL     1       8.127   5.316  18.843  1.00  0.00     0.023 A 
ATOM     83  C   UNL     1       7.550   4.321  19.652  1.00  0.00     0.031 A 
ATOM     84  C   UNL     1       8.890   6.317  19.471  1.00  0.00     0.131 A 
ATOM     85  C   UNL     1       7.696   4.382  21.047  1.00  0.00     0.055 A 
ATOM     86  C   UNL     1       9.083   6.338  20.853  1.00  0.00     0.041 A 
ATOM     87  F   UNL     1       9.461   7.295  18.750  1.00  0.00    -0.206 F 
ATOM     88  C   UNL     1       8.473   5.374  21.651  1.00  0.00     0.022 A 
BRANCH  85  89
ATOM     89  S   UNL     1       6.778   3.201  22.074  1.00  0.00     0.124 S 
ATOM     90  O   UNL     1       5.397   3.466  21.681  1.00  0.00    -0.237 OA
ATOM     91  O   UNL     1       7.328   1.919  21.644  1.00  0.00    -0.237 OA
ATOM     92  O   UNL     1       7.120   3.594  23.439  1.00  0.00    -0.744 OA
ENDBRANCH  85  89
ENDBRANCH  59  82
ENDBRANCH  33  34
ENDBRANCH  25  28
ENDBRANCH  23  24
ENDBRANCH   1  23
TORSDOF 17
