REMARK SMILES C[C@@H](C(=O)NCCCNC(=O)c1ccc(-c2c3nc(c(-c4cc(S(=O)(=O)[O-])ccc4F)c4ccc([nH]4)c(-c4cc(S(=O)(=O)[O-])ccc4F)c4nc(c(-c5cc(S(=O)(=O)[O-])ccc5F)c5ccc2[nH]5)C=C4)C=C3)cc1)c1ccc(-c2ccn(C(F)F)c(=O)c2)cc1
REMARK SMILES IDX 7 1 6 2 5 3 3 4 4 5 2 7 1 8 75 9 76 10 90 11 77 12 89 13
REMARK SMILES IDX 78 14 79 15 80 16 88 17 81 18 86 19 82 20 87 21 83 22 84 23
REMARK SMILES IDX 85 24 8 25 9 26 10 27 11 29 12 30 13 31 74 32 14 33 73 34
REMARK SMILES IDX 15 35 16 36 17 37 67 38 18 39 72 40 66 41 68 42 19 43 71 44
REMARK SMILES IDX 65 45 64 46 20 48 52 49 32 50 51 51 33 52 36 53 50 54 69 55
REMARK SMILES IDX 34 56 35 57 49 59 70 60 37 61 21 62 22 63 30 64 23 65 29 66
REMARK SMILES IDX 31 67 28 68 24 69 25 70 26 71 27 72 53 73 54 74 62 75 55 76
REMARK SMILES IDX 61 77 63 78 60 79 56 80 57 81 58 82 59 83 38 84 39 85 47 86
REMARK SMILES IDX 40 87 46 88 48 89 45 90 41 91 42 92 43 93 44 94
REMARK H PARENT 5 6 9 28 68 47 36 58
REMARK Flexibility Score: inf
ROOT
ATOM      1  C   UNL     1       4.324  -1.124   0.709  1.00  0.00     0.042 C 
ENDROOT
BRANCH   1   2
ATOM      2  C   UNL     1       3.379  -2.078  -0.022  1.00  0.00     0.117 C 
BRANCH   2   3
ATOM      3  N   UNL     1       2.315  -2.543   0.849  1.00  0.00    -0.356 N 
ATOM      4  C   UNL     1       1.021  -2.126   0.970  1.00  0.00     0.227 C 
ATOM      5  O   UNL     1       0.381  -2.586   1.918  1.00  0.00    -0.274 OA
ATOM      6  H   UNL     1       2.568  -3.280   1.450  1.00  0.00     0.163 HD
BRANCH   4   7
ATOM      7  C   UNL     1       0.412  -1.166  -0.072  1.00  0.00     0.105 C 
ATOM      8  C   UNL     1       0.960   0.250   0.136  1.00  0.00     0.023 C 
BRANCH   7   9
ATOM      9  C   UNL     1      -1.122  -1.229  -0.095  1.00  0.00    -0.036 A 
ATOM     10  C   UNL     1      -1.933  -0.088   0.013  1.00  0.00     0.005 A 
ATOM     11  C   UNL     1      -1.759  -2.474  -0.245  1.00  0.00     0.005 A 
ATOM     12  C   UNL     1      -3.327  -0.187  -0.009  1.00  0.00     0.009 A 
ATOM     13  C   UNL     1      -3.154  -2.576  -0.253  1.00  0.00     0.009 A 
ATOM     14  C   UNL     1      -3.946  -1.431  -0.138  1.00  0.00    -0.018 A 
BRANCH  14  15
ATOM     15  C   UNL     1      -5.413  -1.538  -0.139  1.00  0.00    -0.011 A 
ATOM     16  C   UNL     1      -6.154  -2.153   0.944  1.00  0.00     0.027 A 
ATOM     17  C   UNL     1      -6.082  -1.050  -1.198  1.00  0.00     0.080 A 
ATOM     18  C   UNL     1      -7.486  -2.252   0.883  1.00  0.00     0.095 A 
ATOM     19  C   UNL     1      -7.563  -1.147  -1.275  1.00  0.00     0.255 A 
ATOM     20  N   UNL     1      -8.187  -1.767  -0.206  1.00  0.00    -0.258 N 
ATOM     21  O   UNL     1      -8.131  -0.688  -2.266  1.00  0.00    -0.269 OA
BRANCH  20  22
ATOM     22  C   UNL     1      -9.617  -1.907  -0.276  1.00  0.00     0.451 C 
ATOM     23  F   UNL     1     -10.226  -0.701  -0.390  1.00  0.00    -0.185 F 
ATOM     24  F   UNL     1      -9.980  -2.661  -1.343  1.00  0.00    -0.185 F 
ENDBRANCH  20  22
ENDBRANCH  14  15
ENDBRANCH   7   9
ENDBRANCH   4   7
ENDBRANCH   2   3
ENDBRANCH   1   2
BRANCH   1  25
ATOM     25  C   UNL     1       5.087  -1.759   1.866  1.00  0.00     0.118 C 
BRANCH  25  26
ATOM     26  N   UNL     1       6.044  -2.754   1.417  1.00  0.00    -0.352 N 
ATOM     27  C   UNL     1       7.391  -2.848   1.656  1.00  0.00     0.251 C 
ATOM     28  H   UNL     1       5.668  -3.470   0.856  1.00  0.00     0.163 HD
ATOM     29  O   UNL     1       8.048  -3.657   1.000  1.00  0.00    -0.269 OA
BRANCH  27  30
ATOM     30  C   UNL     1       8.059  -1.990   2.664  1.00  0.00     0.039 A 
ATOM     31  C   UNL     1       9.359  -1.546   2.404  1.00  0.00     0.014 A 
ATOM     32  C   UNL     1       7.452  -1.674   3.884  1.00  0.00     0.014 A 
ATOM     33  C   UNL     1      10.036  -0.771   3.350  1.00  0.00     0.010 A 
ATOM     34  C   UNL     1       8.098  -0.834   4.792  1.00  0.00     0.010 A 
ATOM     35  C   UNL     1       9.408  -0.397   4.548  1.00  0.00    -0.014 A 
BRANCH  35  36
ATOM     36  C   UNL     1      10.137   0.391   5.577  1.00  0.00     0.031 A 
ATOM     37  C   UNL     1      10.436  -0.221   6.921  1.00  0.00     0.074 A 
ATOM     38  C   UNL     1      10.507   1.660   5.317  1.00  0.00     0.049 A 
ATOM     39  N   UNL     1      11.028   0.307   7.962  1.00  0.00    -0.248 NA
ATOM     40  C   UNL     1       9.976  -1.602   7.131  1.00  0.00     0.031 C 
ATOM     41  C   UNL     1      10.234   2.380   4.072  1.00  0.00     0.029 A 
ATOM     42  N   UNL     1      11.188   2.571   6.085  1.00  0.00    -0.354 N 
ATOM     43  C   UNL     1      11.004  -0.672   8.951  1.00  0.00     0.074 A 
ATOM     44  C   UNL     1      10.268  -1.793   8.407  1.00  0.00     0.031 C 
ATOM     45  C   UNL     1      10.761   3.613   4.153  1.00  0.00     0.029 A 
ATOM     46  C   UNL     1      11.379   3.784   5.465  1.00  0.00     0.049 A 
ATOM     47  H   UNL     1      11.509   2.375   6.995  1.00  0.00     0.167 HD
ATOM     48  C   UNL     1      11.570  -0.653  10.185  1.00  0.00     0.034 A 
ATOM     49  C   UNL     1      11.981   4.907   5.904  1.00  0.00     0.034 A 
ATOM     50  C   UNL     1      12.306   0.471  10.710  1.00  0.00     0.049 A 
ATOM     51  C   UNL     1      12.610   4.908   7.274  1.00  0.00     0.074 A 
ATOM     52  C   UNL     1      12.942   0.595  11.934  1.00  0.00     0.029 A 
ATOM     53  N   UNL     1      12.507   1.672  10.039  1.00  0.00    -0.354 N 
ATOM     54  N   UNL     1      12.614   3.959   8.182  1.00  0.00    -0.248 NA
ATOM     55  C   UNL     1      13.336   6.121   7.666  1.00  0.00     0.031 C 
ATOM     56  C   UNL     1      13.476   1.886  12.025  1.00  0.00     0.029 A 
ATOM     57  C   UNL     1      13.241   2.545  10.828  1.00  0.00     0.049 A 
ATOM     58  H   UNL     1      12.175   1.874   9.134  1.00  0.00     0.167 HD
ATOM     59  C   UNL     1      13.371   4.452   9.242  1.00  0.00     0.074 A 
ATOM     60  C   UNL     1      13.819   5.773   8.850  1.00  0.00     0.031 C 
ATOM     61  C   UNL     1      13.673   3.865  10.429  1.00  0.00     0.034 A 
BRANCH  48  62
ATOM     62  C   UNL     1      11.386  -1.884  11.045  1.00  0.00     0.023 A 
ATOM     63  C   UNL     1      11.869  -3.143  10.641  1.00  0.00     0.031 A 
ATOM     64  C   UNL     1      10.672  -1.816  12.254  1.00  0.00     0.131 A 
ATOM     65  C   UNL     1      11.549  -4.290  11.382  1.00  0.00     0.055 A 
ATOM     66  C   UNL     1      10.438  -2.950  13.037  1.00  0.00     0.041 A 
ATOM     67  F   UNL     1      10.168  -0.650  12.687  1.00  0.00    -0.206 F 
ATOM     68  C   UNL     1      10.859  -4.199  12.592  1.00  0.00     0.022 A 
BRANCH  65  69
ATOM     69  S   UNL     1      11.896  -5.914  10.652  1.00  0.00     0.124 S 
ATOM     70  O   UNL     1      11.127  -5.848   9.411  1.00  0.00    -0.237 OA
ATOM     71  O   UNL     1      13.346  -5.892  10.507  1.00  0.00    -0.237 OA
ATOM     72  O   UNL     1      11.380  -6.854  11.645  1.00  0.00    -0.744 OA
ENDBRANCH  65  69
ENDBRANCH  48  62
BRANCH  49  73
ATOM     73  C   UNL     1      12.023   6.121   5.041  1.00  0.00     0.023 A 
ATOM     74  C   UNL     1      13.235   6.610   4.529  1.00  0.00     0.031 A 
ATOM     75  C   UNL     1      10.845   6.826   4.735  1.00  0.00     0.131 A 
ATOM     76  C   UNL     1      13.248   7.794   3.775  1.00  0.00     0.055 A 
ATOM     77  C   UNL     1      10.857   7.975   3.944  1.00  0.00     0.041 A 
ATOM     78  F   UNL     1       9.658   6.394   5.191  1.00  0.00    -0.206 F 
ATOM     79  C   UNL     1      12.067   8.473   3.469  1.00  0.00     0.022 A 
BRANCH  76  80
ATOM     80  S   UNL     1      14.847   8.475   3.255  1.00  0.00     0.124 S 
ATOM     81  O   UNL     1      15.518   8.672   4.535  1.00  0.00    -0.237 OA
ATOM     82  O   UNL     1      15.372   7.405   2.413  1.00  0.00    -0.237 OA
ATOM     83  O   UNL     1      14.480   9.699   2.545  1.00  0.00    -0.744 OA
ENDBRANCH  76  80
ENDBRANCH  49  73
BRANCH  61  84
ATOM     84  C   UNL     1      14.574   4.636  11.364  1.00  0.00     0.023 A 
ATOM     85  C   UNL     1      14.169   5.845  11.957  1.00  0.00     0.031 A 
ATOM     86  C   UNL     1      15.869   4.164  11.643  1.00  0.00     0.131 A 
ATOM     87  C   UNL     1      15.072   6.573  12.746  1.00  0.00     0.055 A 
ATOM     88  C   UNL     1      16.741   4.862  12.480  1.00  0.00     0.041 A 
ATOM     89  F   UNL     1      16.310   3.016  11.103  1.00  0.00    -0.206 F 
ATOM     90  C   UNL     1      16.351   6.082  13.023  1.00  0.00     0.022 A 
BRANCH  87  91
ATOM     91  S   UNL     1      14.594   8.228  13.314  1.00  0.00     0.124 S 
ATOM     92  O   UNL     1      14.268   8.899  12.059  1.00  0.00    -0.237 OA
ATOM     93  O   UNL     1      13.466   7.941  14.195  1.00  0.00    -0.237 OA
ATOM     94  O   UNL     1      15.795   8.721  13.986  1.00  0.00    -0.744 OA
ENDBRANCH  87  91
ENDBRANCH  61  84
ENDBRANCH  35  36
ENDBRANCH  27  30
ENDBRANCH  25  26
ENDBRANCH   1  25
TORSDOF 16
