REMARK SMILES COc1c(C(=O)NCCCNC(=O)c2ccc(-c3c4nc(c(-c5cc(S(=O)(=O)[O-])ccc5F)c5ccc([nH]5)c(-c5cc(S(=O)(=O)[O-])ccc5F)c5nc(c(-c6cc(S(=O)(=O)[O-])ccc6F)c6ccc3[nH]6)C=C5)C=C4)cc2)cccc1-c1cc(C)ccc1C
REMARK SMILES IDX 10 1 9 2 8 3 7 4 5 5 6 6 4 8 3 9 80 10 77 11 79 12 78 13
REMARK SMILES IDX 2 14 1 15 81 16 82 17 87 18 83 19 86 20 88 21 84 22 85 23
REMARK SMILES IDX 11 24 12 25 13 27 14 28 15 29 76 30 16 31 75 32 17 33 18 34
REMARK SMILES IDX 19 35 69 36 20 37 74 38 68 39 70 40 21 41 73 42 67 43 66 44
REMARK SMILES IDX 22 46 54 47 34 48 53 49 35 50 38 51 52 52 71 53 36 54 37 55
REMARK SMILES IDX 51 57 72 58 39 59 23 60 24 61 32 62 25 63 31 64 33 65 30 66
REMARK SMILES IDX 26 67 27 68 28 69 29 70 55 71 56 72 64 73 57 74 63 75 65 76
REMARK SMILES IDX 62 77 58 78 59 79 60 80 61 81 40 82 41 83 49 84 42 85 48 86
REMARK SMILES IDX 50 87 47 88 43 89 44 90 45 91 46 92
REMARK H PARENT 7 7 11 26 70 45 38 56
REMARK Flexibility Score: inf
ROOT
ATOM      1  C   UNL     1      -3.806  -0.660   0.508  1.00  0.00     0.118 C 
ENDROOT
BRANCH   1   2
ATOM      2  C   UNL     1      -2.494  -0.361   1.191  1.00  0.00     0.042 C 
BRANCH   2   3
ATOM      3  C   UNL     1      -1.671   0.719   0.542  1.00  0.00     0.118 C 
BRANCH   3   4
ATOM      4  N   UNL     1      -2.175   2.056   0.476  1.00  0.00    -0.352 N 
ATOM      5  C   UNL     1      -1.413   3.204   0.418  1.00  0.00     0.255 C 
ATOM      6  O   UNL     1      -2.002   4.261   0.179  1.00  0.00    -0.269 OA
ATOM      7  H   UNL     1      -3.153   2.167   0.472  1.00  0.00     0.163 HD
BRANCH   5   8
ATOM      8  C   UNL     1       0.052   3.252   0.767  1.00  0.00     0.082 A 
ATOM      9  C   UNL     1       1.084   2.337   0.420  1.00  0.00     0.139 A 
ATOM     10  C   UNL     1       2.417   2.563   0.873  1.00  0.00     0.025 A 
ATOM     11  C   UNL     1       0.381   4.382   1.546  1.00  0.00     0.018 A 
ATOM     12  C   UNL     1       2.682   3.710   1.650  1.00  0.00     0.012 A 
ATOM     13  C   UNL     1       1.681   4.614   1.980  1.00  0.00     0.002 A 
BRANCH   9  14
ATOM     14  O   UNL     1       0.806   1.307  -0.458  1.00  0.00    -0.495 OA
ATOM     15  C   UNL     1       1.170  -0.017  -0.016  1.00  0.00     0.278 C 
ENDBRANCH   9  14
BRANCH  10  16
ATOM     16  C   UNL     1       3.539   1.627   0.629  1.00  0.00    -0.011 A 
ATOM     17  C   UNL     1       4.110   0.988   1.754  1.00  0.00     0.012 A 
ATOM     18  C   UNL     1       4.002   1.264  -0.655  1.00  0.00    -0.043 A 
ATOM     19  C   UNL     1       5.059  -0.033   1.629  1.00  0.00    -0.050 A 
ATOM     20  C   UNL     1       4.929   0.211  -0.774  1.00  0.00     0.004 A 
ATOM     21  C   UNL     1       3.442   1.847  -1.927  1.00  0.00     0.045 C 
ATOM     22  C   UNL     1       5.614  -0.691   2.857  1.00  0.00     0.044 C 
ATOM     23  C   UNL     1       5.444  -0.435   0.352  1.00  0.00     0.004 A 
ENDBRANCH  10  16
ENDBRANCH   5   8
ENDBRANCH   3   4
ENDBRANCH   2   3
ENDBRANCH   1   2
BRANCH   1  24
ATOM     24  N   UNL     1      -3.666  -1.229  -0.827  1.00  0.00    -0.352 N 
ATOM     25  C   UNL     1      -3.777  -2.512  -1.322  1.00  0.00     0.251 C 
ATOM     26  H   UNL     1      -3.446  -0.561  -1.517  1.00  0.00     0.163 HD
ATOM     27  O   UNL     1      -3.497  -2.706  -2.500  1.00  0.00    -0.269 OA
BRANCH  25  28
ATOM     28  C   UNL     1      -4.175  -3.658  -0.463  1.00  0.00     0.039 A 
ATOM     29  C   UNL     1      -3.710  -4.941  -0.777  1.00  0.00     0.014 A 
ATOM     30  C   UNL     1      -5.022  -3.507   0.628  1.00  0.00     0.014 A 
ATOM     31  C   UNL     1      -4.048  -6.029   0.037  1.00  0.00     0.010 A 
ATOM     32  C   UNL     1      -5.200  -4.541   1.536  1.00  0.00     0.010 A 
ATOM     33  C   UNL     1      -4.767  -5.832   1.227  1.00  0.00    -0.014 A 
BRANCH  33  34
ATOM     34  C   UNL     1      -5.165  -6.963   2.109  1.00  0.00     0.031 A 
ATOM     35  C   UNL     1      -6.627  -7.192   2.420  1.00  0.00     0.074 A 
ATOM     36  C   UNL     1      -4.222  -7.750   2.664  1.00  0.00     0.049 A 
ATOM     37  N   UNL     1      -7.180  -8.082   3.205  1.00  0.00    -0.248 NA
ATOM     38  C   UNL     1      -7.595  -6.268   1.805  1.00  0.00     0.031 C 
ATOM     39  C   UNL     1      -2.776  -7.590   2.492  1.00  0.00     0.029 A 
ATOM     40  N   UNL     1      -4.337  -8.846   3.481  1.00  0.00    -0.354 N 
ATOM     41  C   UNL     1      -8.545  -7.805   3.192  1.00  0.00     0.074 A 
ATOM     42  C   UNL     1      -8.722  -6.607   2.406  1.00  0.00     0.031 C 
ATOM     43  C   UNL     1      -2.143  -8.585   3.135  1.00  0.00     0.029 A 
ATOM     44  C   UNL     1      -3.131  -9.423   3.807  1.00  0.00     0.049 A 
ATOM     45  H   UNL     1      -5.201  -9.187   3.805  1.00  0.00     0.167 HD
ATOM     46  C   UNL     1      -9.565  -8.507   3.744  1.00  0.00     0.034 A 
ATOM     47  C   UNL     1      -2.854 -10.507   4.558  1.00  0.00     0.034 A 
ATOM     48  C   UNL     1      -9.372  -9.720   4.497  1.00  0.00     0.049 A 
ATOM     49  C   UNL     1      -4.003 -11.280   5.156  1.00  0.00     0.074 A 
ATOM     50  C   UNL     1     -10.327 -10.547   5.063  1.00  0.00     0.029 A 
ATOM     51  N   UNL     1      -8.136 -10.284   4.788  1.00  0.00    -0.354 N 
ATOM     52  N   UNL     1      -5.293 -11.034   5.088  1.00  0.00    -0.248 NA
ATOM     53  C   UNL     1      -3.659 -12.489   5.912  1.00  0.00     0.031 C 
ATOM     54  C   UNL     1      -9.666 -11.567   5.755  1.00  0.00     0.029 A 
ATOM     55  C   UNL     1      -8.303 -11.433   5.545  1.00  0.00     0.049 A 
ATOM     56  H   UNL     1      -7.268  -9.920   4.500  1.00  0.00     0.167 HD
ATOM     57  C   UNL     1      -5.914 -12.085   5.758  1.00  0.00     0.074 A 
ATOM     58  C   UNL     1      -4.858 -12.972   6.202  1.00  0.00     0.031 C 
ATOM     59  C   UNL     1      -7.237 -12.303   5.983  1.00  0.00     0.034 A 
BRANCH  46  60
ATOM     60  C   UNL     1     -10.966  -7.966   3.557  1.00  0.00     0.023 A 
ATOM     61  C   UNL     1     -11.532  -7.797   2.280  1.00  0.00     0.031 A 
ATOM     62  C   UNL     1     -11.733  -7.575   4.668  1.00  0.00     0.131 A 
ATOM     63  C   UNL     1     -12.780  -7.170   2.141  1.00  0.00     0.055 A 
ATOM     64  C   UNL     1     -13.016  -7.040   4.527  1.00  0.00     0.041 A 
ATOM     65  F   UNL     1     -11.243  -7.687   5.913  1.00  0.00    -0.206 F 
ATOM     66  C   UNL     1     -13.540  -6.817   3.257  1.00  0.00     0.022 A 
BRANCH  63  67
ATOM     67  S   UNL     1     -13.319  -6.673   0.481  1.00  0.00     0.124 S 
ATOM     68  O   UNL     1     -12.235  -5.781   0.075  1.00  0.00    -0.237 OA
ATOM     69  O   UNL     1     -13.395  -7.948  -0.222  1.00  0.00    -0.237 OA
ATOM     70  O   UNL     1     -14.601  -6.013   0.720  1.00  0.00    -0.744 OA
ENDBRANCH  63  67
ENDBRANCH  46  60
BRANCH  47  71
ATOM     71  C   UNL     1      -1.443 -10.942   4.774  1.00  0.00     0.023 A 
ATOM     72  C   UNL     1      -0.988 -12.187   4.308  1.00  0.00     0.031 A 
ATOM     73  C   UNL     1      -0.539 -10.140   5.493  1.00  0.00     0.131 A 
ATOM     74  C   UNL     1       0.313 -12.617   4.614  1.00  0.00     0.055 A 
ATOM     75  C   UNL     1       0.773 -10.546   5.741  1.00  0.00     0.041 A 
ATOM     76  F   UNL     1      -0.917  -8.938   5.956  1.00  0.00    -0.206 F 
ATOM     77  C   UNL     1       1.201 -11.799   5.315  1.00  0.00     0.022 A 
BRANCH  74  78
ATOM     78  S   UNL     1       0.796 -14.308   4.168  1.00  0.00     0.124 S 
ATOM     79  O   UNL     1      -0.216 -15.098   4.859  1.00  0.00    -0.237 OA
ATOM     80  O   UNL     1       0.702 -14.275   2.712  1.00  0.00    -0.237 OA
ATOM     81  O   UNL     1       2.152 -14.425   4.700  1.00  0.00    -0.744 OA
ENDBRANCH  74  78
ENDBRANCH  47  71
BRANCH  59  82
ATOM     82  C   UNL     1      -7.608 -13.587   6.688  1.00  0.00     0.023 A 
ATOM     83  C   UNL     1      -7.201 -13.856   8.006  1.00  0.00     0.031 A 
ATOM     84  C   UNL     1      -8.353 -14.571   6.013  1.00  0.00     0.131 A 
ATOM     85  C   UNL     1      -7.464 -15.111   8.575  1.00  0.00     0.055 A 
ATOM     86  C   UNL     1      -8.683 -15.786   6.614  1.00  0.00     0.041 A 
ATOM     87  F   UNL     1      -8.769 -14.370   4.752  1.00  0.00    -0.206 F 
ATOM     88  C   UNL     1      -8.220 -16.070   7.895  1.00  0.00     0.022 A 
BRANCH  85  89
ATOM     89  S   UNL     1      -6.682 -15.525  10.158  1.00  0.00     0.124 S 
ATOM     90  O   UNL     1      -5.271 -15.291   9.868  1.00  0.00    -0.237 OA
ATOM     91  O   UNL     1      -7.311 -14.578  11.073  1.00  0.00    -0.237 OA
ATOM     92  O   UNL     1      -7.048 -16.925  10.365  1.00  0.00    -0.744 OA
ENDBRANCH  85  89
ENDBRANCH  59  82
ENDBRANCH  33  34
ENDBRANCH  25  28
ENDBRANCH   1  24
TORSDOF 15
