REMARK SMILES Cc1c(CC(=O)NCCCNC(=O)c2ccc(-c3c4nc(c(-c5cc(S(=O)(=O)[O-])ccc5F)c5ccc([nH]5)c(-c5cc(S(=O)(=O)[O-])ccc5F)c5nc(c(-c6cc(S(=O)(=O)[O-])ccc6F)c6ccc3[nH]6)C=C5)C=C4)cc2)c2cc(O)ccc2n1C(=O)c1ccc(Cl)cc1
REMARK SMILES IDX 9 1 8 2 7 3 5 4 6 5 4 7 3 8 1 9 2 10 84 11 77 12 83 13 78 14
REMARK SMILES IDX 82 15 79 16 81 17 85 18 86 19 87 20 88 21 93 22 89 23 92 24
REMARK SMILES IDX 90 25 91 26 80 27 10 29 11 30 12 31 13 33 14 34 15 35 76 36
REMARK SMILES IDX 16 37 75 38 17 39 18 40 19 41 69 42 20 43 74 44 68 45 70 46
REMARK SMILES IDX 21 47 73 48 67 49 66 50 22 52 54 53 34 54 53 55 35 56 38 57
REMARK SMILES IDX 52 58 71 59 36 60 37 61 51 63 72 64 39 65 23 66 24 67 32 68
REMARK SMILES IDX 25 69 31 70 33 71 30 72 26 73 27 74 28 75 29 76 55 77 56 78
REMARK SMILES IDX 64 79 57 80 63 81 65 82 62 83 58 84 59 85 60 86 61 87 40 88
REMARK SMILES IDX 41 89 49 90 42 91 48 92 50 93 47 94 43 95 44 96 45 97 46 98
REMARK H PARENT 7 6 80 28 11 32 70 51 38 62
REMARK Flexibility Score: inf
ROOT
ATOM      1  C   UNL     1       3.816  -0.562   2.730  1.00  0.00     0.042 C 
ENDROOT
BRANCH   1   2
ATOM      2  C   UNL     1       3.558  -1.680   1.715  1.00  0.00     0.117 C 
BRANCH   2   3
ATOM      3  N   UNL     1       3.036  -2.891   2.328  1.00  0.00    -0.356 N 
ATOM      4  C   UNL     1       1.781  -3.424   2.263  1.00  0.00     0.224 C 
ATOM      5  O   UNL     1       1.573  -4.498   2.835  1.00  0.00    -0.275 OA
ATOM      6  H   UNL     1       3.682  -3.401   2.869  1.00  0.00     0.163 HD
BRANCH   4   7
ATOM      7  C   UNL     1       0.693  -2.740   1.451  1.00  0.00     0.138 C 
BRANCH   7   8
ATOM      8  C   UNL     1       0.288  -1.404   2.004  1.00  0.00    -0.009 A 
ATOM      9  C   UNL     1       0.630   0.080  -0.099  1.00  0.00     0.065 C 
ATOM     10  C   UNL     1       0.285  -0.188   1.335  1.00  0.00     0.028 A 
ATOM     11  N   UNL     1      -0.048   0.832   2.242  1.00  0.00    -0.280 N 
ATOM     12  C   UNL     1      -0.213  -1.162   3.313  1.00  0.00     0.008 A 
ATOM     13  C   UNL     1      -0.488   0.208   3.424  1.00  0.00     0.057 A 
ATOM     14  C   UNL     1      -0.474  -2.016   4.410  1.00  0.00     0.056 A 
ATOM     15  C   UNL     1      -1.091   0.707   4.599  1.00  0.00     0.031 A 
ATOM     16  C   UNL     1      -1.000  -1.492   5.584  1.00  0.00     0.116 A 
ATOM     17  C   UNL     1      -1.317  -0.150   5.682  1.00  0.00     0.048 A 
BRANCH  11  18
ATOM     18  C   UNL     1       0.050   2.230   1.976  1.00  0.00     0.262 C 
ATOM     19  O   UNL     1       0.442   2.583   0.861  1.00  0.00    -0.268 OA
BRANCH  18  20
ATOM     20  C   UNL     1      -0.295   3.321   2.902  1.00  0.00     0.040 A 
ATOM     21  C   UNL     1       0.386   3.498   4.111  1.00  0.00     0.015 A 
ATOM     22  C   UNL     1      -1.324   4.195   2.530  1.00  0.00     0.015 A 
ATOM     23  C   UNL     1      -0.045   4.488   4.999  1.00  0.00     0.021 A 
ATOM     24  C   UNL     1      -1.738   5.192   3.413  1.00  0.00     0.021 A 
ATOM     25  C   UNL     1      -1.116   5.317   4.655  1.00  0.00     0.041 A 
ATOM     26  Cl  UNL     1      -1.697   6.474   5.787  1.00  0.00    -0.084 Cl
ENDBRANCH  18  20
ENDBRANCH  11  18
BRANCH  16  27
ATOM     27  O   UNL     1      -1.208  -2.348   6.626  1.00  0.00    -0.508 OA
ATOM     28  H   UNL     1      -0.987  -3.254   6.540  1.00  0.00     0.293 HD
ENDBRANCH  16  27
ENDBRANCH   7   8
ENDBRANCH   4   7
ENDBRANCH   2   3
ENDBRANCH   1   2
BRANCH   1  29
ATOM     29  C   UNL     1       4.918  -0.889   3.739  1.00  0.00     0.118 C 
BRANCH  29  30
ATOM     30  N   UNL     1       6.177  -1.261   3.124  1.00  0.00    -0.352 N 
ATOM     31  C   UNL     1       7.313  -0.614   2.731  1.00  0.00     0.251 C 
ATOM     32  H   UNL     1       6.225  -2.228   2.945  1.00  0.00     0.163 HD
ATOM     33  O   UNL     1       8.211  -1.353   2.314  1.00  0.00    -0.269 OA
BRANCH  31  34
ATOM     34  C   UNL     1       7.527   0.859   2.706  1.00  0.00     0.039 A 
ATOM     35  C   UNL     1       6.625   1.830   3.140  1.00  0.00     0.014 A 
ATOM     36  C   UNL     1       8.742   1.283   2.129  1.00  0.00     0.014 A 
ATOM     37  C   UNL     1       6.890   3.182   2.913  1.00  0.00     0.010 A 
ATOM     38  C   UNL     1       9.014   2.629   1.909  1.00  0.00     0.010 A 
ATOM     39  C   UNL     1       8.060   3.578   2.251  1.00  0.00    -0.014 A 
BRANCH  39  40
ATOM     40  C   UNL     1       8.284   5.005   2.016  1.00  0.00     0.031 A 
ATOM     41  C   UNL     1       8.378   5.830   3.255  1.00  0.00     0.074 A 
ATOM     42  C   UNL     1       8.505   5.545   0.798  1.00  0.00     0.049 A 
ATOM     43  N   UNL     1       7.563   6.744   3.672  1.00  0.00    -0.248 NA
ATOM     44  C   UNL     1       9.438   5.492   4.217  1.00  0.00     0.031 C 
ATOM     45  C   UNL     1       8.758   4.852  -0.469  1.00  0.00     0.029 A 
ATOM     46  N   UNL     1       8.640   6.858   0.453  1.00  0.00    -0.354 N 
ATOM     47  C   UNL     1       8.111   7.240   4.857  1.00  0.00     0.074 A 
ATOM     48  C   UNL     1       9.165   6.327   5.220  1.00  0.00     0.031 C 
ATOM     49  C   UNL     1       9.243   5.734  -1.375  1.00  0.00     0.029 A 
ATOM     50  C   UNL     1       9.181   7.071  -0.809  1.00  0.00     0.049 A 
ATOM     51  H   UNL     1       8.375   7.595   1.050  1.00  0.00     0.167 HD
ATOM     52  C   UNL     1       7.782   8.472   5.346  1.00  0.00     0.034 A 
ATOM     53  C   UNL     1       9.601   8.251  -1.334  1.00  0.00     0.034 A 
ATOM     54  C   UNL     1       6.595   8.980   4.716  1.00  0.00     0.049 A 
ATOM     55  C   UNL     1       8.991   9.348  -0.547  1.00  0.00     0.074 A 
ATOM     56  C   UNL     1       5.271   8.596   4.678  1.00  0.00     0.029 A 
ATOM     57  N   UNL     1       6.758   9.874   3.687  1.00  0.00    -0.354 N 
ATOM     58  N   UNL     1       7.722   9.639  -0.561  1.00  0.00    -0.248 NA
ATOM     59  C   UNL     1       9.737   9.840   0.600  1.00  0.00     0.031 C 
ATOM     60  C   UNL     1       4.839   8.902   3.357  1.00  0.00     0.029 A 
ATOM     61  C   UNL     1       5.898   9.514   2.684  1.00  0.00     0.049 A 
ATOM     62  H   UNL     1       7.381  10.637   3.673  1.00  0.00     0.167 HD
ATOM     63  C   UNL     1       7.422   9.922   0.762  1.00  0.00     0.074 A 
ATOM     64  C   UNL     1       8.717  10.126   1.410  1.00  0.00     0.031 C 
ATOM     65  C   UNL     1       6.179   9.686   1.273  1.00  0.00     0.034 A 
BRANCH  52  66
ATOM     66  C   UNL     1       8.717   9.357   6.141  1.00  0.00     0.023 A 
ATOM     67  C   UNL     1      10.088   9.081   6.296  1.00  0.00     0.031 A 
ATOM     68  C   UNL     1       8.300  10.637   6.567  1.00  0.00     0.131 A 
ATOM     69  C   UNL     1      10.974  10.023   6.838  1.00  0.00     0.055 A 
ATOM     70  C   UNL     1       9.196  11.603   7.046  1.00  0.00     0.041 A 
ATOM     71  F   UNL     1       7.016  11.014   6.473  1.00  0.00    -0.206 F 
ATOM     72  C   UNL     1      10.543  11.299   7.180  1.00  0.00     0.022 A 
BRANCH  69  73
ATOM     73  S   UNL     1      12.720   9.599   7.087  1.00  0.00     0.124 S 
ATOM     74  O   UNL     1      13.392  10.588   6.253  1.00  0.00    -0.237 OA
ATOM     75  O   UNL     1      12.864   9.783   8.529  1.00  0.00    -0.237 OA
ATOM     76  O   UNL     1      12.803   8.215   6.630  1.00  0.00    -0.744 OA
ENDBRANCH  69  73
ENDBRANCH  52  66
BRANCH  53  77
ATOM     77  C   UNL     1      10.848   8.480  -2.107  1.00  0.00     0.023 A 
ATOM     78  C   UNL     1      11.967   7.663  -1.865  1.00  0.00     0.031 A 
ATOM     79  C   UNL     1      11.064   9.682  -2.805  1.00  0.00     0.131 A 
ATOM     80  C   UNL     1      13.248   8.077  -2.253  1.00  0.00     0.055 A 
ATOM     81  C   UNL     1      12.343  10.084  -3.214  1.00  0.00     0.041 A 
ATOM     82  F   UNL     1      10.049  10.530  -3.034  1.00  0.00    -0.206 F 
ATOM     83  C   UNL     1      13.446   9.286  -2.922  1.00  0.00     0.022 A 
BRANCH  80  84
ATOM     84  S   UNL     1      14.703   7.096  -1.795  1.00  0.00     0.124 S 
ATOM     85  O   UNL     1      15.426   7.008  -3.062  1.00  0.00    -0.237 OA
ATOM     86  O   UNL     1      15.319   7.940  -0.777  1.00  0.00    -0.237 OA
ATOM     87  O   UNL     1      14.132   5.839  -1.321  1.00  0.00    -0.744 OA
ENDBRANCH  80  84
ENDBRANCH  53  77
BRANCH  65  88
ATOM     88  C   UNL     1       5.050   9.337   0.328  1.00  0.00     0.023 A 
ATOM     89  C   UNL     1       3.841  10.034   0.500  1.00  0.00     0.031 A 
ATOM     90  C   UNL     1       5.039   8.225  -0.536  1.00  0.00     0.131 A 
ATOM     91  C   UNL     1       2.669   9.588  -0.120  1.00  0.00     0.055 A 
ATOM     92  C   UNL     1       3.882   7.828  -1.216  1.00  0.00     0.041 A 
ATOM     93  F   UNL     1       6.113   7.437  -0.680  1.00  0.00    -0.206 F 
ATOM     94  C   UNL     1       2.684   8.498  -0.993  1.00  0.00     0.022 A 
BRANCH  91  95
ATOM     95  S   UNL     1       1.071  10.308   0.336  1.00  0.00     0.124 S 
ATOM     96  O   UNL     1       0.639  10.919  -0.918  1.00  0.00    -0.237 OA
ATOM     97  O   UNL     1       0.308   9.135   0.756  1.00  0.00    -0.237 OA
ATOM     98  O   UNL     1       1.398  11.245   1.407  1.00  0.00    -0.744 OA
ENDBRANCH  91  95
ENDBRANCH  65  88
ENDBRANCH  39  40
ENDBRANCH  31  34
ENDBRANCH  29  30
ENDBRANCH   1  29
TORSDOF 17
