REMARK SMILES CC1(C)C(NC(=O)[C@@H]2CCC[C@@H](C(=O)NCCCNC(=O)c3ccc(-c4c5nc(c(-c6cc(S(=O)(=O)[O-])ccc6F)c6ccc([nH]6)c(-c6cc(S(=O)(=O)[O-])ccc6F)c6nc(c(-c7cc(S(=O)(=O)[O-])ccc7F)c7ccc4[nH]7)C=C6)C=C5)cc3)C2)C1(C)C
REMARK SMILES IDX 17 1 16 2 15 3 13 4 14 5 12 7 8 8 9 9 85 10 10 11 11 12 6 13
REMARK SMILES IDX 5 14 7 16 4 17 1 18 2 19 3 20 86 21 87 22 88 23 18 24 19 25
REMARK SMILES IDX 20 26 21 28 22 29 23 30 84 31 24 32 83 33 25 34 26 35 27 36
REMARK SMILES IDX 77 37 28 38 82 39 76 40 78 41 29 42 81 43 75 44 74 45 30 47
REMARK SMILES IDX 62 48 42 49 61 50 43 51 46 52 60 53 79 54 44 55 45 56 59 58
REMARK SMILES IDX 80 59 47 60 31 61 32 62 40 63 33 64 39 65 41 66 38 67 34 68
REMARK SMILES IDX 35 69 36 70 37 71 63 72 64 73 72 74 65 75 71 76 73 77 70 78
REMARK SMILES IDX 66 79 67 80 68 81 69 82 48 83 49 84 57 85 50 86 56 87 58 88
REMARK SMILES IDX 55 89 51 90 52 91 53 92 54 93
REMARK H PARENT 15 6 5 15 19 27 78 46 46 57
REMARK Flexibility Score: inf
ROOT
ATOM      1  C   UNL     1       4.501   6.993   6.359  1.00  0.00     0.042 C 
ENDROOT
BRANCH   1   2
ATOM      2  C   UNL     1       3.480   6.806   5.239  1.00  0.00     0.117 C 
BRANCH   2   3
ATOM      3  N   UNL     1       3.752   5.604   4.475  1.00  0.00    -0.356 N 
ATOM      4  C   UNL     1       3.157   4.382   4.522  1.00  0.00     0.223 C 
ATOM      5  O   UNL     1       3.700   3.469   3.897  1.00  0.00    -0.275 OA
ATOM      6  H   UNL     1       4.481   5.685   3.819  1.00  0.00     0.163 HD
BRANCH   4   7
ATOM      7  C   UNL     1       1.815   4.207   5.240  1.00  0.00     0.079 C 
ATOM      8  C   UNL     1       0.530   3.451   3.193  1.00  0.00     0.079 C 
ATOM      9  C   UNL     1       0.283   2.079   3.833  1.00  0.00     0.013 C 
ATOM     10  C   UNL     1       0.657   4.532   4.275  1.00  0.00     0.027 C 
ATOM     11  C   UNL     1       1.393   1.700   4.804  1.00  0.00     0.002 C 
ATOM     12  C   UNL     1       1.671   2.796   5.833  1.00  0.00     0.013 C 
BRANCH   8  13
ATOM     13  C   UNL     1      -0.565   3.722   2.163  1.00  0.00     0.223 C 
ATOM     14  N   UNL     1      -0.431   3.143   0.917  1.00  0.00    -0.352 N 
ATOM     15  H   UNL     1      -1.199   3.236   0.309  1.00  0.00     0.163 HD
ATOM     16  O   UNL     1      -1.567   4.387   2.422  1.00  0.00    -0.275 OA
BRANCH  14  17
ATOM     17  C   UNL     1       0.698   2.425   0.410  1.00  0.00     0.094 C 
ATOM     18  C   UNL     1       1.504   0.071  -0.096  1.00  0.00     0.014 C 
ATOM     19  C   UNL     1       0.607   1.225  -0.507  1.00  0.00    -0.007 C 
ATOM     20  C   UNL     1      -0.727   0.734  -1.016  1.00  0.00     0.014 C 
ATOM     21  C   UNL     1       1.184   2.570  -1.015  1.00  0.00    -0.007 C 
ATOM     22  C   UNL     1       2.677   2.765  -1.187  1.00  0.00     0.014 C 
ATOM     23  C   UNL     1       0.402   3.434  -1.982  1.00  0.00     0.014 C 
ENDBRANCH  14  17
ENDBRANCH   8  13
ENDBRANCH   4   7
ENDBRANCH   2   3
ENDBRANCH   1   2
BRANCH   1  24
ATOM     24  C   UNL     1       5.940   7.168   5.872  1.00  0.00     0.118 C 
BRANCH  24  25
ATOM     25  N   UNL     1       6.108   8.335   5.017  1.00  0.00    -0.352 N 
ATOM     26  C   UNL     1       6.922   9.430   5.161  1.00  0.00     0.251 C 
ATOM     27  H   UNL     1       5.548   8.339   4.208  1.00  0.00     0.163 HD
ATOM     28  O   UNL     1       6.758  10.397   4.416  1.00  0.00    -0.269 OA
BRANCH  26  29
ATOM     29  C   UNL     1       7.966   9.468   6.208  1.00  0.00     0.039 A 
ATOM     30  C   UNL     1       8.161  10.653   6.922  1.00  0.00     0.014 A 
ATOM     31  C   UNL     1       8.767   8.354   6.474  1.00  0.00     0.014 A 
ATOM     32  C   UNL     1       9.111  10.700   7.945  1.00  0.00     0.010 A 
ATOM     33  C   UNL     1       9.656   8.378   7.547  1.00  0.00     0.010 A 
ATOM     34  C   UNL     1       9.840   9.551   8.294  1.00  0.00    -0.014 A 
BRANCH  34  35
ATOM     35  C   UNL     1      10.790   9.563   9.439  1.00  0.00     0.031 A 
ATOM     36  C   UNL     1      12.254   9.301   9.218  1.00  0.00     0.074 A 
ATOM     37  C   UNL     1      10.322   9.748  10.689  1.00  0.00     0.049 A 
ATOM     38  N   UNL     1      13.221   9.203  10.094  1.00  0.00    -0.248 NA
ATOM     39  C   UNL     1      12.678   9.086   7.827  1.00  0.00     0.031 C 
ATOM     40  C   UNL     1       8.916   9.960  11.039  1.00  0.00     0.029 A 
ATOM     41  N   UNL     1      10.972   9.774  11.898  1.00  0.00    -0.354 N 
ATOM     42  C   UNL     1      14.367   8.909   9.363  1.00  0.00     0.074 A 
ATOM     43  C   UNL     1      13.952   8.766   7.983  1.00  0.00     0.031 C 
ATOM     44  C   UNL     1       8.812  10.112  12.368  1.00  0.00     0.029 A 
ATOM     45  C   UNL     1      10.132   9.957  12.972  1.00  0.00     0.049 A 
ATOM     46  H   UNL     1      11.947   9.671  11.988  1.00  0.00     0.167 HD
ATOM     47  C   UNL     1      15.649   8.795   9.797  1.00  0.00     0.034 A 
ATOM     48  C   UNL     1      10.387   9.977  14.296  1.00  0.00     0.034 A 
ATOM     49  C   UNL     1      16.040   8.931  11.181  1.00  0.00     0.049 A 
ATOM     50  C   UNL     1      11.808   9.813  14.766  1.00  0.00     0.074 A 
ATOM     51  C   UNL     1      17.310   8.886  11.728  1.00  0.00     0.029 A 
ATOM     52  N   UNL     1      15.161   9.118  12.243  1.00  0.00    -0.354 N 
ATOM     53  N   UNL     1      12.893   9.599  14.057  1.00  0.00    -0.248 NA
ATOM     54  C   UNL     1      12.041   9.907  16.212  1.00  0.00     0.031 C 
ATOM     55  C   UNL     1      17.193   8.960  13.120  1.00  0.00     0.029 A 
ATOM     56  C   UNL     1      15.858   9.148  13.443  1.00  0.00     0.049 A 
ATOM     57  H   UNL     1      14.185   9.215  12.156  1.00  0.00     0.167 HD
ATOM     58  C   UNL     1      13.942   9.554  14.971  1.00  0.00     0.074 A 
ATOM     59  C   UNL     1      13.359   9.782  16.279  1.00  0.00     0.031 C 
ATOM     60  C   UNL     1      15.266   9.349  14.748  1.00  0.00     0.034 A 
BRANCH  47  61
ATOM     61  C   UNL     1      16.703   8.476   8.758  1.00  0.00     0.023 A 
ATOM     62  C   UNL     1      16.926   9.317   7.652  1.00  0.00     0.031 A 
ATOM     63  C   UNL     1      17.449   7.287   8.833  1.00  0.00     0.131 A 
ATOM     64  C   UNL     1      17.779   8.906   6.617  1.00  0.00     0.055 A 
ATOM     65  C   UNL     1      18.376   6.934   7.849  1.00  0.00     0.041 A 
ATOM     66  F   UNL     1      17.273   6.430   9.851  1.00  0.00    -0.206 F 
ATOM     67  C   UNL     1      18.528   7.733   6.720  1.00  0.00     0.022 A 
BRANCH  64  68
ATOM     68  S   UNL     1      17.735   9.823   5.051  1.00  0.00     0.124 S 
ATOM     69  O   UNL     1      16.317   9.753   4.708  1.00  0.00    -0.237 OA
ATOM     70  O   UNL     1      18.235  11.136   5.440  1.00  0.00    -0.237 OA
ATOM     71  O   UNL     1      18.617   9.051   4.177  1.00  0.00    -0.744 OA
ENDBRANCH  64  68
ENDBRANCH  47  61
BRANCH  48  72
ATOM     72  C   UNL     1       9.264  10.131  15.264  1.00  0.00     0.023 A 
ATOM     73  C   UNL     1       9.143  11.272  16.072  1.00  0.00     0.031 A 
ATOM     74  C   UNL     1       8.287   9.126  15.390  1.00  0.00     0.131 A 
ATOM     75  C   UNL     1       8.084  11.368  16.990  1.00  0.00     0.055 A 
ATOM     76  C   UNL     1       7.208   9.249  16.267  1.00  0.00     0.041 A 
ATOM     77  F   UNL     1       8.353   8.017  14.636  1.00  0.00    -0.206 F 
ATOM     78  C   UNL     1       7.107  10.373  17.080  1.00  0.00     0.022 A 
BRANCH  75  79
ATOM     79  S   UNL     1       8.028  12.793  18.111  1.00  0.00     0.124 S 
ATOM     80  O   UNL     1       9.288  12.653  18.832  1.00  0.00    -0.237 OA
ATOM     81  O   UNL     1       7.943  13.911  17.178  1.00  0.00    -0.237 OA
ATOM     82  O   UNL     1       6.824  12.554  18.905  1.00  0.00    -0.744 OA
ENDBRANCH  75  79
ENDBRANCH  48  72
BRANCH  60  83
ATOM     83  C   UNL     1      16.182   9.396  15.949  1.00  0.00     0.023 A 
ATOM     84  C   UNL     1      16.104   8.444  16.982  1.00  0.00     0.031 A 
ATOM     85  C   UNL     1      17.144  10.416  16.067  1.00  0.00     0.131 A 
ATOM     86  C   UNL     1      16.929   8.566  18.111  1.00  0.00     0.055 A 
ATOM     87  C   UNL     1      18.009  10.492  17.159  1.00  0.00     0.041 A 
ATOM     88  F   UNL     1      17.262  11.357  15.116  1.00  0.00    -0.206 F 
ATOM     89  C   UNL     1      17.895   9.572  18.196  1.00  0.00     0.022 A 
BRANCH  86  90
ATOM     90  S   UNL     1      16.651   7.456  19.518  1.00  0.00     0.124 S 
ATOM     91  O   UNL     1      15.255   7.727  19.846  1.00  0.00    -0.237 OA
ATOM     92  O   UNL     1      16.928   6.144  18.941  1.00  0.00    -0.237 OA
ATOM     93  O   UNL     1      17.621   7.912  20.512  1.00  0.00    -0.744 OA
ENDBRANCH  86  90
ENDBRANCH  60  83
ENDBRANCH  34  35
ENDBRANCH  26  29
ENDBRANCH  24  25
ENDBRANCH   1  24
TORSDOF 15
