REMARK SMILES C[C@@H](C(=O)NCCCNC(=O)c1ccc(-c2c3nc(c(-c4cc(S(=O)(=O)[O-])ccc4F)c4ccc([nH]4)c(-c4cc(S(=O)(=O)[O-])ccc4F)c4nc(c(-c5cc(S(=O)(=O)[O-])ccc5F)c5ccc2[nH]5)C=C4)C=C3)cc1)c1ccc2c3cc(Cl)ccc3n(C(=O)c3cocn3)c2c1
REMARK SMILES IDX 7 1 6 2 5 3 3 4 4 5 2 7 1 8 75 9 76 10 95 11 77 12 94 13
REMARK SMILES IDX 78 14 86 15 79 16 85 17 80 18 84 19 81 20 83 21 82 22 87 23
REMARK SMILES IDX 88 24 89 25 90 26 93 27 91 28 92 29 8 30 9 31 10 32 11 34
REMARK SMILES IDX 12 35 13 36 74 37 14 38 73 39 15 40 16 41 17 42 67 43 18 44
REMARK SMILES IDX 72 45 66 46 68 47 19 48 71 49 65 50 64 51 20 53 52 54 32 55
REMARK SMILES IDX 51 56 33 57 36 58 50 59 69 60 34 61 35 62 49 64 70 65 37 66
REMARK SMILES IDX 21 67 22 68 30 69 23 70 29 71 31 72 28 73 24 74 25 75 26 76
REMARK SMILES IDX 27 77 53 78 54 79 62 80 55 81 61 82 63 83 60 84 56 85 57 86
REMARK SMILES IDX 58 87 59 88 38 89 39 90 47 91 40 92 46 93 48 94 45 95 41 96
REMARK SMILES IDX 42 97 43 98 44 99
REMARK H PARENT 5 6 9 33 68 52 36 63
REMARK Flexibility Score: inf
ROOT
ATOM      1  C   UNL     1       4.494   0.743   0.989  1.00  0.00     0.042 C 
ENDROOT
BRANCH   1   2
ATOM      2  C   UNL     1       3.622   0.058   2.038  1.00  0.00     0.117 C 
BRANCH   2   3
ATOM      3  N   UNL     1       2.604   0.953   2.555  1.00  0.00    -0.356 N 
ATOM      4  C   UNL     1       1.283   1.071   2.239  1.00  0.00     0.227 C 
ATOM      5  O   UNL     1       0.672   2.000   2.771  1.00  0.00    -0.274 OA
ATOM      6  H   UNL     1       2.919   1.577   3.249  1.00  0.00     0.163 HD
BRANCH   4   7
ATOM      7  C   UNL     1       0.627   0.053   1.293  1.00  0.00     0.105 C 
ATOM      8  C   UNL     1       1.066   0.221  -0.163  1.00  0.00     0.023 C 
BRANCH   7   9
ATOM      9  C   UNL     1      -0.899   0.083   1.345  1.00  0.00    -0.034 A 
ATOM     10  C   UNL     1      -1.614   1.224   0.970  1.00  0.00     0.005 A 
ATOM     11  C   UNL     1      -1.597  -1.077   1.719  1.00  0.00     0.032 A 
ATOM     12  C   UNL     1      -3.009   1.217   0.926  1.00  0.00     0.011 A 
ATOM     13  C   UNL     1      -3.007  -1.073   1.701  1.00  0.00     0.058 A 
ATOM     14  C   UNL     1      -3.713   0.048   1.277  1.00  0.00     0.008 A 
ATOM     15  N   UNL     1      -3.929  -2.083   2.012  1.00  0.00    -0.274 N 
ATOM     16  C   UNL     1      -5.096  -0.275   1.312  1.00  0.00     0.009 A 
ATOM     17  C   UNL     1      -5.223  -1.573   1.820  1.00  0.00     0.057 A 
ATOM     18  C   UNL     1      -6.251   0.467   0.982  1.00  0.00     0.031 A 
ATOM     19  C   UNL     1      -6.500  -2.101   2.104  1.00  0.00     0.029 A 
ATOM     20  C   UNL     1      -7.508  -0.086   1.207  1.00  0.00     0.041 A 
ATOM     21  C   UNL     1      -7.633  -1.346   1.775  1.00  0.00     0.023 A 
ATOM     22  Cl  UNL     1      -8.918   0.819   0.810  1.00  0.00    -0.084 Cl
BRANCH  15  23
ATOM     23  C   UNL     1      -3.564  -3.379   2.471  1.00  0.00     0.284 C 
ATOM     24  O   UNL     1      -2.506  -3.452   3.100  1.00  0.00    -0.266 OA
BRANCH  23  25
ATOM     25  C   UNL     1      -4.323  -4.599   2.212  1.00  0.00     0.167 A 
ATOM     26  C   UNL     1      -5.179  -4.884   1.169  1.00  0.00     0.231 A 
ATOM     27  N   UNL     1      -4.168  -5.750   2.974  1.00  0.00    -0.211 NA
ATOM     28  O   UNL     1      -5.580  -6.183   1.278  1.00  0.00    -0.451 OA
ATOM     29  C   UNL     1      -4.917  -6.641   2.373  1.00  0.00     0.308 A 
ENDBRANCH  23  25
ENDBRANCH  15  23
ENDBRANCH   7   9
ENDBRANCH   4   7
ENDBRANCH   2   3
ENDBRANCH   1   2
BRANCH   1  30
ATOM     30  C   UNL     1       5.222   1.982   1.496  1.00  0.00     0.118 C 
BRANCH  30  31
ATOM     31  N   UNL     1       6.211   1.672   2.517  1.00  0.00    -0.352 N 
ATOM     32  C   UNL     1       7.564   1.915   2.512  1.00  0.00     0.251 C 
ATOM     33  H   UNL     1       5.864   1.227   3.323  1.00  0.00     0.163 HD
ATOM     34  O   UNL     1       8.277   1.417   3.378  1.00  0.00    -0.269 OA
BRANCH  32  35
ATOM     35  C   UNL     1       8.152   2.750   1.443  1.00  0.00     0.039 A 
ATOM     36  C   UNL     1       9.294   2.300   0.775  1.00  0.00     0.014 A 
ATOM     37  C   UNL     1       7.559   3.964   1.088  1.00  0.00     0.014 A 
ATOM     38  C   UNL     1       9.799   3.034  -0.301  1.00  0.00     0.010 A 
ATOM     39  C   UNL     1       8.018   4.653  -0.029  1.00  0.00     0.010 A 
ATOM     40  C   UNL     1       9.142   4.195  -0.736  1.00  0.00    -0.014 A 
BRANCH  40  41
ATOM     41  C   UNL     1       9.607   4.972  -1.914  1.00  0.00     0.031 A 
ATOM     42  C   UNL     1      10.052   6.396  -1.729  1.00  0.00     0.074 A 
ATOM     43  C   UNL     1       9.513   4.446  -3.150  1.00  0.00     0.049 A 
ATOM     44  N   UNL     1      10.296   7.315  -2.626  1.00  0.00    -0.248 NA
ATOM     45  C   UNL     1      10.195   6.853  -0.340  1.00  0.00     0.031 C 
ATOM     46  C   UNL     1       9.061   3.088  -3.459  1.00  0.00     0.029 A 
ATOM     47  N   UNL     1       9.756   5.004  -4.381  1.00  0.00    -0.354 N 
ATOM     48  C   UNL     1      10.591   8.470  -1.910  1.00  0.00     0.074 A 
ATOM     49  C   UNL     1      10.434   8.143  -0.508  1.00  0.00     0.031 C 
ATOM     50  C   UNL     1       9.050   2.922  -4.791  1.00  0.00     0.029 A 
ATOM     51  C   UNL     1       9.443   4.174  -5.432  1.00  0.00     0.049 A 
ATOM     52  H   UNL     1      10.121   5.911  -4.499  1.00  0.00     0.167 HD
ATOM     53  C   UNL     1      10.973   9.685  -2.379  1.00  0.00     0.034 A 
ATOM     54  C   UNL     1       9.435   4.405  -6.760  1.00  0.00     0.034 A 
ATOM     55  C   UNL     1      11.134   9.982  -3.782  1.00  0.00     0.049 A 
ATOM     56  C   UNL     1       9.847   5.762  -7.269  1.00  0.00     0.074 A 
ATOM     57  C   UNL     1      11.577  11.153  -4.372  1.00  0.00     0.029 A 
ATOM     58  N   UNL     1      10.847   9.101  -4.818  1.00  0.00    -0.354 N 
ATOM     59  N   UNL     1      10.166   6.836  -6.584  1.00  0.00    -0.248 NA
ATOM     60  C   UNL     1       9.907   5.936  -8.725  1.00  0.00     0.031 C 
ATOM     61  C   UNL     1      11.496  11.002  -5.761  1.00  0.00     0.029 A 
ATOM     62  C   UNL     1      11.074   9.711  -6.042  1.00  0.00     0.049 A 
ATOM     63  H   UNL     1      10.527   8.177  -4.700  1.00  0.00     0.167 HD
ATOM     64  C   UNL     1      10.492   7.805  -7.527  1.00  0.00     0.074 A 
ATOM     65  C   UNL     1      10.331   7.189  -8.829  1.00  0.00     0.031 C 
ATOM     66  C   UNL     1      10.901   9.085  -7.332  1.00  0.00     0.034 A 
BRANCH  53  67
ATOM     67  C   UNL     1      11.200  10.777  -1.359  1.00  0.00     0.023 A 
ATOM     68  C   UNL     1      12.166  10.648  -0.344  1.00  0.00     0.031 A 
ATOM     69  C   UNL     1      10.395  11.929  -1.353  1.00  0.00     0.131 A 
ATOM     70  C   UNL     1      12.224  11.591   0.692  1.00  0.00     0.055 A 
ATOM     71  C   UNL     1      10.526  12.915  -0.373  1.00  0.00     0.041 A 
ATOM     72  F   UNL     1       9.444  12.104  -2.284  1.00  0.00    -0.206 F 
ATOM     73  C   UNL     1      11.428  12.738   0.672  1.00  0.00     0.022 A 
BRANCH  70  74
ATOM     74  S   UNL     1      13.211  11.193   2.162  1.00  0.00     0.124 S 
ATOM     75  O   UNL     1      12.635   9.913   2.566  1.00  0.00    -0.237 OA
ATOM     76  O   UNL     1      14.567  11.143   1.627  1.00  0.00    -0.237 OA
ATOM     77  O   UNL     1      12.937  12.305   3.070  1.00  0.00    -0.744 OA
ENDBRANCH  70  74
ENDBRANCH  53  67
BRANCH  54  78
ATOM     78  C   UNL     1       8.990   3.334  -7.694  1.00  0.00     0.023 A 
ATOM     79  C   UNL     1       9.896   2.695  -8.554  1.00  0.00     0.031 A 
ATOM     80  C   UNL     1       7.644   2.925  -7.727  1.00  0.00     0.131 A 
ATOM     81  C   UNL     1       9.440   1.698  -9.430  1.00  0.00     0.055 A 
ATOM     82  C   UNL     1       7.204   1.905  -8.571  1.00  0.00     0.041 A 
ATOM     83  F   UNL     1       6.742   3.497  -6.914  1.00  0.00    -0.206 F 
ATOM     84  C   UNL     1       8.104   1.289  -9.435  1.00  0.00     0.022 A 
BRANCH  81  85
ATOM     85  S   UNL     1      10.617   0.960 -10.598  1.00  0.00     0.124 S 
ATOM     86  O   UNL     1      11.016   2.119 -11.388  1.00  0.00    -0.237 OA
ATOM     87  O   UNL     1      11.630   0.413  -9.702  1.00  0.00    -0.237 OA
ATOM     88  O   UNL     1       9.814  -0.034 -11.307  1.00  0.00    -0.744 OA
ENDBRANCH  81  85
ENDBRANCH  54  78
BRANCH  66  89
ATOM     89  C   UNL     1      11.260   9.890  -8.556  1.00  0.00     0.023 A 
ATOM     90  C   UNL     1      10.285  10.349  -9.457  1.00  0.00     0.031 A 
ATOM     91  C   UNL     1      12.603  10.228  -8.799  1.00  0.00     0.131 A 
ATOM     92  C   UNL     1      10.672  11.098 -10.579  1.00  0.00     0.055 A 
ATOM     93  C   UNL     1      12.977  11.013  -9.889  1.00  0.00     0.041 A 
ATOM     94  F   UNL     1      13.572   9.813  -7.968  1.00  0.00    -0.206 F 
ATOM     95  C   UNL     1      12.010  11.448 -10.791  1.00  0.00     0.022 A 
BRANCH  92  96
ATOM     96  S   UNL     1       9.411  11.579 -11.791  1.00  0.00     0.124 S 
ATOM     97  O   UNL     1       8.943  10.282 -12.270  1.00  0.00    -0.237 OA
ATOM     98  O   UNL     1       8.466  12.338 -10.977  1.00  0.00    -0.237 OA
ATOM     99  O   UNL     1      10.157  12.369 -12.769  1.00  0.00    -0.744 OA
ENDBRANCH  92  96
ENDBRANCH  66  89
ENDBRANCH  40  41
ENDBRANCH  32  35
ENDBRANCH  30  31
ENDBRANCH   1  30
TORSDOF 16
