REMARK SMILES COc1cc(S(=O)(=O)Nc2cccc(C(=O)NCCCNC(=O)c3ccc(-c4c5nc(c(-c6cc(S(=O)(=O)[O-])ccc6F)c6ccc([nH]6)c(-c6cc(S(=O)(=O)[O-])ccc6F)c6nc(c(-c7cc(S(=O)(=O)[O-])ccc7F)c7ccc4[nH]7)C=C6)C=C5)cc3)c2)c(OC)cc1C
REMARK SMILES IDX 18 1 17 2 15 3 16 4 14 6 10 7 11 8 87 9 12 10 13 11 9 12
REMARK SMILES IDX 6 14 7 15 8 16 5 17 3 18 4 19 92 20 91 21 93 22 88 23 2 24
REMARK SMILES IDX 1 25 89 26 90 27 19 28 20 29 21 30 22 31 23 33 24 34 25 35
REMARK SMILES IDX 86 36 26 37 85 38 27 39 28 40 29 41 79 42 30 43 84 44 78 45
REMARK SMILES IDX 80 46 31 47 83 48 77 49 76 50 32 52 64 53 44 54 63 55 45 56
REMARK SMILES IDX 48 57 62 58 81 59 46 60 47 61 61 63 82 64 49 65 33 66 34 67
REMARK SMILES IDX 42 68 35 69 41 70 43 71 40 72 36 73 37 74 38 75 39 76 65 77
REMARK SMILES IDX 66 78 74 79 67 80 73 81 75 82 72 83 68 84 69 85 70 86 71 87
REMARK SMILES IDX 50 88 51 89 59 90 52 91 58 92 60 93 57 94 53 95 54 96 55 97
REMARK SMILES IDX 56 98
REMARK H PARENT 17 5 9 13 21 32 80 51 48 62
REMARK Flexibility Score: inf
ROOT
ATOM      1  C   UNL     1       5.700  -8.361  -1.853  1.00  0.00     0.118 C 
ENDROOT
BRANCH   1   2
ATOM      2  N   UNL     1       4.817  -9.499  -2.057  1.00  0.00    -0.352 N 
ATOM      3  C   UNL     1       3.629  -9.827  -1.450  1.00  0.00     0.251 C 
ATOM      4  O   UNL     1       2.947 -10.752  -1.883  1.00  0.00    -0.269 OA
ATOM      5  H   UNL     1       5.120 -10.139  -2.741  1.00  0.00     0.163 HD
BRANCH   3   6
ATOM      6  C   UNL     1       3.095  -9.037  -0.317  1.00  0.00     0.041 A 
ATOM      7  C   UNL     1       1.235  -7.742   0.560  1.00  0.00     0.050 A 
ATOM      8  C   UNL     1       1.964  -7.487   1.720  1.00  0.00     0.027 A 
ATOM      9  C   UNL     1       1.778  -8.578  -0.422  1.00  0.00     0.040 A 
ATOM     10  C   UNL     1       3.260  -7.995   1.855  1.00  0.00     0.003 A 
ATOM     11  C   UNL     1       3.829  -8.763   0.836  1.00  0.00     0.014 A 
BRANCH   7  12
ATOM     12  N   UNL     1      -0.048  -7.192   0.284  1.00  0.00    -0.279 N 
ATOM     13  H   UNL     1      -0.657  -7.723  -0.278  1.00  0.00     0.180 HD
BRANCH  12  14
ATOM     14  S   UNL     1      -0.605  -5.718   0.839  1.00  0.00     0.265 S 
ATOM     15  O   UNL     1      -0.675  -5.787   2.287  1.00  0.00    -0.201 OA
ATOM     16  O   UNL     1      -1.806  -5.443   0.073  1.00  0.00    -0.201 OA
BRANCH  14  17
ATOM     17  C   UNL     1       0.529  -4.400   0.463  1.00  0.00     0.133 A 
ATOM     18  C   UNL     1       1.091  -2.090   0.969  1.00  0.00     0.123 A 
ATOM     19  C   UNL     1       0.218  -3.170   1.072  1.00  0.00     0.073 A 
ATOM     20  C   UNL     1       2.349  -2.261   0.396  1.00  0.00    -0.005 A 
ATOM     21  C   UNL     1       2.609  -3.458  -0.287  1.00  0.00     0.055 A 
ATOM     22  C   UNL     1       3.413  -1.204   0.440  1.00  0.00     0.048 C 
ATOM     23  C   UNL     1       1.680  -4.511  -0.319  1.00  0.00     0.139 A 
BRANCH  18  24
ATOM     24  O   UNL     1       0.667  -0.895   1.483  1.00  0.00    -0.496 OA
ATOM     25  C   UNL     1       0.512   0.079   0.444  1.00  0.00     0.278 C 
ENDBRANCH  18  24
BRANCH  23  26
ATOM     26  O   UNL     1       1.828  -5.596  -1.128  1.00  0.00    -0.495 OA
ATOM     27  C   UNL     1       3.051  -5.723  -1.850  1.00  0.00     0.278 C 
ENDBRANCH  23  26
ENDBRANCH  14  17
ENDBRANCH  12  14
ENDBRANCH   7  12
ENDBRANCH   3   6
ENDBRANCH   1   2
BRANCH   1  28
ATOM     28  C   UNL     1       6.917  -8.699  -1.001  1.00  0.00     0.042 C 
BRANCH  28  29
ATOM     29  C   UNL     1       7.989  -9.466  -1.766  1.00  0.00     0.118 C 
BRANCH  29  30
ATOM     30  N   UNL     1       9.298  -8.815  -1.716  1.00  0.00    -0.352 N 
ATOM     31  C   UNL     1      10.529  -9.292  -2.139  1.00  0.00     0.251 C 
ATOM     32  H   UNL     1       9.306  -7.910  -1.327  1.00  0.00     0.163 HD
ATOM     33  O   UNL     1      11.537  -8.614  -2.046  1.00  0.00    -0.269 OA
BRANCH  31  34
ATOM     34  C   UNL     1      10.576 -10.617  -2.796  1.00  0.00     0.039 A 
ATOM     35  C   UNL     1      11.075 -10.689  -4.101  1.00  0.00     0.014 A 
ATOM     36  C   UNL     1       9.920 -11.700  -2.223  1.00  0.00     0.014 A 
ATOM     37  C   UNL     1      10.714 -11.767  -4.906  1.00  0.00     0.010 A 
ATOM     38  C   UNL     1       9.461 -12.701  -3.054  1.00  0.00     0.010 A 
ATOM     39  C   UNL     1       9.815 -12.711  -4.409  1.00  0.00    -0.014 A 
BRANCH  39  40
ATOM     40  C   UNL     1       9.078 -13.647  -5.254  1.00  0.00     0.031 A 
ATOM     41  C   UNL     1       9.274 -15.108  -5.135  1.00  0.00     0.074 A 
ATOM     42  C   UNL     1       8.126 -13.191  -6.100  1.00  0.00     0.049 A 
ATOM     43  N   UNL     1       8.973 -15.947  -6.068  1.00  0.00    -0.248 NA
ATOM     44  C   UNL     1       9.861 -15.747  -3.963  1.00  0.00     0.031 C 
ATOM     45  C   UNL     1       7.083 -13.972  -6.761  1.00  0.00     0.029 A 
ATOM     46  N   UNL     1       8.069 -11.946  -6.720  1.00  0.00    -0.354 N 
ATOM     47  C   UNL     1       9.035 -17.209  -5.535  1.00  0.00     0.074 A 
ATOM     48  C   UNL     1       9.652 -17.038  -4.240  1.00  0.00     0.031 C 
ATOM     49  C   UNL     1       6.665 -13.308  -7.848  1.00  0.00     0.029 A 
ATOM     50  C   UNL     1       7.519 -12.147  -8.002  1.00  0.00     0.049 A 
ATOM     51  H   UNL     1       8.359 -11.087  -6.336  1.00  0.00     0.167 HD
ATOM     52  C   UNL     1       8.444 -18.247  -6.189  1.00  0.00     0.034 A 
ATOM     53  C   UNL     1       8.210 -11.810  -9.131  1.00  0.00     0.034 A 
ATOM     54  C   UNL     1       7.833 -17.834  -7.452  1.00  0.00     0.049 A 
ATOM     55  C   UNL     1       8.474 -12.971 -10.074  1.00  0.00     0.074 A 
ATOM     56  C   UNL     1       6.533 -17.607  -7.874  1.00  0.00     0.029 A 
ATOM     57  N   UNL     1       8.648 -17.355  -8.461  1.00  0.00    -0.354 N 
ATOM     58  N   UNL     1       8.155 -14.211  -9.827  1.00  0.00    -0.248 NA
ATOM     59  C   UNL     1       9.206 -12.836 -11.333  1.00  0.00     0.031 C 
ATOM     60  C   UNL     1       6.583 -17.020  -9.171  1.00  0.00     0.029 A 
ATOM     61  C   UNL     1       7.911 -16.901  -9.536  1.00  0.00     0.049 A 
ATOM     62  H   UNL     1       9.632 -17.341  -8.418  1.00  0.00     0.167 HD
ATOM     63  C   UNL     1       8.694 -15.032 -10.789  1.00  0.00     0.074 A 
ATOM     64  C   UNL     1       9.334 -14.118 -11.718  1.00  0.00     0.031 C 
ATOM     65  C   UNL     1       8.616 -16.396 -10.705  1.00  0.00     0.034 A 
BRANCH  52  66
ATOM     66  C   UNL     1       8.212 -19.603  -5.572  1.00  0.00     0.023 A 
ATOM     67  C   UNL     1       7.083 -20.352  -5.962  1.00  0.00     0.031 A 
ATOM     68  C   UNL     1       9.036 -20.208  -4.605  1.00  0.00     0.131 A 
ATOM     69  C   UNL     1       6.756 -21.567  -5.339  1.00  0.00     0.055 A 
ATOM     70  C   UNL     1       8.682 -21.389  -3.939  1.00  0.00     0.041 A 
ATOM     71  F   UNL     1      10.243 -19.708  -4.301  1.00  0.00    -0.206 F 
ATOM     72  C   UNL     1       7.527 -22.070  -4.295  1.00  0.00     0.022 A 
BRANCH  69  73
ATOM     73  S   UNL     1       5.309 -22.489  -5.926  1.00  0.00     0.124 S 
ATOM     74  O   UNL     1       4.231 -21.522  -5.746  1.00  0.00    -0.237 OA
ATOM     75  O   UNL     1       5.678 -22.797  -7.303  1.00  0.00    -0.237 OA
ATOM     76  O   UNL     1       5.257 -23.643  -5.029  1.00  0.00    -0.744 OA
ENDBRANCH  69  73
ENDBRANCH  52  66
BRANCH  53  77
ATOM     77  C   UNL     1       9.107 -10.635  -8.915  1.00  0.00     0.023 A 
ATOM     78  C   UNL     1       8.504  -9.450  -8.435  1.00  0.00     0.031 A 
ATOM     79  C   UNL     1      10.491 -10.777  -8.754  1.00  0.00     0.131 A 
ATOM     80  C   UNL     1       9.242  -8.550  -7.654  1.00  0.00     0.055 A 
ATOM     81  C   UNL     1      11.242  -9.825  -8.053  1.00  0.00     0.041 A 
ATOM     82  F   UNL     1      11.117 -11.895  -9.152  1.00  0.00    -0.206 F 
ATOM     83  C   UNL     1      10.611  -8.730  -7.458  1.00  0.00     0.022 A 
BRANCH  80  84
ATOM     84  S   UNL     1       8.323  -7.333  -6.661  1.00  0.00     0.124 S 
ATOM     85  O   UNL     1       7.951  -6.338  -7.659  1.00  0.00    -0.237 OA
ATOM     86  O   UNL     1       7.225  -8.132  -6.116  1.00  0.00    -0.237 OA
ATOM     87  O   UNL     1       9.294  -6.891  -5.664  1.00  0.00    -0.744 OA
ENDBRANCH  80  84
ENDBRANCH  53  77
BRANCH  65  88
ATOM     88  C   UNL     1       9.228 -17.384 -11.681  1.00  0.00     0.023 A 
ATOM     89  C   UNL     1       9.414 -17.103 -13.043  1.00  0.00     0.031 A 
ATOM     90  C   UNL     1       9.593 -18.694 -11.275  1.00  0.00     0.131 A 
ATOM     91  C   UNL     1      10.008 -18.047 -13.905  1.00  0.00     0.055 A 
ATOM     92  C   UNL     1      10.117 -19.653 -12.146  1.00  0.00     0.041 A 
ATOM     93  F   UNL     1       9.486 -19.103 -10.004  1.00  0.00    -0.206 F 
ATOM     94  C   UNL     1      10.345 -19.327 -13.470  1.00  0.00     0.022 A 
BRANCH  91  95
ATOM     95  S   UNL     1      10.383 -17.556 -15.608  1.00  0.00     0.124 S 
ATOM     96  O   UNL     1       9.089 -17.090 -16.096  1.00  0.00    -0.237 OA
ATOM     97  O   UNL     1      11.393 -16.521 -15.404  1.00  0.00    -0.237 OA
ATOM     98  O   UNL     1      10.874 -18.786 -16.225  1.00  0.00    -0.744 OA
ENDBRANCH  91  95
ENDBRANCH  65  88
ENDBRANCH  39  40
ENDBRANCH  31  34
ENDBRANCH  29  30
ENDBRANCH  28  29
ENDBRANCH   1  28
TORSDOF 18
