REMARK SMILES CCCCCC[C@@H](C)N1C[C@H](C(=O)NCCCNC(=O)c2ccc(-c3c4nc(c(-c5cc(S(=O)(=O)[O-])ccc5F)c5ccc([nH]5)c(-c5cc(S(=O)(=O)[O-])ccc5F)c5nc(c(-c6cc(S(=O)(=O)[O-])ccc6F)c6ccc3[nH]6)C=C5)C=C4)cc2)CC1=O
REMARK SMILES IDX 12 1 13 2 14 3 11 5 9 6 10 7 85 8 84 9 86 10 7 11 8 12 6 13
REMARK SMILES IDX 5 14 4 15 3 16 2 17 1 18 15 19 16 20 17 21 18 22 19 23 20 25
REMARK SMILES IDX 21 26 22 27 83 28 23 29 82 30 24 31 25 32 26 33 76 34 27 35
REMARK SMILES IDX 81 36 75 37 77 38 28 39 80 40 74 41 73 42 29 44 61 45 41 46
REMARK SMILES IDX 60 47 42 48 45 49 59 50 78 51 43 52 44 53 58 55 79 56 46 57
REMARK SMILES IDX 30 58 31 59 39 60 32 61 38 62 40 63 37 64 33 65 34 66 35 67
REMARK SMILES IDX 36 68 62 69 63 70 71 71 64 72 70 73 72 74 69 75 65 76 66 77
REMARK SMILES IDX 67 78 68 79 47 80 48 81 56 82 49 83 55 84 57 85 54 86 50 87
REMARK SMILES IDX 51 88 52 89 53 90
REMARK H PARENT 14 4 18 24 77 43 45 54
REMARK Flexibility Score: inf
ROOT
ATOM      1  C   UNL     1      -3.940   8.149  -0.436  1.00  0.00     0.225 C 
ATOM      2  O   UNL     1      -3.989   8.381  -1.643  1.00  0.00    -0.275 OA
ATOM      3  N   UNL     1      -5.111   8.105   0.261  1.00  0.00    -0.356 N 
ATOM      4  H   UNL     1      -5.926   8.128  -0.291  1.00  0.00     0.163 HD
ENDROOT
BRANCH   1   5
ATOM      5  C   UNL     1      -2.645   7.814   0.278  1.00  0.00     0.107 C 
ATOM      6  N   UNL     1      -1.463   6.224  -0.980  1.00  0.00    -0.339 N 
ATOM      7  C   UNL     1      -2.391   6.322   0.123  1.00  0.00     0.133 C 
ATOM      8  C   UNL     1      -0.864   7.442  -1.272  1.00  0.00     0.223 C 
ATOM      9  C   UNL     1      -1.436   8.491  -0.360  1.00  0.00     0.115 C 
ATOM     10  O   UNL     1       0.028   7.636  -2.087  1.00  0.00    -0.275 OA
BRANCH   6  11
ATOM     11  C   UNL     1      -1.141   4.996  -1.714  1.00  0.00     0.082 C 
ATOM     12  C   UNL     1      -1.710   5.073  -3.137  1.00  0.00     0.031 C 
BRANCH  11  13
ATOM     13  C   UNL     1      -1.600   3.706  -1.003  1.00  0.00     0.025 C 
BRANCH  13  14
ATOM     14  C   UNL     1      -1.046   2.409  -1.611  1.00  0.00     0.002 C 
BRANCH  14  15
ATOM     15  C   UNL     1       0.482   2.286  -1.578  1.00  0.00     0.000 C 
BRANCH  15  16
ATOM     16  C   UNL     1       1.096   2.273  -0.174  1.00  0.00    -0.000 C 
BRANCH  16  17
ATOM     17  C   UNL     1       0.647   1.111   0.717  1.00  0.00    -0.003 C 
ATOM     18  C   UNL     1       1.004  -0.253   0.147  1.00  0.00     0.004 C 
ENDBRANCH  16  17
ENDBRANCH  15  16
ENDBRANCH  14  15
ENDBRANCH  13  14
ENDBRANCH  11  13
ENDBRANCH   6  11
ENDBRANCH   1   5
BRANCH   3  19
ATOM     19  C   UNL     1      -5.338   8.030   1.694  1.00  0.00     0.117 C 
BRANCH  19  20
ATOM     20  C   UNL     1      -5.649   9.405   2.279  1.00  0.00     0.042 C 
BRANCH  20  21
ATOM     21  C   UNL     1      -6.957  10.007   1.766  1.00  0.00     0.118 C 
BRANCH  21  22
ATOM     22  N   UNL     1      -8.116   9.197   2.115  1.00  0.00    -0.352 N 
ATOM     23  C   UNL     1      -9.230   9.513   2.852  1.00  0.00     0.251 C 
ATOM     24  H   UNL     1      -8.097   8.276   1.767  1.00  0.00     0.163 HD
ATOM     25  O   UNL     1      -9.984   8.612   3.209  1.00  0.00    -0.269 OA
BRANCH  23  26
ATOM     26  C   UNL     1      -9.510  10.916   3.228  1.00  0.00     0.039 A 
ATOM     27  C   UNL     1      -9.997  11.186   4.510  1.00  0.00     0.014 A 
ATOM     28  C   UNL     1      -9.319  11.960   2.320  1.00  0.00     0.014 A 
ATOM     29  C   UNL     1     -10.226  12.508   4.901  1.00  0.00     0.010 A 
ATOM     30  C   UNL     1      -9.469  13.280   2.738  1.00  0.00     0.010 A 
ATOM     31  C   UNL     1      -9.925  13.570   4.032  1.00  0.00    -0.014 A 
BRANCH  31  32
ATOM     32  C   UNL     1     -10.081  14.985   4.461  1.00  0.00     0.031 A 
ATOM     33  C   UNL     1     -11.053  15.890   3.756  1.00  0.00     0.074 A 
ATOM     34  C   UNL     1      -9.302  15.470   5.448  1.00  0.00     0.049 A 
ATOM     35  N   UNL     1     -11.280  17.166   3.939  1.00  0.00    -0.248 NA
ATOM     36  C   UNL     1     -11.855  15.284   2.683  1.00  0.00     0.031 C 
ATOM     37  C   UNL     1      -8.298  14.701   6.187  1.00  0.00     0.029 A 
ATOM     38  N   UNL     1      -9.226  16.725   5.999  1.00  0.00    -0.354 N 
ATOM     39  C   UNL     1     -12.243  17.518   2.998  1.00  0.00     0.074 A 
ATOM     40  C   UNL     1     -12.499  16.336   2.203  1.00  0.00     0.031 C 
ATOM     41  C   UNL     1      -7.734  15.489   7.114  1.00  0.00     0.029 A 
ATOM     42  C   UNL     1      -8.292  16.834   7.003  1.00  0.00     0.049 A 
ATOM     43  H   UNL     1      -9.789  17.477   5.704  1.00  0.00     0.167 HD
ATOM     44  C   UNL     1     -12.873  18.709   2.831  1.00  0.00     0.034 A 
ATOM     45  C   UNL     1      -7.915  17.897   7.740  1.00  0.00     0.034 A 
ATOM     46  C   UNL     1     -12.601  19.878   3.633  1.00  0.00     0.049 A 
ATOM     47  C   UNL     1      -8.587  19.224   7.501  1.00  0.00     0.074 A 
ATOM     48  C   UNL     1     -13.209  21.120   3.580  1.00  0.00     0.029 A 
ATOM     49  N   UNL     1     -11.629  19.958   4.623  1.00  0.00    -0.354 N 
ATOM     50  N   UNL     1      -9.530  19.531   6.640  1.00  0.00    -0.248 NA
ATOM     51  C   UNL     1      -8.149  20.347   8.340  1.00  0.00     0.031 C 
ATOM     52  C   UNL     1     -12.552  21.971   4.476  1.00  0.00     0.029 A 
ATOM     53  C   UNL     1     -11.595  21.237   5.159  1.00  0.00     0.049 A 
ATOM     54  H   UNL     1     -11.048  19.214   4.904  1.00  0.00     0.167 HD
ATOM     55  C   UNL     1      -9.821  20.875   6.858  1.00  0.00     0.074 A 
ATOM     56  C   UNL     1      -8.962  21.314   7.940  1.00  0.00     0.031 C 
ATOM     57  C   UNL     1     -10.722  21.672   6.227  1.00  0.00     0.034 A 
BRANCH  44  58
ATOM     58  C   UNL     1     -13.889  18.803   1.715  1.00  0.00     0.023 A 
ATOM     59  C   UNL     1     -15.030  17.981   1.684  1.00  0.00     0.031 A 
ATOM     60  C   UNL     1     -13.695  19.692   0.642  1.00  0.00     0.131 A 
ATOM     61  C   UNL     1     -15.874  17.992   0.563  1.00  0.00     0.055 A 
ATOM     62  C   UNL     1     -14.593  19.767  -0.425  1.00  0.00     0.041 A 
ATOM     63  F   UNL     1     -12.616  20.489   0.600  1.00  0.00    -0.206 F 
ATOM     64  C   UNL     1     -15.680  18.899  -0.480  1.00  0.00     0.022 A 
BRANCH  61  65
ATOM     65  S   UNL     1     -17.116  16.678   0.406  1.00  0.00     0.124 S 
ATOM     66  O   UNL     1     -16.286  15.478   0.482  1.00  0.00    -0.237 OA
ATOM     67  O   UNL     1     -17.985  16.928   1.549  1.00  0.00    -0.237 OA
ATOM     68  O   UNL     1     -17.715  16.928  -0.904  1.00  0.00    -0.744 OA
ENDBRANCH  61  65
ENDBRANCH  44  58
BRANCH  45  69
ATOM     69  C   UNL     1      -6.847  17.755   8.772  1.00  0.00     0.023 A 
ATOM     70  C   UNL     1      -7.130  17.941  10.134  1.00  0.00     0.031 A 
ATOM     71  C   UNL     1      -5.521  17.458   8.408  1.00  0.00     0.131 A 
ATOM     72  C   UNL     1      -6.095  17.868  11.080  1.00  0.00     0.055 A 
ATOM     73  C   UNL     1      -4.506  17.331   9.358  1.00  0.00     0.041 A 
ATOM     74  F   UNL     1      -5.197  17.267   7.119  1.00  0.00    -0.206 F 
ATOM     75  C   UNL     1      -4.789  17.549  10.703  1.00  0.00     0.022 A 
BRANCH  72  76
ATOM     76  S   UNL     1      -6.468  18.272  12.808  1.00  0.00     0.124 S 
ATOM     77  O   UNL     1      -6.952  19.643  12.694  1.00  0.00    -0.237 OA
ATOM     78  O   UNL     1      -7.468  17.264  13.146  1.00  0.00    -0.237 OA
ATOM     79  O   UNL     1      -5.179  18.117  13.478  1.00  0.00    -0.744 OA
ENDBRANCH  72  76
ENDBRANCH  45  69
BRANCH  57  80
ATOM     80  C   UNL     1     -10.855  23.091   6.727  1.00  0.00     0.023 A 
ATOM     81  C   UNL     1      -9.807  24.021   6.617  1.00  0.00     0.031 A 
ATOM     82  C   UNL     1     -12.052  23.516   7.333  1.00  0.00     0.131 A 
ATOM     83  C   UNL     1      -9.953  25.308   7.158  1.00  0.00     0.055 A 
ATOM     84  C   UNL     1     -12.216  24.819   7.806  1.00  0.00     0.041 A 
ATOM     85  F   UNL     1     -13.086  22.671   7.472  1.00  0.00    -0.206 F 
ATOM     86  C   UNL     1     -11.158  25.719   7.733  1.00  0.00     0.022 A 
BRANCH  83  87
ATOM     87  S   UNL     1      -8.510  26.407   7.196  1.00  0.00     0.124 S 
ATOM     88  O   UNL     1      -7.548  25.617   7.957  1.00  0.00    -0.237 OA
ATOM     89  O   UNL     1      -8.212  26.580   5.778  1.00  0.00    -0.237 OA
ATOM     90  O   UNL     1      -9.007  27.602   7.875  1.00  0.00    -0.744 OA
ENDBRANCH  83  87
ENDBRANCH  57  80
ENDBRANCH  31  32
ENDBRANCH  23  26
ENDBRANCH  21  22
ENDBRANCH  20  21
ENDBRANCH  19  20
ENDBRANCH   3  19
TORSDOF 19
