REMARK SMILES COc1ccc(-c2ccc(CCC(=O)NCCCNC(=O)c3ccc(-c4c5nc(c(-c6cc(S(=O)(=O)[O-])ccc6F)c6ccc([nH]6)c(-c6cc(S(=O)(=O)[O-])ccc6F)c6nc(c(-c7cc(S(=O)(=O)[O-])ccc7F)c7ccc4[nH]7)C=C6)C=C5)cc3)n2-c2ccc(C(C)=O)cc2)cc1
REMARK SMILES IDX 16 1 15 2 13 3 14 4 12 6 11 7 10 8 7 9 8 10 85 11 9 12 6 13
REMARK SMILES IDX 3 14 4 15 96 16 5 17 95 18 2 19 1 20 86 21 87 22 94 23 88 24
REMARK SMILES IDX 93 25 89 26 90 27 91 28 92 29 17 30 18 31 19 32 20 33 21 35
REMARK SMILES IDX 22 36 23 37 84 38 24 39 83 40 25 41 26 42 27 43 77 44 28 45
REMARK SMILES IDX 82 46 76 47 78 48 29 49 81 50 75 51 74 52 30 54 62 55 42 56
REMARK SMILES IDX 61 57 43 58 46 59 60 60 79 61 44 62 45 63 59 65 80 66 47 67
REMARK SMILES IDX 31 68 32 69 40 70 33 71 39 72 41 73 38 74 34 75 35 76 36 77
REMARK SMILES IDX 37 78 63 79 64 80 72 81 65 82 71 83 73 84 70 85 66 86 67 87
REMARK SMILES IDX 68 88 69 89 48 90 49 91 57 92 50 93 56 94 58 95 55 96 51 97
REMARK SMILES IDX 52 98 53 99 54 100
REMARK H PARENT 15 5 19 34 78 53 46 64
REMARK Flexibility Score: inf
ROOT
ATOM      1  C   UNL     1       5.106   5.274   6.624  1.00  0.00     0.117 C 
ENDROOT
BRANCH   1   2
ATOM      2  N   UNL     1       4.972   6.403   7.531  1.00  0.00    -0.356 N 
ATOM      3  C   UNL     1       3.875   6.827   8.223  1.00  0.00     0.220 C 
ATOM      4  O   UNL     1       3.923   7.924   8.783  1.00  0.00    -0.275 OA
ATOM      5  H   UNL     1       5.788   6.936   7.665  1.00  0.00     0.163 HD
BRANCH   3   6
ATOM      6  C   UNL     1       2.649   5.943   8.352  1.00  0.00     0.106 C 
BRANCH   6   7
ATOM      7  C   UNL     1       1.392   6.566   7.740  1.00  0.00     0.064 C 
BRANCH   7   8
ATOM      8  C   UNL     1       1.252   6.287   6.264  1.00  0.00     0.024 A 
ATOM      9  C   UNL     1       1.167   5.054   4.370  1.00  0.00     0.053 A 
ATOM     10  C   UNL     1       1.484   6.362   4.030  1.00  0.00     0.029 A 
ATOM     11  N   UNL     1       0.818   5.077   5.721  1.00  0.00    -0.314 N 
ATOM     12  C   UNL     1       1.512   7.138   5.207  1.00  0.00     0.024 A 
BRANCH   9  13
ATOM     13  C   UNL     1       0.952   3.955   3.427  1.00  0.00    -0.001 A 
ATOM     14  C   UNL     1       0.576   2.016   1.421  1.00  0.00     0.118 A 
ATOM     15  C   UNL     1      -0.470   2.859   1.801  1.00  0.00     0.047 A 
ATOM     16  C   UNL     1       1.816   2.144   2.047  1.00  0.00     0.047 A 
ATOM     17  C   UNL     1      -0.288   3.817   2.800  1.00  0.00     0.014 A 
ATOM     18  C   UNL     1       2.004   3.113   3.044  1.00  0.00     0.014 A 
BRANCH  14  19
ATOM     19  O   UNL     1       0.271   1.155   0.404  1.00  0.00    -0.497 OA
ATOM     20  C   UNL     1       1.136   0.042   0.226  1.00  0.00     0.278 C 
ENDBRANCH  14  19
ENDBRANCH   9  13
BRANCH  11  21
ATOM     21  C   UNL     1      -0.065   4.170   6.362  1.00  0.00     0.046 A 
ATOM     22  C   UNL     1      -1.227   4.705   6.932  1.00  0.00     0.027 A 
ATOM     23  C   UNL     1       0.137   2.792   6.338  1.00  0.00     0.027 A 
ATOM     24  C   UNL     1      -2.197   3.865   7.474  1.00  0.00     0.014 A 
ATOM     25  C   UNL     1      -0.832   1.954   6.906  1.00  0.00     0.014 A 
ATOM     26  C   UNL     1      -2.014   2.481   7.462  1.00  0.00     0.017 A 
BRANCH  26  27
ATOM     27  C   UNL     1      -3.031   1.529   8.005  1.00  0.00     0.159 C 
ATOM     28  C   UNL     1      -4.409   2.007   8.399  1.00  0.00     0.093 C 
ATOM     29  O   UNL     1      -2.743   0.337   8.114  1.00  0.00    -0.295 OA
ENDBRANCH  26  27
ENDBRANCH  11  21
ENDBRANCH   7   8
ENDBRANCH   6   7
ENDBRANCH   3   6
ENDBRANCH   1   2
BRANCH   1  30
ATOM     30  C   UNL     1       4.659   5.664   5.222  1.00  0.00     0.042 C 
BRANCH  30  31
ATOM     31  C   UNL     1       5.742   6.324   4.385  1.00  0.00     0.118 C 
BRANCH  31  32
ATOM     32  N   UNL     1       6.462   5.349   3.590  1.00  0.00    -0.352 N 
ATOM     33  C   UNL     1       7.085   5.509   2.377  1.00  0.00     0.251 C 
ATOM     34  H   UNL     1       6.511   4.444   3.974  1.00  0.00     0.163 HD
ATOM     35  O   UNL     1       7.382   4.497   1.744  1.00  0.00    -0.269 OA
BRANCH  33  36
ATOM     36  C   UNL     1       7.385   6.853   1.817  1.00  0.00     0.039 A 
ATOM     37  C   UNL     1       7.457   6.972   0.423  1.00  0.00     0.014 A 
ATOM     38  C   UNL     1       7.671   7.966   2.619  1.00  0.00     0.014 A 
ATOM     39  C   UNL     1       7.776   8.196  -0.161  1.00  0.00     0.010 A 
ATOM     40  C   UNL     1       7.960   9.199   2.039  1.00  0.00     0.010 A 
ATOM     41  C   UNL     1       8.015   9.314   0.647  1.00  0.00    -0.014 A 
BRANCH  41  42
ATOM     42  C   UNL     1       8.236  10.631   0.003  1.00  0.00     0.031 A 
ATOM     43  C   UNL     1       6.926  11.270  -0.489  1.00  0.00     0.074 A 
ATOM     44  C   UNL     1       9.531  11.060  -0.093  1.00  0.00     0.049 A 
ATOM     45  N   UNL     1       6.700  12.047  -1.505  1.00  0.00    -0.248 NA
ATOM     46  C   UNL     1       5.655  10.901   0.192  1.00  0.00     0.031 C 
ATOM     47  C   UNL     1      10.700  10.329   0.449  1.00  0.00     0.029 A 
ATOM     48  N   UNL     1      10.138  12.168  -0.649  1.00  0.00    -0.354 N 
ATOM     49  C   UNL     1       5.338  12.437  -1.451  1.00  0.00     0.074 A 
ATOM     50  C   UNL     1       4.723  11.579  -0.483  1.00  0.00     0.031 C 
ATOM     51  C   UNL     1      11.854  10.964   0.146  1.00  0.00     0.029 A 
ATOM     52  C   UNL     1      11.560  12.167  -0.608  1.00  0.00     0.049 A 
ATOM     53  H   UNL     1       9.624  12.908  -1.046  1.00  0.00     0.167 HD
ATOM     54  C   UNL     1       4.841  13.541  -2.089  1.00  0.00     0.034 A 
ATOM     55  C   UNL     1      12.450  13.046  -1.168  1.00  0.00     0.034 A 
ATOM     56  C   UNL     1       5.887  14.194  -2.806  1.00  0.00     0.049 A 
ATOM     57  C   UNL     1      11.626  14.121  -1.741  1.00  0.00     0.074 A 
ATOM     58  C   UNL     1       6.581  13.901  -3.948  1.00  0.00     0.029 A 
ATOM     59  N   UNL     1       6.509  15.242  -2.168  1.00  0.00    -0.354 N 
ATOM     60  N   UNL     1      11.025  15.040  -1.051  1.00  0.00    -0.248 NA
ATOM     61  C   UNL     1      11.400  14.148  -3.192  1.00  0.00     0.031 C 
ATOM     62  C   UNL     1       7.848  14.480  -3.727  1.00  0.00     0.029 A 
ATOM     63  C   UNL     1       7.832  15.197  -2.521  1.00  0.00     0.049 A 
ATOM     64  H   UNL     1       6.085  15.900  -1.571  1.00  0.00     0.167 HD
ATOM     65  C   UNL     1      10.113  15.544  -1.943  1.00  0.00     0.074 A 
ATOM     66  C   UNL     1      10.606  15.214  -3.262  1.00  0.00     0.031 C 
ATOM     67  C   UNL     1       8.815  15.674  -1.565  1.00  0.00     0.034 A 
BRANCH  54  68
ATOM     68  C   UNL     1       3.536  14.307  -1.988  1.00  0.00     0.023 A 
ATOM     69  C   UNL     1       3.327  15.325  -2.958  1.00  0.00     0.031 A 
ATOM     70  C   UNL     1       2.660  14.317  -0.896  1.00  0.00     0.131 A 
ATOM     71  C   UNL     1       2.398  16.357  -2.766  1.00  0.00     0.055 A 
ATOM     72  C   UNL     1       1.679  15.313  -0.740  1.00  0.00     0.041 A 
ATOM     73  F   UNL     1       2.761  13.428   0.100  1.00  0.00    -0.206 F 
ATOM     74  C   UNL     1       1.569  16.359  -1.654  1.00  0.00     0.022 A 
BRANCH  71  75
ATOM     75  S   UNL     1       2.437  17.777  -3.901  1.00  0.00     0.124 S 
ATOM     76  O   UNL     1       3.843  18.164  -3.868  1.00  0.00    -0.237 OA
ATOM     77  O   UNL     1       1.967  17.183  -5.149  1.00  0.00    -0.237 OA
ATOM     78  O   UNL     1       1.517  18.730  -3.282  1.00  0.00    -0.744 OA
ENDBRANCH  71  75
ENDBRANCH  54  68
BRANCH  55  79
ATOM     79  C   UNL     1      13.948  13.164  -1.389  1.00  0.00     0.023 A 
ATOM     80  C   UNL     1      14.937  12.333  -0.836  1.00  0.00     0.031 A 
ATOM     81  C   UNL     1      14.451  14.175  -2.269  1.00  0.00     0.131 A 
ATOM     82  C   UNL     1      16.300  12.484  -1.213  1.00  0.00     0.055 A 
ATOM     83  C   UNL     1      15.777  14.276  -2.688  1.00  0.00     0.041 A 
ATOM     84  F   UNL     1      13.667  15.133  -2.784  1.00  0.00    -0.206 F 
ATOM     85  C   UNL     1      16.713  13.415  -2.169  1.00  0.00     0.022 A 
BRANCH  82  86
ATOM     86  S   UNL     1      17.608  11.449  -0.491  1.00  0.00     0.124 S 
ATOM     87  O   UNL     1      18.124  12.309   0.568  1.00  0.00    -0.237 OA
ATOM     88  O   UNL     1      16.889  10.257  -0.055  1.00  0.00    -0.237 OA
ATOM     89  O   UNL     1      18.516  11.240  -1.619  1.00  0.00    -0.744 OA
ENDBRANCH  82  86
ENDBRANCH  55  79
BRANCH  67  90
ATOM     90  C   UNL     1       8.621  15.833  -0.054  1.00  0.00     0.023 A 
ATOM     91  C   UNL     1       9.303  16.845   0.654  1.00  0.00     0.031 A 
ATOM     92  C   UNL     1       7.884  14.931   0.735  1.00  0.00     0.131 A 
ATOM     93  C   UNL     1       9.268  16.896   2.064  1.00  0.00     0.055 A 
ATOM     94  C   UNL     1       7.831  14.988   2.133  1.00  0.00     0.041 A 
ATOM     95  F   UNL     1       7.191  13.941   0.178  1.00  0.00    -0.206 F 
ATOM     96  C   UNL     1       8.535  15.971   2.807  1.00  0.00     0.022 A 
BRANCH  93  97
ATOM     97  S   UNL     1      10.184  18.200   2.931  1.00  0.00     0.124 S 
ATOM     98  O   UNL     1      11.578  17.812   2.711  1.00  0.00    -0.237 OA
ATOM     99  O   UNL     1       9.742  19.405   2.256  1.00  0.00    -0.237 OA
ATOM    100  O   UNL     1       9.728  18.070   4.320  1.00  0.00    -0.744 OA
ENDBRANCH  93  97
ENDBRANCH  67  90
ENDBRANCH  41  42
ENDBRANCH  33  36
ENDBRANCH  31  32
ENDBRANCH  30  31
ENDBRANCH   1  30
TORSDOF 19
