REMARK SMILES Cc1nsc(NC(=O)[C@@H]2C=C[C@@H]([NH3+])C2)c1C(=O)NCCCNC(=O)c1ccc(-c2c3nc(c(-c4cc(S(=O)(=O)[O-])ccc4F)c4ccc([nH]4)c(-c4cc(S(=O)(=O)[O-])ccc4F)c4nc(c(-c5cc(S(=O)(=O)[O-])ccc5F)c5ccc2[nH]5)C=C4)C=C3)cc1
REMARK SMILES IDX 20 1 19 2 18 3 16 4 17 5 15 7 1 8 2 9 3 10 4 11 5 12 6 13
REMARK SMILES IDX 7 14 8 16 9 17 10 18 14 19 11 20 12 21 13 22 21 26 22 27
REMARK SMILES IDX 23 28 24 30 25 31 26 32 87 33 27 34 86 35 28 36 29 37 30 38
REMARK SMILES IDX 80 39 31 40 85 41 79 42 81 43 32 44 84 45 78 46 77 47 33 49
REMARK SMILES IDX 65 50 45 51 64 52 46 53 49 54 63 55 82 56 47 57 48 58 62 60
REMARK SMILES IDX 83 61 50 62 34 63 35 64 43 65 36 66 42 67 44 68 41 69 37 70
REMARK SMILES IDX 38 71 39 72 40 73 66 74 67 75 75 76 68 77 74 78 76 79 73 80
REMARK SMILES IDX 69 81 70 82 71 83 72 84 51 85 52 86 60 87 53 88 59 89 61 90
REMARK SMILES IDX 58 91 54 92 55 93 56 94 57 95
REMARK H PARENT 18 6 6 15 13 23 13 24 13 25 22 29 81 48 49 59
REMARK Flexibility Score: inf
ROOT
ATOM      1  C   UNL     1      -0.916  -3.864  -2.900  1.00  0.00     0.042 C 
ENDROOT
BRANCH   1   2
ATOM      2  C   UNL     1      -0.279  -4.961  -2.056  1.00  0.00     0.118 C 
BRANCH   2   3
ATOM      3  N   UNL     1       0.696  -4.537  -1.072  1.00  0.00    -0.352 N 
ATOM      4  C   UNL     1       0.627  -4.327   0.282  1.00  0.00     0.256 C 
ATOM      5  O   UNL     1       1.703  -4.178   0.867  1.00  0.00    -0.269 OA
ATOM      6  H   UNL     1       1.588  -4.366  -1.452  1.00  0.00     0.163 HD
BRANCH   4   7
ATOM      7  C   UNL     1      -0.634  -4.126   0.988  1.00  0.00     0.097 A 
ATOM      8  C   UNL     1      -2.337  -6.040   0.308  1.00  0.00     0.069 C 
ATOM      9  C   UNL     1      -1.954  -4.712   0.871  1.00  0.00     0.066 A 
ATOM     10  N   UNL     1      -2.942  -4.040   1.478  1.00  0.00    -0.195 NA
ATOM     11  S   UNL     1      -2.254  -2.911   2.479  1.00  0.00    -0.017 S 
ATOM     12  C   UNL     1      -0.665  -3.466   2.216  1.00  0.00     0.129 A 
BRANCH  12  13
ATOM     13  N   UNL     1       0.367  -3.172   3.078  1.00  0.00    -0.315 N 
ATOM     14  C   UNL     1       0.400  -3.324   4.443  1.00  0.00     0.232 C 
ATOM     15  H   UNL     1       1.183  -2.809   2.666  1.00  0.00     0.170 HD
ATOM     16  O   UNL     1       1.452  -3.008   5.013  1.00  0.00    -0.274 OA
BRANCH  14  17
ATOM     17  C   UNL     1      -0.803  -3.850   5.264  1.00  0.00     0.107 C 
ATOM     18  C   UNL     1      -0.378  -4.324   6.639  1.00  0.00    -0.012 C 
ATOM     19  C   UNL     1      -1.515  -5.119   4.761  1.00  0.00     0.087 C 
ATOM     20  C   UNL     1      -0.474  -5.653   6.786  1.00  0.00     0.033 C 
ATOM     21  C   UNL     1      -0.937  -6.302   5.534  1.00  0.00     0.205 C 
BRANCH  21  22
ATOM     22  N   UNL     1      -1.944  -7.326   5.729  1.00  0.00    -0.352 N 
ATOM     23  H   UNL     1      -2.754  -6.921   6.198  1.00  0.00     0.345 HD
ATOM     24  H   UNL     1      -1.559  -8.077   6.303  1.00  0.00     0.345 HD
ATOM     25  H   UNL     1      -2.228  -7.702   4.824  1.00  0.00     0.345 HD
ENDBRANCH  21  22
ENDBRANCH  14  17
ENDBRANCH  12  13
ENDBRANCH   4   7
ENDBRANCH   2   3
ENDBRANCH   1   2
BRANCH   1  26
ATOM     26  C   UNL     1      -0.129  -3.575  -4.169  1.00  0.00     0.118 C 
BRANCH  26  27
ATOM     27  N   UNL     1       0.028  -4.760  -5.017  1.00  0.00    -0.352 N 
ATOM     28  C   UNL     1       0.810  -4.910  -6.144  1.00  0.00     0.251 C 
ATOM     29  H   UNL     1      -0.491  -5.551  -4.747  1.00  0.00     0.163 HD
ATOM     30  O   UNL     1       0.646  -5.873  -6.887  1.00  0.00    -0.269 OA
BRANCH  28  31
ATOM     31  C   UNL     1       1.799  -3.866  -6.455  1.00  0.00     0.039 A 
ATOM     32  C   UNL     1       1.794  -3.258  -7.709  1.00  0.00     0.014 A 
ATOM     33  C   UNL     1       2.635  -3.407  -5.437  1.00  0.00     0.014 A 
ATOM     34  C   UNL     1       2.536  -2.094  -7.888  1.00  0.00     0.010 A 
ATOM     35  C   UNL     1       3.279  -2.194  -5.582  1.00  0.00     0.010 A 
ATOM     36  C   UNL     1       3.231  -1.525  -6.804  1.00  0.00    -0.014 A 
BRANCH  36  37
ATOM     37  C   UNL     1       3.713  -0.141  -6.909  1.00  0.00     0.031 A 
ATOM     38  C   UNL     1       2.689   0.816  -7.414  1.00  0.00     0.074 A 
ATOM     39  C   UNL     1       4.882   0.329  -6.421  1.00  0.00     0.049 A 
ATOM     40  N   UNL     1       2.629   1.355  -8.586  1.00  0.00    -0.248 NA
ATOM     41  C   UNL     1       1.494   1.065  -6.591  1.00  0.00     0.031 C 
ATOM     42  C   UNL     1       5.865  -0.405  -5.620  1.00  0.00     0.029 A 
ATOM     43  N   UNL     1       5.402   1.595  -6.459  1.00  0.00    -0.354 N 
ATOM     44  C   UNL     1       1.546   2.230  -8.550  1.00  0.00     0.074 A 
ATOM     45  C   UNL     1       0.769   1.831  -7.410  1.00  0.00     0.031 C 
ATOM     46  C   UNL     1       6.739   0.463  -5.066  1.00  0.00     0.029 A 
ATOM     47  C   UNL     1       6.497   1.784  -5.619  1.00  0.00     0.049 A 
ATOM     48  H   UNL     1       5.035   2.308  -7.030  1.00  0.00     0.167 HD
ATOM     49  C   UNL     1       1.562   3.374  -9.293  1.00  0.00     0.034 A 
ATOM     50  C   UNL     1       7.201   2.923  -5.395  1.00  0.00     0.034 A 
ATOM     51  C   UNL     1       2.652   3.330 -10.244  1.00  0.00     0.049 A 
ATOM     52  C   UNL     1       7.033   3.786  -6.583  1.00  0.00     0.074 A 
ATOM     53  C   UNL     1       2.942   2.658 -11.411  1.00  0.00     0.029 A 
ATOM     54  N   UNL     1       3.833   3.854  -9.775  1.00  0.00    -0.354 N 
ATOM     55  N   UNL     1       7.481   3.457  -7.763  1.00  0.00    -0.248 NA
ATOM     56  C   UNL     1       6.053   4.865  -6.575  1.00  0.00     0.031 C 
ATOM     57  C   UNL     1       4.366   2.596 -11.485  1.00  0.00     0.029 A 
ATOM     58  C   UNL     1       4.909   3.273 -10.393  1.00  0.00     0.049 A 
ATOM     59  H   UNL     1       3.897   4.554  -9.085  1.00  0.00     0.167 HD
ATOM     60  C   UNL     1       6.538   3.948  -8.642  1.00  0.00     0.074 A 
ATOM     61  C   UNL     1       5.803   4.953  -7.885  1.00  0.00     0.031 C 
ATOM     62  C   UNL     1       6.229   3.268  -9.783  1.00  0.00     0.034 A 
BRANCH  49  63
ATOM     63  C   UNL     1       0.963   4.717  -8.886  1.00  0.00     0.023 A 
ATOM     64  C   UNL     1       1.290   5.827  -9.700  1.00  0.00     0.031 A 
ATOM     65  C   UNL     1       0.369   5.037  -7.647  1.00  0.00     0.131 A 
ATOM     66  C   UNL     1       1.161   7.146  -9.229  1.00  0.00     0.055 A 
ATOM     67  C   UNL     1       0.200   6.354  -7.200  1.00  0.00     0.041 A 
ATOM     68  F   UNL     1      -0.022   4.114  -6.766  1.00  0.00    -0.206 F 
ATOM     69  C   UNL     1       0.630   7.417  -7.975  1.00  0.00     0.022 A 
BRANCH  66  70
ATOM     70  S   UNL     1       1.857   8.492 -10.223  1.00  0.00     0.124 S 
ATOM     71  O   UNL     1       3.245   8.066 -10.364  1.00  0.00    -0.237 OA
ATOM     72  O   UNL     1       1.035   8.432 -11.427  1.00  0.00    -0.237 OA
ATOM     73  O   UNL     1       1.648   9.671  -9.386  1.00  0.00    -0.744 OA
ENDBRANCH  66  70
ENDBRANCH  49  63
BRANCH  50  74
ATOM     74  C   UNL     1       7.895   3.350  -4.154  1.00  0.00     0.023 A 
ATOM     75  C   UNL     1       8.954   4.280  -4.144  1.00  0.00     0.031 A 
ATOM     76  C   UNL     1       7.333   3.007  -2.904  1.00  0.00     0.131 A 
ATOM     77  C   UNL     1       9.398   4.837  -2.921  1.00  0.00     0.055 A 
ATOM     78  C   UNL     1       7.778   3.557  -1.700  1.00  0.00     0.041 A 
ATOM     79  F   UNL     1       6.273   2.187  -2.824  1.00  0.00    -0.206 F 
ATOM     80  C   UNL     1       8.806   4.486  -1.706  1.00  0.00     0.022 A 
BRANCH  77  81
ATOM     81  S   UNL     1      10.699   6.114  -2.908  1.00  0.00     0.124 S 
ATOM     82  O   UNL     1      11.869   5.373  -3.362  1.00  0.00    -0.237 OA
ATOM     83  O   UNL     1      10.164   7.113  -3.826  1.00  0.00    -0.237 OA
ATOM     84  O   UNL     1      10.747   6.537  -1.507  1.00  0.00    -0.744 OA
ENDBRANCH  77  81
ENDBRANCH  50  74
BRANCH  62  85
ATOM     85  C   UNL     1       7.284   2.353 -10.358  1.00  0.00     0.023 A 
ATOM     86  C   UNL     1       7.844   1.236  -9.700  1.00  0.00     0.031 A 
ATOM     87  C   UNL     1       7.713   2.623 -11.669  1.00  0.00     0.131 A 
ATOM     88  C   UNL     1       8.806   0.445 -10.358  1.00  0.00     0.055 A 
ATOM     89  C   UNL     1       8.647   1.825 -12.325  1.00  0.00     0.041 A 
ATOM     90  F   UNL     1       7.209   3.667 -12.350  1.00  0.00    -0.206 F 
ATOM     91  C   UNL     1       9.204   0.736 -11.668  1.00  0.00     0.022 A 
BRANCH  88  92
ATOM     92  S   UNL     1       9.585  -0.965  -9.508  1.00  0.00     0.124 S 
ATOM     93  O   UNL     1       9.973  -0.415  -8.214  1.00  0.00    -0.237 OA
ATOM     94  O   UNL     1       8.509  -1.952  -9.485  1.00  0.00    -0.237 OA
ATOM     95  O   UNL     1      10.707  -1.312 -10.383  1.00  0.00    -0.744 OA
ENDBRANCH  88  92
ENDBRANCH  62  85
ENDBRANCH  36  37
ENDBRANCH  28  31
ENDBRANCH  26  27
ENDBRANCH   1  26
TORSDOF 16
