REMARK SMILES C[C@@H]1C[N@H+](Cc2ccccc2)CC[C@@H]1CC(=O)NCCCNC(=O)c1ccc(-c2c3nc(c(-c4cc(S(=O)(=O)[O-])ccc4F)c4ccc([nH]4)c(-c4cc(S(=O)(=O)[O-])ccc4F)c4nc(c(-c5cc(S(=O)(=O)[O-])ccc5F)c5ccc2[nH]5)C=C4)C=C3)cc1
REMARK SMILES IDX 20 1 19 2 18 3 16 4 17 5 15 7 14 8 1 9 2 10 3 11 4 12 13 13
REMARK SMILES IDX 12 14 5 16 6 17 7 18 11 19 8 20 10 21 9 22 21 23 22 24 23 25
REMARK SMILES IDX 24 27 25 28 26 29 87 30 27 31 86 32 28 33 29 34 30 35 80 36
REMARK SMILES IDX 31 37 85 38 79 39 81 40 32 41 84 42 78 43 77 44 33 46 65 47
REMARK SMILES IDX 45 48 64 49 46 50 49 51 63 52 82 53 47 54 48 55 62 57 83 58
REMARK SMILES IDX 50 59 34 60 35 61 43 62 36 63 42 64 44 65 41 66 37 67 38 68
REMARK SMILES IDX 39 69 40 70 66 71 67 72 75 73 68 74 74 75 76 76 73 77 69 78
REMARK SMILES IDX 70 79 71 80 72 81 51 82 52 83 60 84 53 85 59 86 61 87 58 88
REMARK SMILES IDX 54 89 55 90 56 91 57 92
REMARK H PARENT 18 6 4 15 22 26 81 45 49 56
REMARK Flexibility Score: inf
ROOT
ATOM      1  C   UNL     1       1.547   0.635  -3.747  1.00  0.00     0.042 C 
ENDROOT
BRANCH   1   2
ATOM      2  C   UNL     1       2.299  -0.686  -3.591  1.00  0.00     0.117 C 
BRANCH   2   3
ATOM      3  N   UNL     1       3.132  -0.807  -2.415  1.00  0.00    -0.356 N 
ATOM      4  C   UNL     1       2.895  -1.380  -1.210  1.00  0.00     0.220 C 
ATOM      5  O   UNL     1       3.870  -1.587  -0.481  1.00  0.00    -0.275 OA
ATOM      6  H   UNL     1       4.025  -0.404  -2.505  1.00  0.00     0.163 HD
BRANCH   4   7
ATOM      7  C   UNL     1       1.506  -1.786  -0.769  1.00  0.00     0.104 C 
BRANCH   7   8
ATOM      8  C   UNL     1       0.404  -0.715  -0.571  1.00  0.00     0.012 C 
ATOM      9  C   UNL     1       2.163   0.879   0.590  1.00  0.00     0.014 C 
ATOM     10  C   UNL     1       0.821   0.720  -0.122  1.00  0.00     0.045 C 
ATOM     11  C   UNL     1      -0.304   1.539   0.552  1.00  0.00     0.265 C 
ATOM     12  N   UNL     1      -1.234   0.823   1.403  1.00  0.00    -0.331 N 
ATOM     13  C   UNL     1      -0.697  -1.341   0.315  1.00  0.00     0.066 C 
ATOM     14  C   UNL     1      -1.774  -0.365   0.775  1.00  0.00     0.262 C 
ATOM     15  H   UNL     1      -2.038   1.447   1.464  1.00  0.00     0.348 HD
BRANCH  12  16
ATOM     16  C   UNL     1      -1.000   0.816   2.847  1.00  0.00     0.299 C 
BRANCH  16  17
ATOM     17  C   UNL     1      -0.109  -0.275   3.396  1.00  0.00     0.006 A 
ATOM     18  C   UNL     1      -0.642  -1.514   3.781  1.00  0.00     0.009 A 
ATOM     19  C   UNL     1       1.274  -0.092   3.485  1.00  0.00     0.009 A 
ATOM     20  C   UNL     1       0.199  -2.573   4.131  1.00  0.00     0.001 A 
ATOM     21  C   UNL     1       2.119  -1.158   3.801  1.00  0.00     0.001 A 
ATOM     22  C   UNL     1       1.581  -2.403   4.108  1.00  0.00     0.000 A 
ENDBRANCH  16  17
ENDBRANCH  12  16
ENDBRANCH   7   8
ENDBRANCH   4   7
ENDBRANCH   2   3
ENDBRANCH   1   2
BRANCH   1  23
ATOM     23  C   UNL     1       2.241   1.898  -3.238  1.00  0.00     0.118 C 
BRANCH  23  24
ATOM     24  N   UNL     1       3.216   2.444  -4.152  1.00  0.00    -0.352 N 
ATOM     25  C   UNL     1       3.307   3.712  -4.674  1.00  0.00     0.251 C 
ATOM     26  H   UNL     1       3.916   1.817  -4.444  1.00  0.00     0.163 HD
ATOM     27  O   UNL     1       4.191   3.949  -5.493  1.00  0.00    -0.269 OA
BRANCH  25  28
ATOM     28  C   UNL     1       2.338   4.779  -4.309  1.00  0.00     0.039 A 
ATOM     29  C   UNL     1       1.784   5.529  -5.351  1.00  0.00     0.014 A 
ATOM     30  C   UNL     1       2.019   5.102  -2.985  1.00  0.00     0.014 A 
ATOM     31  C   UNL     1       0.898   6.575  -5.075  1.00  0.00     0.010 A 
ATOM     32  C   UNL     1       1.097   6.125  -2.711  1.00  0.00     0.010 A 
ATOM     33  C   UNL     1       0.533   6.879  -3.754  1.00  0.00    -0.014 A 
BRANCH  33  34
ATOM     34  C   UNL     1      -0.420   7.996  -3.489  1.00  0.00     0.031 A 
ATOM     35  C   UNL     1       0.054   9.283  -2.864  1.00  0.00     0.074 A 
ATOM     36  C   UNL     1      -1.716   7.869  -3.841  1.00  0.00     0.049 A 
ATOM     37  N   UNL     1      -0.618  10.380  -2.619  1.00  0.00    -0.248 NA
ATOM     38  C   UNL     1       1.463   9.338  -2.454  1.00  0.00     0.031 C 
ATOM     39  C   UNL     1      -2.310   6.673  -4.442  1.00  0.00     0.029 A 
ATOM     40  N   UNL     1      -2.764   8.753  -3.757  1.00  0.00    -0.354 N 
ATOM     41  C   UNL     1       0.286  11.261  -2.034  1.00  0.00     0.074 A 
ATOM     42  C   UNL     1       1.540  10.545  -1.912  1.00  0.00     0.031 C 
ATOM     43  C   UNL     1      -3.609   6.907  -4.692  1.00  0.00     0.029 A 
ATOM     44  C   UNL     1      -3.952   8.254  -4.242  1.00  0.00     0.049 A 
ATOM     45  H   UNL     1      -2.674   9.660  -3.383  1.00  0.00     0.167 HD
ATOM     46  C   UNL     1       0.097  12.550  -1.652  1.00  0.00     0.034 A 
ATOM     47  C   UNL     1      -5.178   8.812  -4.315  1.00  0.00     0.034 A 
ATOM     48  C   UNL     1      -1.156  13.259  -1.773  1.00  0.00     0.049 A 
ATOM     49  C   UNL     1      -5.375  10.230  -3.841  1.00  0.00     0.074 A 
ATOM     50  C   UNL     1      -1.435  14.578  -1.456  1.00  0.00     0.029 A 
ATOM     51  N   UNL     1      -2.345  12.708  -2.234  1.00  0.00    -0.354 N 
ATOM     52  N   UNL     1      -4.494  11.063  -3.338  1.00  0.00    -0.248 NA
ATOM     53  C   UNL     1      -6.730  10.787  -3.959  1.00  0.00     0.031 C 
ATOM     54  C   UNL     1      -2.801  14.804  -1.658  1.00  0.00     0.029 A 
ATOM     55  C   UNL     1      -3.364  13.649  -2.175  1.00  0.00     0.049 A 
ATOM     56  H   UNL     1      -2.450  11.783  -2.557  1.00  0.00     0.167 HD
ATOM     57  C   UNL     1      -5.184  12.251  -3.108  1.00  0.00     0.074 A 
ATOM     58  C   UNL     1      -6.548  12.031  -3.541  1.00  0.00     0.031 C 
ATOM     59  C   UNL     1      -4.727  13.421  -2.592  1.00  0.00     0.034 A 
BRANCH  46  60
ATOM     60  C   UNL     1       1.273  13.272  -1.036  1.00  0.00     0.023 A 
ATOM     61  C   UNL     1       2.441  13.543  -1.770  1.00  0.00     0.031 A 
ATOM     62  C   UNL     1       1.228  13.691   0.306  1.00  0.00     0.131 A 
ATOM     63  C   UNL     1       3.539  14.150  -1.142  1.00  0.00     0.055 A 
ATOM     64  C   UNL     1       2.296  14.363   0.904  1.00  0.00     0.041 A 
ATOM     65  F   UNL     1       0.146  13.447   1.062  1.00  0.00    -0.206 F 
ATOM     66  C   UNL     1       3.466  14.584   0.184  1.00  0.00     0.022 A 
BRANCH  63  67
ATOM     67  S   UNL     1       5.110  14.248  -2.043  1.00  0.00     0.124 S 
ATOM     68  O   UNL     1       5.376  12.840  -2.327  1.00  0.00    -0.237 OA
ATOM     69  O   UNL     1       4.764  15.078  -3.191  1.00  0.00    -0.237 OA
ATOM     70  O   UNL     1       6.021  14.864  -1.079  1.00  0.00    -0.744 OA
ENDBRANCH  63  67
ENDBRANCH  46  60
BRANCH  47  71
ATOM     71  C   UNL     1      -6.332   8.027  -4.842  1.00  0.00     0.023 A 
ATOM     72  C   UNL     1      -6.997   8.407  -6.019  1.00  0.00     0.031 A 
ATOM     73  C   UNL     1      -6.821   6.911  -4.139  1.00  0.00     0.131 A 
ATOM     74  C   UNL     1      -8.141   7.707  -6.433  1.00  0.00     0.055 A 
ATOM     75  C   UNL     1      -7.928   6.186  -4.583  1.00  0.00     0.041 A 
ATOM     76  F   UNL     1      -6.221   6.504  -3.009  1.00  0.00    -0.206 F 
ATOM     77  C   UNL     1      -8.603   6.592  -5.730  1.00  0.00     0.022 A 
BRANCH  74  78
ATOM     78  S   UNL     1      -9.071   8.328  -7.861  1.00  0.00     0.124 S 
ATOM     79  O   UNL     1      -9.402   9.683  -7.435  1.00  0.00    -0.237 OA
ATOM     80  O   UNL     1      -8.089   8.213  -8.934  1.00  0.00    -0.237 OA
ATOM     81  O   UNL     1     -10.204   7.408  -7.954  1.00  0.00    -0.744 OA
ENDBRANCH  74  78
ENDBRANCH  47  71
BRANCH  59  82
ATOM     82  C   UNL     1      -5.709  14.565  -2.507  1.00  0.00     0.023 A 
ATOM     83  C   UNL     1      -6.815  14.531  -1.639  1.00  0.00     0.031 A 
ATOM     84  C   UNL     1      -5.545  15.700  -3.321  1.00  0.00     0.131 A 
ATOM     85  C   UNL     1      -7.743  15.585  -1.645  1.00  0.00     0.055 A 
ATOM     86  C   UNL     1      -6.439  16.771  -3.282  1.00  0.00     0.041 A 
ATOM     87  F   UNL     1      -4.509  15.786  -4.171  1.00  0.00    -0.206 F 
ATOM     88  C   UNL     1      -7.553  16.712  -2.450  1.00  0.00     0.022 A 
BRANCH  85  89
ATOM     89  S   UNL     1      -9.251  15.427  -0.648  1.00  0.00     0.124 S 
ATOM     90  O   UNL     1      -9.850  14.214  -1.194  1.00  0.00    -0.237 OA
ATOM     91  O   UNL     1      -8.721  15.323   0.707  1.00  0.00    -0.237 OA
ATOM     92  O   UNL     1      -9.982  16.661  -0.933  1.00  0.00    -0.744 OA
ENDBRANCH  85  89
ENDBRANCH  59  82
ENDBRANCH  33  34
ENDBRANCH  25  28
ENDBRANCH  23  24
ENDBRANCH   1  23
TORSDOF 16
