REMARK SMILES C[C@H]1CC[C@@](NC(=O)N[C@H]2CCOC2)(C(=O)NCCCNC(=O)c2ccc(-c3c4nc(c(-c5cc(S(=O)(=O)[O-])ccc5F)c5ccc([nH]5)c(-c5cc(S(=O)(=O)[O-])ccc5F)c5nc(c(-c6cc(S(=O)(=O)[O-])ccc6F)c6ccc3[nH]6)C=C5)C=C4)cc2)CC1
REMARK SMILES IDX 19 1 18 2 17 3 15 4 16 5 5 7 1 8 2 9 88 10 3 11 87 12 4 13
REMARK SMILES IDX 6 14 7 15 8 17 9 18 10 20 11 21 14 22 12 23 13 24 20 25
REMARK SMILES IDX 21 26 22 27 23 29 24 30 25 31 86 32 26 33 85 34 27 35 28 36
REMARK SMILES IDX 29 37 79 38 30 39 84 40 78 41 80 42 31 43 83 44 77 45 76 46
REMARK SMILES IDX 32 48 64 49 44 50 63 51 45 52 48 53 62 54 81 55 46 56 47 57
REMARK SMILES IDX 61 59 82 60 49 61 33 62 34 63 42 64 35 65 41 66 43 67 40 68
REMARK SMILES IDX 36 69 37 70 38 71 39 72 65 73 66 74 74 75 67 76 73 77 75 78
REMARK SMILES IDX 72 79 68 80 69 81 70 82 71 83 50 84 51 85 59 86 52 87 58 88
REMARK SMILES IDX 60 89 57 90 53 91 54 92 55 93 56 94
REMARK H PARENT 17 6 6 16 9 19 21 28 80 47 48 58
REMARK Flexibility Score: inf
ROOT
ATOM      1  C   UNL     1      -5.894   2.855  -2.645  1.00  0.00     0.042 C 
ENDROOT
BRANCH   1   2
ATOM      2  C   UNL     1      -5.206   1.547  -2.981  1.00  0.00     0.117 C 
BRANCH   2   3
ATOM      3  N   UNL     1      -4.785   0.847  -1.779  1.00  0.00    -0.354 N 
ATOM      4  C   UNL     1      -4.534  -0.478  -1.584  1.00  0.00     0.245 C 
ATOM      5  O   UNL     1      -4.064  -0.785  -0.484  1.00  0.00    -0.272 OA
ATOM      6  H   UNL     1      -4.662   1.417  -0.985  1.00  0.00     0.163 HD
BRANCH   4   7
ATOM      7  C   UNL     1      -4.957  -1.536  -2.640  1.00  0.00     0.120 C 
ATOM      8  C   UNL     1      -6.259  -3.329   0.981  1.00  0.00     0.007 C 
ATOM      9  C   UNL     1      -6.228  -3.309  -0.553  1.00  0.00    -0.014 C 
ATOM     10  C   UNL     1      -4.783  -3.543  -1.030  1.00  0.00     0.006 C 
ATOM     11  C   UNL     1      -6.907  -2.029  -1.066  1.00  0.00     0.006 C 
ATOM     12  C   UNL     1      -4.444  -2.966  -2.401  1.00  0.00     0.039 C 
ATOM     13  C   UNL     1      -6.504  -1.640  -2.492  1.00  0.00     0.039 C 
BRANCH   7  14
ATOM     14  N   UNL     1      -4.607  -1.123  -4.022  1.00  0.00    -0.324 N 
ATOM     15  C   UNL     1      -3.493  -0.863  -4.714  1.00  0.00     0.315 C 
ATOM     16  H   UNL     1      -5.411  -1.011  -4.579  1.00  0.00     0.166 HD
ATOM     17  O   UNL     1      -3.607  -0.817  -5.943  1.00  0.00    -0.249 OA
ATOM     18  N   UNL     1      -2.281  -0.606  -4.215  1.00  0.00    -0.333 N 
ATOM     19  H   UNL     1      -1.605  -0.513  -4.926  1.00  0.00     0.165 HD
BRANCH  18  20
ATOM     20  C   UNL     1      -1.704  -0.429  -2.897  1.00  0.00     0.112 C 
ATOM     21  C   UNL     1      -0.878  -1.594  -2.406  1.00  0.00     0.056 C 
ATOM     22  C   UNL     1      -0.700   0.717  -2.756  1.00  0.00     0.185 C 
ATOM     23  C   UNL     1      -0.183  -0.956  -1.224  1.00  0.00     0.162 C 
ATOM     24  O   UNL     1       0.156   0.374  -1.647  1.00  0.00    -0.379 OA
ENDBRANCH  18  20
ENDBRANCH   7  14
ENDBRANCH   4   7
ENDBRANCH   2   3
ENDBRANCH   1   2
BRANCH   1  25
ATOM     25  C   UNL     1      -4.943   3.879  -2.052  1.00  0.00     0.118 C 
BRANCH  25  26
ATOM     26  N   UNL     1      -4.088   4.508  -3.048  1.00  0.00    -0.352 N 
ATOM     27  C   UNL     1      -3.816   5.852  -3.173  1.00  0.00     0.251 C 
ATOM     28  H   UNL     1      -3.660   3.909  -3.701  1.00  0.00     0.163 HD
ATOM     29  O   UNL     1      -3.178   6.279  -4.129  1.00  0.00    -0.269 OA
BRANCH  27  30
ATOM     30  C   UNL     1      -4.363   6.763  -2.147  1.00  0.00     0.039 A 
ATOM     31  C   UNL     1      -5.226   7.786  -2.540  1.00  0.00     0.014 A 
ATOM     32  C   UNL     1      -4.132   6.499  -0.793  1.00  0.00     0.014 A 
ATOM     33  C   UNL     1      -5.915   8.508  -1.565  1.00  0.00     0.010 A 
ATOM     34  C   UNL     1      -4.886   7.160   0.169  1.00  0.00     0.010 A 
ATOM     35  C   UNL     1      -5.782   8.175  -0.206  1.00  0.00    -0.014 A 
BRANCH  35  36
ATOM     36  C   UNL     1      -6.545   8.899   0.845  1.00  0.00     0.031 A 
ATOM     37  C   UNL     1      -5.799   9.686   1.889  1.00  0.00     0.074 A 
ATOM     38  C   UNL     1      -7.889   8.803   0.897  1.00  0.00     0.049 A 
ATOM     39  N   UNL     1      -6.259  10.317   2.937  1.00  0.00    -0.248 NA
ATOM     40  C   UNL     1      -4.335   9.735   1.752  1.00  0.00     0.031 C 
ATOM     41  C   UNL     1      -8.721   8.033  -0.031  1.00  0.00     0.029 A 
ATOM     42  N   UNL     1      -8.794   9.350   1.773  1.00  0.00    -0.354 N 
ATOM     43  C   UNL     1      -5.142  10.827   3.590  1.00  0.00     0.074 A 
ATOM     44  C   UNL     1      -3.982  10.364   2.861  1.00  0.00     0.031 C 
ATOM     45  C   UNL     1     -10.012   8.177   0.311  1.00  0.00     0.029 A 
ATOM     46  C   UNL     1     -10.101   9.011   1.505  1.00  0.00     0.049 A 
ATOM     47  H   UNL     1      -8.532   9.930   2.523  1.00  0.00     0.167 HD
ATOM     48  C   UNL     1      -5.088  11.632   4.680  1.00  0.00     0.034 A 
ATOM     49  C   UNL     1     -11.239   9.329   2.155  1.00  0.00     0.034 A 
ATOM     50  C   UNL     1      -6.255  12.099   5.385  1.00  0.00     0.049 A 
ATOM     51  C   UNL     1     -11.156  10.216   3.374  1.00  0.00     0.074 A 
ATOM     52  C   UNL     1      -6.322  12.953   6.471  1.00  0.00     0.029 A 
ATOM     53  N   UNL     1      -7.564  11.749   5.073  1.00  0.00    -0.354 N 
ATOM     54  N   UNL     1     -10.093  10.728   3.951  1.00  0.00    -0.248 NA
ATOM     55  C   UNL     1     -12.424  10.578   4.020  1.00  0.00     0.031 C 
ATOM     56  C   UNL     1      -7.663  13.071   6.854  1.00  0.00     0.029 A 
ATOM     57  C   UNL     1      -8.441  12.352   5.961  1.00  0.00     0.049 A 
ATOM     58  H   UNL     1      -7.829  11.160   4.331  1.00  0.00     0.167 HD
ATOM     59  C   UNL     1     -10.571  11.501   5.007  1.00  0.00     0.074 A 
ATOM     60  C   UNL     1     -12.015  11.397   4.977  1.00  0.00     0.031 C 
ATOM     61  C   UNL     1      -9.880  12.234   5.917  1.00  0.00     0.034 A 
BRANCH  48  62
ATOM     62  C   UNL     1      -3.720  12.036   5.174  1.00  0.00     0.023 A 
ATOM     63  C   UNL     1      -2.843  12.792   4.376  1.00  0.00     0.031 A 
ATOM     64  C   UNL     1      -3.269  11.629   6.441  1.00  0.00     0.131 A 
ATOM     65  C   UNL     1      -1.536  13.045   4.816  1.00  0.00     0.055 A 
ATOM     66  C   UNL     1      -1.995  11.959   6.910  1.00  0.00     0.041 A 
ATOM     67  F   UNL     1      -4.052  10.886   7.240  1.00  0.00    -0.206 F 
ATOM     68  C   UNL     1      -1.114  12.657   6.089  1.00  0.00     0.022 A 
BRANCH  65  69
ATOM     69  S   UNL     1      -0.351  13.757   3.642  1.00  0.00     0.124 S 
ATOM     70  O   UNL     1      -0.346  12.749   2.583  1.00  0.00    -0.237 OA
ATOM     71  O   UNL     1      -0.968  15.034   3.305  1.00  0.00    -0.237 OA
ATOM     72  O   UNL     1       0.886  13.845   4.414  1.00  0.00    -0.744 OA
ENDBRANCH  65  69
ENDBRANCH  48  62
BRANCH  49  73
ATOM     73  C   UNL     1     -12.555   8.806   1.685  1.00  0.00     0.023 A 
ATOM     74  C   UNL     1     -13.558   9.673   1.221  1.00  0.00     0.031 A 
ATOM     75  C   UNL     1     -12.850   7.432   1.741  1.00  0.00     0.131 A 
ATOM     76  C   UNL     1     -14.822   9.166   0.883  1.00  0.00     0.055 A 
ATOM     77  C   UNL     1     -14.091   6.926   1.352  1.00  0.00     0.041 A 
ATOM     78  F   UNL     1     -11.927   6.557   2.171  1.00  0.00    -0.206 F 
ATOM     79  C   UNL     1     -15.092   7.797   0.933  1.00  0.00     0.022 A 
BRANCH  76  80
ATOM     80  S   UNL     1     -16.145  10.335   0.463  1.00  0.00     0.124 S 
ATOM     81  O   UNL     1     -16.193  11.170   1.658  1.00  0.00    -0.237 OA
ATOM     82  O   UNL     1     -15.617  10.967  -0.742  1.00  0.00    -0.237 OA
ATOM     83  O   UNL     1     -17.306   9.474   0.255  1.00  0.00    -0.744 OA
ENDBRANCH  76  80
ENDBRANCH  49  73
BRANCH  61  84
ATOM     84  C   UNL     1     -10.686  13.024   6.918  1.00  0.00     0.023 A 
ATOM     85  C   UNL     1     -11.454  12.396   7.914  1.00  0.00     0.031 A 
ATOM     86  C   UNL     1     -10.684  14.430   6.871  1.00  0.00     0.131 A 
ATOM     87  C   UNL     1     -12.229  13.171   8.789  1.00  0.00     0.055 A 
ATOM     88  C   UNL     1     -11.411  15.196   7.782  1.00  0.00     0.041 A 
ATOM     89  F   UNL     1      -9.969  15.081   5.940  1.00  0.00    -0.206 F 
ATOM     90  C   UNL     1     -12.200  14.567   8.740  1.00  0.00     0.022 A 
BRANCH  87  91
ATOM     91  S   UNL     1     -13.348  12.327   9.941  1.00  0.00     0.124 S 
ATOM     92  O   UNL     1     -14.201  11.567   9.034  1.00  0.00    -0.237 OA
ATOM     93  O   UNL     1     -12.425  11.543  10.755  1.00  0.00    -0.237 OA
ATOM     94  O   UNL     1     -14.011  13.425  10.642  1.00  0.00    -0.744 OA
ENDBRANCH  87  91
ENDBRANCH  61  84
ENDBRANCH  35  36
ENDBRANCH  27  30
ENDBRANCH  25  26
ENDBRANCH   1  25
TORSDOF 15
