REMARK SMILES CC[N@@H+]1CCC[C@@H]1C[N@@H+](C)C[C@H]([NH3+])C(=O)NCCCNC(=O)c1ccc(-c2c3nc(c(-c4cc(S(=O)(=O)[O-])ccc4F)c4ccc([nH]4)c(-c4cc(S(=O)(=O)[O-])ccc4F)c4nc(c(-c5cc(S(=O)(=O)[O-])ccc5F)c5ccc2[nH]5)C=C4)C=C3)cc1
REMARK SMILES IDX 17 1 16 2 14 3 15 4 12 6 11 7 9 8 10 9 8 11 7 12 3 13 4 14
REMARK SMILES IDX 5 16 6 17 2 18 1 19 13 20 18 24 19 25 20 26 21 27 22 29
REMARK SMILES IDX 23 30 24 31 85 32 25 33 84 34 26 35 27 36 28 37 78 38 29 39
REMARK SMILES IDX 83 40 77 41 79 42 30 43 82 44 76 45 75 46 31 48 63 49 43 50
REMARK SMILES IDX 62 51 44 52 47 53 61 54 80 55 45 56 46 57 60 59 81 60 48 61
REMARK SMILES IDX 32 62 33 63 41 64 34 65 40 66 42 67 39 68 35 69 36 70 37 71
REMARK SMILES IDX 38 72 64 73 65 74 73 75 66 76 72 77 74 78 71 79 67 80 68 81
REMARK SMILES IDX 69 82 70 83 49 84 50 85 58 86 51 87 57 88 59 89 56 90 52 91
REMARK SMILES IDX 53 92 54 93 55 94
REMARK H PARENT 16 5 9 10 3 15 13 21 13 22 13 23 20 28 79 47 47 58
REMARK Flexibility Score: inf
ROOT
ATOM      1  C   UNL     1      -0.104  -7.307  -1.931  1.00  0.00     0.118 C 
ENDROOT
BRANCH   1   2
ATOM      2  N   UNL     1      -1.527  -7.545  -2.052  1.00  0.00    -0.351 N 
ATOM      3  C   UNL     1      -2.636  -6.773  -2.097  1.00  0.00     0.284 C 
ATOM      4  O   UNL     1      -3.639  -7.377  -2.517  1.00  0.00    -0.268 OA
ATOM      5  H   UNL     1      -1.739  -8.505  -2.118  1.00  0.00     0.163 HD
BRANCH   3   6
ATOM      6  C   UNL     1      -2.849  -5.339  -1.526  1.00  0.00     0.326 C 
BRANCH   6   7
ATOM      7  C   UNL     1      -2.010  -4.081  -1.907  1.00  0.00     0.338 C 
BRANCH   7   8
ATOM      8  N   UNL     1      -0.628  -3.759  -1.479  1.00  0.00    -0.327 N 
ATOM      9  C   UNL     1       0.281  -3.829  -2.626  1.00  0.00     0.333 C 
ATOM     10  H   UNL     1      -0.647  -2.793  -1.151  1.00  0.00     0.348 HD
BRANCH   8  11
ATOM     11  C   UNL     1      -0.150  -4.437  -0.269  1.00  0.00     0.327 C 
BRANCH  11  12
ATOM     12  C   UNL     1      -0.270  -3.706   1.101  1.00  0.00     0.239 C 
ATOM     13  N   UNL     1      -0.111  -4.520   2.348  1.00  0.00    -0.328 N 
ATOM     14  C   UNL     1      -0.670  -3.655   3.407  1.00  0.00     0.262 C 
ATOM     15  H   UNL     1       0.875  -4.766   2.442  1.00  0.00     0.348 HD
ATOM     16  C   UNL     1      -1.880  -2.994   2.770  1.00  0.00     0.068 C 
ATOM     17  C   UNL     1      -1.482  -2.797   1.319  1.00  0.00     0.077 C 
BRANCH  13  18
ATOM     18  C   UNL     1      -0.753  -5.841   2.388  1.00  0.00     0.259 C 
ATOM     19  C   UNL     1      -0.090  -6.756   3.414  1.00  0.00     0.071 C 
ENDBRANCH  13  18
ENDBRANCH  11  12
ENDBRANCH   8  11
ENDBRANCH   7   8
ENDBRANCH   6   7
BRANCH   6  20
ATOM     20  N   UNL     1      -3.259  -5.427  -0.103  1.00  0.00    -0.343 N 
ATOM     21  H   UNL     1      -2.470  -5.750   0.458  1.00  0.00     0.345 HD
ATOM     22  H   UNL     1      -4.033  -6.085  -0.012  1.00  0.00     0.345 HD
ATOM     23  H   UNL     1      -3.554  -4.507   0.224  1.00  0.00     0.345 HD
ENDBRANCH   6  20
ENDBRANCH   3   6
ENDBRANCH   1   2
BRANCH   1  24
ATOM     24  C   UNL     1       0.506  -7.820  -0.632  1.00  0.00     0.042 C 
BRANCH  24  25
ATOM     25  C   UNL     1       1.522  -8.926  -0.849  1.00  0.00     0.118 C 
BRANCH  25  26
ATOM     26  N   UNL     1       2.700  -8.508  -1.600  1.00  0.00    -0.352 N 
ATOM     27  C   UNL     1       3.988  -8.992  -1.514  1.00  0.00     0.251 C 
ATOM     28  H   UNL     1       2.557  -7.786  -2.253  1.00  0.00     0.163 HD
ATOM     29  O   UNL     1       4.878  -8.468  -2.180  1.00  0.00    -0.269 OA
BRANCH  27  30
ATOM     30  C   UNL     1       4.296 -10.098  -0.579  1.00  0.00     0.039 A 
ATOM     31  C   UNL     1       5.458 -10.035   0.194  1.00  0.00     0.014 A 
ATOM     32  C   UNL     1       3.412 -11.166  -0.419  1.00  0.00     0.014 A 
ATOM     33  C   UNL     1       5.688 -11.005   1.174  1.00  0.00     0.010 A 
ATOM     34  C   UNL     1       3.576 -12.050   0.638  1.00  0.00     0.010 A 
ATOM     35  C   UNL     1       4.727 -11.996   1.434  1.00  0.00    -0.014 A 
BRANCH  35  36
ATOM     36  C   UNL     1       4.923 -13.014   2.499  1.00  0.00     0.031 A 
ATOM     37  C   UNL     1       4.941 -14.478   2.136  1.00  0.00     0.074 A 
ATOM     38  C   UNL     1       5.020 -12.625   3.787  1.00  0.00     0.049 A 
ATOM     39  N   UNL     1       5.039 -15.525   2.914  1.00  0.00    -0.248 NA
ATOM     40  C   UNL     1       4.775 -14.811   0.712  1.00  0.00     0.031 C 
ATOM     41  C   UNL     1       4.943 -11.240   4.263  1.00  0.00     0.029 A 
ATOM     42  N   UNL     1       5.210 -13.354   4.933  1.00  0.00    -0.354 N 
ATOM     43  C   UNL     1       4.913 -16.631   2.079  1.00  0.00     0.074 A 
ATOM     44  C   UNL     1       4.652 -16.128   0.750  1.00  0.00     0.031 C 
ATOM     45  C   UNL     1       5.142 -11.218   5.591  1.00  0.00     0.029 A 
ATOM     46  C   UNL     1       5.316 -12.584   6.070  1.00  0.00     0.049 A 
ATOM     47  H   UNL     1       5.266 -14.337   4.942  1.00  0.00     0.167 HD
ATOM     48  C   UNL     1       5.040 -17.946   2.386  1.00  0.00     0.034 A 
ATOM     49  C   UNL     1       5.540 -12.945   7.349  1.00  0.00     0.034 A 
ATOM     50  C   UNL     1       5.353 -18.421   3.710  1.00  0.00     0.049 A 
ATOM     51  C   UNL     1       5.722 -14.412   7.656  1.00  0.00     0.074 A 
ATOM     52  C   UNL     1       5.582 -19.718   4.131  1.00  0.00     0.029 A 
ATOM     53  N   UNL     1       5.490 -17.609   4.830  1.00  0.00    -0.354 N 
ATOM     54  N   UNL     1       5.670 -15.442   6.842  1.00  0.00    -0.248 NA
ATOM     55  C   UNL     1       6.016 -14.760   9.051  1.00  0.00     0.031 C 
ATOM     56  C   UNL     1       5.795 -19.698   5.514  1.00  0.00     0.029 A 
ATOM     57  C   UNL     1       5.779 -18.381   5.944  1.00  0.00     0.049 A 
ATOM     58  H   UNL     1       5.395 -16.630   4.832  1.00  0.00     0.167 HD
ATOM     59  C   UNL     1       5.968 -16.556   7.622  1.00  0.00     0.074 A 
ATOM     60  C   UNL     1       6.221 -16.064   8.961  1.00  0.00     0.031 C 
ATOM     61  C   UNL     1       6.028 -17.866   7.270  1.00  0.00     0.034 A 
BRANCH  48  62
ATOM     62  C   UNL     1       4.824 -18.949   1.276  1.00  0.00     0.023 A 
ATOM     63  C   UNL     1       5.640 -18.978   0.130  1.00  0.00     0.031 A 
ATOM     64  C   UNL     1       3.767 -19.873   1.349  1.00  0.00     0.131 A 
ATOM     65  C   UNL     1       5.337 -19.851  -0.927  1.00  0.00     0.055 A 
ATOM     66  C   UNL     1       3.525 -20.800   0.332  1.00  0.00     0.041 A 
ATOM     67  F   UNL     1       2.939 -19.882   2.405  1.00  0.00    -0.206 F 
ATOM     68  C   UNL     1       4.302 -20.782  -0.822  1.00  0.00     0.022 A 
BRANCH  65  69
ATOM     69  S   UNL     1       6.223 -19.652  -2.497  1.00  0.00     0.124 S 
ATOM     70  O   UNL     1       5.861 -18.286  -2.868  1.00  0.00    -0.237 OA
ATOM     71  O   UNL     1       7.612 -19.861  -2.106  1.00  0.00    -0.237 OA
ATOM     72  O   UNL     1       5.651 -20.693  -3.349  1.00  0.00    -0.744 OA
ENDBRANCH  65  69
ENDBRANCH  48  62
BRANCH  49  73
ATOM     73  C   UNL     1       5.637 -11.922   8.433  1.00  0.00     0.023 A 
ATOM     74  C   UNL     1       6.828 -11.757   9.160  1.00  0.00     0.031 A 
ATOM     75  C   UNL     1       4.530 -11.139   8.803  1.00  0.00     0.131 A 
ATOM     76  C   UNL     1       6.866 -10.884  10.259  1.00  0.00     0.055 A 
ATOM     77  C   UNL     1       4.590 -10.227   9.859  1.00  0.00     0.041 A 
ATOM     78  F   UNL     1       3.368 -11.249   8.139  1.00  0.00    -0.206 F 
ATOM     79  C   UNL     1       5.759 -10.109  10.606  1.00  0.00     0.022 A 
BRANCH  76  80
ATOM     80  S   UNL     1       8.353 -10.863  11.299  1.00  0.00     0.124 S 
ATOM     81  O   UNL     1       8.474 -12.267  11.673  1.00  0.00    -0.237 OA
ATOM     82  O   UNL     1       9.361 -10.355  10.373  1.00  0.00    -0.237 OA
ATOM     83  O   UNL     1       7.994  -9.955  12.386  1.00  0.00    -0.744 OA
ENDBRANCH  76  80
ENDBRANCH  49  73
BRANCH  61  84
ATOM     84  C   UNL     1       6.440 -18.840   8.347  1.00  0.00     0.023 A 
ATOM     85  C   UNL     1       5.654 -19.052   9.492  1.00  0.00     0.031 A 
ATOM     86  C   UNL     1       7.660 -19.532   8.244  1.00  0.00     0.131 A 
ATOM     87  C   UNL     1       6.135 -19.865  10.527  1.00  0.00     0.055 A 
ATOM     88  C   UNL     1       8.098 -20.400   9.244  1.00  0.00     0.041 A 
ATOM     89  F   UNL     1       8.451 -19.368   7.171  1.00  0.00    -0.206 F 
ATOM     90  C   UNL     1       7.344 -20.554  10.403  1.00  0.00     0.022 A 
BRANCH  87  91
ATOM     91  S   UNL     1       5.225 -19.898  12.095  1.00  0.00     0.124 S 
ATOM     92  O   UNL     1       5.163 -18.481  12.441  1.00  0.00    -0.237 OA
ATOM     93  O   UNL     1       3.960 -20.514  11.707  1.00  0.00    -0.237 OA
ATOM     94  O   UNL     1       6.071 -20.713  12.965  1.00  0.00    -0.744 OA
ENDBRANCH  87  91
ENDBRANCH  61  84
ENDBRANCH  35  36
ENDBRANCH  27  30
ENDBRANCH  25  26
ENDBRANCH  24  25
ENDBRANCH   1  24
TORSDOF 19
