REMARK SMILES COC(=O)c1ccc(Cl)c(-c2ccc(C(=O)NCCCNC(=O)c3ccc(-c4c5nc(c(-c6cc(S(=O)(=O)[O-])ccc6F)c6ccc([nH]6)c(-c6cc(S(=O)(=O)[O-])ccc6F)c6nc(c(-c7cc(S(=O)(=O)[O-])ccc7F)c7ccc4[nH]7)C=C6)C=C5)cc3)c(F)c2)c1
REMARK SMILES IDX 19 1 18 2 17 3 15 4 16 5 14 7 11 8 12 9 89 10 13 11 87 12
REMARK SMILES IDX 88 13 10 14 5 15 6 16 90 17 7 18 8 19 9 20 3 21 4 22 2 23
REMARK SMILES IDX 1 24 20 25 21 26 22 27 23 29 24 30 25 31 86 32 26 33 85 34
REMARK SMILES IDX 27 35 28 36 29 37 79 38 30 39 84 40 78 41 80 42 31 43 83 44
REMARK SMILES IDX 77 45 76 46 32 48 64 49 44 50 63 51 45 52 48 53 62 54 81 55
REMARK SMILES IDX 46 56 47 57 61 59 82 60 49 61 33 62 34 63 42 64 35 65 41 66
REMARK SMILES IDX 43 67 40 68 36 69 37 70 38 71 39 72 65 73 66 74 74 75 67 76
REMARK SMILES IDX 73 77 75 78 72 79 68 80 69 81 70 82 71 83 50 84 51 85 59 86
REMARK SMILES IDX 52 87 58 88 60 89 57 90 53 91 54 92 55 93 56 94
REMARK H PARENT 17 6 21 28 80 47 48 58
REMARK Flexibility Score: inf
ROOT
ATOM      1  C   UNL     1       6.897  -5.692   7.447  1.00  0.00     0.042 C 
ENDROOT
BRANCH   1   2
ATOM      2  C   UNL     1       6.827  -6.526   6.167  1.00  0.00     0.118 C 
BRANCH   2   3
ATOM      3  N   UNL     1       6.109  -7.771   6.376  1.00  0.00    -0.352 N 
ATOM      4  C   UNL     1       4.832  -8.165   6.069  1.00  0.00     0.254 C 
ATOM      5  O   UNL     1       4.531  -9.336   6.313  1.00  0.00    -0.269 OA
ATOM      6  H   UNL     1       6.642  -8.466   6.826  1.00  0.00     0.163 HD
BRANCH   4   7
ATOM      7  C   UNL     1       3.818  -7.305   5.406  1.00  0.00     0.075 A 
ATOM      8  C   UNL     1       1.769  -5.845   4.086  1.00  0.00    -0.014 A 
ATOM      9  C   UNL     1       1.854  -7.234   3.944  1.00  0.00     0.010 A 
ATOM     10  C   UNL     1       2.700  -5.208   4.914  1.00  0.00     0.048 A 
ATOM     11  C   UNL     1       2.867  -7.953   4.596  1.00  0.00     0.017 A 
ATOM     12  C   UNL     1       3.688  -5.932   5.577  1.00  0.00     0.136 A 
ATOM     13  F   UNL     1       4.463  -5.234   6.409  1.00  0.00    -0.206 F 
BRANCH   8  14
ATOM     14  C   UNL     1       0.753  -5.035   3.404  1.00  0.00     0.001 A 
ATOM     15  C   UNL     1       0.289  -3.276   1.771  1.00  0.00     0.060 A 
ATOM     16  C   UNL     1      -1.038  -3.210   2.203  1.00  0.00     0.017 A 
ATOM     17  C   UNL     1       1.168  -4.197   2.352  1.00  0.00     0.026 A 
ATOM     18  C   UNL     1      -1.477  -4.064   3.217  1.00  0.00     0.022 A 
ATOM     19  C   UNL     1      -0.590  -4.965   3.819  1.00  0.00     0.048 A 
ATOM     20  Cl  UNL     1      -1.198  -5.938   5.113  1.00  0.00    -0.084 Cl
BRANCH  15  21
ATOM     21  C   UNL     1       0.832  -2.365   0.736  1.00  0.00     0.337 C 
ATOM     22  O   UNL     1       1.730  -2.669  -0.026  1.00  0.00    -0.246 OA
BRANCH  21  23
ATOM     23  O   UNL     1       0.250  -1.147   0.862  1.00  0.00    -0.465 OA
ATOM     24  C   UNL     1       0.857  -0.136   0.055  1.00  0.00     0.282 C 
ENDBRANCH  21  23
ENDBRANCH  15  21
ENDBRANCH   8  14
ENDBRANCH   4   7
ENDBRANCH   2   3
ENDBRANCH   1   2
BRANCH   1  25
ATOM     25  C   UNL     1       7.925  -6.184   8.458  1.00  0.00     0.118 C 
BRANCH  25  26
ATOM     26  N   UNL     1       9.287  -5.937   8.016  1.00  0.00    -0.352 N 
ATOM     27  C   UNL     1      10.300  -5.237   8.622  1.00  0.00     0.251 C 
ATOM     28  H   UNL     1       9.519  -6.333   7.145  1.00  0.00     0.163 HD
ATOM     29  O   UNL     1      11.299  -4.959   7.964  1.00  0.00    -0.269 OA
BRANCH  27  30
ATOM     30  C   UNL     1      10.202  -4.809  10.039  1.00  0.00     0.039 A 
ATOM     31  C   UNL     1      10.758  -3.578  10.402  1.00  0.00     0.014 A 
ATOM     32  C   UNL     1       9.636  -5.628  11.021  1.00  0.00     0.014 A 
ATOM     33  C   UNL     1      10.715  -3.156  11.734  1.00  0.00     0.010 A 
ATOM     34  C   UNL     1       9.531  -5.175  12.337  1.00  0.00     0.010 A 
ATOM     35  C   UNL     1      10.082  -3.941  12.710  1.00  0.00    -0.014 A 
BRANCH  35  36
ATOM     36  C   UNL     1      10.013  -3.492  14.126  1.00  0.00     0.031 A 
ATOM     37  C   UNL     1      10.732  -4.265  15.200  1.00  0.00     0.074 A 
ATOM     38  C   UNL     1       9.279  -2.408  14.447  1.00  0.00     0.049 A 
ATOM     39  N   UNL     1      10.741  -4.066  16.493  1.00  0.00    -0.248 NA
ATOM     40  C   UNL     1      11.526  -5.426  14.767  1.00  0.00     0.031 C 
ATOM     41  C   UNL     1       8.515  -1.596  13.497  1.00  0.00     0.029 A 
ATOM     42  N   UNL     1       9.052  -1.802  15.657  1.00  0.00    -0.354 N 
ATOM     43  C   UNL     1      11.523  -5.084  17.029  1.00  0.00     0.074 A 
ATOM     44  C   UNL     1      11.937  -5.923  15.925  1.00  0.00     0.031 C 
ATOM     45  C   UNL     1       7.931  -0.582  14.156  1.00  0.00     0.029 A 
ATOM     46  C   UNL     1       8.240  -0.695  15.578  1.00  0.00     0.049 A 
ATOM     47  H   UNL     1       9.435  -2.129  16.503  1.00  0.00     0.167 HD
ATOM     48  C   UNL     1      11.877  -5.288  18.321  1.00  0.00     0.034 A 
ATOM     49  C   UNL     1       7.786   0.133  16.541  1.00  0.00     0.034 A 
ATOM     50  C   UNL     1      11.489  -4.424  19.407  1.00  0.00     0.049 A 
ATOM     51  C   UNL     1       8.193  -0.115  17.968  1.00  0.00     0.074 A 
ATOM     52  C   UNL     1      11.848  -4.508  20.741  1.00  0.00     0.029 A 
ATOM     53  N   UNL     1      10.657  -3.320  19.286  1.00  0.00    -0.354 N 
ATOM     54  N   UNL     1       8.945  -1.075  18.453  1.00  0.00    -0.248 NA
ATOM     55  C   UNL     1       7.692   0.827  18.978  1.00  0.00     0.031 C 
ATOM     56  C   UNL     1      11.191  -3.488  21.435  1.00  0.00     0.029 A 
ATOM     57  C   UNL     1      10.472  -2.730  20.525  1.00  0.00     0.049 A 
ATOM     58  H   UNL     1      10.258  -3.003  18.444  1.00  0.00     0.167 HD
ATOM     59  C   UNL     1       9.021  -0.842  19.822  1.00  0.00     0.074 A 
ATOM     60  C   UNL     1       8.244   0.352  20.087  1.00  0.00     0.031 C 
ATOM     61  C   UNL     1       9.681  -1.549  20.773  1.00  0.00     0.034 A 
BRANCH  48  62
ATOM     62  C   UNL     1      12.716  -6.498  18.638  1.00  0.00     0.023 A 
ATOM     63  C   UNL     1      14.053  -6.599  18.219  1.00  0.00     0.031 A 
ATOM     64  C   UNL     1      12.179  -7.551  19.399  1.00  0.00     0.131 A 
ATOM     65  C   UNL     1      14.797  -7.748  18.529  1.00  0.00     0.055 A 
ATOM     66  C   UNL     1      12.942  -8.664  19.757  1.00  0.00     0.041 A 
ATOM     67  F   UNL     1      10.902  -7.512  19.812  1.00  0.00    -0.206 F 
ATOM     68  C   UNL     1      14.258  -8.770  19.315  1.00  0.00     0.022 A 
BRANCH  65  69
ATOM     69  S   UNL     1      16.462  -7.922  17.834  1.00  0.00     0.124 S 
ATOM     70  O   UNL     1      16.173  -8.045  16.407  1.00  0.00    -0.237 OA
ATOM     71  O   UNL     1      17.112  -6.685  18.249  1.00  0.00    -0.237 OA
ATOM     72  O   UNL     1      16.973  -9.136  18.468  1.00  0.00    -0.744 OA
ENDBRANCH  65  69
ENDBRANCH  48  62
BRANCH  49  73
ATOM     73  C   UNL     1       6.886   1.263  16.183  1.00  0.00     0.023 A 
ATOM     74  C   UNL     1       7.329   2.592  16.254  1.00  0.00     0.031 A 
ATOM     75  C   UNL     1       5.569   1.024  15.752  1.00  0.00     0.131 A 
ATOM     76  C   UNL     1       6.455   3.638  15.915  1.00  0.00     0.055 A 
ATOM     77  C   UNL     1       4.716   2.064  15.381  1.00  0.00     0.041 A 
ATOM     78  F   UNL     1       5.104  -0.231  15.658  1.00  0.00    -0.206 F 
ATOM     79  C   UNL     1       5.157   3.381  15.466  1.00  0.00     0.022 A 
BRANCH  76  80
ATOM     80  S   UNL     1       7.033   5.349  16.085  1.00  0.00     0.124 S 
ATOM     81  O   UNL     1       7.236   5.451  17.526  1.00  0.00    -0.237 OA
ATOM     82  O   UNL     1       8.239   5.348  15.264  1.00  0.00    -0.237 OA
ATOM     83  O   UNL     1       5.923   6.136  15.553  1.00  0.00    -0.744 OA
ENDBRANCH  76  80
ENDBRANCH  49  73
BRANCH  61  84
ATOM     84  C   UNL     1       9.614  -1.041  22.187  1.00  0.00     0.023 A 
ATOM     85  C   UNL     1       8.446  -1.166  22.956  1.00  0.00     0.031 A 
ATOM     86  C   UNL     1      10.752  -0.475  22.787  1.00  0.00     0.131 A 
ATOM     87  C   UNL     1       8.434  -0.708  24.282  1.00  0.00     0.055 A 
ATOM     88  C   UNL     1      10.748  -0.061  24.119  1.00  0.00     0.041 A 
ATOM     89  F   UNL     1      11.893  -0.338  22.093  1.00  0.00    -0.206 F 
ATOM     90  C   UNL     1       9.583  -0.174  24.873  1.00  0.00     0.022 A 
BRANCH  87  91
ATOM     91  S   UNL     1       6.888  -0.800  25.225  1.00  0.00     0.124 S 
ATOM     92  O   UNL     1       6.039   0.141  24.502  1.00  0.00    -0.237 OA
ATOM     93  O   UNL     1       6.526  -2.208  25.104  1.00  0.00    -0.237 OA
ATOM     94  O   UNL     1       7.280  -0.377  26.568  1.00  0.00    -0.744 OA
ENDBRANCH  87  91
ENDBRANCH  61  84
ENDBRANCH  35  36
ENDBRANCH  27  30
ENDBRANCH  25  26
ENDBRANCH   1  25
TORSDOF 16
