REMARK SMILES CC1([C@@]2(C)C[C@@H]2C(=O)NCCCNC(=O)c2ccc(-c3c4nc(c(-c5cc(S(=O)(=O)[O-])ccc5F)c5ccc([nH]5)c(-c5cc(S(=O)(=O)[O-])ccc5F)c5nc(c(-c6cc(S(=O)(=O)[O-])ccc6F)c6ccc3[nH]6)C=C5)C=C4)cc2)CC1
REMARK SMILES IDX 12 1 11 2 10 3 9 4 7 5 8 6 6 8 3 9 4 10 5 11 2 12 1 13 79 14
REMARK SMILES IDX 80 15 13 16 14 17 15 19 16 20 17 21 78 22 18 23 77 24 19 25
REMARK SMILES IDX 20 26 21 27 71 28 22 29 76 30 70 31 72 32 23 33 75 34 69 35
REMARK SMILES IDX 68 36 24 38 56 39 36 40 55 41 37 42 40 43 54 44 73 45 38 46
REMARK SMILES IDX 39 47 53 49 74 50 41 51 25 52 26 53 34 54 27 55 33 56 35 57
REMARK SMILES IDX 32 58 28 59 29 60 30 61 31 62 57 63 58 64 66 65 59 66 65 67
REMARK SMILES IDX 67 68 64 69 60 70 61 71 62 72 63 73 42 74 43 75 51 76 44 77
REMARK SMILES IDX 50 78 52 79 49 80 45 81 46 82 47 83 48 84
REMARK H PARENT 9 7 13 18 72 37 40 48
REMARK Flexibility Score: inf
ROOT
ATOM      1  C   UNL     1       3.656  -3.834   0.570  1.00  0.00     0.118 C 
ENDROOT
BRANCH   1   2
ATOM      2  C   UNL     1       2.613  -2.745   0.350  1.00  0.00     0.042 C 
BRANCH   2   3
ATOM      3  C   UNL     1       1.277  -3.032   1.023  1.00  0.00     0.117 C 
BRANCH   3   4
ATOM      4  N   UNL     1       1.353  -2.912   2.464  1.00  0.00    -0.356 N 
ATOM      5  C   UNL     1       0.890  -1.893   3.251  1.00  0.00     0.223 C 
ATOM      6  O   UNL     1       1.016  -1.943   4.468  1.00  0.00    -0.275 OA
ATOM      7  H   UNL     1       1.792  -3.656   2.936  1.00  0.00     0.163 HD
BRANCH   5   8
ATOM      8  C   UNL     1       0.198  -0.752   2.597  1.00  0.00     0.085 C 
ATOM      9  C   UNL     1       0.936   0.500   2.098  1.00  0.00    -0.015 C 
ATOM     10  C   UNL     1       2.419   0.643   2.378  1.00  0.00     0.013 C 
ATOM     11  C   UNL     1       0.061   0.553   3.338  1.00  0.00     0.022 C 
BRANCH   9  12
ATOM     12  C   UNL     1       0.484   1.167   0.748  1.00  0.00    -0.026 C 
ATOM     13  C   UNL     1       0.782   0.354  -0.493  1.00  0.00     0.012 C 
ATOM     14  C   UNL     1       0.602   2.676   0.599  1.00  0.00     0.008 C 
ATOM     15  C   UNL     1      -0.754   2.046   0.655  1.00  0.00     0.008 C 
ENDBRANCH   9  12
ENDBRANCH   5   8
ENDBRANCH   3   4
ENDBRANCH   2   3
ENDBRANCH   1   2
BRANCH   1  16
ATOM     16  N   UNL     1       3.303  -5.077  -0.102  1.00  0.00    -0.352 N 
ATOM     17  C   UNL     1       3.991  -5.791  -1.053  1.00  0.00     0.251 C 
ATOM     18  H   UNL     1       2.438  -5.465   0.166  1.00  0.00     0.163 HD
ATOM     19  O   UNL     1       3.420  -6.701  -1.649  1.00  0.00    -0.269 OA
BRANCH  17  20
ATOM     20  C   UNL     1       5.396  -5.453  -1.375  1.00  0.00     0.039 A 
ATOM     21  C   UNL     1       5.804  -5.466  -2.712  1.00  0.00     0.014 A 
ATOM     22  C   UNL     1       6.313  -5.140  -0.369  1.00  0.00     0.014 A 
ATOM     23  C   UNL     1       7.111  -5.097  -3.042  1.00  0.00     0.010 A 
ATOM     24  C   UNL     1       7.589  -4.695  -0.706  1.00  0.00     0.010 A 
ATOM     25  C   UNL     1       8.003  -4.668  -2.046  1.00  0.00    -0.014 A 
BRANCH  25  26
ATOM     26  C   UNL     1       9.368  -4.182  -2.384  1.00  0.00     0.031 A 
ATOM     27  C   UNL     1      10.579  -4.906  -1.858  1.00  0.00     0.074 A 
ATOM     28  C   UNL     1       9.515  -3.050  -3.102  1.00  0.00     0.049 A 
ATOM     29  N   UNL     1      11.843  -4.583  -1.954  1.00  0.00    -0.248 NA
ATOM     30  C   UNL     1      10.332  -6.143  -1.101  1.00  0.00     0.031 C 
ATOM     31  C   UNL     1       8.417  -2.242  -3.638  1.00  0.00     0.029 A 
ATOM     32  N   UNL     1      10.643  -2.370  -3.492  1.00  0.00    -0.354 N 
ATOM     33  C   UNL     1      12.540  -5.562  -1.254  1.00  0.00     0.074 A 
ATOM     34  C   UNL     1      11.552  -6.462  -0.697  1.00  0.00     0.031 C 
ATOM     35  C   UNL     1       8.925  -1.190  -4.299  1.00  0.00     0.029 A 
ATOM     36  C   UNL     1      10.380  -1.211  -4.187  1.00  0.00     0.049 A 
ATOM     37  H   UNL     1      11.555  -2.683  -3.293  1.00  0.00     0.167 HD
ATOM     38  C   UNL     1      13.880  -5.705  -1.105  1.00  0.00     0.034 A 
ATOM     39  C   UNL     1      11.211  -0.259  -4.657  1.00  0.00     0.034 A 
ATOM     40  C   UNL     1      14.850  -4.805  -1.680  1.00  0.00     0.049 A 
ATOM     41  C   UNL     1      12.697  -0.423  -4.449  1.00  0.00     0.074 A 
ATOM     42  C   UNL     1      16.231  -4.895  -1.648  1.00  0.00     0.029 A 
ATOM     43  N   UNL     1      14.546  -3.643  -2.378  1.00  0.00    -0.354 N 
ATOM     44  N   UNL     1      13.342  -1.388  -3.834  1.00  0.00    -0.248 NA
ATOM     45  C   UNL     1      13.566   0.622  -5.005  1.00  0.00     0.031 C 
ATOM     46  C   UNL     1      16.760  -3.748  -2.247  1.00  0.00     0.029 A 
ATOM     47  C   UNL     1      15.713  -2.987  -2.742  1.00  0.00     0.049 A 
ATOM     48  H   UNL     1      13.635  -3.330  -2.584  1.00  0.00     0.167 HD
ATOM     49  C   UNL     1      14.695  -1.081  -3.962  1.00  0.00     0.074 A 
ATOM     50  C   UNL     1      14.771   0.149  -4.723  1.00  0.00     0.031 C 
ATOM     51  C   UNL     1      15.776  -1.757  -3.496  1.00  0.00     0.034 A 
BRANCH  38  52
ATOM     52  C   UNL     1      14.376  -6.856  -0.261  1.00  0.00     0.023 A 
ATOM     53  C   UNL     1      14.140  -8.195  -0.616  1.00  0.00     0.031 A 
ATOM     54  C   UNL     1      15.094  -6.607   0.923  1.00  0.00     0.131 A 
ATOM     55  C   UNL     1      14.559  -9.230   0.234  1.00  0.00     0.055 A 
ATOM     56  C   UNL     1      15.581  -7.644   1.722  1.00  0.00     0.041 A 
ATOM     57  F   UNL     1      15.330  -5.349   1.328  1.00  0.00    -0.206 F 
ATOM     58  C   UNL     1      15.303  -8.965   1.386  1.00  0.00     0.022 A 
BRANCH  55  59
ATOM     59  S   UNL     1      13.999 -10.919  -0.115  1.00  0.00     0.124 S 
ATOM     60  O   UNL     1      12.547 -10.760  -0.087  1.00  0.00    -0.237 OA
ATOM     61  O   UNL     1      14.587 -11.183  -1.423  1.00  0.00    -0.237 OA
ATOM     62  O   UNL     1      14.554 -11.700   0.989  1.00  0.00    -0.744 OA
ENDBRANCH  55  59
ENDBRANCH  38  52
BRANCH  39  63
ATOM     63  C   UNL     1      10.668   0.953  -5.340  1.00  0.00     0.023 A 
ATOM     64  C   UNL     1      10.983   1.235  -6.679  1.00  0.00     0.031 A 
ATOM     65  C   UNL     1       9.867   1.877  -4.645  1.00  0.00     0.131 A 
ATOM     66  C   UNL     1      10.549   2.436  -7.262  1.00  0.00     0.055 A 
ATOM     67  C   UNL     1       9.384   3.039  -5.250  1.00  0.00     0.041 A 
ATOM     68  F   UNL     1       9.533   1.659  -3.363  1.00  0.00    -0.206 F 
ATOM     69  C   UNL     1       9.739   3.332  -6.562  1.00  0.00     0.022 A 
BRANCH  66  70
ATOM     70  S   UNL     1      11.153   2.865  -8.919  1.00  0.00     0.124 S 
ATOM     71  O   UNL     1      12.598   2.833  -8.724  1.00  0.00    -0.237 OA
ATOM     72  O   UNL     1      10.591   1.792  -9.732  1.00  0.00    -0.237 OA
ATOM     73  O   UNL     1      10.583   4.189  -9.156  1.00  0.00    -0.744 OA
ENDBRANCH  66  70
ENDBRANCH  39  63
BRANCH  51  74
ATOM     74  C   UNL     1      17.139  -1.208  -3.847  1.00  0.00     0.023 A 
ATOM     75  C   UNL     1      17.596   0.026  -3.353  1.00  0.00     0.031 A 
ATOM     76  C   UNL     1      17.997  -1.941  -4.688  1.00  0.00     0.131 A 
ATOM     77  C   UNL     1      18.852   0.514  -3.745  1.00  0.00     0.055 A 
ATOM     78  C   UNL     1      19.271  -1.482  -5.021  1.00  0.00     0.041 A 
ATOM     79  F   UNL     1      17.611  -3.123  -5.194  1.00  0.00    -0.206 F 
ATOM     80  C   UNL     1      19.701  -0.241  -4.559  1.00  0.00     0.022 A 
BRANCH  77  81
ATOM     81  S   UNL     1      19.327   2.194  -3.254  1.00  0.00     0.124 S 
ATOM     82  O   UNL     1      18.256   2.995  -3.838  1.00  0.00    -0.237 OA
ATOM     83  O   UNL     1      19.334   2.104  -1.798  1.00  0.00    -0.237 OA
ATOM     84  O   UNL     1      20.641   2.373  -3.869  1.00  0.00    -0.744 OA
ENDBRANCH  77  81
ENDBRANCH  51  74
ENDBRANCH  25  26
ENDBRANCH  17  20
ENDBRANCH   1  16
TORSDOF 14
