REMARK SMILES CN(C(=O)C[C@H]1SC(=O)N(c2cccc(O)c2)C1=O)c1ccccc1C(=O)NCCCNC(=O)c1ccc(-c2c3nc(c(-c4cc(S(=O)(=O)[O-])ccc4F)c4ccc([nH]4)c(-c4cc(S(=O)(=O)[O-])ccc4F)c4nc(c(-c5cc(S(=O)(=O)[O-])ccc5F)c5ccc2[nH]5)C=C4)C=C3)cc1
REMARK SMILES IDX 26 1 27 2 28 3 25 5 20 6 21 7 22 8 24 9 23 10 2 11 1 12 3 13
REMARK SMILES IDX 4 14 5 15 6 16 7 17 18 18 8 19 10 20 19 21 9 22 11 23 12 24
REMARK SMILES IDX 17 25 13 26 15 27 14 28 16 29 29 31 30 32 31 33 32 34 33 35
REMARK SMILES IDX 34 37 35 38 36 39 97 40 37 41 96 42 38 43 39 44 40 45 90 46
REMARK SMILES IDX 41 47 95 48 89 49 91 50 42 51 94 52 88 53 87 54 43 56 75 57
REMARK SMILES IDX 55 58 74 59 56 60 59 61 73 62 92 63 57 64 58 65 72 67 93 68
REMARK SMILES IDX 60 69 44 70 45 71 53 72 46 73 52 74 54 75 51 76 47 77 48 78
REMARK SMILES IDX 49 79 50 80 76 81 77 82 85 83 78 84 84 85 86 86 83 87 79 88
REMARK SMILES IDX 80 89 81 90 82 91 61 92 62 93 70 94 63 95 69 96 71 97 68 98
REMARK SMILES IDX 64 99 65 100 66 101 67 102
REMARK H PARENT 28 4 16 30 32 36 91 55 59 66
REMARK Flexibility Score: inf
ROOT
ATOM      1  C   UNL     1      -1.819  -5.392  -1.491  1.00  0.00     0.253 C 
ATOM      2  O   UNL     1      -2.754  -6.168  -1.750  1.00  0.00    -0.269 OA
ATOM      3  N   UNL     1      -1.679  -5.188  -0.133  1.00  0.00    -0.352 N 
ATOM      4  H   UNL     1      -2.419  -5.602   0.366  1.00  0.00     0.163 HD
ENDROOT
BRANCH   1   5
ATOM      5  C   UNL     1      -1.074  -4.835  -2.695  1.00  0.00     0.063 A 
ATOM      6  C   UNL     1       0.199  -4.265  -2.849  1.00  0.00     0.056 A 
ATOM      7  C   UNL     1       0.673  -3.863  -4.135  1.00  0.00     0.027 A 
ATOM      8  C   UNL     1      -0.086  -3.992  -5.282  1.00  0.00     0.002 A 
ATOM      9  C   UNL     1      -1.820  -4.945  -3.905  1.00  0.00     0.016 A 
ATOM     10  C   UNL     1      -1.346  -4.537  -5.165  1.00  0.00     0.001 A 
BRANCH   6  11
ATOM     11  N   UNL     1       1.163  -4.088  -1.831  1.00  0.00    -0.315 N 
ATOM     12  C   UNL     1       1.795  -5.316  -1.355  1.00  0.00     0.153 C 
BRANCH  11  13
ATOM     13  C   UNL     1       1.691  -2.799  -1.707  1.00  0.00     0.228 C 
ATOM     14  O   UNL     1       1.175  -1.799  -2.215  1.00  0.00    -0.274 OA
BRANCH  13  15
ATOM     15  C   UNL     1       2.880  -2.610  -0.823  1.00  0.00     0.125 C 
BRANCH  15  16
ATOM     16  C   UNL     1       2.307  -2.420   0.554  1.00  0.00     0.156 C 
ATOM     17  S   UNL     1       2.865  -3.735   1.659  1.00  0.00    -0.050 SA
ATOM     18  C   UNL     1       2.733  -1.126   1.171  1.00  0.00     0.248 C 
ATOM     19  C   UNL     1       2.919  -2.619   2.981  1.00  0.00     0.293 C 
ATOM     20  N   UNL     1       3.074  -1.334   2.482  1.00  0.00    -0.240 N 
ATOM     21  O   UNL     1       2.675  -0.051   0.585  1.00  0.00    -0.273 OA
ATOM     22  O   UNL     1       2.729  -3.016   4.114  1.00  0.00    -0.261 OA
BRANCH  20  23
ATOM     23  C   UNL     1       3.090  -0.268   3.398  1.00  0.00     0.056 A 
ATOM     24  C   UNL     1       3.943  -0.457   4.491  1.00  0.00     0.027 A 
ATOM     25  C   UNL     1       1.854   0.380   3.522  1.00  0.00     0.073 A 
ATOM     26  C   UNL     1       3.369  -0.473   5.733  1.00  0.00     0.006 A 
ATOM     27  C   UNL     1       1.290   0.360   4.762  1.00  0.00     0.117 A 
ATOM     28  C   UNL     1       2.013  -0.193   5.806  1.00  0.00     0.046 A 
BRANCH  27  29
ATOM     29  O   UNL     1      -0.003   0.757   4.884  1.00  0.00    -0.508 OA
ATOM     30  H   UNL     1      -0.417   0.753   5.725  1.00  0.00     0.293 HD
ENDBRANCH  27  29
ENDBRANCH  20  23
ENDBRANCH  15  16
ENDBRANCH  13  15
ENDBRANCH  11  13
ENDBRANCH   6  11
ENDBRANCH   1   5
BRANCH   3  31
ATOM     31  C   UNL     1      -0.741  -4.531   0.768  1.00  0.00     0.118 C 
BRANCH  31  32
ATOM     32  C   UNL     1      -1.365  -3.702   1.921  1.00  0.00     0.042 C 
BRANCH  32  33
ATOM     33  C   UNL     1      -1.772  -4.425   3.225  1.00  0.00     0.118 C 
BRANCH  33  34
ATOM     34  N   UNL     1      -0.670  -4.841   4.096  1.00  0.00    -0.352 N 
ATOM     35  C   UNL     1      -0.181  -4.528   5.356  1.00  0.00     0.251 C 
ATOM     36  H   UNL     1      -0.124  -5.539   3.668  1.00  0.00     0.163 HD
ATOM     37  O   UNL     1       0.601  -5.372   5.813  1.00  0.00    -0.269 OA
BRANCH  35  38
ATOM     38  C   UNL     1      -0.449  -3.299   6.195  1.00  0.00     0.039 A 
ATOM     39  C   UNL     1       0.370  -3.079   7.336  1.00  0.00     0.014 A 
ATOM     40  C   UNL     1      -1.416  -2.336   5.948  1.00  0.00     0.014 A 
ATOM     41  C   UNL     1       0.284  -1.909   8.146  1.00  0.00     0.010 A 
ATOM     42  C   UNL     1      -1.479  -1.155   6.730  1.00  0.00     0.010 A 
ATOM     43  C   UNL     1      -0.600  -0.884   7.809  1.00  0.00    -0.014 A 
BRANCH  43  44
ATOM     44  C   UNL     1      -0.765   0.437   8.539  1.00  0.00     0.031 A 
ATOM     45  C   UNL     1      -2.018   0.587   9.343  1.00  0.00     0.074 A 
ATOM     46  C   UNL     1      -0.003   1.556   8.396  1.00  0.00     0.049 A 
ATOM     47  N   UNL     1      -2.488   1.653   9.931  1.00  0.00    -0.248 NA
ATOM     48  C   UNL     1      -2.817  -0.630   9.538  1.00  0.00     0.031 C 
ATOM     49  C   UNL     1       1.352   1.659   7.886  1.00  0.00     0.029 A 
ATOM     50  N   UNL     1      -0.327   2.891   8.559  1.00  0.00    -0.354 N 
ATOM     51  C   UNL     1      -3.574   1.208  10.660  1.00  0.00     0.074 A 
ATOM     52  C   UNL     1      -3.813  -0.166  10.272  1.00  0.00     0.031 C 
ATOM     53  C   UNL     1       1.611   2.903   7.448  1.00  0.00     0.029 A 
ATOM     54  C   UNL     1       0.530   3.759   7.896  1.00  0.00     0.049 A 
ATOM     55  H   UNL     1      -1.094   3.197   9.096  1.00  0.00     0.167 HD
ATOM     56  C   UNL     1      -4.221   1.847  11.662  1.00  0.00     0.034 A 
ATOM     57  C   UNL     1       0.530   5.101   7.744  1.00  0.00     0.034 A 
ATOM     58  C   UNL     1      -4.000   3.226  12.005  1.00  0.00     0.049 A 
ATOM     59  C   UNL     1      -0.348   5.872   8.682  1.00  0.00     0.074 A 
ATOM     60  C   UNL     1      -4.577   3.975  13.013  1.00  0.00     0.029 A 
ATOM     61  N   UNL     1      -3.146   4.081  11.316  1.00  0.00    -0.354 N 
ATOM     62  N   UNL     1      -1.266   5.412   9.498  1.00  0.00    -0.248 NA
ATOM     63  C   UNL     1      -0.086   7.310   8.805  1.00  0.00     0.031 C 
ATOM     64  C   UNL     1      -4.120   5.295  12.894  1.00  0.00     0.029 A 
ATOM     65  C   UNL     1      -3.214   5.359  11.847  1.00  0.00     0.049 A 
ATOM     66  H   UNL     1      -2.574   3.816  10.560  1.00  0.00     0.167 HD
ATOM     67  C   UNL     1      -1.614   6.481  10.310  1.00  0.00     0.074 A 
ATOM     68  C   UNL     1      -0.837   7.619   9.853  1.00  0.00     0.031 C 
ATOM     69  C   UNL     1      -2.460   6.497  11.372  1.00  0.00     0.034 A 
BRANCH  56  70
ATOM     70  C   UNL     1      -5.191   0.996  12.433  1.00  0.00     0.023 A 
ATOM     71  C   UNL     1      -4.736  -0.150  13.117  1.00  0.00     0.031 A 
ATOM     72  C   UNL     1      -6.572   1.216  12.348  1.00  0.00     0.131 A 
ATOM     73  C   UNL     1      -5.656  -1.105  13.563  1.00  0.00     0.055 A 
ATOM     74  C   UNL     1      -7.484   0.307  12.887  1.00  0.00     0.041 A 
ATOM     75  F   UNL     1      -7.056   2.277  11.687  1.00  0.00    -0.206 F 
ATOM     76  C   UNL     1      -7.030  -0.874  13.474  1.00  0.00     0.022 A 
BRANCH  73  77
ATOM     77  S   UNL     1      -5.032  -2.737  14.055  1.00  0.00     0.124 S 
ATOM     78  O   UNL     1      -4.447  -3.216  12.805  1.00  0.00    -0.237 OA
ATOM     79  O   UNL     1      -4.088  -2.410  15.117  1.00  0.00    -0.237 OA
ATOM     80  O   UNL     1      -6.235  -3.446  14.485  1.00  0.00    -0.744 OA
ENDBRANCH  73  77
ENDBRANCH  56  70
BRANCH  57  81
ATOM     81  C   UNL     1       1.488   5.798   6.828  1.00  0.00     0.023 A 
ATOM     82  C   UNL     1       2.632   6.465   7.299  1.00  0.00     0.031 A 
ATOM     83  C   UNL     1       1.235   5.839   5.444  1.00  0.00     0.131 A 
ATOM     84  C   UNL     1       3.460   7.170   6.403  1.00  0.00     0.055 A 
ATOM     85  C   UNL     1       2.071   6.526   4.554  1.00  0.00     0.041 A 
ATOM     86  F   UNL     1       0.157   5.221   4.935  1.00  0.00    -0.206 F 
ATOM     87  C   UNL     1       3.187   7.203   5.034  1.00  0.00     0.022 A 
BRANCH  84  88
ATOM     88  S   UNL     1       4.884   8.088   7.059  1.00  0.00     0.124 S 
ATOM     89  O   UNL     1       4.259   8.939   8.065  1.00  0.00    -0.237 OA
ATOM     90  O   UNL     1       5.728   7.010   7.564  1.00  0.00    -0.237 OA
ATOM     91  O   UNL     1       5.409   8.790   5.889  1.00  0.00    -0.744 OA
ENDBRANCH  84  88
ENDBRANCH  57  81
BRANCH  69  92
ATOM     92  C   UNL     1      -2.557   7.792  12.129  1.00  0.00     0.023 A 
ATOM     93  C   UNL     1      -3.095   8.946  11.537  1.00  0.00     0.031 A 
ATOM     94  C   UNL     1      -2.065   7.884  13.442  1.00  0.00     0.131 A 
ATOM     95  C   UNL     1      -3.064  10.162  12.231  1.00  0.00     0.055 A 
ATOM     96  C   UNL     1      -2.101   9.083  14.155  1.00  0.00     0.041 A 
ATOM     97  F   UNL     1      -1.532   6.812  14.050  1.00  0.00    -0.206 F 
ATOM     98  C   UNL     1      -2.589  10.235  13.543  1.00  0.00     0.022 A 
BRANCH  95  99
ATOM     99  S   UNL     1      -3.556  11.668  11.352  1.00  0.00     0.124 S 
ATOM    100  O   UNL     1      -2.558  11.733  10.288  1.00  0.00    -0.237 OA
ATOM    101  O   UNL     1      -4.917  11.353  10.929  1.00  0.00    -0.237 OA
ATOM    102  O   UNL     1      -3.449  12.710  12.371  1.00  0.00    -0.744 OA
ENDBRANCH  95  99
ENDBRANCH  69  92
ENDBRANCH  43  44
ENDBRANCH  35  38
ENDBRANCH  33  34
ENDBRANCH  32  33
ENDBRANCH  31  32
ENDBRANCH   3  31
TORSDOF 19
