REMARK SMILES CCN(CC)c1ccc([C@@H]2c3[nH]c4ccccc4c3C[C@@H](C(=O)NCCCNC(=O)c3ccc(-c4c5nc(c(-c6cc(S(=O)(=O)[O-])ccc6F)c6ccc([nH]6)c(-c6cc(S(=O)(=O)[O-])ccc6F)c6nc(c(-c7cc(S(=O)(=O)[O-])ccc7F)c7ccc4[nH]7)C=C6)C=C5)cc3)N2C(C)=O)cc1
REMARK SMILES IDX 26 1 25 2 24 3 22 4 23 5 21 7 10 8 11 9 94 10 12 11 19 12
REMARK SMILES IDX 13 13 18 15 20 16 14 17 17 18 15 19 16 20 9 21 6 22 7 23
REMARK SMILES IDX 99 24 8 25 98 26 3 27 2 28 1 29 4 30 5 31 95 32 96 33 97 34
REMARK SMILES IDX 27 35 28 36 29 37 30 39 31 40 32 41 93 42 33 43 92 44 34 45
REMARK SMILES IDX 35 46 36 47 86 48 37 49 91 50 85 51 87 52 38 53 90 54 84 55
REMARK SMILES IDX 83 56 39 58 71 59 51 60 70 61 52 62 55 63 69 64 88 65 53 66
REMARK SMILES IDX 54 67 68 69 89 70 56 71 40 72 41 73 49 74 42 75 48 76 50 77
REMARK SMILES IDX 47 78 43 79 44 80 45 81 46 82 72 83 73 84 81 85 74 86 80 87
REMARK SMILES IDX 82 88 79 89 75 90 76 91 77 92 78 93 57 94 58 95 66 96 59 97
REMARK SMILES IDX 65 98 67 99 64 100 60 101 61 102 62 103 63 104
REMARK H PARENT 24 6 12 14 28 38 87 57 55 68
REMARK Flexibility Score: inf
ROOT
ATOM      1  C   UNL     1       6.528  -6.166   1.910  1.00  0.00     0.042 C 
ENDROOT
BRANCH   1   2
ATOM      2  C   UNL     1       7.920  -5.658   1.452  1.00  0.00     0.117 C 
BRANCH   2   3
ATOM      3  N   UNL     1       7.985  -4.256   0.894  1.00  0.00    -0.354 N 
ATOM      4  C   UNL     1       8.306  -2.962   1.263  1.00  0.00     0.243 C 
ATOM      5  O   UNL     1       8.379  -2.175   0.302  1.00  0.00    -0.273 OA
ATOM      6  H   UNL     1       7.705  -4.267  -0.050  1.00  0.00     0.163 HD
BRANCH   4   7
ATOM      7  C   UNL     1       8.370  -2.326   2.737  1.00  0.00     0.179 C 
ATOM      8  C   UNL     1       5.947  -2.555   2.838  1.00  0.00     0.163 C 
ATOM      9  C   UNL     1       6.255  -3.734   3.761  1.00  0.00     0.047 A 
ATOM     10  N   UNL     1       7.062  -1.691   3.201  1.00  0.00    -0.318 N 
ATOM     11  N   UNL     1       5.384  -4.571   4.395  1.00  0.00    -0.356 N 
ATOM     12  C   UNL     1       7.539  -4.080   4.207  1.00  0.00    -0.014 A 
ATOM     13  C   UNL     1       6.028  -5.152   5.464  1.00  0.00     0.046 A 
ATOM     14  H   UNL     1       4.449  -4.732   4.132  1.00  0.00     0.166 HD
ATOM     15  C   UNL     1       7.395  -4.934   5.310  1.00  0.00     0.003 A 
ATOM     16  C   UNL     1       8.785  -3.402   3.734  1.00  0.00     0.073 C 
ATOM     17  C   UNL     1       5.501  -5.822   6.561  1.00  0.00     0.026 A 
ATOM     18  C   UNL     1       8.301  -5.447   6.246  1.00  0.00     0.010 A 
ATOM     19  C   UNL     1       6.411  -6.252   7.531  1.00  0.00     0.002 A 
ATOM     20  C   UNL     1       7.787  -6.086   7.372  1.00  0.00     0.001 A 
BRANCH   8  21
ATOM     21  C   UNL     1       4.577  -1.925   2.737  1.00  0.00    -0.019 A 
ATOM     22  C   UNL     1       1.873  -1.152   2.251  1.00  0.00     0.037 A 
ATOM     23  C   UNL     1       2.247  -1.936   3.337  1.00  0.00     0.026 A 
ATOM     24  C   UNL     1       2.928  -0.620   1.499  1.00  0.00     0.026 A 
ATOM     25  C   UNL     1       3.560  -2.272   3.605  1.00  0.00     0.008 A 
ATOM     26  C   UNL     1       4.262  -1.008   1.722  1.00  0.00     0.008 A 
BRANCH  22  27
ATOM     27  N   UNL     1       0.536  -0.943   1.941  1.00  0.00    -0.372 N 
BRANCH  27  28
ATOM     28  C   UNL     1       0.079  -1.222   0.572  1.00  0.00     0.113 C 
ATOM     29  C   UNL     1       0.265  -0.039  -0.367  1.00  0.00     0.027 C 
ENDBRANCH  27  28
BRANCH  27  30
ATOM     30  C   UNL     1      -0.493  -0.876   2.999  1.00  0.00     0.113 C 
ATOM     31  C   UNL     1      -0.822  -2.208   3.675  1.00  0.00     0.027 C 
ENDBRANCH  27  30
ENDBRANCH  22  27
ENDBRANCH   8  21
BRANCH  10  32
ATOM     32  C   UNL     1       6.851  -1.040   4.444  1.00  0.00     0.220 C 
ATOM     33  C   UNL     1       7.976  -0.478   5.264  1.00  0.00     0.114 C 
ATOM     34  O   UNL     1       5.735  -0.929   4.967  1.00  0.00    -0.275 OA
ENDBRANCH  10  32
ENDBRANCH   4   7
ENDBRANCH   2   3
ENDBRANCH   1   2
BRANCH   1  35
ATOM     35  C   UNL     1       5.910  -7.479   1.384  1.00  0.00     0.118 C 
BRANCH  35  36
ATOM     36  N   UNL     1       6.388  -8.700   2.030  1.00  0.00    -0.352 N 
ATOM     37  C   UNL     1       5.821  -9.662   2.849  1.00  0.00     0.251 C 
ATOM     38  H   UNL     1       7.337  -8.881   1.838  1.00  0.00     0.163 HD
ATOM     39  O   UNL     1       6.586 -10.548   3.246  1.00  0.00    -0.269 OA
BRANCH  37  40
ATOM     40  C   UNL     1       4.389  -9.721   3.298  1.00  0.00     0.039 A 
ATOM     41  C   UNL     1       4.105 -10.411   4.495  1.00  0.00     0.014 A 
ATOM     42  C   UNL     1       3.302  -9.244   2.567  1.00  0.00     0.014 A 
ATOM     43  C   UNL     1       2.786 -10.578   4.962  1.00  0.00     0.010 A 
ATOM     44  C   UNL     1       1.986  -9.348   3.070  1.00  0.00     0.010 A 
ATOM     45  C   UNL     1       1.701 -10.022   4.271  1.00  0.00    -0.014 A 
BRANCH  45  46
ATOM     46  C   UNL     1       0.289 -10.159   4.772  1.00  0.00     0.031 A 
ATOM     47  C   UNL     1      -0.763 -10.861   3.937  1.00  0.00     0.074 A 
ATOM     48  C   UNL     1      -0.076  -9.624   5.959  1.00  0.00     0.049 A 
ATOM     49  N   UNL     1      -2.048 -11.002   4.160  1.00  0.00    -0.248 NA
ATOM     50  C   UNL     1      -0.314 -11.468   2.674  1.00  0.00     0.031 C 
ATOM     51  C   UNL     1       0.818  -8.908   6.872  1.00  0.00     0.029 A 
ATOM     52  N   UNL     1      -1.294  -9.586   6.605  1.00  0.00    -0.354 N 
ATOM     53  C   UNL     1      -2.563 -11.685   3.059  1.00  0.00     0.074 A 
ATOM     54  C   UNL     1      -1.456 -11.896   2.151  1.00  0.00     0.031 C 
ATOM     55  C   UNL     1       0.128  -8.522   7.958  1.00  0.00     0.029 A 
ATOM     56  C   UNL     1      -1.272  -8.906   7.806  1.00  0.00     0.049 A 
ATOM     57  H   UNL     1      -2.107 -10.005   6.241  1.00  0.00     0.167 HD
ATOM     58  C   UNL     1      -3.832 -12.110   2.829  1.00  0.00     0.034 A 
ATOM     59  C   UNL     1      -2.261  -8.605   8.677  1.00  0.00     0.034 A 
ATOM     60  C   UNL     1      -4.928 -11.930   3.753  1.00  0.00     0.049 A 
ATOM     61  C   UNL     1      -3.671  -9.065   8.379  1.00  0.00     0.074 A 
ATOM     62  C   UNL     1      -6.231 -12.390   3.638  1.00  0.00     0.029 A 
ATOM     63  N   UNL     1      -4.860 -11.234   4.951  1.00  0.00    -0.354 N 
ATOM     64  N   UNL     1      -4.117  -9.755   7.354  1.00  0.00    -0.248 NA
ATOM     65  C   UNL     1      -4.710  -8.715   9.360  1.00  0.00     0.031 C 
ATOM     66  C   UNL     1      -6.968 -11.900   4.720  1.00  0.00     0.029 A 
ATOM     67  C   UNL     1      -6.106 -11.217   5.561  1.00  0.00     0.049 A 
ATOM     68  H   UNL     1      -4.047 -10.814   5.314  1.00  0.00     0.167 HD
ATOM     69  C   UNL     1      -5.476  -9.956   7.595  1.00  0.00     0.074 A 
ATOM     70  C   UNL     1      -5.772  -9.333   8.866  1.00  0.00     0.031 C 
ATOM     71  C   UNL     1      -6.396 -10.599   6.832  1.00  0.00     0.034 A 
BRANCH  58  72
ATOM     72  C   UNL     1      -4.131 -12.790   1.512  1.00  0.00     0.023 A 
ATOM     73  C   UNL     1      -3.575 -14.034   1.169  1.00  0.00     0.031 A 
ATOM     74  C   UNL     1      -5.027 -12.198   0.601  1.00  0.00     0.131 A 
ATOM     75  C   UNL     1      -3.883 -14.623  -0.068  1.00  0.00     0.055 A 
ATOM     76  C   UNL     1      -5.387 -12.824  -0.594  1.00  0.00     0.041 A 
ATOM     77  F   UNL     1      -5.577 -11.002   0.864  1.00  0.00    -0.206 F 
ATOM     78  C   UNL     1      -4.806 -14.040  -0.940  1.00  0.00     0.022 A 
BRANCH  75  79
ATOM     79  S   UNL     1      -2.978 -16.111  -0.576  1.00  0.00     0.124 S 
ATOM     80  O   UNL     1      -1.600 -15.630  -0.582  1.00  0.00    -0.237 OA
ATOM     81  O   UNL     1      -3.318 -17.062   0.482  1.00  0.00    -0.237 OA
ATOM     82  O   UNL     1      -3.531 -16.419  -1.890  1.00  0.00    -0.744 OA
ENDBRANCH  75  79
ENDBRANCH  58  72
BRANCH  59  83
ATOM     83  C   UNL     1      -1.988  -7.796   9.908  1.00  0.00     0.023 A 
ATOM     84  C   UNL     1      -2.267  -8.303  11.189  1.00  0.00     0.031 A 
ATOM     85  C   UNL     1      -1.544  -6.464   9.818  1.00  0.00     0.131 A 
ATOM     86  C   UNL     1      -2.174  -7.466  12.313  1.00  0.00     0.055 A 
ATOM     87  C   UNL     1      -1.379  -5.659  10.947  1.00  0.00     0.041 A 
ATOM     88  F   UNL     1      -1.269  -5.918   8.622  1.00  0.00    -0.206 F 
ATOM     89  C   UNL     1      -1.716  -6.152  12.203  1.00  0.00     0.022 A 
BRANCH  86  90
ATOM     90  S   UNL     1      -2.808  -8.074  13.903  1.00  0.00     0.124 S 
ATOM     91  O   UNL     1      -4.172  -8.450  13.552  1.00  0.00    -0.237 OA
ATOM     92  O   UNL     1      -1.893  -9.173  14.192  1.00  0.00    -0.237 OA
ATOM     93  O   UNL     1      -2.686  -6.914  14.783  1.00  0.00    -0.744 OA
ENDBRANCH  86  90
ENDBRANCH  59  83
BRANCH  71  94
ATOM     94  C   UNL     1      -7.798 -10.719   7.386  1.00  0.00     0.023 A 
ATOM     95  C   UNL     1      -8.616  -9.594   7.595  1.00  0.00     0.031 A 
ATOM     96  C   UNL     1      -8.319 -11.983   7.717  1.00  0.00     0.131 A 
ATOM     97  C   UNL     1      -9.884  -9.749   8.175  1.00  0.00     0.055 A 
ATOM     98  C   UNL     1      -9.608 -12.137   8.229  1.00  0.00     0.041 A 
ATOM     99  F   UNL     1      -7.584 -13.093   7.543  1.00  0.00    -0.206 F 
ATOM    100  C   UNL     1     -10.393 -11.015   8.475  1.00  0.00     0.022 A 
BRANCH  97 101
ATOM    101  S   UNL     1     -10.822  -8.265   8.629  1.00  0.00     0.124 S 
ATOM    102  O   UNL     1      -9.902  -7.591   9.539  1.00  0.00    -0.237 OA
ATOM    103  O   UNL     1     -11.028  -7.618   7.337  1.00  0.00    -0.237 OA
ATOM    104  O   UNL     1     -12.031  -8.800   9.253  1.00  0.00    -0.744 OA
ENDBRANCH  97 101
ENDBRANCH  71  94
ENDBRANCH  45  46
ENDBRANCH  37  40
ENDBRANCH  35  36
ENDBRANCH   1  35
TORSDOF 18
