REMARK SMILES CCS(=O)(=O)Nc1ccc(N2CC[NH+](C)CC2)cc1C(=O)NCCCNC(=O)c1ccc(-c2c3nc(c(-c4cc(S(=O)(=O)[O-])ccc4F)c4ccc([nH]4)c(-c4cc(S(=O)(=O)[O-])ccc4F)c4nc(c(-c5cc(S(=O)(=O)[O-])ccc5F)c5ccc2[nH]5)C=C4)C=C3)cc1
REMARK SMILES IDX 24 1 23 2 22 3 20 4 21 5 19 7 7 8 8 9 9 10 18 11 10 12 6 13
REMARK SMILES IDX 3 15 4 16 5 17 2 18 1 19 11 20 12 21 17 22 13 23 16 24 14 25
REMARK SMILES IDX 15 26 25 28 26 29 27 30 28 32 29 33 30 34 91 35 31 36 90 37
REMARK SMILES IDX 32 38 33 39 34 40 84 41 35 42 89 43 83 44 85 45 36 46 88 47
REMARK SMILES IDX 82 48 81 49 37 51 69 52 49 53 68 54 50 55 53 56 67 57 86 58
REMARK SMILES IDX 51 59 52 60 66 62 87 63 54 64 38 65 39 66 47 67 40 68 46 69
REMARK SMILES IDX 48 70 45 71 41 72 42 73 43 74 44 75 70 76 71 77 79 78 72 79
REMARK SMILES IDX 78 80 80 81 77 82 73 83 74 84 75 85 76 86 55 87 56 88 64 89
REMARK SMILES IDX 57 90 63 91 65 92 62 93 58 94 59 95 60 96 61 97
REMARK H PARENT 22 6 6 14 14 27 26 31 85 50 53 61
REMARK Flexibility Score: inf
ROOT
ATOM      1  C   UNL     1       2.476   4.124   2.185  1.00  0.00     0.042 C 
ENDROOT
BRANCH   1   2
ATOM      2  C   UNL     1       2.816   2.662   1.969  1.00  0.00     0.118 C 
BRANCH   2   3
ATOM      3  N   UNL     1       2.456   2.190   0.644  1.00  0.00    -0.352 N 
ATOM      4  C   UNL     1       2.668   0.993   0.027  1.00  0.00     0.253 C 
ATOM      5  O   UNL     1       2.273   0.860  -1.133  1.00  0.00    -0.269 OA
ATOM      6  H   UNL     1       1.975   2.850   0.095  1.00  0.00     0.163 HD
BRANCH   4   7
ATOM      7  C   UNL     1       3.416  -0.120   0.656  1.00  0.00     0.066 A 
ATOM      8  C   UNL     1       3.280  -0.579   1.968  1.00  0.00     0.061 A 
ATOM      9  C   UNL     1       4.167  -1.558   2.424  1.00  0.00     0.030 A 
ATOM     10  C   UNL     1       5.053  -2.188   1.550  1.00  0.00     0.028 A 
ATOM     11  C   UNL     1       4.288  -0.811  -0.224  1.00  0.00     0.042 A 
ATOM     12  C   UNL     1       5.071  -1.897   0.183  1.00  0.00     0.038 A 
BRANCH   8  13
ATOM     13  N   UNL     1       2.300  -0.187   2.926  1.00  0.00    -0.283 N 
ATOM     14  H   UNL     1       2.617   0.228   3.761  1.00  0.00     0.180 HD
BRANCH  13  15
ATOM     15  S   UNL     1       0.652  -0.381   2.733  1.00  0.00     0.232 S 
ATOM     16  O   UNL     1       0.100   0.858   2.221  1.00  0.00    -0.207 OA
ATOM     17  O   UNL     1       0.234  -0.870   4.031  1.00  0.00    -0.207 OA
BRANCH  15  18
ATOM     18  C   UNL     1       0.359  -1.716   1.569  1.00  0.00     0.156 C 
ATOM     19  C   UNL     1       0.220  -1.294   0.122  1.00  0.00     0.023 C 
ENDBRANCH  15  18
ENDBRANCH  13  15
ENDBRANCH   8  13
BRANCH  12  20
ATOM     20  N   UNL     1       5.758  -2.693  -0.708  1.00  0.00    -0.360 N 
ATOM     21  C   UNL     1       6.430  -2.185  -1.916  1.00  0.00     0.178 C 
ATOM     22  C   UNL     1       6.047  -4.102  -0.394  1.00  0.00     0.178 C 
ATOM     23  C   UNL     1       6.221  -3.149  -3.114  1.00  0.00     0.283 C 
ATOM     24  C   UNL     1       5.803  -4.995  -1.628  1.00  0.00     0.283 C 
ATOM     25  N   UNL     1       6.574  -4.557  -2.808  1.00  0.00    -0.334 N 
ATOM     26  C   UNL     1       6.288  -5.425  -3.948  1.00  0.00     0.332 C 
ATOM     27  H   UNL     1       7.574  -4.618  -2.612  1.00  0.00     0.347 HD
ENDBRANCH  12  20
ENDBRANCH   4   7
ENDBRANCH   2   3
ENDBRANCH   1   2
BRANCH   1  28
ATOM     28  C   UNL     1       1.011   4.469   1.923  1.00  0.00     0.118 C 
BRANCH  28  29
ATOM     29  N   UNL     1       0.054   3.871   2.848  1.00  0.00    -0.352 N 
ATOM     30  C   UNL     1      -0.755   4.456   3.802  1.00  0.00     0.251 C 
ATOM     31  H   UNL     1      -0.029   2.893   2.780  1.00  0.00     0.163 HD
ATOM     32  O   UNL     1      -1.481   3.769   4.514  1.00  0.00    -0.269 OA
BRANCH  30  33
ATOM     33  C   UNL     1      -0.692   5.920   4.020  1.00  0.00     0.039 A 
ATOM     34  C   UNL     1      -0.559   6.408   5.322  1.00  0.00     0.014 A 
ATOM     35  C   UNL     1      -0.672   6.805   2.946  1.00  0.00     0.014 A 
ATOM     36  C   UNL     1      -0.252   7.757   5.527  1.00  0.00     0.010 A 
ATOM     37  C   UNL     1      -0.223   8.106   3.140  1.00  0.00     0.010 A 
ATOM     38  C   UNL     1       0.010   8.599   4.434  1.00  0.00    -0.014 A 
BRANCH  38  39
ATOM     39  C   UNL     1       0.543   9.981   4.607  1.00  0.00     0.031 A 
ATOM     40  C   UNL     1      -0.172  11.149   3.976  1.00  0.00     0.074 A 
ATOM     41  C   UNL     1       1.721  10.178   5.237  1.00  0.00     0.049 A 
ATOM     42  N   UNL     1       0.209  12.397   3.867  1.00  0.00    -0.248 NA
ATOM     43  C   UNL     1      -1.464  10.861   3.334  1.00  0.00     0.031 C 
ATOM     44  C   UNL     1       2.553   9.130   5.837  1.00  0.00     0.029 A 
ATOM     45  N   UNL     1       2.434  11.329   5.473  1.00  0.00    -0.354 N 
ATOM     46  C   UNL     1      -0.776  13.028   3.113  1.00  0.00     0.074 A 
ATOM     47  C   UNL     1      -1.727  12.008   2.730  1.00  0.00     0.031 C 
ATOM     48  C   UNL     1       3.632   9.689   6.407  1.00  0.00     0.029 A 
ATOM     49  C   UNL     1       3.608  11.127   6.165  1.00  0.00     0.049 A 
ATOM     50  H   UNL     1       2.133  12.218   5.174  1.00  0.00     0.167 HD
ATOM     51  C   UNL     1      -0.897  14.342   2.798  1.00  0.00     0.034 A 
ATOM     52  C   UNL     1       4.563  11.997   6.552  1.00  0.00     0.034 A 
ATOM     53  C   UNL     1       0.032  15.357   3.230  1.00  0.00     0.049 A 
ATOM     54  C   UNL     1       4.398  13.456   6.207  1.00  0.00     0.074 A 
ATOM     55  C   UNL     1      -0.029  16.725   3.028  1.00  0.00     0.029 A 
ATOM     56  N   UNL     1       1.188  15.115   3.961  1.00  0.00    -0.354 N 
ATOM     57  N   UNL     1       3.438  14.041   5.529  1.00  0.00    -0.248 NA
ATOM     58  C   UNL     1       5.442  14.372   6.686  1.00  0.00     0.031 C 
ATOM     59  C   UNL     1       1.115  17.303   3.589  1.00  0.00     0.029 A 
ATOM     60  C   UNL     1       1.857  16.305   4.202  1.00  0.00     0.049 A 
ATOM     61  H   UNL     1       1.489  14.228   4.264  1.00  0.00     0.167 HD
ATOM     62  C   UNL     1       3.747  15.399   5.531  1.00  0.00     0.074 A 
ATOM     63  C   UNL     1       4.973  15.545   6.288  1.00  0.00     0.031 C 
ATOM     64  C   UNL     1       3.079  16.432   4.959  1.00  0.00     0.034 A 
BRANCH  51  65
ATOM     65  C   UNL     1      -2.075  14.744   1.941  1.00  0.00     0.023 A 
ATOM     66  C   UNL     1      -3.399  14.556   2.375  1.00  0.00     0.031 A 
ATOM     67  C   UNL     1      -1.875  15.285   0.659  1.00  0.00     0.131 A 
ATOM     68  C   UNL     1      -4.467  14.817   1.504  1.00  0.00     0.055 A 
ATOM     69  C   UNL     1      -2.946  15.629  -0.170  1.00  0.00     0.041 A 
ATOM     70  F   UNL     1      -0.635  15.473   0.181  1.00  0.00    -0.206 F 
ATOM     71  C   UNL     1      -4.251  15.378   0.243  1.00  0.00     0.022 A 
BRANCH  68  72
ATOM     72  S   UNL     1      -6.127  14.268   1.985  1.00  0.00     0.124 S 
ATOM     73  O   UNL     1      -5.933  12.826   2.112  1.00  0.00    -0.237 OA
ATOM     74  O   UNL     1      -6.352  14.995   3.229  1.00  0.00    -0.237 OA
ATOM     75  O   UNL     1      -6.963  14.681   0.860  1.00  0.00    -0.744 OA
ENDBRANCH  68  72
ENDBRANCH  51  65
BRANCH  52  76
ATOM     76  C   UNL     1       5.763  11.529   7.306  1.00  0.00     0.023 A 
ATOM     77  C   UNL     1       5.996  11.956   8.624  1.00  0.00     0.031 A 
ATOM     78  C   UNL     1       6.723  10.695   6.706  1.00  0.00     0.131 A 
ATOM     79  C   UNL     1       7.183  11.594   9.279  1.00  0.00     0.055 A 
ATOM     80  C   UNL     1       7.877  10.293   7.382  1.00  0.00     0.041 A 
ATOM     81  F   UNL     1       6.548  10.252   5.450  1.00  0.00    -0.206 F 
ATOM     82  C   UNL     1       8.120  10.755   8.671  1.00  0.00     0.022 A 
BRANCH  79  83
ATOM     83  S   UNL     1       7.532  12.317  10.906  1.00  0.00     0.124 S 
ATOM     84  O   UNL     1       7.481  13.745  10.615  1.00  0.00    -0.237 OA
ATOM     85  O   UNL     1       6.438  11.786  11.713  1.00  0.00    -0.237 OA
ATOM     86  O   UNL     1       8.857  11.793  11.234  1.00  0.00    -0.744 OA
ENDBRANCH  79  83
ENDBRANCH  52  76
BRANCH  64  87
ATOM     87  C   UNL     1       3.636  17.815   5.183  1.00  0.00     0.023 A 
ATOM     88  C   UNL     1       4.860  18.220   4.624  1.00  0.00     0.031 A 
ATOM     89  C   UNL     1       2.932  18.738   5.977  1.00  0.00     0.131 A 
ATOM     90  C   UNL     1       5.370  19.495   4.909  1.00  0.00     0.055 A 
ATOM     91  C   UNL     1       3.416  20.026   6.210  1.00  0.00     0.041 A 
ATOM     92  F   UNL     1       1.758  18.403   6.537  1.00  0.00    -0.206 F 
ATOM     93  C   UNL     1       4.648  20.406   5.685  1.00  0.00     0.022 A 
BRANCH  90  94
ATOM     94  S   UNL     1       7.032  19.920   4.320  1.00  0.00     0.124 S 
ATOM     95  O   UNL     1       7.851  18.893   4.954  1.00  0.00    -0.237 OA
ATOM     96  O   UNL     1       6.887  19.816   2.872  1.00  0.00    -0.237 OA
ATOM     97  O   UNL     1       7.238  21.277   4.825  1.00  0.00    -0.744 OA
ENDBRANCH  90  94
ENDBRANCH  64  87
ENDBRANCH  38  39
ENDBRANCH  30  33
ENDBRANCH  28  29
ENDBRANCH   1  28
TORSDOF 17
