REMARK SMILES O=C(NCCCNC(=O)[C@H]1CC[C@@H](CNC(=O)[C@@H]2CCC[NH2+]C2)O1)c1ccc(-c2c3nc(c(-c4cc(S(=O)(=O)[O-])ccc4F)c4ccc([nH]4)c(-c4cc(S(=O)(=O)[O-])ccc4F)c4nc(c(-c5cc(S(=O)(=O)[O-])ccc5F)c5ccc2[nH]5)C=C4)C=C3)cc1
REMARK SMILES IDX 5 1 4 2 3 3 1 4 2 5 25 7 26 8 87 9 27 10 86 11 28 12 29 13
REMARK SMILES IDX 30 14 80 15 31 16 85 17 79 18 81 19 32 20 84 21 78 22 77 23
REMARK SMILES IDX 33 25 65 26 45 27 64 28 46 29 49 30 63 31 82 32 47 33 48 34
REMARK SMILES IDX 62 36 83 37 50 38 34 39 35 40 43 41 36 42 42 43 44 44 41 45
REMARK SMILES IDX 37 46 38 47 39 48 40 49 66 50 67 51 75 52 68 53 74 54 76 55
REMARK SMILES IDX 73 56 69 57 70 58 71 59 72 60 51 61 52 62 60 63 53 64 59 65
REMARK SMILES IDX 61 66 58 67 54 68 55 69 56 70 57 71 6 72 7 73 8 74 9 76
REMARK SMILES IDX 10 77 11 78 24 79 12 80 13 81 14 82 15 83 16 84 17 86 18 87
REMARK SMILES IDX 19 88 23 89 20 90 22 91 21 92
REMARK H PARENT 3 6 81 24 49 35 7 75 15 85 22 93 22 94
REMARK Flexibility Score: inf
ROOT
ATOM      1  C   UNL     1       3.137  -0.107   8.688  1.00  0.00     0.042 C 
ENDROOT
BRANCH   1   2
ATOM      2  C   UNL     1       2.854  -1.042   9.863  1.00  0.00     0.118 C 
BRANCH   2   3
ATOM      3  N   UNL     1       3.621  -0.751  11.061  1.00  0.00    -0.352 N 
ATOM      4  O   UNL     1       4.311   0.336  12.901  1.00  0.00    -0.269 OA
ATOM      5  C   UNL     1       3.444   0.199  12.038  1.00  0.00     0.251 C 
ATOM      6  H   UNL     1       4.403  -1.335  11.197  1.00  0.00     0.163 HD
BRANCH   5   7
ATOM      7  C   UNL     1       2.252   1.074  12.058  1.00  0.00     0.039 A 
ATOM      8  C   UNL     1       0.975   0.553  11.859  1.00  0.00     0.014 A 
ATOM      9  C   UNL     1       2.406   2.426  12.397  1.00  0.00     0.014 A 
ATOM     10  C   UNL     1      -0.134   1.390  11.895  1.00  0.00     0.010 A 
ATOM     11  C   UNL     1       1.282   3.249  12.524  1.00  0.00     0.010 A 
ATOM     12  C   UNL     1       0.004   2.734  12.271  1.00  0.00    -0.014 A 
BRANCH  12  13
ATOM     13  C   UNL     1      -1.227   3.512  12.545  1.00  0.00     0.031 A 
ATOM     14  C   UNL     1      -1.655   4.639  11.659  1.00  0.00     0.074 A 
ATOM     15  C   UNL     1      -1.978   3.139  13.600  1.00  0.00     0.049 A 
ATOM     16  N   UNL     1      -2.760   5.338  11.695  1.00  0.00    -0.248 NA
ATOM     17  C   UNL     1      -0.717   5.042  10.604  1.00  0.00     0.031 C 
ATOM     18  C   UNL     1      -1.620   2.076  14.544  1.00  0.00     0.029 A 
ATOM     19  N   UNL     1      -3.195   3.581  14.045  1.00  0.00    -0.354 N 
ATOM     20  C   UNL     1      -2.657   6.266  10.665  1.00  0.00     0.074 A 
ATOM     21  C   UNL     1      -1.358   6.064  10.054  1.00  0.00     0.031 C 
ATOM     22  C   UNL     1      -2.614   1.919  15.428  1.00  0.00     0.029 A 
ATOM     23  C   UNL     1      -3.655   2.901  15.148  1.00  0.00     0.049 A 
ATOM     24  H   UNL     1      -3.693   4.315  13.618  1.00  0.00     0.167 HD
ATOM     25  C   UNL     1      -3.569   7.190  10.270  1.00  0.00     0.034 A 
ATOM     26  C   UNL     1      -4.783   3.056  15.866  1.00  0.00     0.034 A 
ATOM     27  C   UNL     1      -4.843   7.384  10.923  1.00  0.00     0.049 A 
ATOM     28  C   UNL     1      -5.771   4.095  15.423  1.00  0.00     0.074 A 
ATOM     29  C   UNL     1      -5.859   8.267  10.600  1.00  0.00     0.029 A 
ATOM     30  N   UNL     1      -5.267   6.695  12.056  1.00  0.00    -0.354 N 
ATOM     31  N   UNL     1      -5.687   4.926  14.409  1.00  0.00    -0.248 NA
ATOM     32  C   UNL     1      -7.004   4.216  16.207  1.00  0.00     0.031 C 
ATOM     33  C   UNL     1      -6.864   8.157  11.570  1.00  0.00     0.029 A 
ATOM     34  C   UNL     1      -6.510   7.158  12.463  1.00  0.00     0.049 A 
ATOM     35  H   UNL     1      -4.758   5.981  12.504  1.00  0.00     0.167 HD
ATOM     36  C   UNL     1      -6.861   5.668  14.429  1.00  0.00     0.074 A 
ATOM     37  C   UNL     1      -7.643   5.172  15.547  1.00  0.00     0.031 C 
ATOM     38  C   UNL     1      -7.258   6.665  13.598  1.00  0.00     0.034 A 
BRANCH  25  39
ATOM     39  C   UNL     1      -3.181   8.086   9.116  1.00  0.00     0.023 A 
ATOM     40  C   UNL     1      -2.918   7.567   7.834  1.00  0.00     0.031 A 
ATOM     41  C   UNL     1      -3.007   9.467   9.311  1.00  0.00     0.131 A 
ATOM     42  C   UNL     1      -2.409   8.403   6.828  1.00  0.00     0.055 A 
ATOM     43  C   UNL     1      -2.577  10.309   8.282  1.00  0.00     0.041 A 
ATOM     44  F   UNL     1      -3.224  10.020  10.514  1.00  0.00    -0.206 F 
ATOM     45  C   UNL     1      -2.255   9.775   7.038  1.00  0.00     0.022 A 
BRANCH  42  46
ATOM     46  S   UNL     1      -1.786   7.640   5.303  1.00  0.00     0.124 S 
ATOM     47  O   UNL     1      -0.832   6.662   5.826  1.00  0.00    -0.237 OA
ATOM     48  O   UNL     1      -2.994   7.096   4.705  1.00  0.00    -0.237 OA
ATOM     49  O   UNL     1      -1.178   8.761   4.583  1.00  0.00    -0.744 OA
ENDBRANCH  42  46
ENDBRANCH  25  39
BRANCH  26  50
ATOM     50  C   UNL     1      -4.996   2.223  17.081  1.00  0.00     0.023 A 
ATOM     51  C   UNL     1      -5.979   1.224  17.127  1.00  0.00     0.031 A 
ATOM     52  C   UNL     1      -4.165   2.389  18.205  1.00  0.00     0.131 A 
ATOM     53  C   UNL     1      -6.111   0.431  18.279  1.00  0.00     0.055 A 
ATOM     54  C   UNL     1      -4.275   1.574  19.331  1.00  0.00     0.041 A 
ATOM     55  F   UNL     1      -3.199   3.322  18.201  1.00  0.00    -0.206 F 
ATOM     56  C   UNL     1      -5.256   0.590  19.374  1.00  0.00     0.022 A 
BRANCH  53  57
ATOM     57  S   UNL     1      -7.435  -0.807  18.340  1.00  0.00     0.124 S 
ATOM     58  O   UNL     1      -8.627   0.021  18.197  1.00  0.00    -0.237 OA
ATOM     59  O   UNL     1      -7.106  -1.660  17.203  1.00  0.00    -0.237 OA
ATOM     60  O   UNL     1      -7.260  -1.429  19.651  1.00  0.00    -0.744 OA
ENDBRANCH  53  57
ENDBRANCH  26  50
BRANCH  38  61
ATOM     61  C   UNL     1      -8.611   7.266  13.867  1.00  0.00     0.023 A 
ATOM     62  C   UNL     1      -8.838   8.099  14.976  1.00  0.00     0.031 A 
ATOM     63  C   UNL     1      -9.685   7.003  12.998  1.00  0.00     0.131 A 
ATOM     64  C   UNL     1     -10.122   8.612  15.209  1.00  0.00     0.055 A 
ATOM     65  C   UNL     1     -10.949   7.553  13.211  1.00  0.00     0.041 A 
ATOM     66  F   UNL     1      -9.518   6.211  11.927  1.00  0.00    -0.206 F 
ATOM     67  C   UNL     1     -11.175   8.357  14.325  1.00  0.00     0.022 A 
BRANCH  64  68
ATOM     68  S   UNL     1     -10.415   9.583  16.713  1.00  0.00     0.124 S 
ATOM     69  O   UNL     1     -10.175   8.595  17.760  1.00  0.00    -0.237 OA
ATOM     70  O   UNL     1      -9.423  10.647  16.600  1.00  0.00    -0.237 OA
ATOM     71  O   UNL     1     -11.805  10.016  16.575  1.00  0.00    -0.744 OA
ENDBRANCH  64  68
ENDBRANCH  38  61
ENDBRANCH  12  13
ENDBRANCH   5   7
ENDBRANCH   2   3
ENDBRANCH   1   2
BRANCH   1  72
ATOM     72  C   UNL     1       4.382  -0.446   7.867  1.00  0.00     0.117 C 
BRANCH  72  73
ATOM     73  N   UNL     1       4.372  -1.795   7.330  1.00  0.00    -0.354 N 
ATOM     74  C   UNL     1       5.134  -2.415   6.395  1.00  0.00     0.249 C 
ATOM     75  H   UNL     1       3.677  -2.372   7.721  1.00  0.00     0.163 HD
ATOM     76  O   UNL     1       4.970  -3.640   6.299  1.00  0.00    -0.272 OA
BRANCH  74  77
ATOM     77  C   UNL     1       6.191  -1.721   5.520  1.00  0.00     0.207 C 
ATOM     78  C   UNL     1       5.917  -0.331   4.969  1.00  0.00     0.045 C 
ATOM     79  O   UNL     1       7.467  -1.674   6.177  1.00  0.00    -0.363 OA
ATOM     80  C   UNL     1       6.934   0.541   5.683  1.00  0.00     0.037 C 
ATOM     81  C   UNL     1       8.096  -0.421   5.849  1.00  0.00     0.138 C 
BRANCH  81  82
ATOM     82  C   UNL     1       9.166  -0.113   6.907  1.00  0.00     0.147 C 
BRANCH  82  83
ATOM     83  N   UNL     1       9.134   1.222   7.472  1.00  0.00    -0.353 N 
ATOM     84  C   UNL     1       9.297   1.605   8.777  1.00  0.00     0.228 C 
ATOM     85  H   UNL     1       8.975   1.952   6.831  1.00  0.00     0.163 HD
ATOM     86  O   UNL     1       9.599   2.781   8.973  1.00  0.00    -0.275 OA
BRANCH  84  87
ATOM     87  C   UNL     1       9.134   0.570   9.898  1.00  0.00     0.133 C 
ATOM     88  C   UNL     1       7.720  -0.015   9.935  1.00  0.00     0.025 C 
ATOM     89  C   UNL     1       9.486   1.136  11.288  1.00  0.00     0.274 C 
ATOM     90  C   UNL     1       6.734   1.012  10.478  1.00  0.00     0.062 C 
ATOM     91  N   UNL     1       8.484   2.039  11.858  1.00  0.00    -0.346 N 
ATOM     92  C   UNL     1       7.141   1.470  11.871  1.00  0.00     0.260 C 
ATOM     93  H   UNL     1       8.753   2.258  12.817  1.00  0.00     0.346 HD
ATOM     94  H   UNL     1       8.455   2.871  11.269  1.00  0.00     0.346 HD
ENDBRANCH  84  87
ENDBRANCH  82  83
ENDBRANCH  81  82
ENDBRANCH  74  77
ENDBRANCH  72  73
ENDBRANCH   1  72
TORSDOF 16
