REMARK SMILES CC(C)C[C@@H](CNC(=O)[C@@H]1CCOC1)C(=O)NCCCNC(=O)c1ccc(-c2c3nc(c(-c4cc(S(=O)(=O)[O-])ccc4F)c4ccc([nH]4)c(-c4cc(S(=O)(=O)[O-])ccc4F)c4nc(c(-c5cc(S(=O)(=O)[O-])ccc5F)c5ccc2[nH]5)C=C4)C=C3)cc1
REMARK SMILES IDX 19 1 18 2 17 3 15 4 16 5 5 7 4 8 2 9 1 10 3 11 6 12 7 13
REMARK SMILES IDX 8 14 9 16 10 17 11 18 14 19 12 20 13 21 20 22 21 23 22 24
REMARK SMILES IDX 23 26 24 27 25 28 86 29 26 30 85 31 27 32 28 33 29 34 79 35
REMARK SMILES IDX 30 36 84 37 78 38 80 39 31 40 83 41 77 42 76 43 32 45 64 46
REMARK SMILES IDX 44 47 63 48 45 49 48 50 62 51 81 52 46 53 47 54 61 56 82 57
REMARK SMILES IDX 49 58 33 59 34 60 42 61 35 62 41 63 43 64 40 65 36 66 37 67
REMARK SMILES IDX 38 68 39 69 65 70 66 71 74 72 67 73 73 74 75 75 72 76 68 77
REMARK SMILES IDX 69 78 70 79 71 80 50 81 51 82 59 83 52 84 58 85 60 86 57 87
REMARK SMILES IDX 53 88 54 89 55 90 56 91
REMARK H PARENT 17 6 7 15 21 25 80 44 48 55
REMARK Flexibility Score: inf
ROOT
ATOM      1  C   UNL     1      -3.808   4.090  -0.632  1.00  0.00     0.042 C 
ENDROOT
BRANCH   1   2
ATOM      2  C   UNL     1      -3.324   3.463   0.664  1.00  0.00     0.117 C 
BRANCH   2   3
ATOM      3  N   UNL     1      -3.716   2.068   0.786  1.00  0.00    -0.356 N 
ATOM      4  C   UNL     1      -2.996   0.929   0.942  1.00  0.00     0.224 C 
ATOM      5  O   UNL     1      -3.637  -0.118   1.081  1.00  0.00    -0.275 OA
ATOM      6  H   UNL     1      -4.689   1.923   0.750  1.00  0.00     0.163 HD
BRANCH   4   7
ATOM      7  C   UNL     1      -1.472   0.895   0.990  1.00  0.00     0.098 C 
BRANCH   7   8
ATOM      8  C   UNL     1      -0.818   1.431  -0.296  1.00  0.00     0.018 C 
BRANCH   8   9
ATOM      9  C   UNL     1       0.720   1.364  -0.358  1.00  0.00    -0.017 C 
ATOM     10  C   UNL     1       1.265  -0.051  -0.158  1.00  0.00     0.007 C 
ATOM     11  C   UNL     1       1.198   1.907  -1.709  1.00  0.00     0.007 C 
ENDBRANCH   8   9
ENDBRANCH   7   8
BRANCH   7  12
ATOM     12  C   UNL     1      -0.920   1.356   2.350  1.00  0.00     0.129 C 
BRANCH  12  13
ATOM     13  N   UNL     1      -1.045   2.769   2.646  1.00  0.00    -0.355 N 
ATOM     14  C   UNL     1      -1.744   3.470   3.571  1.00  0.00     0.225 C 
ATOM     15  H   UNL     1      -0.508   3.340   2.050  1.00  0.00     0.163 HD
ATOM     16  O   UNL     1      -1.715   4.700   3.437  1.00  0.00    -0.275 OA
BRANCH  14  17
ATOM     17  C   UNL     1      -2.453   2.892   4.787  1.00  0.00     0.106 C 
ATOM     18  C   UNL     1      -1.484   2.627   5.918  1.00  0.00     0.044 C 
ATOM     19  C   UNL     1      -3.223   1.599   4.668  1.00  0.00     0.173 C 
ATOM     20  C   UNL     1      -1.257   1.137   5.844  1.00  0.00     0.161 C 
ATOM     21  O   UNL     1      -2.439   0.560   5.280  1.00  0.00    -0.381 OA
ENDBRANCH  14  17
ENDBRANCH  12  13
ENDBRANCH   7  12
ENDBRANCH   4   7
ENDBRANCH   2   3
ENDBRANCH   1   2
BRANCH   1  22
ATOM     22  C   UNL     1      -5.319   4.264  -0.677  1.00  0.00     0.118 C 
BRANCH  22  23
ATOM     23  N   UNL     1      -5.804   5.228   0.306  1.00  0.00    -0.352 N 
ATOM     24  C   UNL     1      -6.297   6.500   0.135  1.00  0.00     0.251 C 
ATOM     25  H   UNL     1      -5.773   4.918   1.240  1.00  0.00     0.163 HD
ATOM     26  O   UNL     1      -6.472   7.223   1.112  1.00  0.00    -0.269 OA
BRANCH  24  27
ATOM     27  C   UNL     1      -6.582   7.001  -1.225  1.00  0.00     0.039 A 
ATOM     28  C   UNL     1      -6.173   8.288  -1.583  1.00  0.00     0.014 A 
ATOM     29  C   UNL     1      -7.229   6.187  -2.155  1.00  0.00     0.014 A 
ATOM     30  C   UNL     1      -6.325   8.718  -2.904  1.00  0.00     0.010 A 
ATOM     31  C   UNL     1      -7.280   6.573  -3.488  1.00  0.00     0.010 A 
ATOM     32  C   UNL     1      -6.829   7.843  -3.879  1.00  0.00    -0.014 A 
BRANCH  32  33
ATOM     33  C   UNL     1      -6.907   8.219  -5.315  1.00  0.00     0.031 A 
ATOM     34  C   UNL     1      -8.240   8.208  -6.014  1.00  0.00     0.074 A 
ATOM     35  C   UNL     1      -5.776   8.461  -6.008  1.00  0.00     0.049 A 
ATOM     36  N   UNL     1      -8.511   8.330  -7.287  1.00  0.00    -0.248 NA
ATOM     37  C   UNL     1      -9.422   7.981  -5.168  1.00  0.00     0.031 C 
ATOM     38  C   UNL     1      -4.421   8.455  -5.451  1.00  0.00     0.029 A 
ATOM     39  N   UNL     1      -5.583   8.741  -7.338  1.00  0.00    -0.354 N 
ATOM     40  C   UNL     1      -9.887   8.161  -7.399  1.00  0.00     0.074 A 
ATOM     41  C   UNL     1     -10.382   7.864  -6.071  1.00  0.00     0.031 C 
ATOM     42  C   UNL     1      -3.542   8.741  -6.425  1.00  0.00     0.029 A 
ATOM     43  C   UNL     1      -4.260   8.896  -7.685  1.00  0.00     0.049 A 
ATOM     44  H   UNL     1      -6.322   8.824  -7.983  1.00  0.00     0.167 HD
ATOM     45  C   UNL     1     -10.669   8.269  -8.501  1.00  0.00     0.034 A 
ATOM     46  C   UNL     1      -3.690   9.117  -8.886  1.00  0.00     0.034 A 
ATOM     47  C   UNL     1     -10.160   8.601  -9.809  1.00  0.00     0.049 A 
ATOM     48  C   UNL     1      -4.577   9.230 -10.100  1.00  0.00     0.074 A 
ATOM     49  C   UNL     1     -10.864   8.809 -10.982  1.00  0.00     0.029 A 
ATOM     50  N   UNL     1      -8.816   8.774 -10.116  1.00  0.00    -0.354 N 
ATOM     51  N   UNL     1      -5.883   9.112 -10.182  1.00  0.00    -0.248 NA
ATOM     52  C   UNL     1      -3.916   9.511 -11.380  1.00  0.00     0.031 C 
ATOM     53  C   UNL     1      -9.944   9.049 -12.008  1.00  0.00     0.029 A 
ATOM     54  C   UNL     1      -8.669   9.058 -11.465  1.00  0.00     0.049 A 
ATOM     55  H   UNL     1      -8.076   8.704  -9.471  1.00  0.00     0.167 HD
ATOM     56  C   UNL     1      -6.200   9.331 -11.519  1.00  0.00     0.074 A 
ATOM     57  C   UNL     1      -4.951   9.601 -12.203  1.00  0.00     0.031 C 
ATOM     58  C   UNL     1      -7.412   9.315 -12.128  1.00  0.00     0.034 A 
BRANCH  45  59
ATOM     59  C   UNL     1     -12.146   8.006  -8.333  1.00  0.00     0.023 A 
ATOM     60  C   UNL     1     -12.947   8.802  -7.495  1.00  0.00     0.031 A 
ATOM     61  C   UNL     1     -12.756   6.921  -8.987  1.00  0.00     0.131 A 
ATOM     62  C   UNL     1     -14.286   8.451  -7.264  1.00  0.00     0.055 A 
ATOM     63  C   UNL     1     -14.112   6.629  -8.820  1.00  0.00     0.041 A 
ATOM     64  F   UNL     1     -12.041   6.113  -9.784  1.00  0.00    -0.206 F 
ATOM     65  C   UNL     1     -14.881   7.385  -7.941  1.00  0.00     0.022 A 
BRANCH  62  66
ATOM     66  S   UNL     1     -15.190   9.315  -5.950  1.00  0.00     0.124 S 
ATOM     67  O   UNL     1     -14.370   9.010  -4.780  1.00  0.00    -0.237 OA
ATOM     68  O   UNL     1     -15.162  10.700  -6.406  1.00  0.00    -0.237 OA
ATOM     69  O   UNL     1     -16.505   8.678  -5.964  1.00  0.00    -0.744 OA
ENDBRANCH  62  66
ENDBRANCH  45  59
BRANCH  46  70
ATOM     70  C   UNL     1      -2.209   9.233  -9.011  1.00  0.00     0.023 A 
ATOM     71  C   UNL     1      -1.612  10.442  -9.401  1.00  0.00     0.031 A 
ATOM     72  C   UNL     1      -1.371   8.129  -8.778  1.00  0.00     0.131 A 
ATOM     73  C   UNL     1      -0.222  10.508  -9.590  1.00  0.00     0.055 A 
ATOM     74  C   UNL     1       0.016   8.212  -8.919  1.00  0.00     0.041 A 
ATOM     75  F   UNL     1      -1.889   6.951  -8.396  1.00  0.00    -0.206 F 
ATOM     76  C   UNL     1       0.597   9.405  -9.340  1.00  0.00     0.022 A 
BRANCH  73  77
ATOM     77  S   UNL     1       0.493  12.041 -10.246  1.00  0.00     0.124 S 
ATOM     78  O   UNL     1      -0.221  12.185 -11.509  1.00  0.00    -0.237 OA
ATOM     79  O   UNL     1       0.154  13.003  -9.203  1.00  0.00    -0.237 OA
ATOM     80  O   UNL     1       1.916  11.728 -10.364  1.00  0.00    -0.744 OA
ENDBRANCH  73  77
ENDBRANCH  46  70
BRANCH  58  81
ATOM     81  C   UNL     1      -7.442   9.642 -13.599  1.00  0.00     0.023 A 
ATOM     82  C   UNL     1      -6.901   8.770 -14.560  1.00  0.00     0.031 A 
ATOM     83  C   UNL     1      -8.022  10.843 -14.043  1.00  0.00     0.131 A 
ATOM     84  C   UNL     1      -6.909   9.134 -15.914  1.00  0.00     0.055 A 
ATOM     85  C   UNL     1      -8.076  11.175 -15.397  1.00  0.00     0.041 A 
ATOM     86  F   UNL     1      -8.552  11.711 -13.166  1.00  0.00    -0.206 F 
ATOM     87  C   UNL     1      -7.508  10.323 -16.340  1.00  0.00     0.022 A 
BRANCH  84  88
ATOM     88  S   UNL     1      -6.060   8.066 -17.109  1.00  0.00     0.124 S 
ATOM     89  O   UNL     1      -4.687   8.090 -16.615  1.00  0.00    -0.237 OA
ATOM     90  O   UNL     1      -6.771   6.800 -16.957  1.00  0.00    -0.237 OA
ATOM     91  O   UNL     1      -6.272   8.744 -18.386  1.00  0.00    -0.744 OA
ENDBRANCH  84  88
ENDBRANCH  58  81
ENDBRANCH  32  33
ENDBRANCH  24  27
ENDBRANCH  22  23
ENDBRANCH   1  22
TORSDOF 18
