REMARK SMILES CCc1ccnc(C(=O)c2[nH]c3ccc(OC(F)(F)F)cc3c2CC(=O)NCCCNC(=O)c2ccc(-c3c4nc(c(-c5cc(S(=O)(=O)[O-])ccc5F)c5ccc([nH]5)c(-c5cc(S(=O)(=O)[O-])ccc5F)c5nc(c(-c6cc(S(=O)(=O)[O-])ccc6F)c6ccc3[nH]6)C=C5)C=C4)cc2)c1
REMARK SMILES IDX 28 1 27 2 25 3 26 4 24 6 23 7 10 8 11 9 12 10 22 12 13 13
REMARK SMILES IDX 21 14 14 15 15 16 8 17 9 18 7 19 3 20 4 21 97 22 5 23 6 24
REMARK SMILES IDX 2 25 1 26 16 27 17 28 18 29 19 30 20 31 29 32 30 33 31 34
REMARK SMILES IDX 32 35 33 37 34 38 35 39 96 40 36 41 95 42 37 43 38 44 39 45
REMARK SMILES IDX 89 46 40 47 94 48 88 49 90 50 41 51 93 52 87 53 86 54 42 56
REMARK SMILES IDX 74 57 54 58 73 59 55 60 58 61 72 62 91 63 56 64 57 65 71 67
REMARK SMILES IDX 92 68 59 69 43 70 44 71 52 72 45 73 51 74 53 75 50 76 46 77
REMARK SMILES IDX 47 78 48 79 49 80 75 81 76 82 84 83 77 84 83 85 85 86 82 87
REMARK SMILES IDX 78 88 79 89 80 90 81 91 60 92 61 93 69 94 62 95 68 96 70 97
REMARK SMILES IDX 67 98 63 99 64 100 65 101 66 102
REMARK H PARENT 27 5 11 11 31 36 90 55 58 66
REMARK Flexibility Score: inf
ROOT
ATOM      1  C   UNL     1       3.637   1.819  -9.938  1.00  0.00     0.117 C 
ENDROOT
BRANCH   1   2
ATOM      2  N   UNL     1       2.878   0.597  -9.755  1.00  0.00    -0.356 N 
ATOM      3  C   UNL     1       1.817   0.346  -8.933  1.00  0.00     0.224 C 
ATOM      4  O   UNL     1       1.200  -0.713  -9.084  1.00  0.00    -0.275 OA
ATOM      5  H   UNL     1       3.171  -0.165 -10.305  1.00  0.00     0.163 HD
BRANCH   3   6
ATOM      6  C   UNL     1       1.331   1.390  -7.942  1.00  0.00     0.138 C 
BRANCH   6   7
ATOM      7  C   UNL     1       2.306   1.741  -6.855  1.00  0.00    -0.002 A 
ATOM      8  C   UNL     1       2.873   0.887  -5.913  1.00  0.00     0.093 A 
ATOM      9  N   UNL     1       3.771   1.624  -5.175  1.00  0.00    -0.352 N 
ATOM     10  C   UNL     1       3.714   2.949  -5.526  1.00  0.00     0.046 A 
ATOM     11  H   UNL     1       4.372   1.251  -4.490  1.00  0.00     0.167 HD
ATOM     12  C   UNL     1       2.797   3.059  -6.566  1.00  0.00     0.008 A 
ATOM     13  C   UNL     1       4.417   4.046  -5.019  1.00  0.00     0.030 A 
ATOM     14  C   UNL     1       2.565   4.337  -7.116  1.00  0.00     0.057 A 
ATOM     15  C   UNL     1       4.171   5.303  -5.589  1.00  0.00     0.049 A 
ATOM     16  C   UNL     1       3.255   5.457  -6.627  1.00  0.00     0.130 A 
BRANCH   8  17
ATOM     17  C   UNL     1       2.693  -0.544  -5.736  1.00  0.00     0.227 C 
ATOM     18  O   UNL     1       3.135  -1.340  -6.557  1.00  0.00    -0.285 OA
BRANCH  17  19
ATOM     19  C   UNL     1       1.975  -1.031  -4.496  1.00  0.00     0.113 A 
ATOM     20  C   UNL     1       0.809  -0.673  -2.413  1.00  0.00    -0.044 A 
ATOM     21  C   UNL     1       0.718  -2.060  -2.280  1.00  0.00     0.024 A 
ATOM     22  C   UNL     1       1.436  -0.153  -3.553  1.00  0.00     0.036 A 
ATOM     23  C   UNL     1       1.270  -2.860  -3.265  1.00  0.00     0.112 A 
ATOM     24  N   UNL     1       1.898  -2.380  -4.356  1.00  0.00    -0.253 NA
BRANCH  20  25
ATOM     25  C   UNL     1       0.240   0.245  -1.359  1.00  0.00     0.032 C 
ATOM     26  C   UNL     1       0.942   0.101  -0.015  1.00  0.00     0.009 C 
ENDBRANCH  20  25
ENDBRANCH  17  19
ENDBRANCH   8  17
BRANCH  16  27
ATOM     27  O   UNL     1       2.935   6.624  -7.262  1.00  0.00    -0.406 OA
BRANCH  27  28
ATOM     28  C   UNL     1       3.598   7.806  -6.849  1.00  0.00     0.573 C 
ATOM     29  F   UNL     1       3.332   8.085  -5.554  1.00  0.00    -0.132 F 
ATOM     30  F   UNL     1       4.930   7.710  -7.031  1.00  0.00    -0.132 F 
ATOM     31  F   UNL     1       3.143   8.836  -7.598  1.00  0.00    -0.132 F 
ENDBRANCH  27  28
ENDBRANCH  16  27
ENDBRANCH   6   7
ENDBRANCH   3   6
ENDBRANCH   1   2
BRANCH   1  32
ATOM     32  C   UNL     1       4.987   1.819  -9.224  1.00  0.00     0.042 C 
BRANCH  32  33
ATOM     33  C   UNL     1       5.989   0.784  -9.731  1.00  0.00     0.118 C 
BRANCH  33  34
ATOM     34  N   UNL     1       6.415   1.040 -11.098  1.00  0.00    -0.352 N 
ATOM     35  C   UNL     1       7.664   1.264 -11.624  1.00  0.00     0.251 C 
ATOM     36  H   UNL     1       5.685   1.056 -11.758  1.00  0.00     0.163 HD
ATOM     37  O   UNL     1       7.747   1.643 -12.791  1.00  0.00    -0.269 OA
BRANCH  35  38
ATOM     38  C   UNL     1       8.900   1.076 -10.825  1.00  0.00     0.039 A 
ATOM     39  C   UNL     1       9.959   1.973 -11.021  1.00  0.00     0.014 A 
ATOM     40  C   UNL     1       9.072  -0.011  -9.962  1.00  0.00     0.014 A 
ATOM     41  C   UNL     1      11.161   1.812 -10.324  1.00  0.00     0.010 A 
ATOM     42  C   UNL     1      10.259  -0.150  -9.236  1.00  0.00     0.010 A 
ATOM     43  C   UNL     1      11.314   0.758  -9.412  1.00  0.00    -0.014 A 
BRANCH  43  44
ATOM     44  C   UNL     1      12.580   0.576  -8.657  1.00  0.00     0.031 A 
ATOM     45  C   UNL     1      13.497  -0.569  -8.985  1.00  0.00     0.074 A 
ATOM     46  C   UNL     1      12.881   1.406  -7.641  1.00  0.00     0.049 A 
ATOM     47  N   UNL     1      14.568  -0.980  -8.354  1.00  0.00    -0.248 NA
ATOM     48  C   UNL     1      13.150  -1.366 -10.170  1.00  0.00     0.031 C 
ATOM     49  C   UNL     1      12.070   2.545  -7.207  1.00  0.00     0.029 A 
ATOM     50  N   UNL     1      13.946   1.406  -6.775  1.00  0.00    -0.354 N 
ATOM     51  C   UNL     1      15.007  -2.104  -9.044  1.00  0.00     0.074 A 
ATOM     52  C   UNL     1      14.079  -2.311 -10.139  1.00  0.00     0.031 C 
ATOM     53  C   UNL     1      12.663   3.129  -6.152  1.00  0.00     0.029 A 
ATOM     54  C   UNL     1      13.878   2.391  -5.820  1.00  0.00     0.049 A 
ATOM     55  H   UNL     1      14.688   0.762  -6.834  1.00  0.00     0.167 HD
ATOM     56  C   UNL     1      16.078  -2.896  -8.787  1.00  0.00     0.034 A 
ATOM     57  C   UNL     1      14.691   2.657  -4.780  1.00  0.00     0.034 A 
ATOM     58  C   UNL     1      17.008  -2.682  -7.707  1.00  0.00     0.049 A 
ATOM     59  C   UNL     1      15.903   1.801  -4.547  1.00  0.00     0.074 A 
ATOM     60  C   UNL     1      18.119  -3.432  -7.357  1.00  0.00     0.029 A 
ATOM     61  N   UNL     1      16.942  -1.631  -6.804  1.00  0.00    -0.354 N 
ATOM     62  N   UNL     1      16.280   0.719  -5.184  1.00  0.00    -0.248 NA
ATOM     63  C   UNL     1      16.800   2.207  -3.456  1.00  0.00     0.031 C 
ATOM     64  C   UNL     1      18.712  -2.845  -6.231  1.00  0.00     0.029 A 
ATOM     65  C   UNL     1      17.990  -1.710  -5.901  1.00  0.00     0.049 A 
ATOM     66  H   UNL     1      16.250  -0.930  -6.804  1.00  0.00     0.167 HD
ATOM     67  C   UNL     1      17.460   0.314  -4.571  1.00  0.00     0.074 A 
ATOM     68  C   UNL     1      17.738   1.273  -3.520  1.00  0.00     0.031 C 
ATOM     69  C   UNL     1      18.244  -0.755  -4.853  1.00  0.00     0.034 A 
BRANCH  56  70
ATOM     70  C   UNL     1      16.257  -4.099  -9.671  1.00  0.00     0.023 A 
ATOM     71  C   UNL     1      16.667  -3.974 -11.009  1.00  0.00     0.031 A 
ATOM     72  C   UNL     1      15.965  -5.383  -9.180  1.00  0.00     0.131 A 
ATOM     73  C   UNL     1      16.717  -5.111 -11.829  1.00  0.00     0.055 A 
ATOM     74  C   UNL     1      16.073  -6.518  -9.986  1.00  0.00     0.041 A 
ATOM     75  F   UNL     1      15.550  -5.552  -7.915  1.00  0.00    -0.206 F 
ATOM     76  C   UNL     1      16.440  -6.384 -11.322  1.00  0.00     0.022 A 
BRANCH  73  77
ATOM     77  S   UNL     1      17.053  -4.894 -13.598  1.00  0.00     0.124 S 
ATOM     78  O   UNL     1      15.885  -4.130 -14.028  1.00  0.00    -0.237 OA
ATOM     79  O   UNL     1      18.322  -4.175 -13.595  1.00  0.00    -0.237 OA
ATOM     80  O   UNL     1      17.116  -6.264 -14.105  1.00  0.00    -0.744 OA
ENDBRANCH  73  77
ENDBRANCH  56  70
BRANCH  57  81
ATOM     81  C   UNL     1      14.360   3.761  -3.846  1.00  0.00     0.023 A 
ATOM     82  C   UNL     1      15.033   4.989  -3.910  1.00  0.00     0.031 A 
ATOM     83  C   UNL     1      13.368   3.588  -2.867  1.00  0.00     0.131 A 
ATOM     84  C   UNL     1      14.718   6.000  -2.989  1.00  0.00     0.055 A 
ATOM     85  C   UNL     1      13.047   4.602  -1.964  1.00  0.00     0.041 A 
ATOM     86  F   UNL     1      12.693   2.431  -2.784  1.00  0.00    -0.206 F 
ATOM     87  C   UNL     1      13.729   5.814  -2.019  1.00  0.00     0.022 A 
BRANCH  84  88
ATOM     88  S   UNL     1      15.648   7.555  -3.052  1.00  0.00     0.124 S 
ATOM     89  O   UNL     1      17.026   7.089  -2.940  1.00  0.00    -0.237 OA
ATOM     90  O   UNL     1      15.254   8.087  -4.352  1.00  0.00    -0.237 OA
ATOM     91  O   UNL     1      15.145   8.298  -1.899  1.00  0.00    -0.744 OA
ENDBRANCH  84  88
ENDBRANCH  57  81
BRANCH  69  92
ATOM     92  C   UNL     1      19.487  -0.913  -4.025  1.00  0.00     0.023 A 
ATOM     93  C   UNL     1      19.436  -1.444  -2.726  1.00  0.00     0.031 A 
ATOM     94  C   UNL     1      20.730  -0.503  -4.535  1.00  0.00     0.131 A 
ATOM     95  C   UNL     1      20.610  -1.524  -1.962  1.00  0.00     0.055 A 
ATOM     96  C   UNL     1      21.898  -0.607  -3.780  1.00  0.00     0.041 A 
ATOM     97  F   UNL     1      20.821   0.016  -5.770  1.00  0.00    -0.206 F 
ATOM     98  C   UNL     1      21.841  -1.113  -2.484  1.00  0.00     0.022 A 
BRANCH  95  99
ATOM     99  S   UNL     1      20.503  -2.128  -0.255  1.00  0.00     0.124 S 
ATOM    100  O   UNL     1      19.581  -1.173   0.351  1.00  0.00    -0.237 OA
ATOM    101  O   UNL     1      19.992  -3.483  -0.434  1.00  0.00    -0.237 OA
ATOM    102  O   UNL     1      21.881  -2.046   0.225  1.00  0.00    -0.744 OA
ENDBRANCH  95  99
ENDBRANCH  69  92
ENDBRANCH  43  44
ENDBRANCH  35  38
ENDBRANCH  33  34
ENDBRANCH  32  33
ENDBRANCH   1  32
TORSDOF 19
