REMARK SMILES Cc1cccc([C@@H](CC(F)(F)F)C(=O)NCCCNC(=O)c2ccc(-c3c4nc(c(-c5cc(S(=O)(=O)[O-])ccc5F)c5ccc([nH]5)c(-c5cc(S(=O)(=O)[O-])ccc5F)c5nc(c(-c6cc(S(=O)(=O)[O-])ccc6F)c6ccc3[nH]6)C=C5)C=C4)cc2)c1
REMARK SMILES IDX 17 1 16 2 15 3 13 4 14 5 7 7 6 8 1 9 2 10 3 11 85 12 4 13
REMARK SMILES IDX 5 14 8 15 9 16 10 17 11 18 12 19 18 20 19 21 20 22 21 24
REMARK SMILES IDX 22 25 23 26 84 27 24 28 83 29 25 30 26 31 27 32 77 33 28 34
REMARK SMILES IDX 82 35 76 36 78 37 29 38 81 39 75 40 74 41 30 43 62 44 42 45
REMARK SMILES IDX 61 46 43 47 46 48 60 49 79 50 44 51 45 52 59 54 80 55 47 56
REMARK SMILES IDX 31 57 32 58 40 59 33 60 39 61 41 62 38 63 34 64 35 65 36 66
REMARK SMILES IDX 37 67 63 68 64 69 72 70 65 71 71 72 73 73 70 74 66 75 67 76
REMARK SMILES IDX 68 77 69 78 48 79 49 80 57 81 50 82 56 83 58 84 55 85 51 86
REMARK SMILES IDX 52 87 53 88 54 89
REMARK H PARENT 15 6 19 23 78 42 46 53
REMARK Flexibility Score: inf
ROOT
ATOM      1  C   UNL     1      -4.113  -0.550   0.926  1.00  0.00     0.042 C 
ENDROOT
BRANCH   1   2
ATOM      2  C   UNL     1      -4.530   0.828   0.437  1.00  0.00     0.117 C 
BRANCH   2   3
ATOM      3  N   UNL     1      -3.796   1.896   1.101  1.00  0.00    -0.356 N 
ATOM      4  C   UNL     1      -2.666   2.582   0.819  1.00  0.00     0.227 C 
ATOM      5  O   UNL     1      -2.325   3.437   1.651  1.00  0.00    -0.274 OA
ATOM      6  H   UNL     1      -4.218   2.183   1.944  1.00  0.00     0.163 HD
BRANCH   4   7
ATOM      7  C   UNL     1      -1.791   2.401  -0.428  1.00  0.00     0.117 C 
BRANCH   7   8
ATOM      8  C   UNL     1      -0.932   1.139  -0.473  1.00  0.00    -0.035 A 
ATOM      9  C   UNL     1       2.709   0.206   0.301  1.00  0.00     0.044 C 
ATOM     10  C   UNL     1       1.263   0.092  -0.081  1.00  0.00    -0.051 A 
ATOM     11  C   UNL     1       0.732  -1.147  -0.440  1.00  0.00     0.003 A 
ATOM     12  C   UNL     1       0.421   1.214  -0.073  1.00  0.00     0.008 A 
ATOM     13  C   UNL     1      -0.596  -1.242  -0.846  1.00  0.00     0.001 A 
ATOM     14  C   UNL     1      -1.407  -0.102  -0.894  1.00  0.00     0.004 A 
ENDBRANCH   7   8
BRANCH   7  15
ATOM     15  C   UNL     1      -2.279   2.996  -1.756  1.00  0.00     0.133 C 
BRANCH  15  16
ATOM     16  C   UNL     1      -3.529   2.480  -2.410  1.00  0.00     0.390 C 
ATOM     17  F   UNL     1      -4.630   2.763  -1.696  1.00  0.00    -0.171 F 
ATOM     18  F   UNL     1      -3.679   3.083  -3.618  1.00  0.00    -0.171 F 
ATOM     19  F   UNL     1      -3.479   1.156  -2.649  1.00  0.00    -0.171 F 
ENDBRANCH  15  16
ENDBRANCH   7  15
ENDBRANCH   4   7
ENDBRANCH   2   3
ENDBRANCH   1   2
BRANCH   1  20
ATOM     20  C   UNL     1      -5.183  -1.253   1.742  1.00  0.00     0.118 C 
BRANCH  20  21
ATOM     21  N   UNL     1      -6.003  -2.174   0.947  1.00  0.00    -0.352 N 
ATOM     22  C   UNL     1      -6.844  -3.183   1.398  1.00  0.00     0.251 C 
ATOM     23  H   UNL     1      -5.950  -2.063  -0.030  1.00  0.00     0.163 HD
ATOM     24  O   UNL     1      -7.477  -3.896   0.639  1.00  0.00    -0.269 OA
BRANCH  22  25
ATOM     25  C   UNL     1      -7.024  -3.298   2.860  1.00  0.00     0.039 A 
ATOM     26  C   UNL     1      -8.252  -2.877   3.378  1.00  0.00     0.014 A 
ATOM     27  C   UNL     1      -5.897  -3.420   3.666  1.00  0.00     0.014 A 
ATOM     28  C   UNL     1      -8.282  -2.319   4.650  1.00  0.00     0.010 A 
ATOM     29  C   UNL     1      -5.904  -2.755   4.876  1.00  0.00     0.010 A 
ATOM     30  C   UNL     1      -7.078  -2.138   5.331  1.00  0.00    -0.014 A 
BRANCH  30  31
ATOM     31  C   UNL     1      -6.933  -1.187   6.431  1.00  0.00     0.031 A 
ATOM     32  C   UNL     1      -6.602  -1.668   7.789  1.00  0.00     0.074 A 
ATOM     33  C   UNL     1      -7.081   0.143   6.215  1.00  0.00     0.049 A 
ATOM     34  N   UNL     1      -6.793  -0.977   8.862  1.00  0.00    -0.248 NA
ATOM     35  C   UNL     1      -6.122  -3.020   8.066  1.00  0.00     0.031 C 
ATOM     36  C   UNL     1      -6.722   1.233   7.120  1.00  0.00     0.029 A 
ATOM     37  N   UNL     1      -7.852   0.758   5.224  1.00  0.00    -0.354 N 
ATOM     38  C   UNL     1      -6.196  -1.643   9.902  1.00  0.00     0.074 A 
ATOM     39  C   UNL     1      -5.925  -2.958   9.386  1.00  0.00     0.031 C 
ATOM     40  C   UNL     1      -7.467   2.308   6.825  1.00  0.00     0.029 A 
ATOM     41  C   UNL     1      -8.415   1.913   5.802  1.00  0.00     0.049 A 
ATOM     42  H   UNL     1      -7.977   0.444   4.300  1.00  0.00     0.167 HD
ATOM     43  C   UNL     1      -5.881  -0.946  11.028  1.00  0.00     0.034 A 
ATOM     44  C   UNL     1      -9.764   2.094   5.869  1.00  0.00     0.034 A 
ATOM     45  C   UNL     1      -6.603   0.331  11.074  1.00  0.00     0.049 A 
ATOM     46  C   UNL     1     -10.295   2.230   7.277  1.00  0.00     0.074 A 
ATOM     47  C   UNL     1      -6.227   1.657  10.952  1.00  0.00     0.029 A 
ATOM     48  N   UNL     1      -7.997   0.317  11.037  1.00  0.00    -0.354 N 
ATOM     49  N   UNL     1      -9.608   1.951   8.352  1.00  0.00    -0.248 NA
ATOM     50  C   UNL     1     -11.651   2.669   7.585  1.00  0.00     0.031 C 
ATOM     51  C   UNL     1      -7.408   2.429  10.757  1.00  0.00     0.029 A 
ATOM     52  C   UNL     1      -8.502   1.582  10.810  1.00  0.00     0.049 A 
ATOM     53  H   UNL     1      -8.549  -0.490  11.157  1.00  0.00     0.167 HD
ATOM     54  C   UNL     1     -10.399   2.110   9.463  1.00  0.00     0.074 A 
ATOM     55  C   UNL     1     -11.658   2.599   8.928  1.00  0.00     0.031 C 
ATOM     56  C   UNL     1      -9.946   1.799  10.719  1.00  0.00     0.034 A 
BRANCH  43  57
ATOM     57  C   UNL     1      -4.772  -1.314  12.002  1.00  0.00     0.023 A 
ATOM     58  C   UNL     1      -4.473  -0.425  13.060  1.00  0.00     0.031 A 
ATOM     59  C   UNL     1      -3.885  -2.410  11.884  1.00  0.00     0.131 A 
ATOM     60  C   UNL     1      -3.359  -0.626  13.903  1.00  0.00     0.055 A 
ATOM     61  C   UNL     1      -2.814  -2.639  12.757  1.00  0.00     0.041 A 
ATOM     62  F   UNL     1      -3.950  -3.296  10.887  1.00  0.00    -0.206 F 
ATOM     63  C   UNL     1      -2.537  -1.740  13.768  1.00  0.00     0.022 A 
BRANCH  60  64
ATOM     64  S   UNL     1      -2.931   0.635  15.135  1.00  0.00     0.124 S 
ATOM     65  O   UNL     1      -2.668   1.803  14.300  1.00  0.00    -0.237 OA
ATOM     66  O   UNL     1      -4.131   0.683  15.961  1.00  0.00    -0.237 OA
ATOM     67  O   UNL     1      -1.751   0.077  15.795  1.00  0.00    -0.744 OA
ENDBRANCH  60  64
ENDBRANCH  43  57
BRANCH  44  68
ATOM     68  C   UNL     1     -10.489   1.516   4.705  1.00  0.00     0.023 A 
ATOM     69  C   UNL     1     -10.158   2.030   3.433  1.00  0.00     0.031 A 
ATOM     70  C   UNL     1     -11.128   0.272   4.764  1.00  0.00     0.131 A 
ATOM     71  C   UNL     1     -10.305   1.235   2.289  1.00  0.00     0.055 A 
ATOM     72  C   UNL     1     -11.336  -0.492   3.608  1.00  0.00     0.041 A 
ATOM     73  F   UNL     1     -11.429  -0.286   5.947  1.00  0.00    -0.206 F 
ATOM     74  C   UNL     1     -10.883  -0.032   2.370  1.00  0.00     0.022 A 
BRANCH  71  75
ATOM     75  S   UNL     1      -9.469   1.761   0.762  1.00  0.00     0.124 S 
ATOM     76  O   UNL     1     -10.460   2.647   0.164  1.00  0.00    -0.237 OA
ATOM     77  O   UNL     1      -8.256   2.403   1.267  1.00  0.00    -0.237 OA
ATOM     78  O   UNL     1      -9.230   0.505   0.055  1.00  0.00    -0.744 OA
ENDBRANCH  71  75
ENDBRANCH  44  68
BRANCH  56  79
ATOM     79  C   UNL     1     -10.787   1.726  11.987  1.00  0.00     0.023 A 
ATOM     80  C   UNL     1     -12.190   1.759  12.005  1.00  0.00     0.031 A 
ATOM     81  C   UNL     1     -10.176   1.551  13.256  1.00  0.00     0.131 A 
ATOM     82  C   UNL     1     -12.915   1.710  13.213  1.00  0.00     0.055 A 
ATOM     83  C   UNL     1     -10.899   1.427  14.448  1.00  0.00     0.041 A 
ATOM     84  F   UNL     1      -8.845   1.479  13.398  1.00  0.00    -0.206 F 
ATOM     85  C   UNL     1     -12.280   1.525  14.436  1.00  0.00     0.022 A 
BRANCH  82  86
ATOM     86  S   UNL     1     -14.710   1.958  13.150  1.00  0.00     0.124 S 
ATOM     87  O   UNL     1     -14.809   3.305  12.594  1.00  0.00    -0.237 OA
ATOM     88  O   UNL     1     -15.145   0.878  12.271  1.00  0.00    -0.237 OA
ATOM     89  O   UNL     1     -15.127   1.831  14.545  1.00  0.00    -0.744 OA
ENDBRANCH  82  86
ENDBRANCH  56  79
ENDBRANCH  30  31
ENDBRANCH  22  25
ENDBRANCH  20  21
ENDBRANCH   1  20
TORSDOF 16
