REMARK SMILES C[C@H]1CC[C@H]([NH2+]Cc2c(C(=O)NCCCNC(=O)c3ccc(-c4c5nc(c(-c6cc(S(=O)(=O)[O-])ccc6F)c6ccc([nH]6)c(-c6cc(S(=O)(=O)[O-])ccc6F)c6nc(c(-c7cc(S(=O)(=O)[O-])ccc7F)c7ccc4[nH]7)C=C6)C=C5)cc3)n(Cc3ccccc3F)c3ccccc23)CC1
REMARK SMILES IDX 14 1 13 2 12 3 10 4 11 5 9 7 8 8 96 9 82 10 91 11 95 12
REMARK SMILES IDX 92 13 94 14 93 15 7 16 6 17 5 20 1 21 2 22 3 23 98 24 4 25
REMARK SMILES IDX 97 26 83 27 84 28 85 29 89 30 86 31 88 32 90 33 87 34 15 35
REMARK SMILES IDX 16 36 17 37 18 39 19 40 20 41 81 42 21 43 80 44 22 45 23 46
REMARK SMILES IDX 24 47 74 48 25 49 79 50 73 51 75 52 26 53 78 54 72 55 71 56
REMARK SMILES IDX 27 58 59 59 39 60 58 61 40 62 43 63 57 64 76 65 41 66 42 67
REMARK SMILES IDX 56 69 77 70 44 71 28 72 29 73 37 74 30 75 36 76 38 77 35 78
REMARK SMILES IDX 31 79 32 80 33 81 34 82 60 83 61 84 69 85 62 86 68 87 70 88
REMARK SMILES IDX 67 89 63 90 64 91 65 92 66 93 45 94 46 95 54 96 47 97 53 98
REMARK SMILES IDX 55 99 52 100 48 101 49 102 50 103 51 104
REMARK H PARENT 12 6 6 18 6 19 16 38 75 57 43 68
REMARK Flexibility Score: inf
ROOT
ATOM      1  C   UNL     1      -4.443   1.692   2.342  1.00  0.00     0.042 C 
ENDROOT
BRANCH   1   2
ATOM      2  C   UNL     1      -3.817   0.447   1.723  1.00  0.00     0.118 C 
BRANCH   2   3
ATOM      3  N   UNL     1      -2.834  -0.256   2.509  1.00  0.00    -0.351 N 
ATOM      4  C   UNL     1      -2.258  -1.496   2.327  1.00  0.00     0.268 C 
ATOM      5  O   UNL     1      -1.342  -1.722   3.123  1.00  0.00    -0.268 OA
ATOM      6  H   UNL     1      -2.523   0.229   3.307  1.00  0.00     0.163 HD
BRANCH   4   7
ATOM      7  C   UNL     1      -2.700  -2.503   1.343  1.00  0.00     0.117 A 
ATOM      8  C   UNL     1      -3.359  -2.432   0.099  1.00  0.00     0.045 A 
ATOM      9  C   UNL     1      -3.869  -3.746  -0.159  1.00  0.00     0.009 A 
ATOM     10  N   UNL     1      -2.320  -3.870   1.423  1.00  0.00    -0.331 N 
ATOM     11  C   UNL     1      -3.024  -4.625   0.492  1.00  0.00     0.049 A 
ATOM     12  C   UNL     1      -4.859  -4.258  -1.027  1.00  0.00     0.011 A 
ATOM     13  C   UNL     1      -2.994  -5.988   0.140  1.00  0.00     0.027 A 
ATOM     14  C   UNL     1      -4.952  -5.634  -1.239  1.00  0.00     0.001 A 
ATOM     15  C   UNL     1      -3.998  -6.483  -0.698  1.00  0.00     0.002 A 
BRANCH   8  16
ATOM     16  C   UNL     1      -3.606  -1.360  -0.928  1.00  0.00     0.300 C 
BRANCH  16  17
ATOM     17  N   UNL     1      -2.689  -0.241  -0.937  1.00  0.00    -0.340 N 
ATOM     18  H   UNL     1      -3.108   0.453  -1.556  1.00  0.00     0.346 HD
ATOM     19  H   UNL     1      -2.593  -0.066   0.064  1.00  0.00     0.346 HD
BRANCH  17  20
ATOM     20  C   UNL     1      -1.287  -0.329  -1.335  1.00  0.00     0.182 C 
ATOM     21  C   UNL     1       3.017   0.034  -0.333  1.00  0.00     0.007 C 
ATOM     22  C   UNL     1       1.500  -0.083  -0.292  1.00  0.00    -0.014 C 
ATOM     23  C   UNL     1       1.017  -1.372  -0.964  1.00  0.00     0.009 C 
ATOM     24  C   UNL     1       0.826   1.113  -0.965  1.00  0.00     0.009 C 
ATOM     25  C   UNL     1      -0.490  -1.515  -0.784  1.00  0.00     0.065 C 
ATOM     26  C   UNL     1      -0.690   1.010  -0.843  1.00  0.00     0.065 C 
ENDBRANCH  17  20
ENDBRANCH  16  17
ENDBRANCH   8  16
BRANCH  10  27
ATOM     27  C   UNL     1      -1.246  -4.451   2.247  1.00  0.00     0.161 C 
BRANCH  27  28
ATOM     28  C   UNL     1      -1.709  -5.158   3.502  1.00  0.00     0.008 A 
ATOM     29  C   UNL     1      -2.503  -6.318   3.467  1.00  0.00     0.008 A 
ATOM     30  C   UNL     1      -1.285  -4.723   4.760  1.00  0.00     0.128 A 
ATOM     31  C   UNL     1      -2.888  -6.985   4.633  1.00  0.00     0.001 A 
ATOM     32  C   UNL     1      -1.676  -5.373   5.933  1.00  0.00     0.039 A 
ATOM     33  F   UNL     1      -0.442  -3.688   4.869  1.00  0.00    -0.207 F 
ATOM     34  C   UNL     1      -2.485  -6.504   5.871  1.00  0.00     0.003 A 
ENDBRANCH  27  28
ENDBRANCH  10  27
ENDBRANCH   4   7
ENDBRANCH   2   3
ENDBRANCH   1   2
BRANCH   1  35
ATOM     35  C   UNL     1      -3.599   2.982   2.287  1.00  0.00     0.118 C 
BRANCH  35  36
ATOM     36  N   UNL     1      -2.921   3.276   1.031  1.00  0.00    -0.352 N 
ATOM     37  C   UNL     1      -3.060   4.275   0.099  1.00  0.00     0.251 C 
ATOM     38  H   UNL     1      -2.218   2.625   0.805  1.00  0.00     0.163 HD
ATOM     39  O   UNL     1      -2.038   4.609  -0.507  1.00  0.00    -0.269 OA
BRANCH  37  40
ATOM     40  C   UNL     1      -4.362   4.867  -0.311  1.00  0.00     0.039 A 
ATOM     41  C   UNL     1      -5.594   4.385   0.120  1.00  0.00     0.014 A 
ATOM     42  C   UNL     1      -4.335   5.841  -1.331  1.00  0.00     0.014 A 
ATOM     43  C   UNL     1      -6.764   4.780  -0.519  1.00  0.00     0.010 A 
ATOM     44  C   UNL     1      -5.507   6.249  -1.967  1.00  0.00     0.010 A 
ATOM     45  C   UNL     1      -6.717   5.671  -1.596  1.00  0.00    -0.014 A 
BRANCH  45  46
ATOM     46  C   UNL     1      -7.980   5.961  -2.272  1.00  0.00     0.031 A 
ATOM     47  C   UNL     1      -9.027   6.624  -1.442  1.00  0.00     0.074 A 
ATOM     48  C   UNL     1      -8.211   5.711  -3.575  1.00  0.00     0.049 A 
ATOM     49  N   UNL     1     -10.181   6.165  -1.079  1.00  0.00    -0.248 NA
ATOM     50  C   UNL     1      -8.692   7.931  -0.867  1.00  0.00     0.031 C 
ATOM     51  C   UNL     1      -7.252   5.369  -4.626  1.00  0.00     0.029 A 
ATOM     52  N   UNL     1      -9.389   5.818  -4.252  1.00  0.00    -0.354 N 
ATOM     53  C   UNL     1     -10.791   7.181  -0.338  1.00  0.00     0.074 A 
ATOM     54  C   UNL     1      -9.780   8.191  -0.143  1.00  0.00     0.031 C 
ATOM     55  C   UNL     1      -7.844   5.532  -5.832  1.00  0.00     0.029 A 
ATOM     56  C   UNL     1      -9.251   5.841  -5.629  1.00  0.00     0.049 A 
ATOM     57  H   UNL     1     -10.262   5.875  -3.801  1.00  0.00     0.167 HD
ATOM     58  C   UNL     1     -12.126   7.187  -0.049  1.00  0.00     0.034 A 
ATOM     59  C   UNL     1     -10.202   6.201  -6.525  1.00  0.00     0.034 A 
ATOM     60  C   UNL     1     -12.728   5.905  -0.289  1.00  0.00     0.049 A 
ATOM     61  C   UNL     1     -11.529   6.088  -5.870  1.00  0.00     0.074 A 
ATOM     62  C   UNL     1     -12.585   4.646   0.257  1.00  0.00     0.029 A 
ATOM     63  N   UNL     1     -13.430   5.726  -1.456  1.00  0.00    -0.354 N 
ATOM     64  N   UNL     1     -12.094   4.960  -5.541  1.00  0.00    -0.248 NA
ATOM     65  C   UNL     1     -12.051   7.267  -5.194  1.00  0.00     0.031 C 
ATOM     66  C   UNL     1     -12.767   3.749  -0.833  1.00  0.00     0.029 A 
ATOM     67  C   UNL     1     -13.045   4.513  -1.968  1.00  0.00     0.049 A 
ATOM     68  H   UNL     1     -14.084   6.348  -1.849  1.00  0.00     0.167 HD
ATOM     69  C   UNL     1     -12.707   5.217  -4.323  1.00  0.00     0.074 A 
ATOM     70  C   UNL     1     -12.740   6.675  -4.216  1.00  0.00     0.031 C 
ATOM     71  C   UNL     1     -12.877   4.241  -3.382  1.00  0.00     0.034 A 
BRANCH  58  72
ATOM     72  C   UNL     1     -12.950   8.424   0.222  1.00  0.00     0.023 A 
ATOM     73  C   UNL     1     -12.488   9.722  -0.057  1.00  0.00     0.031 A 
ATOM     74  C   UNL     1     -14.315   8.323   0.572  1.00  0.00     0.131 A 
ATOM     75  C   UNL     1     -13.329  10.839   0.030  1.00  0.00     0.055 A 
ATOM     76  C   UNL     1     -15.173   9.431   0.595  1.00  0.00     0.041 A 
ATOM     77  F   UNL     1     -14.873   7.135   0.852  1.00  0.00    -0.206 F 
ATOM     78  C   UNL     1     -14.681  10.700   0.324  1.00  0.00     0.022 A 
BRANCH  75  79
ATOM     79  S   UNL     1     -12.666  12.505  -0.245  1.00  0.00     0.124 S 
ATOM     80  O   UNL     1     -13.374  12.912  -1.453  1.00  0.00    -0.237 OA
ATOM     81  O   UNL     1     -13.061  13.190   0.983  1.00  0.00    -0.237 OA
ATOM     82  O   UNL     1     -11.231  12.279  -0.390  1.00  0.00    -0.744 OA
ENDBRANCH  75  79
ENDBRANCH  58  72
BRANCH  59  83
ATOM     83  C   UNL     1      -9.972   7.107  -7.676  1.00  0.00     0.023 A 
ATOM     84  C   UNL     1      -8.914   8.036  -7.633  1.00  0.00     0.031 A 
ATOM     85  C   UNL     1     -10.941   7.282  -8.677  1.00  0.00     0.131 A 
ATOM     86  C   UNL     1      -8.867   9.112  -8.526  1.00  0.00     0.055 A 
ATOM     87  C   UNL     1     -10.887   8.351  -9.580  1.00  0.00     0.041 A 
ATOM     88  F   UNL     1     -11.996   6.456  -8.753  1.00  0.00    -0.206 F 
ATOM     89  C   UNL     1      -9.851   9.280  -9.499  1.00  0.00     0.022 A 
BRANCH  86  90
ATOM     90  S   UNL     1      -7.550  10.349  -8.382  1.00  0.00     0.124 S 
ATOM     91  O   UNL     1      -7.182  10.579  -9.777  1.00  0.00    -0.237 OA
ATOM     92  O   UNL     1      -8.246  11.448  -7.724  1.00  0.00    -0.237 OA
ATOM     93  O   UNL     1      -6.533   9.671  -7.582  1.00  0.00    -0.744 OA
ENDBRANCH  86  90
ENDBRANCH  59  83
BRANCH  71  94
ATOM     94  C   UNL     1     -12.583   2.800  -3.744  1.00  0.00     0.023 A 
ATOM     95  C   UNL     1     -13.512   1.822  -3.343  1.00  0.00     0.031 A 
ATOM     96  C   UNL     1     -11.338   2.349  -4.223  1.00  0.00     0.131 A 
ATOM     97  C   UNL     1     -13.173   0.463  -3.384  1.00  0.00     0.055 A 
ATOM     98  C   UNL     1     -11.031   0.989  -4.333  1.00  0.00     0.041 A 
ATOM     99  F   UNL     1     -10.346   3.202  -4.509  1.00  0.00    -0.206 F 
ATOM    100  C   UNL     1     -11.944   0.039  -3.895  1.00  0.00     0.022 A 
BRANCH  97 101
ATOM    101  S   UNL     1     -14.251  -0.774  -2.615  1.00  0.00     0.124 S 
ATOM    102  O   UNL     1     -14.649  -1.590  -3.763  1.00  0.00    -0.237 OA
ATOM    103  O   UNL     1     -13.342  -1.431  -1.672  1.00  0.00    -0.237 OA
ATOM    104  O   UNL     1     -15.313   0.008  -2.005  1.00  0.00    -0.744 OA
ENDBRANCH  97 101
ENDBRANCH  71  94
ENDBRANCH  45  46
ENDBRANCH  37  40
ENDBRANCH  35  36
ENDBRANCH   1  35
TORSDOF 18
