REMARK SMILES C[C@H](CC(=O)NCCCNC(=O)c1ccc(-c2c3nc(c(-c4cc(S(=O)(=O)[O-])ccc4F)c4ccc([nH]4)c(-c4cc(S(=O)(=O)[O-])ccc4F)c4nc(c(-c5cc(S(=O)(=O)[O-])ccc5F)c5ccc2[nH]5)C=C4)C=C3)cc1)N1C(=O)CCCC1=O
REMARK SMILES IDX 8 1 7 2 6 3 4 4 5 5 3 7 2 8 1 9 76 10 77 11 82 12 78 13
REMARK SMILES IDX 79 14 81 15 83 16 80 17 9 18 10 19 11 20 12 22 13 23 14 24
REMARK SMILES IDX 75 25 15 26 74 27 16 28 17 29 18 30 68 31 19 32 73 33 67 34
REMARK SMILES IDX 69 35 20 36 72 37 66 38 65 39 21 41 53 42 33 43 52 44 34 45
REMARK SMILES IDX 37 46 51 47 70 48 35 49 36 50 50 52 71 53 38 54 22 55 23 56
REMARK SMILES IDX 31 57 24 58 30 59 32 60 29 61 25 62 26 63 27 64 28 65 54 66
REMARK SMILES IDX 55 67 63 68 56 69 62 70 64 71 61 72 57 73 58 74 59 75 60 76
REMARK SMILES IDX 39 77 40 78 48 79 41 80 47 81 49 82 46 83 42 84 43 85 44 86
REMARK SMILES IDX 45 87
REMARK H PARENT 6 6 10 21 69 40 37 51
REMARK Flexibility Score: inf
ROOT
ATOM      1  C   UNL     1      -1.767  -2.886  -1.265  1.00  0.00     0.042 C 
ENDROOT
BRANCH   1   2
ATOM      2  C   UNL     1      -1.246  -2.353   0.069  1.00  0.00     0.117 C 
BRANCH   2   3
ATOM      3  N   UNL     1       0.207  -2.353   0.093  1.00  0.00    -0.356 N 
ATOM      4  C   UNL     1       1.090  -1.321  -0.009  1.00  0.00     0.222 C 
ATOM      5  O   UNL     1       2.289  -1.592  -0.106  1.00  0.00    -0.275 OA
ATOM      6  H   UNL     1       0.619  -3.241   0.202  1.00  0.00     0.163 HD
BRANCH   4   7
ATOM      7  C   UNL     1       0.629   0.122   0.058  1.00  0.00     0.125 C 
BRANCH   7   8
ATOM      8  C   UNL     1       0.429   0.876  -1.278  1.00  0.00     0.099 C 
ATOM      9  C   UNL     1       1.134   0.261  -2.490  1.00  0.00     0.032 C 
BRANCH   8  10
ATOM     10  N   UNL     1      -1.001   1.222  -1.484  1.00  0.00    -0.279 N 
ATOM     11  C   UNL     1      -1.858   0.318  -2.083  1.00  0.00     0.229 C 
ATOM     12  C   UNL     1      -1.446   2.470  -1.058  1.00  0.00     0.229 C 
ATOM     13  O   UNL     1      -1.517  -0.521  -2.913  1.00  0.00    -0.274 OA
ATOM     14  C   UNL     1      -3.289   0.433  -1.635  1.00  0.00     0.101 C 
ATOM     15  C   UNL     1      -2.896   2.856  -1.325  1.00  0.00     0.101 C 
ATOM     16  O   UNL     1      -0.722   3.269  -0.459  1.00  0.00    -0.274 OA
ATOM     17  C   UNL     1      -3.762   1.812  -2.002  1.00  0.00     0.020 C 
ENDBRANCH   8  10
ENDBRANCH   7   8
ENDBRANCH   4   7
ENDBRANCH   2   3
ENDBRANCH   1   2
BRANCH   1  18
ATOM     18  C   UNL     1      -2.077  -4.374  -1.271  1.00  0.00     0.118 C 
BRANCH  18  19
ATOM     19  N   UNL     1      -3.372  -4.653  -0.667  1.00  0.00    -0.352 N 
ATOM     20  C   UNL     1      -4.647  -4.719  -1.179  1.00  0.00     0.251 C 
ATOM     21  H   UNL     1      -3.326  -4.829   0.300  1.00  0.00     0.163 HD
ATOM     22  O   UNL     1      -5.573  -4.678  -0.366  1.00  0.00    -0.269 OA
BRANCH  20  23
ATOM     23  C   UNL     1      -4.961  -4.818  -2.634  1.00  0.00     0.039 A 
ATOM     24  C   UNL     1      -6.235  -4.411  -3.064  1.00  0.00     0.014 A 
ATOM     25  C   UNL     1      -4.106  -5.392  -3.573  1.00  0.00     0.014 A 
ATOM     26  C   UNL     1      -6.624  -4.555  -4.405  1.00  0.00     0.010 A 
ATOM     27  C   UNL     1      -4.450  -5.432  -4.928  1.00  0.00     0.010 A 
ATOM     28  C   UNL     1      -5.725  -5.044  -5.362  1.00  0.00    -0.014 A 
BRANCH  28  29
ATOM     29  C   UNL     1      -6.108  -5.216  -6.796  1.00  0.00     0.031 A 
ATOM     30  C   UNL     1      -6.030  -6.580  -7.446  1.00  0.00     0.074 A 
ATOM     31  C   UNL     1      -6.468  -4.148  -7.538  1.00  0.00     0.049 A 
ATOM     32  N   UNL     1      -6.195  -6.917  -8.701  1.00  0.00    -0.248 NA
ATOM     33  C   UNL     1      -5.681  -7.708  -6.569  1.00  0.00     0.031 C 
ATOM     34  C   UNL     1      -6.553  -2.771  -7.050  1.00  0.00     0.029 A 
ATOM     35  N   UNL     1      -6.819  -4.049  -8.863  1.00  0.00    -0.354 N 
ATOM     36  C   UNL     1      -5.936  -8.284  -8.768  1.00  0.00     0.074 A 
ATOM     37  C   UNL     1      -5.542  -8.697  -7.439  1.00  0.00     0.031 C 
ATOM     38  C   UNL     1      -6.957  -1.972  -8.051  1.00  0.00     0.029 A 
ATOM     39  C   UNL     1      -7.107  -2.765  -9.267  1.00  0.00     0.049 A 
ATOM     40  H   UNL     1      -6.860  -4.825  -9.467  1.00  0.00     0.167 HD
ATOM     41  C   UNL     1      -6.038  -9.123  -9.831  1.00  0.00     0.034 A 
ATOM     42  C   UNL     1      -7.436  -2.275 -10.479  1.00  0.00     0.034 A 
ATOM     43  C   UNL     1      -6.469  -8.706 -11.144  1.00  0.00     0.049 A 
ATOM     44  C   UNL     1      -7.541  -3.224 -11.647  1.00  0.00     0.074 A 
ATOM     45  C   UNL     1      -6.670  -9.481 -12.273  1.00  0.00     0.029 A 
ATOM     46  N   UNL     1      -6.766  -7.398 -11.506  1.00  0.00    -0.354 N 
ATOM     47  N   UNL     1      -7.327  -4.519 -11.683  1.00  0.00    -0.248 NA
ATOM     48  C   UNL     1      -7.942  -2.645 -12.936  1.00  0.00     0.031 C 
ATOM     49  C   UNL     1      -7.025  -8.636 -13.331  1.00  0.00     0.029 A 
ATOM     50  C   UNL     1      -7.122  -7.342 -12.846  1.00  0.00     0.049 A 
ATOM     51  H   UNL     1      -6.729  -6.622 -10.900  1.00  0.00     0.167 HD
ATOM     52  C   UNL     1      -7.599  -4.912 -12.991  1.00  0.00     0.074 A 
ATOM     53  C   UNL     1      -8.008  -3.721 -13.706  1.00  0.00     0.031 C 
ATOM     54  C   UNL     1      -7.521  -6.146 -13.550  1.00  0.00     0.034 A 
BRANCH  41  55
ATOM     55  C   UNL     1      -5.656 -10.572  -9.618  1.00  0.00     0.023 A 
ATOM     56  C   UNL     1      -6.342 -11.393  -8.705  1.00  0.00     0.031 A 
ATOM     57  C   UNL     1      -4.573 -11.135 -10.317  1.00  0.00     0.131 A 
ATOM     58  C   UNL     1      -5.886 -12.696  -8.452  1.00  0.00     0.055 A 
ATOM     59  C   UNL     1      -4.181 -12.462 -10.127  1.00  0.00     0.041 A 
ATOM     60  F   UNL     1      -3.867 -10.400 -11.191  1.00  0.00    -0.206 F 
ATOM     61  C   UNL     1      -4.827 -13.246  -9.176  1.00  0.00     0.022 A 
BRANCH  58  62
ATOM     62  S   UNL     1      -6.600 -13.605  -7.053  1.00  0.00     0.124 S 
ATOM     63  O   UNL     1      -6.294 -12.713  -5.936  1.00  0.00    -0.237 OA
ATOM     64  O   UNL     1      -8.006 -13.704  -7.425  1.00  0.00    -0.237 OA
ATOM     65  O   UNL     1      -5.863 -14.867  -7.052  1.00  0.00    -0.744 OA
ENDBRANCH  58  62
ENDBRANCH  41  55
BRANCH  42  66
ATOM     66  C   UNL     1      -7.681  -0.815 -10.664  1.00  0.00     0.023 A 
ATOM     67  C   UNL     1      -8.948  -0.335 -11.033  1.00  0.00     0.031 A 
ATOM     68  C   UNL     1      -6.641   0.120 -10.512  1.00  0.00     0.131 A 
ATOM     69  C   UNL     1      -9.133   1.034 -11.283  1.00  0.00     0.055 A 
ATOM     70  C   UNL     1      -6.844   1.488 -10.709  1.00  0.00     0.041 A 
ATOM     71  F   UNL     1      -5.411  -0.283 -10.156  1.00  0.00    -0.206 F 
ATOM     72  C   UNL     1      -8.093   1.950 -11.110  1.00  0.00     0.022 A 
BRANCH  69  73
ATOM     73  S   UNL     1     -10.737   1.591 -11.921  1.00  0.00     0.124 S 
ATOM     74  O   UNL     1     -10.860   0.805 -13.144  1.00  0.00    -0.237 OA
ATOM     75  O   UNL     1     -11.638   1.229 -10.832  1.00  0.00    -0.237 OA
ATOM     76  O   UNL     1     -10.545   3.026 -12.117  1.00  0.00    -0.744 OA
ENDBRANCH  69  73
ENDBRANCH  42  66
BRANCH  54  77
ATOM     77  C   UNL     1      -7.936  -6.273 -14.996  1.00  0.00     0.023 A 
ATOM     78  C   UNL     1      -7.204  -5.669 -16.034  1.00  0.00     0.031 A 
ATOM     79  C   UNL     1      -9.091  -6.998 -15.338  1.00  0.00     0.131 A 
ATOM     80  C   UNL     1      -7.667  -5.752 -17.356  1.00  0.00     0.055 A 
ATOM     81  C   UNL     1      -9.513  -7.130 -16.661  1.00  0.00     0.041 A 
ATOM     82  F   UNL     1      -9.830  -7.594 -14.388  1.00  0.00    -0.206 F 
ATOM     83  C   UNL     1      -8.807  -6.493 -17.678  1.00  0.00     0.022 A 
BRANCH  80  84
ATOM     84  S   UNL     1      -6.814  -4.797 -18.640  1.00  0.00     0.124 S 
ATOM     85  O   UNL     1      -6.925  -3.434 -18.129  1.00  0.00    -0.237 OA
ATOM     86  O   UNL     1      -5.474  -5.377 -18.622  1.00  0.00    -0.237 OA
ATOM     87  O   UNL     1      -7.591  -5.073 -19.847  1.00  0.00    -0.744 OA
ENDBRANCH  80  84
ENDBRANCH  54  77
ENDBRANCH  28  29
ENDBRANCH  20  23
ENDBRANCH  18  19
ENDBRANCH   1  18
TORSDOF 15
