REMARK SMILES Cc1ccc(CC(=O)NCCCNC(=O)c2ccc(-c3c4nc(c(-c5cc(S(=O)(=O)[O-])ccc5F)c5ccc([nH]5)c(-c5cc(S(=O)(=O)[O-])ccc5F)c5nc(c(-c6cc(S(=O)(=O)[O-])ccc6F)c6ccc3[nH]6)C=C5)C=C4)cc2)n1-c1ccc(F)cc1
REMARK SMILES IDX 11 1 10 2 9 3 7 4 8 5 6 7 5 8 1 9 2 10 3 11 79 12 4 13 80 14
REMARK SMILES IDX 81 15 86 16 82 17 85 18 83 19 84 20 12 21 13 22 14 23 15 25
REMARK SMILES IDX 16 26 17 27 78 28 18 29 77 30 19 31 20 32 21 33 71 34 22 35
REMARK SMILES IDX 76 36 70 37 72 38 23 39 75 40 69 41 68 42 24 44 56 45 36 46
REMARK SMILES IDX 55 47 37 48 40 49 54 50 73 51 38 52 39 53 53 55 74 56 41 57
REMARK SMILES IDX 25 58 26 59 34 60 27 61 33 62 35 63 32 64 28 65 29 66 30 67
REMARK SMILES IDX 31 68 57 69 58 70 66 71 59 72 65 73 67 74 64 75 60 76 61 77
REMARK SMILES IDX 62 78 63 79 42 80 43 81 51 82 44 83 50 84 52 85 49 86 45 87
REMARK SMILES IDX 46 88 47 89 48 90
REMARK H PARENT 9 6 13 24 72 43 40 54
REMARK Flexibility Score: inf
ROOT
ATOM      1  C   UNL     1       2.845   2.272  -4.497  1.00  0.00     0.042 C 
ENDROOT
BRANCH   1   2
ATOM      2  C   UNL     1       3.078   3.518  -3.564  1.00  0.00     0.117 C 
BRANCH   2   3
ATOM      3  N   UNL     1       2.032   4.544  -3.516  1.00  0.00    -0.356 N 
ATOM      4  C   UNL     1       1.387   5.155  -2.466  1.00  0.00     0.225 C 
ATOM      5  O   UNL     1       0.735   6.177  -2.716  1.00  0.00    -0.275 OA
ATOM      6  H   UNL     1       1.736   4.855  -4.402  1.00  0.00     0.163 HD
BRANCH   4   7
ATOM      7  C   UNL     1       1.464   4.661  -1.018  1.00  0.00     0.154 C 
BRANCH   7   8
ATOM      8  C   UNL     1       0.786   3.336  -0.843  1.00  0.00     0.032 A 
ATOM      9  C   UNL     1       0.968  -0.212   0.121  1.00  0.00     0.065 C 
ATOM     10  C   UNL     1       0.618   1.141  -0.387  1.00  0.00     0.020 A 
ATOM     11  C   UNL     1      -0.483   1.505  -1.142  1.00  0.00     0.023 A 
ATOM     12  N   UNL     1       1.319   2.301  -0.088  1.00  0.00    -0.318 N 
ATOM     13  C   UNL     1      -0.402   2.888  -1.390  1.00  0.00     0.024 A 
BRANCH  12  14
ATOM     14  C   UNL     1       2.405   2.427   0.811  1.00  0.00     0.046 A 
ATOM     15  C   UNL     1       2.292   3.293   1.910  1.00  0.00     0.029 A 
ATOM     16  C   UNL     1       3.598   1.746   0.555  1.00  0.00     0.029 A 
ATOM     17  C   UNL     1       3.384   3.465   2.762  1.00  0.00     0.041 A 
ATOM     18  C   UNL     1       4.692   1.944   1.398  1.00  0.00     0.041 A 
ATOM     19  C   UNL     1       4.575   2.797   2.493  1.00  0.00     0.123 A 
ATOM     20  F   UNL     1       5.632   2.986   3.295  1.00  0.00    -0.207 F 
ENDBRANCH  12  14
ENDBRANCH   7   8
ENDBRANCH   4   7
ENDBRANCH   2   3
ENDBRANCH   1   2
BRANCH   1  21
ATOM     21  C   UNL     1       2.907   2.352  -6.093  1.00  0.00     0.118 C 
BRANCH  21  22
ATOM     22  N   UNL     1       4.018   1.524  -6.704  1.00  0.00    -0.352 N 
ATOM     23  C   UNL     1       4.305   0.637  -7.772  1.00  0.00     0.251 C 
ATOM     24  H   UNL     1       4.834   1.645  -6.166  1.00  0.00     0.163 HD
ATOM     25  O   UNL     1       5.422   0.106  -7.673  1.00  0.00    -0.269 OA
BRANCH  23  26
ATOM     26  C   UNL     1       3.492   0.252  -9.015  1.00  0.00     0.039 A 
ATOM     27  C   UNL     1       3.574  -0.977  -9.755  1.00  0.00     0.014 A 
ATOM     28  C   UNL     1       2.709   1.150  -9.650  1.00  0.00     0.014 A 
ATOM     29  C   UNL     1       2.706  -1.369 -10.952  1.00  0.00     0.010 A 
ATOM     30  C   UNL     1       1.974   0.739 -10.834  1.00  0.00     0.010 A 
ATOM     31  C   UNL     1       1.773  -0.508 -11.549  1.00  0.00    -0.014 A 
BRANCH  31  32
ATOM     32  C   UNL     1       0.137  -0.888 -12.144  1.00  0.00     0.031 A 
ATOM     33  C   UNL     1      -0.633  -0.786 -10.838  1.00  0.00     0.074 A 
ATOM     34  C   UNL     1      -0.789  -0.935 -13.275  1.00  0.00     0.049 A 
ATOM     35  N   UNL     1      -0.257   0.190 -10.060  1.00  0.00    -0.248 NA
ATOM     36  C   UNL     1      -2.030  -1.087 -10.572  1.00  0.00     0.031 C 
ATOM     37  C   UNL     1      -0.638  -0.814 -14.758  1.00  0.00     0.029 A 
ATOM     38  N   UNL     1      -2.271  -0.990 -13.290  1.00  0.00    -0.354 N 
ATOM     39  C   UNL     1      -1.252   1.071 -10.291  1.00  0.00     0.074 A 
ATOM     40  C   UNL     1      -2.418   0.160 -10.231  1.00  0.00     0.031 C 
ATOM     41  C   UNL     1      -1.841  -0.886 -15.453  1.00  0.00     0.029 A 
ATOM     42  C   UNL     1      -3.018  -0.971 -14.564  1.00  0.00     0.049 A 
ATOM     43  H   UNL     1      -2.764  -1.040 -12.439  1.00  0.00     0.167 HD
ATOM     44  C   UNL     1      -1.140   2.302 -10.907  1.00  0.00     0.034 A 
ATOM     45  C   UNL     1      -4.443  -0.847 -14.752  1.00  0.00     0.034 A 
ATOM     46  C   UNL     1      -2.296   3.089 -10.658  1.00  0.00     0.049 A 
ATOM     47  C   UNL     1      -4.575   0.300 -13.839  1.00  0.00     0.074 A 
ATOM     48  C   UNL     1      -3.331   3.101  -9.746  1.00  0.00     0.029 A 
ATOM     49  N   UNL     1      -2.599   4.091 -11.542  1.00  0.00    -0.354 N 
ATOM     50  N   UNL     1      -4.362   1.496 -14.283  1.00  0.00    -0.248 NA
ATOM     51  C   UNL     1      -5.240   0.170 -12.545  1.00  0.00     0.031 C 
ATOM     52  C   UNL     1      -4.441   3.603 -10.497  1.00  0.00     0.029 A 
ATOM     53  C   UNL     1      -3.934   3.887 -11.767  1.00  0.00     0.049 A 
ATOM     54  H   UNL     1      -2.008   4.782 -11.919  1.00  0.00     0.167 HD
ATOM     55  C   UNL     1      -4.735   2.307 -13.257  1.00  0.00     0.074 A 
ATOM     56  C   UNL     1      -5.435   1.466 -12.298  1.00  0.00     0.031 C 
ATOM     57  C   UNL     1      -4.208   3.540 -13.131  1.00  0.00     0.034 A 
BRANCH  44  58
ATOM     58  C   UNL     1       0.054   2.978 -11.774  1.00  0.00     0.023 A 
ATOM     59  C   UNL     1       0.829   2.413 -12.862  1.00  0.00     0.031 A 
ATOM     60  C   UNL     1       0.439   4.288 -11.435  1.00  0.00     0.131 A 
ATOM     61  C   UNL     1       2.022   3.041 -13.336  1.00  0.00     0.055 A 
ATOM     62  C   UNL     1       1.482   4.983 -12.068  1.00  0.00     0.041 A 
ATOM     63  F   UNL     1      -0.196   4.940 -10.451  1.00  0.00    -0.206 F 
ATOM     64  C   UNL     1       2.308   4.352 -12.986  1.00  0.00     0.022 A 
BRANCH  61  65
ATOM     65  S   UNL     1       3.364   2.116 -14.217  1.00  0.00     0.124 S 
ATOM     66  O   UNL     1       4.069   1.463 -13.117  1.00  0.00    -0.237 OA
ATOM     67  O   UNL     1       2.638   1.232 -15.120  1.00  0.00    -0.237 OA
ATOM     68  O   UNL     1       4.136   3.175 -14.868  1.00  0.00    -0.744 OA
ENDBRANCH  61  65
ENDBRANCH  44  58
BRANCH  45  69
ATOM     69  C   UNL     1      -6.010  -0.792 -15.496  1.00  0.00     0.023 A 
ATOM     70  C   UNL     1      -6.662  -1.630 -16.443  1.00  0.00     0.031 A 
ATOM     71  C   UNL     1      -7.030   0.087 -14.905  1.00  0.00     0.131 A 
ATOM     72  C   UNL     1      -8.135  -1.605 -16.596  1.00  0.00     0.055 A 
ATOM     73  C   UNL     1      -8.427  -0.057 -14.873  1.00  0.00     0.041 A 
ATOM     74  F   UNL     1      -6.745   1.325 -14.495  1.00  0.00    -0.206 F 
ATOM     75  C   UNL     1      -9.001  -0.931 -15.729  1.00  0.00     0.022 A 
BRANCH  72  76
ATOM     76  S   UNL     1      -9.071  -2.299 -18.021  1.00  0.00     0.124 S 
ATOM     77  O   UNL     1      -9.267  -1.120 -18.856  1.00  0.00    -0.237 OA
ATOM     78  O   UNL     1      -8.171  -3.324 -18.546  1.00  0.00    -0.237 OA
ATOM     79  O   UNL     1     -10.293  -2.813 -17.400  1.00  0.00    -0.744 OA
ENDBRANCH  72  76
ENDBRANCH  45  69
BRANCH  57  80
ATOM     80  C   UNL     1      -3.352   3.946 -14.321  1.00  0.00     0.023 A 
ATOM     81  C   UNL     1      -3.741   4.979 -15.170  1.00  0.00     0.031 A 
ATOM     82  C   UNL     1      -2.183   3.220 -14.671  1.00  0.00     0.131 A 
ATOM     83  C   UNL     1      -2.986   5.250 -16.328  1.00  0.00     0.055 A 
ATOM     84  C   UNL     1      -1.433   3.489 -15.816  1.00  0.00     0.041 A 
ATOM     85  F   UNL     1      -1.778   2.198 -13.902  1.00  0.00    -0.206 F 
ATOM     86  C   UNL     1      -1.840   4.514 -16.658  1.00  0.00     0.022 A 
BRANCH  83  87
ATOM     87  S   UNL     1      -3.539   6.595 -17.409  1.00  0.00     0.124 S 
ATOM     88  O   UNL     1      -4.835   6.112 -17.874  1.00  0.00    -0.237 OA
ATOM     89  O   UNL     1      -3.583   7.728 -16.487  1.00  0.00    -0.237 OA
ATOM     90  O   UNL     1      -2.500   6.677 -18.433  1.00  0.00    -0.744 OA
ENDBRANCH  83  87
ENDBRANCH  57  80
ENDBRANCH  31  32
ENDBRANCH  23  26
ENDBRANCH  21  22
ENDBRANCH   1  21
TORSDOF 15
