REMARK SMILES Cc1ccc(/C=C/C(=O)N[C@](C)(C(=O)NCCCNC(=O)c2ccc(-c3c4nc(c(-c5cc(S(=O)(=O)[O-])ccc5F)c5ccc([nH]5)c(-c5cc(S(=O)(=O)[O-])ccc5F)c5nc(c(-c6cc(S(=O)(=O)[O-])ccc6F)c6ccc3[nH]6)C=C5)C=C4)cc2)C(F)(F)F)cc1
REMARK SMILES IDX 17 1 16 2 15 3 13 4 14 5 11 7 12 8 10 9 8 10 9 11 7 13 6 14
REMARK SMILES IDX 5 15 1 16 2 17 3 18 90 19 4 20 89 21 85 22 86 23 87 24 88 25
REMARK SMILES IDX 18 26 19 27 20 28 21 30 22 31 23 32 84 33 24 34 83 35 25 36
REMARK SMILES IDX 26 37 27 38 77 39 28 40 82 41 76 42 78 43 29 44 81 45 75 46
REMARK SMILES IDX 74 47 30 49 62 50 42 51 61 52 43 53 46 54 60 55 79 56 44 57
REMARK SMILES IDX 45 58 59 60 80 61 47 62 31 63 32 64 40 65 33 66 39 67 41 68
REMARK SMILES IDX 38 69 34 70 35 71 36 72 37 73 63 74 64 75 72 76 65 77 71 78
REMARK SMILES IDX 73 79 70 80 66 81 67 82 68 83 69 84 48 85 49 86 57 87 50 88
REMARK SMILES IDX 56 89 58 90 55 91 51 92 52 93 53 94 54 95
REMARK H PARENT 15 6 10 12 19 29 78 48 46 59
REMARK Flexibility Score: inf
ROOT
ATOM      1  C   UNL     1      -9.221   1.981   0.090  1.00  0.00     0.042 C 
ENDROOT
BRANCH   1   2
ATOM      2  C   UNL     1      -8.265   3.083  -0.346  1.00  0.00     0.117 C 
BRANCH   2   3
ATOM      3  N   UNL     1      -7.207   3.346   0.626  1.00  0.00    -0.354 N 
ATOM      4  C   UNL     1      -5.970   2.790   0.835  1.00  0.00     0.254 C 
ATOM      5  O   UNL     1      -5.328   3.198   1.807  1.00  0.00    -0.272 OA
ATOM      6  H   UNL     1      -7.426   4.067   1.259  1.00  0.00     0.163 HD
BRANCH   4   7
ATOM      7  C   UNL     1      -5.470   1.574   0.012  1.00  0.00     0.212 C 
ATOM      8  C   UNL     1      -6.131   0.311   0.578  1.00  0.00     0.056 C 
BRANCH   7   9
ATOM      9  N   UNL     1      -5.704   1.855  -1.444  1.00  0.00    -0.331 N 
ATOM     10  C   UNL     1      -5.988   1.125  -2.546  1.00  0.00     0.245 C 
ATOM     11  O   UNL     1      -5.936   1.647  -3.657  1.00  0.00    -0.270 OA
ATOM     12  H   UNL     1      -5.632   2.815  -1.649  1.00  0.00     0.165 HD
BRANCH  10  13
ATOM     13  C   UNL     1      -6.515  -0.239  -2.424  1.00  0.00     0.072 C 
ATOM     14  C   UNL     1      -5.722  -1.286  -2.165  1.00  0.00     0.014 C 
BRANCH  14  15
ATOM     15  C   UNL     1      -6.271  -2.636  -2.030  1.00  0.00    -0.025 A 
ATOM     16  C   UNL     1      -7.788  -6.650  -1.588  1.00  0.00     0.044 C 
ATOM     17  C   UNL     1      -7.286  -5.245  -1.728  1.00  0.00    -0.051 A 
ATOM     18  C   UNL     1      -7.425  -4.564  -2.944  1.00  0.00     0.004 A 
ATOM     19  C   UNL     1      -6.640  -4.608  -0.664  1.00  0.00     0.004 A 
ATOM     20  C   UNL     1      -6.926  -3.267  -3.093  1.00  0.00     0.008 A 
ATOM     21  C   UNL     1      -6.133  -3.316  -0.816  1.00  0.00     0.008 A 
ENDBRANCH  14  15
ENDBRANCH  10  13
ENDBRANCH   7   9
BRANCH   7  22
ATOM     22  C   UNL     1      -3.947   1.447   0.270  1.00  0.00     0.420 C 
ATOM     23  F   UNL     1      -3.629   1.134   1.544  1.00  0.00    -0.168 F 
ATOM     24  F   UNL     1      -3.437   0.435  -0.495  1.00  0.00    -0.168 F 
ATOM     25  F   UNL     1      -3.263   2.558  -0.088  1.00  0.00    -0.168 F 
ENDBRANCH   7  22
ENDBRANCH   4   7
ENDBRANCH   2   3
ENDBRANCH   1   2
BRANCH   1  26
ATOM     26  C   UNL     1     -10.304   2.450   1.053  1.00  0.00     0.118 C 
BRANCH  26  27
ATOM     27  N   UNL     1     -11.599   2.644   0.406  1.00  0.00    -0.352 N 
ATOM     28  C   UNL     1     -12.851   2.773   0.998  1.00  0.00     0.251 C 
ATOM     29  H   UNL     1     -11.584   2.689  -0.577  1.00  0.00     0.163 HD
ATOM     30  O   UNL     1     -13.860   2.939   0.358  1.00  0.00    -0.269 OA
BRANCH  28  31
ATOM     31  C   UNL     1     -12.888   2.812   2.479  1.00  0.00     0.039 A 
ATOM     32  C   UNL     1     -13.229   4.030   3.072  1.00  0.00     0.014 A 
ATOM     33  C   UNL     1     -12.318   1.782   3.221  1.00  0.00     0.014 A 
ATOM     34  C   UNL     1     -12.782   4.301   4.361  1.00  0.00     0.010 A 
ATOM     35  C   UNL     1     -11.797   2.084   4.467  1.00  0.00     0.010 A 
ATOM     36  C   UNL     1     -11.969   3.367   5.006  1.00  0.00    -0.014 A 
BRANCH  36  37
ATOM     37  C   UNL     1     -11.123   3.728   6.142  1.00  0.00     0.031 A 
ATOM     38  C   UNL     1     -11.402   3.226   7.502  1.00  0.00     0.074 A 
ATOM     39  C   UNL     1     -10.053   4.535   5.960  1.00  0.00     0.049 A 
ATOM     40  N   UNL     1     -11.087   3.853   8.587  1.00  0.00    -0.248 NA
ATOM     41  C   UNL     1     -12.113   1.980   7.746  1.00  0.00     0.031 C 
ATOM     42  C   UNL     1      -8.983   4.814   6.913  1.00  0.00     0.029 A 
ATOM     43  N   UNL     1      -9.871   5.474   4.948  1.00  0.00    -0.354 N 
ATOM     44  C   UNL     1     -11.253   2.979   9.637  1.00  0.00     0.074 A 
ATOM     45  C   UNL     1     -11.980   1.865   9.070  1.00  0.00     0.031 C 
ATOM     46  C   UNL     1      -8.423   5.992   6.602  1.00  0.00     0.029 A 
ATOM     47  C   UNL     1      -9.190   6.566   5.513  1.00  0.00     0.049 A 
ATOM     48  H   UNL     1     -10.164   5.389   4.011  1.00  0.00     0.167 HD
ATOM     49  C   UNL     1     -10.624   3.222  10.824  1.00  0.00     0.034 A 
ATOM     50  C   UNL     1      -9.709   7.827   5.483  1.00  0.00     0.034 A 
ATOM     51  C   UNL     1      -9.897   4.495  10.810  1.00  0.00     0.049 A 
ATOM     52  C   UNL     1      -9.896   8.438   6.850  1.00  0.00     0.074 A 
ATOM     53  C   UNL     1      -8.552   4.809  10.692  1.00  0.00     0.029 A 
ATOM     54  N   UNL     1     -10.589   5.696  10.681  1.00  0.00    -0.354 N 
ATOM     55  N   UNL     1      -9.878   7.756   7.961  1.00  0.00    -0.248 NA
ATOM     56  C   UNL     1     -10.143   9.857   7.074  1.00  0.00     0.031 C 
ATOM     57  C   UNL     1      -8.440   6.204  10.463  1.00  0.00     0.029 A 
ATOM     58  C   UNL     1      -9.715   6.743  10.459  1.00  0.00     0.049 A 
ATOM     59  H   UNL     1     -11.567   5.786  10.740  1.00  0.00     0.167 HD
ATOM     60  C   UNL     1     -10.123   8.591   9.023  1.00  0.00     0.074 A 
ATOM     61  C   UNL     1     -10.258   9.902   8.413  1.00  0.00     0.031 C 
ATOM     62  C   UNL     1     -10.200   8.111  10.303  1.00  0.00     0.034 A 
BRANCH  49  63
ATOM     63  C   UNL     1     -10.387   2.158  11.883  1.00  0.00     0.023 A 
ATOM     64  C   UNL     1      -9.248   2.248  12.713  1.00  0.00     0.031 A 
ATOM     65  C   UNL     1     -11.187   1.020  12.096  1.00  0.00     0.131 A 
ATOM     66  C   UNL     1      -8.878   1.203  13.581  1.00  0.00     0.055 A 
ATOM     67  C   UNL     1     -10.790  -0.051  12.911  1.00  0.00     0.041 A 
ATOM     68  F   UNL     1     -12.417   0.916  11.577  1.00  0.00    -0.206 F 
ATOM     69  C   UNL     1      -9.619   0.029  13.646  1.00  0.00     0.022 A 
BRANCH  66  70
ATOM     70  S   UNL     1      -7.412   1.402  14.631  1.00  0.00     0.124 S 
ATOM     71  O   UNL     1      -6.354   1.619  13.650  1.00  0.00    -0.237 OA
ATOM     72  O   UNL     1      -7.776   2.548  15.456  1.00  0.00    -0.237 OA
ATOM     73  O   UNL     1      -7.334   0.129  15.348  1.00  0.00    -0.744 OA
ENDBRANCH  66  70
ENDBRANCH  49  63
BRANCH  50  74
ATOM     74  C   UNL     1     -10.551   8.088   4.283  1.00  0.00     0.023 A 
ATOM     75  C   UNL     1      -9.941   7.875   3.029  1.00  0.00     0.031 A 
ATOM     76  C   UNL     1     -11.950   8.123   4.336  1.00  0.00     0.131 A 
ATOM     77  C   UNL     1     -10.713   7.503   1.923  1.00  0.00     0.055 A 
ATOM     78  C   UNL     1     -12.723   7.847   3.200  1.00  0.00     0.041 A 
ATOM     79  F   UNL     1     -12.587   8.292   5.503  1.00  0.00    -0.206 F 
ATOM     80  C   UNL     1     -12.106   7.487   1.998  1.00  0.00     0.022 A 
BRANCH  77  81
ATOM     81  S   UNL     1      -9.856   6.734   0.517  1.00  0.00     0.124 S 
ATOM     82  O   UNL     1      -9.436   7.892  -0.262  1.00  0.00    -0.237 OA
ATOM     83  O   UNL     1      -8.783   5.976   1.166  1.00  0.00    -0.237 OA
ATOM     84  O   UNL     1     -10.877   5.893  -0.102  1.00  0.00    -0.744 OA
ENDBRANCH  77  81
ENDBRANCH  50  74
BRANCH  62  85
ATOM     85  C   UNL     1     -10.635   8.881  11.539  1.00  0.00     0.023 A 
ATOM     86  C   UNL     1     -11.243  10.146  11.505  1.00  0.00     0.031 A 
ATOM     87  C   UNL     1     -10.499   8.315  12.834  1.00  0.00     0.131 A 
ATOM     88  C   UNL     1     -11.609  10.819  12.687  1.00  0.00     0.055 A 
ATOM     89  C   UNL     1     -10.924   8.956  14.003  1.00  0.00     0.041 A 
ATOM     90  F   UNL     1      -9.958   7.103  13.025  1.00  0.00    -0.206 F 
ATOM     91  C   UNL     1     -11.471  10.225  13.937  1.00  0.00     0.022 A 
BRANCH  88  92
ATOM     92  S   UNL     1     -12.231  12.517  12.554  1.00  0.00     0.124 S 
ATOM     93  O   UNL     1     -11.085  13.213  11.975  1.00  0.00    -0.237 OA
ATOM     94  O   UNL     1     -13.385  12.360  11.675  1.00  0.00    -0.237 OA
ATOM     95  O   UNL     1     -12.545  12.881  13.934  1.00  0.00    -0.744 OA
ENDBRANCH  88  92
ENDBRANCH  62  85
ENDBRANCH  36  37
ENDBRANCH  28  31
ENDBRANCH  26  27
ENDBRANCH   1  26
TORSDOF 17
