REMARK SMILES O=C(NCCCNC(=O)[C@@H](Cc1ccccc1Br)CC(F)(F)F)c1ccc(-c2c3nc(c(-c4cc(S(=O)(=O)[O-])ccc4F)c4ccc([nH]4)c(-c4cc(S(=O)(=O)[O-])ccc4F)c4nc(c(-c5cc(S(=O)(=O)[O-])ccc5F)c5ccc2[nH]5)C=C4)C=C3)cc1
REMARK SMILES IDX 4 1 3 2 1 3 2 4 24 6 25 7 86 8 26 9 85 10 27 11 28 12 29 13
REMARK SMILES IDX 79 14 30 15 84 16 78 17 80 18 31 19 83 20 77 21 76 22 32 24
REMARK SMILES IDX 64 25 44 26 63 27 45 28 48 29 62 30 81 31 46 32 47 33 61 35
REMARK SMILES IDX 82 36 49 37 33 38 34 39 42 40 35 41 41 42 43 43 40 44 36 45
REMARK SMILES IDX 37 46 38 47 39 48 65 49 66 50 74 51 67 52 73 53 75 54 72 55
REMARK SMILES IDX 68 56 69 57 70 58 71 59 50 60 51 61 59 62 52 63 58 64 60 65
REMARK SMILES IDX 57 66 53 67 54 68 55 69 56 70 5 71 6 72 7 73 8 74 9 76 10 77
REMARK SMILES IDX 11 78 12 79 13 80 17 81 14 82 16 83 18 84 15 85 19 86 20 87
REMARK SMILES IDX 21 88 22 89 23 90
REMARK H PARENT 3 5 80 23 48 34 7 75
REMARK Flexibility Score: inf
ROOT
ATOM      1  C   UNL     1       3.728  -0.036   1.852  1.00  0.00     0.118 C 
ENDROOT
BRANCH   1   2
ATOM      2  N   UNL     1       2.427  -0.190   1.230  1.00  0.00    -0.352 N 
ATOM      3  O   UNL     1       0.860  -0.238  -0.345  1.00  0.00    -0.269 OA
ATOM      4  C   UNL     1       2.049  -0.411  -0.072  1.00  0.00     0.251 C 
ATOM      5  H   UNL     1       1.673  -0.124   1.859  1.00  0.00     0.163 HD
BRANCH   4   6
ATOM      6  C   UNL     1       2.985  -0.838  -1.153  1.00  0.00     0.039 A 
ATOM      7  C   UNL     1       4.098  -1.652  -0.938  1.00  0.00     0.014 A 
ATOM      8  C   UNL     1       2.628  -0.539  -2.479  1.00  0.00     0.014 A 
ATOM      9  C   UNL     1       4.866  -2.116  -2.012  1.00  0.00     0.010 A 
ATOM     10  C   UNL     1       3.342  -1.078  -3.559  1.00  0.00     0.010 A 
ATOM     11  C   UNL     1       4.462  -1.889  -3.336  1.00  0.00    -0.014 A 
BRANCH  11  12
ATOM     12  C   UNL     1       5.109  -2.638  -4.451  1.00  0.00     0.031 A 
ATOM     13  C   UNL     1       5.842  -1.931  -5.557  1.00  0.00     0.074 A 
ATOM     14  C   UNL     1       4.989  -3.983  -4.481  1.00  0.00     0.049 A 
ATOM     15  N   UNL     1       6.418  -2.439  -6.618  1.00  0.00    -0.248 NA
ATOM     16  C   UNL     1       5.931  -0.467  -5.470  1.00  0.00     0.031 C 
ATOM     17  C   UNL     1       4.267  -4.785  -3.487  1.00  0.00     0.029 A 
ATOM     18  N   UNL     1       5.457  -4.917  -5.373  1.00  0.00    -0.354 N 
ATOM     19  C   UNL     1       6.918  -1.360  -7.338  1.00  0.00     0.074 A 
ATOM     20  C   UNL     1       6.562  -0.166  -6.598  1.00  0.00     0.031 C 
ATOM     21  C   UNL     1       4.363  -6.083  -3.809  1.00  0.00     0.029 A 
ATOM     22  C   UNL     1       5.090  -6.209  -5.066  1.00  0.00     0.049 A 
ATOM     23  H   UNL     1       6.005  -4.685  -6.157  1.00  0.00     0.167 HD
ATOM     24  C   UNL     1       7.612  -1.369  -8.504  1.00  0.00     0.034 A 
ATOM     25  C   UNL     1       5.279  -7.364  -5.733  1.00  0.00     0.034 A 
ATOM     26  C   UNL     1       7.979  -2.567  -9.221  1.00  0.00     0.049 A 
ATOM     27  C   UNL     1       6.020  -7.337  -7.041  1.00  0.00     0.074 A 
ATOM     28  C   UNL     1       8.775  -2.686 -10.348  1.00  0.00     0.029 A 
ATOM     29  N   UNL     1       7.557  -3.850  -8.900  1.00  0.00    -0.354 N 
ATOM     30  N   UNL     1       6.550  -6.310  -7.665  1.00  0.00    -0.248 NA
ATOM     31  C   UNL     1       6.184  -8.618  -7.739  1.00  0.00     0.031 C 
ATOM     32  C   UNL     1       8.777  -4.027 -10.748  1.00  0.00     0.029 A 
ATOM     33  C   UNL     1       8.033  -4.757  -9.836  1.00  0.00     0.049 A 
ATOM     34  H   UNL     1       7.001  -4.083  -8.121  1.00  0.00     0.167 HD
ATOM     35  C   UNL     1       7.115  -6.826  -8.826  1.00  0.00     0.074 A 
ATOM     36  C   UNL     1       6.884  -8.256  -8.804  1.00  0.00     0.031 C 
ATOM     37  C   UNL     1       7.769  -6.175  -9.820  1.00  0.00     0.034 A 
BRANCH  24  38
ATOM     38  C   UNL     1       7.991  -0.040  -9.107  1.00  0.00     0.023 A 
ATOM     39  C   UNL     1       8.940   0.805  -8.508  1.00  0.00     0.031 A 
ATOM     40  C   UNL     1       7.407   0.374 -10.318  1.00  0.00     0.131 A 
ATOM     41  C   UNL     1       9.243   2.043  -9.098  1.00  0.00     0.055 A 
ATOM     42  C   UNL     1       7.757   1.579 -10.931  1.00  0.00     0.041 A 
ATOM     43  F   UNL     1       6.484  -0.389 -10.926  1.00  0.00    -0.206 F 
ATOM     44  C   UNL     1       8.673   2.426 -10.315  1.00  0.00     0.022 A 
BRANCH  41  45
ATOM     45  S   UNL     1      10.321   3.192  -8.200  1.00  0.00     0.124 S 
ATOM     46  O   UNL     1       9.572   3.396  -6.962  1.00  0.00    -0.237 OA
ATOM     47  O   UNL     1      11.560   2.432  -8.078  1.00  0.00    -0.237 OA
ATOM     48  O   UNL     1      10.388   4.358  -9.079  1.00  0.00    -0.744 OA
ENDBRANCH  41  45
ENDBRANCH  24  38
BRANCH  25  49
ATOM     49  C   UNL     1       4.700  -8.637  -5.213  1.00  0.00     0.023 A 
ATOM     50  C   UNL     1       5.522  -9.702  -4.816  1.00  0.00     0.031 A 
ATOM     51  C   UNL     1       3.306  -8.817  -5.147  1.00  0.00     0.131 A 
ATOM     52  C   UNL     1       4.944 -10.913  -4.404  1.00  0.00     0.055 A 
ATOM     53  C   UNL     1       2.736 -10.005  -4.688  1.00  0.00     0.041 A 
ATOM     54  F   UNL     1       2.475  -7.829  -5.516  1.00  0.00    -0.206 F 
ATOM     55  C   UNL     1       3.558 -11.067  -4.325  1.00  0.00     0.022 A 
BRANCH  52  56
ATOM     56  S   UNL     1       6.032 -12.322  -4.055  1.00  0.00     0.124 S 
ATOM     57  O   UNL     1       6.789 -12.430  -5.296  1.00  0.00    -0.237 OA
ATOM     58  O   UNL     1       6.775 -11.847  -2.890  1.00  0.00    -0.237 OA
ATOM     59  O   UNL     1       5.101 -13.415  -3.794  1.00  0.00    -0.744 OA
ENDBRANCH  52  56
ENDBRANCH  25  49
BRANCH  37  60
ATOM     60  C   UNL     1       8.286  -7.018 -10.956  1.00  0.00     0.023 A 
ATOM     61  C   UNL     1       7.411  -7.615 -11.880  1.00  0.00     0.031 A 
ATOM     62  C   UNL     1       9.665  -7.245 -11.102  1.00  0.00     0.131 A 
ATOM     63  C   UNL     1       7.922  -8.448 -12.886  1.00  0.00     0.055 A 
ATOM     64  C   UNL     1      10.171  -8.035 -12.135  1.00  0.00     0.041 A 
ATOM     65  F   UNL     1      10.541  -6.702 -10.243  1.00  0.00    -0.206 F 
ATOM     66  C   UNL     1       9.297  -8.650 -13.028  1.00  0.00     0.022 A 
BRANCH  63  67
ATOM     67  S   UNL     1       6.760  -9.318 -13.973  1.00  0.00     0.124 S 
ATOM     68  O   UNL     1       6.052 -10.179 -13.031  1.00  0.00    -0.237 OA
ATOM     69  O   UNL     1       5.982  -8.223 -14.544  1.00  0.00    -0.237 OA
ATOM     70  O   UNL     1       7.630 -10.016 -14.918  1.00  0.00    -0.744 OA
ENDBRANCH  63  67
ENDBRANCH  37  60
ENDBRANCH  11  12
ENDBRANCH   4   6
ENDBRANCH   1   2
BRANCH   1  71
ATOM     71  C   UNL     1       4.302   1.356   1.626  1.00  0.00     0.042 C 
BRANCH  71  72
ATOM     72  C   UNL     1       4.058   2.305   2.797  1.00  0.00     0.117 C 
BRANCH  72  73
ATOM     73  N   UNL     1       5.015   2.056   3.862  1.00  0.00    -0.356 N 
ATOM     74  C   UNL     1       5.969   2.825   4.435  1.00  0.00     0.223 C 
ATOM     75  H   UNL     1       4.958   1.149   4.241  1.00  0.00     0.163 HD
ATOM     76  O   UNL     1       6.734   2.263   5.226  1.00  0.00    -0.275 OA
BRANCH  74  77
ATOM     77  C   UNL     1       6.119   4.323   4.190  1.00  0.00     0.092 C 
BRANCH  77  78
ATOM     78  C   UNL     1       6.975   4.700   2.959  1.00  0.00     0.050 C 
BRANCH  78  79
ATOM     79  C   UNL     1       6.469   4.455   1.555  1.00  0.00    -0.033 A 
ATOM     80  C   UNL     1       6.942   3.313   0.878  1.00  0.00     0.005 A 
ATOM     81  C   UNL     1       5.619   5.322   0.845  1.00  0.00     0.021 A 
ATOM     82  C   UNL     1       6.536   3.015  -0.427  1.00  0.00     0.000 A 
ATOM     83  C   UNL     1       5.187   5.003  -0.451  1.00  0.00     0.016 A 
ATOM     84  Br  UNL     1       5.060   7.009   1.514  1.00  0.00    -0.051 Br
ATOM     85  C   UNL     1       5.639   3.848  -1.083  1.00  0.00     0.001 A 
ENDBRANCH  78  79
ENDBRANCH  77  78
BRANCH  77  86
ATOM     86  C   UNL     1       4.855   5.154   4.423  1.00  0.00     0.129 C 
BRANCH  86  87
ATOM     87  C   UNL     1       4.199   4.899   5.766  1.00  0.00     0.389 C 
ATOM     88  F   UNL     1       5.068   5.072   6.782  1.00  0.00    -0.171 F 
ATOM     89  F   UNL     1       3.183   5.774   5.952  1.00  0.00    -0.171 F 
ATOM     90  F   UNL     1       3.678   3.661   5.857  1.00  0.00    -0.171 F 
ENDBRANCH  86  87
ENDBRANCH  77  86
ENDBRANCH  74  77
ENDBRANCH  72  73
ENDBRANCH  71  72
ENDBRANCH   1  71
TORSDOF 17
