REMARK SMILES Cc1cc(C(=O)NC2CC2)sc1/C=C/C(=O)NCCCNC(=O)c1ccc(-c2c3nc(c(-c4cc(S(=O)(=O)[O-])ccc4F)c4ccc([nH]4)c(-c4cc(S(=O)(=O)[O-])ccc4F)c4nc(c(-c5cc(S(=O)(=O)[O-])ccc5F)c5ccc2[nH]5)C=C4)C=C3)cc1
REMARK SMILES IDX 19 1 18 2 17 3 15 4 16 5 14 7 13 8 12 9 1 10 2 11 3 12 4 13
REMARK SMILES IDX 11 14 5 15 6 16 7 17 8 19 9 20 10 21 20 22 21 23 22 24 23 26
REMARK SMILES IDX 24 27 25 28 86 29 26 30 85 31 27 32 28 33 29 34 79 35 30 36
REMARK SMILES IDX 84 37 78 38 80 39 31 40 83 41 77 42 76 43 32 45 64 46 44 47
REMARK SMILES IDX 63 48 45 49 48 50 62 51 81 52 46 53 47 54 61 56 82 57 49 58
REMARK SMILES IDX 33 59 34 60 42 61 35 62 41 63 43 64 40 65 36 66 37 67 38 68
REMARK SMILES IDX 39 69 65 70 66 71 74 72 67 73 73 74 75 75 72 76 68 77 69 78
REMARK SMILES IDX 70 79 71 80 50 81 51 82 59 83 52 84 58 85 60 86 57 87 53 88
REMARK SMILES IDX 54 89 55 90 56 91
REMARK H PARENT 17 6 7 18 21 25 80 44 48 55
REMARK Flexibility Score: inf
ROOT
ATOM      1  C   UNL     1       3.209  -4.727   0.646  1.00  0.00     0.042 C 
ENDROOT
BRANCH   1   2
ATOM      2  C   UNL     1       2.286  -4.813  -0.566  1.00  0.00     0.118 C 
BRANCH   2   3
ATOM      3  N   UNL     1       0.996  -5.368  -0.197  1.00  0.00    -0.352 N 
ATOM      4  C   UNL     1      -0.213  -4.764  -0.063  1.00  0.00     0.244 C 
ATOM      5  O   UNL     1      -1.211  -5.437   0.186  1.00  0.00    -0.270 OA
ATOM      6  H   UNL     1       0.998  -6.335  -0.015  1.00  0.00     0.163 HD
BRANCH   4   7
ATOM      7  C   UNL     1      -0.362  -3.318  -0.322  1.00  0.00     0.072 C 
ATOM      8  C   UNL     1       0.442  -2.369   0.180  1.00  0.00     0.025 C 
BRANCH   8   9
ATOM      9  C   UNL     1       0.264  -0.972  -0.051  1.00  0.00     0.031 A 
ATOM     10  C   UNL     1       2.659  -0.075   0.293  1.00  0.00     0.046 C 
ATOM     11  C   UNL     1       1.183   0.063   0.085  1.00  0.00    -0.032 A 
ATOM     12  C   UNL     1       0.516   1.337   0.050  1.00  0.00     0.029 A 
ATOM     13  C   UNL     1      -0.851   1.250  -0.170  1.00  0.00     0.093 A 
ATOM     14  S   UNL     1      -1.225  -0.333  -0.611  1.00  0.00    -0.130 S 
BRANCH  13  15
ATOM     15  C   UNL     1      -1.769   2.372  -0.191  1.00  0.00     0.261 C 
ATOM     16  O   UNL     1      -1.329   3.530  -0.238  1.00  0.00    -0.268 OA
ATOM     17  N   UNL     1      -3.147   2.329  -0.141  1.00  0.00    -0.349 N 
ATOM     18  H   UNL     1      -3.503   3.240  -0.253  1.00  0.00     0.164 HD
BRANCH  17  19
ATOM     19  C   UNL     1      -4.233   1.419   0.017  1.00  0.00     0.082 C 
ATOM     20  C   UNL     1      -4.557   0.420  -1.060  1.00  0.00     0.027 C 
ATOM     21  C   UNL     1      -4.319  -0.031   0.356  1.00  0.00     0.027 C 
ENDBRANCH  17  19
ENDBRANCH  13  15
ENDBRANCH   8   9
ENDBRANCH   4   7
ENDBRANCH   2   3
ENDBRANCH   1   2
BRANCH   1  22
ATOM     22  C   UNL     1       3.776  -6.083   1.052  1.00  0.00     0.118 C 
BRANCH  22  23
ATOM     23  N   UNL     1       4.691  -6.600   0.046  1.00  0.00    -0.352 N 
ATOM     24  C   UNL     1       6.024  -6.906   0.144  1.00  0.00     0.251 C 
ATOM     25  H   UNL     1       4.292  -6.753  -0.841  1.00  0.00     0.163 HD
ATOM     26  O   UNL     1       6.679  -7.054  -0.882  1.00  0.00    -0.269 OA
BRANCH  24  27
ATOM     27  C   UNL     1       6.665  -7.049   1.470  1.00  0.00     0.039 A 
ATOM     28  C   UNL     1       7.971  -6.585   1.640  1.00  0.00     0.014 A 
ATOM     29  C   UNL     1       6.003  -7.682   2.527  1.00  0.00     0.014 A 
ATOM     30  C   UNL     1       8.598  -6.716   2.881  1.00  0.00     0.010 A 
ATOM     31  C   UNL     1       6.600  -7.742   3.783  1.00  0.00     0.010 A 
ATOM     32  C   UNL     1       7.907  -7.272   3.970  1.00  0.00    -0.014 A 
BRANCH  32  33
ATOM     33  C   UNL     1       8.546  -7.387   5.306  1.00  0.00     0.031 A 
ATOM     34  C   UNL     1       8.798  -8.744   5.905  1.00  0.00     0.074 A 
ATOM     35  C   UNL     1       8.843  -6.271   5.998  1.00  0.00     0.049 A 
ATOM     36  N   UNL     1       9.271  -9.055   7.085  1.00  0.00    -0.248 NA
ATOM     37  C   UNL     1       8.441  -9.906   5.077  1.00  0.00     0.031 C 
ATOM     38  C   UNL     1       8.607  -4.902   5.534  1.00  0.00     0.029 A 
ATOM     39  N   UNL     1       9.399  -6.107   7.241  1.00  0.00    -0.354 N 
ATOM     40  C   UNL     1       9.256 -10.444   7.146  1.00  0.00     0.074 A 
ATOM     41  C   UNL     1       8.667 -10.911   5.909  1.00  0.00     0.031 C 
ATOM     42  C   UNL     1       9.036  -4.040   6.469  1.00  0.00     0.029 A 
ATOM     43  C   UNL     1       9.534  -4.790   7.617  1.00  0.00     0.049 A 
ATOM     44  H   UNL     1       9.676  -6.860   7.811  1.00  0.00     0.167 HD
ATOM     45  C   UNL     1       9.714 -11.255   8.133  1.00  0.00     0.034 A 
ATOM     46  C   UNL     1       9.995  -4.250   8.762  1.00  0.00     0.034 A 
ATOM     47  C   UNL     1      10.308 -10.768   9.355  1.00  0.00     0.049 A 
ATOM     48  C   UNL     1      10.482  -5.169   9.852  1.00  0.00     0.074 A 
ATOM     49  C   UNL     1      10.847 -11.495  10.402  1.00  0.00     0.029 A 
ATOM     50  N   UNL     1      10.434  -9.427   9.699  1.00  0.00    -0.354 N 
ATOM     51  N   UNL     1      10.503  -6.483   9.877  1.00  0.00    -0.248 NA
ATOM     52  C   UNL     1      11.021  -4.534  11.061  1.00  0.00     0.031 C 
ATOM     53  C   UNL     1      11.239 -10.599  11.403  1.00  0.00     0.029 A 
ATOM     54  C   UNL     1      11.017  -9.308  10.952  1.00  0.00     0.049 A 
ATOM     55  H   UNL     1      10.152  -8.672   9.135  1.00  0.00     0.167 HD
ATOM     56  C   UNL     1      11.084  -6.829  11.094  1.00  0.00     0.074 A 
ATOM     57  C   UNL     1      11.414  -5.586  11.763  1.00  0.00     0.031 C 
ATOM     58  C   UNL     1      11.327  -8.061  11.611  1.00  0.00     0.034 A 
BRANCH  45  59
ATOM     59  C   UNL     1       9.564 -12.745   7.933  1.00  0.00     0.023 A 
ATOM     60  C   UNL     1      10.200 -13.416   6.873  1.00  0.00     0.031 A 
ATOM     61  C   UNL     1       8.749 -13.503   8.793  1.00  0.00     0.131 A 
ATOM     62  C   UNL     1       9.947 -14.778   6.651  1.00  0.00     0.055 A 
ATOM     63  C   UNL     1       8.570 -14.878   8.618  1.00  0.00     0.041 A 
ATOM     64  F   UNL     1       8.099 -12.918   9.811  1.00  0.00    -0.206 F 
ATOM     65  C   UNL     1       9.157 -15.520   7.532  1.00  0.00     0.022 A 
BRANCH  62  66
ATOM     66  S   UNL     1      10.541 -15.529   5.111  1.00  0.00     0.124 S 
ATOM     67  O   UNL     1       9.879 -14.702   4.105  1.00  0.00    -0.237 OA
ATOM     68  O   UNL     1      11.987 -15.369   5.219  1.00  0.00    -0.237 OA
ATOM     69  O   UNL     1      10.057 -16.906   5.191  1.00  0.00    -0.744 OA
ENDBRANCH  62  66
ENDBRANCH  45  59
BRANCH  46  70
ATOM     70  C   UNL     1      10.012  -2.771   8.943  1.00  0.00     0.023 A 
ATOM     71  C   UNL     1      11.222  -2.072   9.074  1.00  0.00     0.031 A 
ATOM     72  C   UNL     1       8.815  -2.036   9.017  1.00  0.00     0.131 A 
ATOM     73  C   UNL     1      11.209  -0.690   9.318  1.00  0.00     0.055 A 
ATOM     74  C   UNL     1       8.808  -0.654   9.207  1.00  0.00     0.041 A 
ATOM     75  F   UNL     1       7.630  -2.655   8.889  1.00  0.00    -0.206 F 
ATOM     76  C   UNL     1      10.011   0.026   9.372  1.00  0.00     0.022 A 
BRANCH  73  77
ATOM     77  S   UNL     1      12.784   0.150   9.643  1.00  0.00     0.124 S 
ATOM     78  O   UNL     1      13.280  -0.587  10.799  1.00  0.00    -0.237 OA
ATOM     79  O   UNL     1      13.502  -0.061   8.390  1.00  0.00    -0.237 OA
ATOM     80  O   UNL     1      12.384   1.531   9.905  1.00  0.00    -0.744 OA
ENDBRANCH  73  77
ENDBRANCH  46  70
BRANCH  58  81
ATOM     81  C   UNL     1      12.022  -8.114  12.950  1.00  0.00     0.023 A 
ATOM     82  C   UNL     1      11.404  -7.652  14.124  1.00  0.00     0.031 A 
ATOM     83  C   UNL     1      13.330  -8.622  13.046  1.00  0.00     0.131 A 
ATOM     84  C   UNL     1      12.114  -7.651  15.334  1.00  0.00     0.055 A 
ATOM     85  C   UNL     1      14.009  -8.678  14.263  1.00  0.00     0.041 A 
ATOM     86  F   UNL     1      13.970  -9.075  11.955  1.00  0.00    -0.206 F 
ATOM     87  C   UNL     1      13.407  -8.177  15.414  1.00  0.00     0.022 A 
BRANCH  84  88
ATOM     88  S   UNL     1      11.363  -6.863  16.784  1.00  0.00     0.124 S 
ATOM     89  O   UNL     1      11.137  -5.503  16.307  1.00  0.00    -0.237 OA
ATOM     90  O   UNL     1      10.167  -7.672  16.994  1.00  0.00    -0.237 OA
ATOM     91  O   UNL     1      12.389  -6.996  17.817  1.00  0.00    -0.744 OA
ENDBRANCH  84  88
ENDBRANCH  58  81
ENDBRANCH  32  33
ENDBRANCH  24  27
ENDBRANCH  22  23
ENDBRANCH   1  22
TORSDOF 16
