REMARK SMILES CC1(C)CCN(S(=O)(=O)c2ccc(O)c(C(=O)NCCCNC(=O)c3ccc(-c4c5nc(c(-c6cc(S(=O)(=O)[O-])ccc6F)c6ccc([nH]6)c(-c6cc(S(=O)(=O)[O-])ccc6F)c6nc(c(-c7cc(S(=O)(=O)[O-])ccc7F)c7ccc4[nH]7)C=C6)C=C5)cc3)c2)C1
REMARK SMILES IDX 20 1 19 2 18 3 16 4 17 5 15 7 10 8 11 9 88 10 12 11 13 12
REMARK SMILES IDX 7 13 8 14 9 15 6 16 1 17 2 18 3 19 4 20 89 21 5 22 14 23
REMARK SMILES IDX 21 25 22 26 23 27 24 29 25 30 26 31 87 32 27 33 86 34 28 35
REMARK SMILES IDX 29 36 30 37 80 38 31 39 85 40 79 41 81 42 32 43 84 44 78 45
REMARK SMILES IDX 77 46 33 48 65 49 45 50 64 51 46 52 49 53 63 54 82 55 47 56
REMARK SMILES IDX 48 57 62 59 83 60 50 61 34 62 35 63 43 64 36 65 42 66 44 67
REMARK SMILES IDX 41 68 37 69 38 70 39 71 40 72 66 73 67 74 75 75 68 76 74 77
REMARK SMILES IDX 76 78 73 79 69 80 70 81 71 82 72 83 51 84 52 85 60 86 53 87
REMARK SMILES IDX 59 88 61 89 58 90 54 91 55 92 56 93 57 94
REMARK H PARENT 18 6 14 24 22 28 81 47 49 58
REMARK Flexibility Score: inf
ROOT
ATOM      1  C   UNL     1       3.799   9.236   1.007  1.00  0.00     0.042 C 
ENDROOT
BRANCH   1   2
ATOM      2  C   UNL     1       3.822   8.302  -0.206  1.00  0.00     0.118 C 
BRANCH   2   3
ATOM      3  N   UNL     1       4.782   7.231  -0.033  1.00  0.00    -0.352 N 
ATOM      4  C   UNL     1       4.672   5.932   0.384  1.00  0.00     0.255 C 
ATOM      5  O   UNL     1       5.722   5.279   0.364  1.00  0.00    -0.269 OA
ATOM      6  H   UNL     1       5.703   7.491  -0.264  1.00  0.00     0.163 HD
BRANCH   4   7
ATOM      7  C   UNL     1       3.422   5.227   0.823  1.00  0.00     0.082 A 
ATOM      8  C   UNL     1       2.459   3.005   1.225  1.00  0.00     0.083 A 
ATOM      9  C   UNL     1       1.369   3.583   1.871  1.00  0.00     0.025 A 
ATOM     10  C   UNL     1       3.475   3.817   0.705  1.00  0.00     0.039 A 
ATOM     11  C   UNL     1       1.268   4.964   1.947  1.00  0.00     0.048 A 
ATOM     12  C   UNL     1       2.293   5.779   1.449  1.00  0.00     0.128 A 
BRANCH   8  13
ATOM     13  S   UNL     1       2.644   1.236   1.256  1.00  0.00     0.243 S 
ATOM     14  O   UNL     1       2.213   0.781   2.567  1.00  0.00    -0.207 OA
ATOM     15  O   UNL     1       3.952   0.899   0.749  1.00  0.00    -0.207 OA
BRANCH  13  16
ATOM     16  N   UNL     1       1.501   0.660   0.123  1.00  0.00    -0.197 NA
ATOM     17  C   UNL     1      -1.004  -0.148  -1.630  1.00  0.00     0.012 C 
ATOM     18  C   UNL     1      -0.745  -0.198  -0.118  1.00  0.00    -0.020 C 
ATOM     19  C   UNL     1      -2.082  -0.282   0.624  1.00  0.00     0.012 C 
ATOM     20  C   UNL     1       0.188  -1.348   0.259  1.00  0.00     0.024 C 
ATOM     21  C   UNL     1       0.072   1.011   0.356  1.00  0.00     0.109 C 
ATOM     22  C   UNL     1       1.576  -0.819  -0.086  1.00  0.00     0.103 C 
ENDBRANCH  13  16
ENDBRANCH   8  13
BRANCH  12  23
ATOM     23  O   UNL     1       2.148   7.112   1.674  1.00  0.00    -0.507 OA
ATOM     24  H   UNL     1       1.377   7.435   2.096  1.00  0.00     0.293 HD
ENDBRANCH  12  23
ENDBRANCH   4   7
ENDBRANCH   2   3
ENDBRANCH   1   2
BRANCH   1  25
ATOM     25  C   UNL     1       4.920  10.265   1.032  1.00  0.00     0.118 C 
BRANCH  25  26
ATOM     26  N   UNL     1       4.721  11.301   0.033  1.00  0.00    -0.352 N 
ATOM     27  C   UNL     1       4.575  12.657   0.174  1.00  0.00     0.251 C 
ATOM     28  H   UNL     1       4.683  10.976  -0.895  1.00  0.00     0.163 HD
ATOM     29  O   UNL     1       4.149  13.297  -0.786  1.00  0.00    -0.269 OA
BRANCH  27  30
ATOM     30  C   UNL     1       4.914  13.358   1.439  1.00  0.00     0.039 A 
ATOM     31  C   UNL     1       4.200  14.518   1.762  1.00  0.00     0.014 A 
ATOM     32  C   UNL     1       5.974  12.957   2.258  1.00  0.00     0.014 A 
ATOM     33  C   UNL     1       4.541  15.263   2.895  1.00  0.00     0.010 A 
ATOM     34  C   UNL     1       6.262  13.656   3.432  1.00  0.00     0.010 A 
ATOM     35  C   UNL     1       5.572  14.835   3.745  1.00  0.00    -0.014 A 
BRANCH  35  36
ATOM     36  C   UNL     1       5.976  15.655   4.918  1.00  0.00     0.031 A 
ATOM     37  C   UNL     1       7.338  16.301   4.952  1.00  0.00     0.074 A 
ATOM     38  C   UNL     1       5.127  15.809   5.953  1.00  0.00     0.049 A 
ATOM     39  N   UNL     1       7.880  17.048   5.881  1.00  0.00    -0.248 NA
ATOM     40  C   UNL     1       8.216  16.048   3.801  1.00  0.00     0.031 C 
ATOM     41  C   UNL     1       3.801  15.197   6.054  1.00  0.00     0.029 A 
ATOM     42  N   UNL     1       5.251  16.527   7.115  1.00  0.00    -0.354 N 
ATOM     43  C   UNL     1       9.165  17.341   5.433  1.00  0.00     0.074 A 
ATOM     44  C   UNL     1       9.340  16.636   4.181  1.00  0.00     0.031 C 
ATOM     45  C   UNL     1       3.222  15.590   7.200  1.00  0.00     0.029 A 
ATOM     46  C   UNL     1       4.144  16.455   7.929  1.00  0.00     0.049 A 
ATOM     47  H   UNL     1       6.056  17.045   7.345  1.00  0.00     0.167 HD
ATOM     48  C   UNL     1      10.103  18.142   5.998  1.00  0.00     0.034 A 
ATOM     49  C   UNL     1       3.900  17.027   9.125  1.00  0.00     0.034 A 
ATOM     50  C   UNL     1       9.906  18.851   7.240  1.00  0.00     0.049 A 
ATOM     51  C   UNL     1       4.945  17.934   9.722  1.00  0.00     0.074 A 
ATOM     52  C   UNL     1      10.770  19.715   7.891  1.00  0.00     0.029 A 
ATOM     53  N   UNL     1       8.759  18.777   8.023  1.00  0.00    -0.354 N 
ATOM     54  N   UNL     1       6.138  18.237   9.263  1.00  0.00    -0.248 NA
ATOM     55  C   UNL     1       4.598  18.596  10.985  1.00  0.00     0.031 C 
ATOM     56  C   UNL     1      10.168  20.121   9.089  1.00  0.00     0.029 A 
ATOM     57  C   UNL     1       8.900  19.567   9.154  1.00  0.00     0.049 A 
ATOM     58  H   UNL     1       7.963  18.241   7.805  1.00  0.00     0.167 HD
ATOM     59  C   UNL     1       6.671  19.151  10.168  1.00  0.00     0.074 A 
ATOM     60  C   UNL     1       5.658  19.364  11.183  1.00  0.00     0.031 C 
ATOM     61  C   UNL     1       7.884  19.761  10.163  1.00  0.00     0.034 A 
BRANCH  48  62
ATOM     62  C   UNL     1      11.430  18.266   5.284  1.00  0.00     0.023 A 
ATOM     63  C   UNL     1      11.525  18.809   3.989  1.00  0.00     0.031 A 
ATOM     64  C   UNL     1      12.612  17.796   5.884  1.00  0.00     0.131 A 
ATOM     65  C   UNL     1      12.752  18.791   3.307  1.00  0.00     0.055 A 
ATOM     66  C   UNL     1      13.846  17.859   5.232  1.00  0.00     0.041 A 
ATOM     67  F   UNL     1      12.585  17.249   7.110  1.00  0.00    -0.206 F 
ATOM     68  C   UNL     1      13.918  18.342   3.929  1.00  0.00     0.022 A 
BRANCH  65  69
ATOM     69  S   UNL     1      12.769  19.219   1.544  1.00  0.00     0.124 S 
ATOM     70  O   UNL     1      11.862  18.218   0.989  1.00  0.00    -0.237 OA
ATOM     71  O   UNL     1      12.280  20.593   1.548  1.00  0.00    -0.237 OA
ATOM     72  O   UNL     1      14.172  19.057   1.166  1.00  0.00    -0.744 OA
ENDBRANCH  65  69
ENDBRANCH  48  62
BRANCH  49  73
ATOM     73  C   UNL     1       2.612  16.777   9.832  1.00  0.00     0.023 A 
ATOM     74  C   UNL     1       1.687  17.812  10.040  1.00  0.00     0.031 A 
ATOM     75  C   UNL     1       2.305  15.505  10.345  1.00  0.00     0.131 A 
ATOM     76  C   UNL     1       0.521  17.571  10.783  1.00  0.00     0.055 A 
ATOM     77  C   UNL     1       1.121  15.257  11.042  1.00  0.00     0.041 A 
ATOM     78  F   UNL     1       3.150  14.477  10.164  1.00  0.00    -0.206 F 
ATOM     79  C   UNL     1       0.227  16.297  11.277  1.00  0.00     0.022 A 
BRANCH  76  80
ATOM     80  S   UNL     1      -0.572  18.967  11.165  1.00  0.00     0.124 S 
ATOM     81  O   UNL     1       0.333  19.872  11.864  1.00  0.00    -0.237 OA
ATOM     82  O   UNL     1      -0.999  19.388   9.834  1.00  0.00    -0.237 OA
ATOM     83  O   UNL     1      -1.617  18.366  11.990  1.00  0.00    -0.744 OA
ENDBRANCH  76  80
ENDBRANCH  49  73
BRANCH  61  84
ATOM     84  C   UNL     1       8.150  20.751  11.270  1.00  0.00     0.023 A 
ATOM     85  C   UNL     1       8.235  20.352  12.616  1.00  0.00     0.031 A 
ATOM     86  C   UNL     1       8.276  22.121  10.978  1.00  0.00     0.131 A 
ATOM     87  C   UNL     1       8.360  21.318  13.625  1.00  0.00     0.055 A 
ATOM     88  C   UNL     1       8.467  23.072  11.982  1.00  0.00     0.041 A 
ATOM     89  F   UNL     1       8.203  22.559   9.711  1.00  0.00    -0.206 F 
ATOM     90  C   UNL     1       8.491  22.674  13.315  1.00  0.00     0.022 A 
BRANCH  87  91
ATOM     91  S   UNL     1       8.221  20.790  15.355  1.00  0.00     0.124 S 
ATOM     92  O   UNL     1       6.940  20.092  15.359  1.00  0.00    -0.237 OA
ATOM     93  O   UNL     1       9.404  19.952  15.520  1.00  0.00    -0.237 OA
ATOM     94  O   UNL     1       8.244  22.048  16.100  1.00  0.00    -0.744 OA
ENDBRANCH  87  91
ENDBRANCH  61  84
ENDBRANCH  35  36
ENDBRANCH  27  30
ENDBRANCH  25  26
ENDBRANCH   1  25
TORSDOF 16
