REMARK SMILES CC[N@H+](CC(C)(C)C(=O)NCCCNC(=O)c1ccc(-c2c3nc(c(-c4cc(S(=O)(=O)[O-])ccc4F)c4ccc([nH]4)c(-c4cc(S(=O)(=O)[O-])ccc4F)c4nc(c(-c5cc(S(=O)(=O)[O-])ccc5F)c5ccc2[nH]5)C=C4)C=C3)cc1)[C@H]1CC[NH2+]C1
REMARK SMILES IDX 12 1 11 2 10 3 8 4 9 5 5 7 6 8 7 9 4 10 3 11 2 13 1 14 80 15
REMARK SMILES IDX 81 16 84 17 82 18 83 19 13 22 14 23 15 24 16 26 17 27 18 28
REMARK SMILES IDX 79 29 19 30 78 31 20 32 21 33 22 34 72 35 23 36 77 37 71 38
REMARK SMILES IDX 73 39 24 40 76 41 70 42 69 43 25 45 57 46 37 47 56 48 38 49
REMARK SMILES IDX 41 50 55 51 74 52 39 53 40 54 54 56 75 57 42 58 26 59 27 60
REMARK SMILES IDX 35 61 28 62 34 63 36 64 33 65 29 66 30 67 31 68 32 69 58 70
REMARK SMILES IDX 59 71 67 72 60 73 66 74 68 75 65 76 61 77 62 78 63 79 64 80
REMARK SMILES IDX 43 81 44 82 52 83 45 84 51 85 53 86 50 87 46 88 47 89 48 90
REMARK SMILES IDX 49 91
REMARK H PARENT 10 6 3 12 83 20 83 21 14 25 73 44 41 55
REMARK Flexibility Score: inf
ROOT
ATOM      1  C   UNL     1       6.703  -2.718   3.134  1.00  0.00     0.042 C 
ENDROOT
BRANCH   1   2
ATOM      2  C   UNL     1       5.281  -2.525   2.624  1.00  0.00     0.117 C 
BRANCH   2   3
ATOM      3  N   UNL     1       4.964  -1.115   2.522  1.00  0.00    -0.355 N 
ATOM      4  C   UNL     1       4.947  -0.282   1.453  1.00  0.00     0.231 C 
ATOM      5  O   UNL     1       5.193   0.902   1.704  1.00  0.00    -0.274 OA
ATOM      6  H   UNL     1       4.719  -0.689   3.375  1.00  0.00     0.163 HD
BRANCH   4   7
ATOM      7  C   UNL     1       4.673  -0.771   0.021  1.00  0.00     0.092 C 
ATOM      8  C   UNL     1       3.552  -1.820  -0.097  1.00  0.00     0.027 C 
ATOM      9  C   UNL     1       5.998  -1.343  -0.527  1.00  0.00     0.027 C 
BRANCH   7  10
ATOM     10  C   UNL     1       4.286   0.464  -0.878  1.00  0.00     0.279 C 
BRANCH  10  11
ATOM     11  N   UNL     1       2.884   0.975  -0.819  1.00  0.00    -0.327 N 
ATOM     12  H   UNL     1       2.272   0.179  -1.004  1.00  0.00     0.348 HD
BRANCH  11  13
ATOM     13  C   UNL     1       2.562   1.497   0.531  1.00  0.00     0.259 C 
ATOM     14  C   UNL     1       1.127   1.976   0.743  1.00  0.00     0.071 C 
ENDBRANCH  11  13
BRANCH  11  15
ATOM     15  C   UNL     1       2.595   1.976  -1.874  1.00  0.00     0.245 C 
ATOM     16  C   UNL     1       3.223   3.361  -1.696  1.00  0.00     0.132 C 
ATOM     17  C   UNL     1       2.900   1.632  -3.355  1.00  0.00     0.326 C 
ATOM     18  C   UNL     1       3.123   3.948  -3.088  1.00  0.00     0.267 C 
ATOM     19  N   UNL     1       3.501   2.837  -3.968  1.00  0.00    -0.341 N 
ATOM     20  H   UNL     1       4.516   2.746  -4.013  1.00  0.00     0.346 HD
ATOM     21  H   UNL     1       3.175   2.981  -4.924  1.00  0.00     0.346 HD
ENDBRANCH  11  15
ENDBRANCH  10  11
ENDBRANCH   7  10
ENDBRANCH   4   7
ENDBRANCH   2   3
ENDBRANCH   1   2
BRANCH   1  22
ATOM     22  C   UNL     1       6.930  -2.148   4.529  1.00  0.00     0.118 C 
BRANCH  22  23
ATOM     23  N   UNL     1       6.078  -2.781   5.527  1.00  0.00    -0.352 N 
ATOM     24  C   UNL     1       6.424  -3.574   6.592  1.00  0.00     0.251 C 
ATOM     25  H   UNL     1       5.113  -2.614   5.423  1.00  0.00     0.163 HD
ATOM     26  O   UNL     1       5.555  -4.221   7.173  1.00  0.00    -0.269 OA
BRANCH  24  27
ATOM     27  C   UNL     1       7.837  -3.662   7.013  1.00  0.00     0.039 A 
ATOM     28  C   UNL     1       8.368  -4.906   7.358  1.00  0.00     0.014 A 
ATOM     29  C   UNL     1       8.637  -2.518   7.059  1.00  0.00     0.014 A 
ATOM     30  C   UNL     1       9.722  -5.009   7.681  1.00  0.00     0.010 A 
ATOM     31  C   UNL     1      10.004  -2.639   7.279  1.00  0.00     0.010 A 
ATOM     32  C   UNL     1      10.560  -3.884   7.603  1.00  0.00    -0.014 A 
BRANCH  32  33
ATOM     33  C   UNL     1      12.019  -3.991   7.862  1.00  0.00     0.031 A 
ATOM     34  C   UNL     1      12.644  -3.216   8.989  1.00  0.00     0.074 A 
ATOM     35  C   UNL     1      12.787  -4.732   7.040  1.00  0.00     0.049 A 
ATOM     36  N   UNL     1      13.902  -3.130   9.338  1.00  0.00    -0.248 NA
ATOM     37  C   UNL     1      11.737  -2.401   9.810  1.00  0.00     0.031 C 
ATOM     38  C   UNL     1      12.300  -5.481   5.879  1.00  0.00     0.029 A 
ATOM     39  N   UNL     1      14.137  -4.971   7.045  1.00  0.00    -0.354 N 
ATOM     40  C   UNL     1      13.940  -2.240  10.406  1.00  0.00     0.074 A 
ATOM     41  C   UNL     1      12.588  -1.759  10.595  1.00  0.00     0.031 C 
ATOM     42  C   UNL     1      13.331  -6.120   5.304  1.00  0.00     0.029 A 
ATOM     43  C   UNL     1      14.558  -5.785   6.019  1.00  0.00     0.049 A 
ATOM     44  H   UNL     1      14.748  -4.596   7.720  1.00  0.00     0.167 HD
ATOM     45  C   UNL     1      14.998  -1.879  11.174  1.00  0.00     0.034 A 
ATOM     46  C   UNL     1      15.793  -6.203   5.681  1.00  0.00     0.034 A 
ATOM     47  C   UNL     1      16.338  -2.375  10.966  1.00  0.00     0.049 A 
ATOM     48  C   UNL     1      16.961  -5.774   6.530  1.00  0.00     0.074 A 
ATOM     49  C   UNL     1      17.473  -2.135  11.719  1.00  0.00     0.029 A 
ATOM     50  N   UNL     1      16.729  -3.198   9.914  1.00  0.00    -0.354 N 
ATOM     51  N   UNL     1      16.972  -4.989   7.583  1.00  0.00    -0.248 NA
ATOM     52  C   UNL     1      18.279  -6.296   6.152  1.00  0.00     0.031 C 
ATOM     53  C   UNL     1      18.561  -2.736  11.077  1.00  0.00     0.029 A 
ATOM     54  C   UNL     1      18.094  -3.435   9.975  1.00  0.00     0.049 A 
ATOM     55  H   UNL     1      16.124  -3.560   9.227  1.00  0.00     0.167 HD
ATOM     56  C   UNL     1      18.297  -4.943   8.008  1.00  0.00     0.074 A 
ATOM     57  C   UNL     1      19.049  -5.793   7.106  1.00  0.00     0.031 C 
ATOM     58  C   UNL     1      18.840  -4.265   9.053  1.00  0.00     0.034 A 
BRANCH  45  59
ATOM     59  C   UNL     1      14.744  -0.875  12.276  1.00  0.00     0.023 A 
ATOM     60  C   UNL     1      13.822  -1.125  13.310  1.00  0.00     0.031 A 
ATOM     61  C   UNL     1      15.386   0.376  12.264  1.00  0.00     0.131 A 
ATOM     62  C   UNL     1      13.492  -0.107  14.219  1.00  0.00     0.055 A 
ATOM     63  C   UNL     1      15.127   1.349  13.233  1.00  0.00     0.041 A 
ATOM     64  F   UNL     1      16.260   0.687  11.294  1.00  0.00    -0.206 F 
ATOM     65  C   UNL     1      14.159   1.119  14.205  1.00  0.00     0.022 A 
BRANCH  62  66
ATOM     66  S   UNL     1      12.045  -0.343  15.288  1.00  0.00     0.124 S 
ATOM     67  O   UNL     1      10.995  -0.616  14.309  1.00  0.00    -0.237 OA
ATOM     68  O   UNL     1      12.450  -1.468  16.123  1.00  0.00    -0.237 OA
ATOM     69  O   UNL     1      11.919   0.937  15.982  1.00  0.00    -0.744 OA
ENDBRANCH  62  66
ENDBRANCH  45  59
BRANCH  46  70
ATOM     70  C   UNL     1      15.984  -7.061   4.477  1.00  0.00     0.023 A 
ATOM     71  C   UNL     1      16.421  -8.390   4.590  1.00  0.00     0.031 A 
ATOM     72  C   UNL     1      15.726  -6.558   3.189  1.00  0.00     0.131 A 
ATOM     73  C   UNL     1      16.612  -9.162   3.433  1.00  0.00     0.055 A 
ATOM     74  C   UNL     1      15.869  -7.345   2.046  1.00  0.00     0.041 A 
ATOM     75  F   UNL     1      15.299  -5.295   3.026  1.00  0.00    -0.206 F 
ATOM     76  C   UNL     1      16.323  -8.654   2.164  1.00  0.00     0.022 A 
BRANCH  73  77
ATOM     77  S   UNL     1      17.300 -10.832   3.603  1.00  0.00     0.124 S 
ATOM     78  O   UNL     1      18.590 -10.559   4.227  1.00  0.00    -0.237 OA
ATOM     79  O   UNL     1      16.305 -11.486   4.446  1.00  0.00    -0.237 OA
ATOM     80  O   UNL     1      17.362 -11.317   2.226  1.00  0.00    -0.744 OA
ENDBRANCH  73  77
ENDBRANCH  46  70
BRANCH  58  81
ATOM     81  C   UNL     1      20.320  -4.446   9.295  1.00  0.00     0.023 A 
ATOM     82  C   UNL     1      21.284  -4.004   8.372  1.00  0.00     0.031 A 
ATOM     83  C   UNL     1      20.773  -5.081  10.466  1.00  0.00     0.131 A 
ATOM     84  C   UNL     1      22.644  -4.255   8.606  1.00  0.00     0.055 A 
ATOM     85  C   UNL     1      22.131  -5.264  10.727  1.00  0.00     0.041 A 
ATOM     86  F   UNL     1      19.899  -5.531  11.381  1.00  0.00    -0.206 F 
ATOM     87  C   UNL     1      23.075  -4.863   9.788  1.00  0.00     0.022 A 
BRANCH  84  88
ATOM     88  S   UNL     1      23.839  -3.874   7.295  1.00  0.00     0.124 S 
ATOM     89  O   UNL     1      23.332  -4.671   6.183  1.00  0.00    -0.237 OA
ATOM     90  O   UNL     1      23.702  -2.428   7.158  1.00  0.00    -0.237 OA
ATOM     91  O   UNL     1      25.113  -4.325   7.851  1.00  0.00    -0.744 OA
ENDBRANCH  84  88
ENDBRANCH  58  81
ENDBRANCH  32  33
ENDBRANCH  24  27
ENDBRANCH  22  23
ENDBRANCH   1  22
TORSDOF 17
