REMARK SMILES O=C(NCCCNC(=O)c1cc(-c2cccc(Cl)c2)ccc1Cl)c1ccc(-c2c3nc(c(-c4cc(S(=O)(=O)[O-])ccc4F)c4ccc([nH]4)c(-c4cc(S(=O)(=O)[O-])ccc4F)c4nc(c(-c5cc(S(=O)(=O)[O-])ccc5F)c5ccc2[nH]5)C=C4)C=C3)cc1
REMARK SMILES IDX 4 1 3 2 1 3 2 4 24 6 25 7 86 8 26 9 85 10 27 11 28 12 29 13
REMARK SMILES IDX 79 14 30 15 84 16 78 17 80 18 31 19 83 20 77 21 76 22 32 24
REMARK SMILES IDX 64 25 44 26 63 27 45 28 48 29 62 30 81 31 46 32 47 33 61 35
REMARK SMILES IDX 82 36 49 37 33 38 34 39 42 40 35 41 41 42 43 43 40 44 36 45
REMARK SMILES IDX 37 46 38 47 39 48 65 49 66 50 74 51 67 52 73 53 75 54 72 55
REMARK SMILES IDX 68 56 69 57 70 58 71 59 50 60 51 61 59 62 52 63 58 64 60 65
REMARK SMILES IDX 57 66 53 67 54 68 55 69 56 70 5 71 6 72 7 73 8 74 9 76 10 77
REMARK SMILES IDX 11 78 22 79 12 80 21 81 23 82 20 83 13 84 14 85 19 86 15 87
REMARK SMILES IDX 17 88 16 89 18 90
REMARK H PARENT 3 5 80 23 48 34 7 75
REMARK Flexibility Score: inf
ROOT
ATOM      1  C   UNL     1       4.657  -0.659  -1.331  1.00  0.00     0.118 C 
ENDROOT
BRANCH   1   2
ATOM      2  N   UNL     1       3.224  -0.435  -1.170  1.00  0.00    -0.352 N 
ATOM      3  O   UNL     1       1.274   0.011  -0.142  1.00  0.00    -0.269 OA
ATOM      4  C   UNL     1       2.503   0.048  -0.103  1.00  0.00     0.251 C 
ATOM      5  H   UNL     1       2.682  -0.669  -1.958  1.00  0.00     0.163 HD
BRANCH   4   6
ATOM      6  C   UNL     1       3.187   0.581   1.097  1.00  0.00     0.039 A 
ATOM      7  C   UNL     1       4.322   1.382   0.981  1.00  0.00     0.014 A 
ATOM      8  C   UNL     1       2.674   0.289   2.366  1.00  0.00     0.014 A 
ATOM      9  C   UNL     1       5.052   1.717   2.115  1.00  0.00     0.010 A 
ATOM     10  C   UNL     1       3.348   0.729   3.511  1.00  0.00     0.010 A 
ATOM     11  C   UNL     1       4.572   1.406   3.397  1.00  0.00    -0.014 A 
BRANCH  11  12
ATOM     12  C   UNL     1       5.361   1.831   4.585  1.00  0.00     0.031 A 
ATOM     13  C   UNL     1       5.934   0.820   5.543  1.00  0.00     0.074 A 
ATOM     14  C   UNL     1       5.610   3.144   4.762  1.00  0.00     0.049 A 
ATOM     15  N   UNL     1       6.693   1.014   6.593  1.00  0.00    -0.248 NA
ATOM     16  C   UNL     1       5.603  -0.591   5.299  1.00  0.00     0.031 C 
ATOM     17  C   UNL     1       5.100   4.218   3.904  1.00  0.00     0.029 A 
ATOM     18  N   UNL     1       6.377   3.801   5.689  1.00  0.00    -0.354 N 
ATOM     19  C   UNL     1       6.909  -0.242   7.150  1.00  0.00     0.074 A 
ATOM     20  C   UNL     1       6.171  -1.187   6.338  1.00  0.00     0.031 C 
ATOM     21  C   UNL     1       5.627   5.385   4.299  1.00  0.00     0.029 A 
ATOM     22  C   UNL     1       6.450   5.159   5.481  1.00  0.00     0.049 A 
ATOM     23  H   UNL     1       6.832   3.344   6.433  1.00  0.00     0.167 HD
ATOM     24  C   UNL     1       7.659  -0.575   8.232  1.00  0.00     0.034 A 
ATOM     25  C   UNL     1       7.096   6.120   6.167  1.00  0.00     0.034 A 
ATOM     26  C   UNL     1       8.402   0.381   9.021  1.00  0.00     0.049 A 
ATOM     27  C   UNL     1       7.903   5.726   7.374  1.00  0.00     0.074 A 
ATOM     28  C   UNL     1       9.226   0.147  10.109  1.00  0.00     0.029 A 
ATOM     29  N   UNL     1       8.405   1.755   8.814  1.00  0.00    -0.354 N 
ATOM     30  N   UNL     1       8.109   4.530   7.875  1.00  0.00    -0.248 NA
ATOM     31  C   UNL     1       8.561   6.813   8.106  1.00  0.00     0.031 C 
ATOM     32  C   UNL     1       9.673   1.381  10.598  1.00  0.00     0.029 A 
ATOM     33  C   UNL     1       9.189   2.383   9.772  1.00  0.00     0.049 A 
ATOM     34  H   UNL     1       7.922   2.217   8.091  1.00  0.00     0.167 HD
ATOM     35  C   UNL     1       8.939   4.721   8.975  1.00  0.00     0.074 A 
ATOM     36  C   UNL     1       9.211   6.144   9.047  1.00  0.00     0.031 C 
ATOM     37  C   UNL     1       9.432   3.805   9.846  1.00  0.00     0.034 A 
BRANCH  24  38
ATOM     38  C   UNL     1       7.667  -2.028   8.652  1.00  0.00     0.023 A 
ATOM     39  C   UNL     1       8.191  -3.041   7.828  1.00  0.00     0.031 A 
ATOM     40  C   UNL     1       7.113  -2.410   9.887  1.00  0.00     0.131 A 
ATOM     41  C   UNL     1       8.080  -4.386   8.213  1.00  0.00     0.055 A 
ATOM     42  C   UNL     1       7.078  -3.744  10.301  1.00  0.00     0.041 A 
ATOM     43  F   UNL     1       6.580  -1.493  10.710  1.00  0.00    -0.206 F 
ATOM     44  C   UNL     1       7.548  -4.743   9.455  1.00  0.00     0.022 A 
BRANCH  41  45
ATOM     45  S   UNL     1       8.502  -5.673   7.005  1.00  0.00     0.124 S 
ATOM     46  O   UNL     1       7.629  -5.327   5.885  1.00  0.00    -0.237 OA
ATOM     47  O   UNL     1       9.927  -5.453   6.795  1.00  0.00    -0.237 OA
ATOM     48  O   UNL     1       8.156  -6.916   7.692  1.00  0.00    -0.744 OA
ENDBRANCH  41  45
ENDBRANCH  24  38
BRANCH  25  49
ATOM     49  C   UNL     1       6.992   7.544   5.744  1.00  0.00     0.023 A 
ATOM     50  C   UNL     1       8.119   8.251   5.296  1.00  0.00     0.031 A 
ATOM     51  C   UNL     1       5.763   8.226   5.799  1.00  0.00     0.131 A 
ATOM     52  C   UNL     1       8.001   9.607   4.954  1.00  0.00     0.055 A 
ATOM     53  C   UNL     1       5.641   9.559   5.408  1.00  0.00     0.041 A 
ATOM     54  F   UNL     1       4.654   7.593   6.216  1.00  0.00    -0.206 F 
ATOM     55  C   UNL     1       6.768  10.261   4.993  1.00  0.00     0.022 A 
BRANCH  52  56
ATOM     56  S   UNL     1       9.503  10.526   4.520  1.00  0.00     0.124 S 
ATOM     57  O   UNL     1      10.312  10.359   5.721  1.00  0.00    -0.237 OA
ATOM     58  O   UNL     1       9.962   9.813   3.332  1.00  0.00    -0.237 OA
ATOM     59  O   UNL     1       9.014  11.882   4.279  1.00  0.00    -0.744 OA
ENDBRANCH  52  56
ENDBRANCH  25  49
BRANCH  37  60
ATOM     60  C   UNL     1      10.344   4.327  10.928  1.00  0.00     0.023 A 
ATOM     61  C   UNL     1       9.870   5.171  11.949  1.00  0.00     0.031 A 
ATOM     62  C   UNL     1      11.714   4.011  10.913  1.00  0.00     0.131 A 
ATOM     63  C   UNL     1      10.770   5.724  12.872  1.00  0.00     0.055 A 
ATOM     64  C   UNL     1      12.594   4.516  11.870  1.00  0.00     0.041 A 
ATOM     65  F   UNL     1      12.220   3.213   9.959  1.00  0.00    -0.206 F 
ATOM     66  C   UNL     1      12.127   5.390  12.848  1.00  0.00     0.022 A 
BRANCH  63  67
ATOM     67  S   UNL     1      10.162   6.971  14.041  1.00  0.00     0.124 S 
ATOM     68  O   UNL     1       9.619   7.987  13.146  1.00  0.00    -0.237 OA
ATOM     69  O   UNL     1       9.183   6.218  14.819  1.00  0.00    -0.237 OA
ATOM     70  O   UNL     1      11.363   7.368  14.774  1.00  0.00    -0.744 OA
ENDBRANCH  63  67
ENDBRANCH  37  60
ENDBRANCH  11  12
ENDBRANCH   4   6
ENDBRANCH   1   2
BRANCH   1  71
ATOM     71  C   UNL     1       5.036  -2.132  -1.382  1.00  0.00     0.042 C 
BRANCH  71  72
ATOM     72  C   UNL     1       4.483  -2.878  -2.586  1.00  0.00     0.118 C 
BRANCH  72  73
ATOM     73  N   UNL     1       4.955  -2.337  -3.853  1.00  0.00    -0.352 N 
ATOM     74  C   UNL     1       5.675  -2.944  -4.850  1.00  0.00     0.252 C 
ATOM     75  H   UNL     1       4.723  -1.395  -4.019  1.00  0.00     0.163 HD
ATOM     76  O   UNL     1       6.042  -2.300  -5.830  1.00  0.00    -0.269 OA
BRANCH  74  77
ATOM     77  C   UNL     1       6.064  -4.360  -4.735  1.00  0.00     0.059 A 
ATOM     78  C   UNL     1       7.439  -4.650  -4.789  1.00  0.00     0.024 A 
ATOM     79  C   UNL     1       5.131  -5.397  -4.657  1.00  0.00     0.053 A 
ATOM     80  C   UNL     1       7.898  -5.974  -4.713  1.00  0.00    -0.017 A 
ATOM     81  C   UNL     1       5.577  -6.709  -4.505  1.00  0.00     0.022 A 
ATOM     82  Cl  UNL     1       3.426  -5.150  -4.807  1.00  0.00    -0.083 Cl
ATOM     83  C   UNL     1       6.946  -6.990  -4.523  1.00  0.00     0.010 A 
BRANCH  80  84
ATOM     84  C   UNL     1       9.319  -6.310  -4.902  1.00  0.00    -0.017 A 
ATOM     85  C   UNL     1       9.691  -7.247  -5.886  1.00  0.00     0.009 A 
ATOM     86  C   UNL     1      10.335  -5.712  -4.142  1.00  0.00     0.029 A 
ATOM     87  C   UNL     1      11.029  -7.585  -6.101  1.00  0.00     0.002 A 
ATOM     88  C   UNL     1      11.673  -6.052  -4.360  1.00  0.00     0.041 A 
ATOM     89  C   UNL     1      12.023  -6.986  -5.334  1.00  0.00     0.020 A 
ATOM     90  Cl  UNL     1      12.910  -5.310  -3.421  1.00  0.00    -0.084 Cl
ENDBRANCH  80  84
ENDBRANCH  74  77
ENDBRANCH  72  73
ENDBRANCH  71  72
ENDBRANCH   1  71
TORSDOF 14
