REMARK SMILES C[C@@H](C(=O)NCCCNC(=O)c1ccc(-c2c3nc(c(-c4cc(S(=O)(=O)[O-])ccc4F)c4ccc([nH]4)c(-c4cc(S(=O)(=O)[O-])ccc4F)c4nc(c(-c5cc(S(=O)(=O)[O-])ccc5F)c5ccc2[nH]5)C=C4)C=C3)cc1)c1ccc2c(c1)[nH]c1ccc(Cl)cc12
REMARK SMILES IDX 8 1 7 2 6 3 5 4 3 5 4 6 2 8 1 9 75 10 76 11 80 12 77 13
REMARK SMILES IDX 79 14 78 15 81 16 88 17 82 18 87 20 83 21 85 22 84 23 86 24
REMARK SMILES IDX 9 25 10 26 11 28 12 29 13 30 74 31 14 32 73 33 15 34 16 35
REMARK SMILES IDX 17 36 67 37 18 38 72 39 66 40 68 41 19 42 71 43 65 44 64 45
REMARK SMILES IDX 20 47 52 48 32 49 51 50 33 51 36 52 50 53 69 54 34 55 35 56
REMARK SMILES IDX 49 58 70 59 37 60 21 61 22 62 30 63 23 64 29 65 31 66 28 67
REMARK SMILES IDX 24 68 25 69 26 70 27 71 53 72 54 73 62 74 55 75 61 76 63 77
REMARK SMILES IDX 60 78 56 79 57 80 58 81 59 82 38 83 39 84 47 85 40 86 46 87
REMARK SMILES IDX 48 88 45 89 41 90 42 91 43 92 44 93
REMARK H PARENT 5 7 81 19 9 27 68 46 36 57
REMARK Flexibility Score: inf
ROOT
ATOM      1  C   UNL     1       5.132   2.253  -1.669  1.00  0.00     0.118 C 
ENDROOT
BRANCH   1   2
ATOM      2  C   UNL     1       4.368   1.402  -0.662  1.00  0.00     0.042 C 
BRANCH   2   3
ATOM      3  C   UNL     1       3.403   2.175   0.245  1.00  0.00     0.117 C 
BRANCH   3   4
ATOM      4  N   UNL     1       2.295   2.780  -0.484  1.00  0.00    -0.356 N 
ATOM      5  C   UNL     1       0.965   2.440  -0.560  1.00  0.00     0.227 C 
ATOM      6  O   UNL     1       0.268   3.142  -1.293  1.00  0.00    -0.274 OA
ATOM      7  H   UNL     1       2.542   3.572  -1.014  1.00  0.00     0.163 HD
BRANCH   5   8
ATOM      8  C   UNL     1       0.432   1.249   0.260  1.00  0.00     0.105 C 
ATOM      9  C   UNL     1       1.059  -0.045  -0.290  1.00  0.00     0.023 C 
BRANCH   8  10
ATOM     10  C   UNL     1      -1.096   1.064   0.388  1.00  0.00    -0.034 A 
ATOM     11  C   UNL     1      -2.049   2.068   0.168  1.00  0.00     0.005 A 
ATOM     12  C   UNL     1      -1.568  -0.192   0.819  1.00  0.00     0.031 A 
ATOM     13  C   UNL     1      -3.439   1.820   0.278  1.00  0.00     0.011 A 
ATOM     14  C   UNL     1      -2.938  -0.417   0.950  1.00  0.00     0.047 A 
ATOM     15  C   UNL     1      -3.899   0.545   0.671  1.00  0.00     0.007 A 
ATOM     16  N   UNL     1      -3.585  -1.552   1.359  1.00  0.00    -0.355 N 
ATOM     17  C   UNL     1      -5.179  -0.069   0.903  1.00  0.00     0.009 A 
ATOM     18  C   UNL     1      -4.938  -1.347   1.414  1.00  0.00     0.047 A 
ATOM     19  H   UNL     1      -3.138  -2.400   1.584  1.00  0.00     0.167 HD
ATOM     20  C   UNL     1      -6.522   0.341   0.761  1.00  0.00     0.031 A 
ATOM     21  C   UNL     1      -5.943  -2.203   1.871  1.00  0.00     0.028 A 
ATOM     22  C   UNL     1      -7.543  -0.522   1.183  1.00  0.00     0.041 A 
ATOM     23  C   UNL     1      -7.260  -1.761   1.755  1.00  0.00     0.022 A 
ATOM     24  Cl  UNL     1      -9.189  -0.045   0.999  1.00  0.00    -0.084 Cl
ENDBRANCH   8  10
ENDBRANCH   5   8
ENDBRANCH   3   4
ENDBRANCH   2   3
ENDBRANCH   1   2
BRANCH   1  25
ATOM     25  N   UNL     1       6.127   3.103  -1.040  1.00  0.00    -0.352 N 
ATOM     26  C   UNL     1       7.497   3.110  -1.171  1.00  0.00     0.251 C 
ATOM     27  H   UNL     1       5.765   3.779  -0.422  1.00  0.00     0.163 HD
ATOM     28  O   UNL     1       8.164   3.785  -0.395  1.00  0.00    -0.269 OA
BRANCH  26  29
ATOM     29  C   UNL     1       8.168   2.289  -2.210  1.00  0.00     0.039 A 
ATOM     30  C   UNL     1       9.326   1.587  -1.861  1.00  0.00     0.014 A 
ATOM     31  C   UNL     1       7.682   2.217  -3.518  1.00  0.00     0.014 A 
ATOM     32  C   UNL     1       9.938   0.743  -2.793  1.00  0.00     0.010 A 
ATOM     33  C   UNL     1       8.255   1.325  -4.427  1.00  0.00     0.010 A 
ATOM     34  C   UNL     1       9.377   0.561  -4.067  1.00  0.00    -0.014 A 
BRANCH  34  35
ATOM     35  C   UNL     1       9.901  -0.471  -5.005  1.00  0.00     0.031 A 
ATOM     36  C   UNL     1      10.489  -0.076  -6.332  1.00  0.00     0.074 A 
ATOM     37  C   UNL     1       9.764  -1.776  -4.687  1.00  0.00     0.049 A 
ATOM     38  N   UNL     1      10.890  -0.841  -7.316  1.00  0.00    -0.248 NA
ATOM     39  C   UNL     1      10.630   1.364  -6.597  1.00  0.00     0.031 C 
ATOM     40  C   UNL     1       9.186  -2.284  -3.438  1.00  0.00     0.029 A 
ATOM     41  N   UNL     1      10.076  -2.917  -5.388  1.00  0.00    -0.354 N 
ATOM     42  C   UNL     1      11.312   0.021  -8.323  1.00  0.00     0.074 A 
ATOM     43  C   UNL     1      11.093   1.368  -7.840  1.00  0.00     0.031 C 
ATOM     44  C   UNL     1       9.192  -3.625  -3.461  1.00  0.00     0.029 A 
ATOM     45  C   UNL     1       9.711  -4.080  -4.746  1.00  0.00     0.049 A 
ATOM     46  H   UNL     1      10.518  -2.903  -6.267  1.00  0.00     0.167 HD
ATOM     47  C   UNL     1      11.836  -0.289  -9.534  1.00  0.00     0.034 A 
ATOM     48  C   UNL     1       9.751  -5.365  -5.157  1.00  0.00     0.034 A 
ATOM     49  C   UNL     1      12.065  -1.639  -9.991  1.00  0.00     0.049 A 
ATOM     50  C   UNL     1      10.290  -5.671  -6.535  1.00  0.00     0.074 A 
ATOM     51  C   UNL     1      12.682  -2.054 -11.160  1.00  0.00     0.029 A 
ATOM     52  N   UNL     1      11.668  -2.788  -9.323  1.00  0.00    -0.354 N 
ATOM     53  N   UNL     1      10.767  -4.843  -7.436  1.00  0.00    -0.248 NA
ATOM     54  C   UNL     1      10.296  -7.080  -6.952  1.00  0.00     0.031 C 
ATOM     55  C   UNL     1      12.574  -3.445 -11.242  1.00  0.00     0.029 A 
ATOM     56  C   UNL     1      11.969  -3.907 -10.085  1.00  0.00     0.049 A 
ATOM     57  H   UNL     1      11.236  -2.806  -8.439  1.00  0.00     0.167 HD
ATOM     58  C   UNL     1      11.151  -5.638  -8.513  1.00  0.00     0.074 A 
ATOM     59  C   UNL     1      10.877  -7.008  -8.140  1.00  0.00     0.031 C 
ATOM     60  C   UNL     1      11.680  -5.268  -9.706  1.00  0.00     0.034 A 
BRANCH  47  61
ATOM     61  C   UNL     1      12.170   0.838 -10.480  1.00  0.00     0.023 A 
ATOM     62  C   UNL     1      13.202   1.752 -10.218  1.00  0.00     0.031 A 
ATOM     63  C   UNL     1      11.473   0.959 -11.697  1.00  0.00     0.131 A 
ATOM     64  C   UNL     1      13.488   2.768 -11.145  1.00  0.00     0.055 A 
ATOM     65  C   UNL     1      11.805   1.929 -12.643  1.00  0.00     0.041 A 
ATOM     66  F   UNL     1      10.463   0.123 -11.991  1.00  0.00    -0.206 F 
ATOM     67  C   UNL     1      12.814   2.845 -12.367  1.00  0.00     0.022 A 
BRANCH  64  68
ATOM     68  S   UNL     1      14.695   4.043 -10.694  1.00  0.00     0.124 S 
ATOM     69  O   UNL     1      14.087   4.617  -9.497  1.00  0.00    -0.237 OA
ATOM     70  O   UNL     1      15.912   3.267 -10.484  1.00  0.00    -0.237 OA
ATOM     71  O   UNL     1      14.713   4.926 -11.860  1.00  0.00    -0.744 OA
ENDBRANCH  64  68
ENDBRANCH  47  61
BRANCH  48  72
ATOM     72  C   UNL     1       9.216  -6.464  -4.298  1.00  0.00     0.023 A 
ATOM     73  C   UNL     1      10.035  -7.530  -3.894  1.00  0.00     0.031 A 
ATOM     74  C   UNL     1       7.854  -6.516  -3.947  1.00  0.00     0.131 A 
ATOM     75  C   UNL     1       9.473  -8.634  -3.233  1.00  0.00     0.055 A 
ATOM     76  C   UNL     1       7.315  -7.581  -3.224  1.00  0.00     0.041 A 
ATOM     77  F   UNL     1       7.019  -5.528  -4.309  1.00  0.00    -0.206 F 
ATOM     78  C   UNL     1       8.123  -8.660  -2.881  1.00  0.00     0.022 A 
BRANCH  75  79
ATOM     79  S   UNL     1      10.506 -10.104  -2.974  1.00  0.00     0.124 S 
ATOM     80  O   UNL     1      10.964 -10.385  -4.329  1.00  0.00    -0.237 OA
ATOM     81  O   UNL     1      11.514  -9.603  -2.045  1.00  0.00    -0.237 OA
ATOM     82  O   UNL     1       9.573 -11.079  -2.414  1.00  0.00    -0.744 OA
ENDBRANCH  75  79
ENDBRANCH  48  72
BRANCH  60  83
ATOM     83  C   UNL     1      12.022  -6.368 -10.681  1.00  0.00     0.023 A 
ATOM     84  C   UNL     1      11.024  -7.152 -11.285  1.00  0.00     0.031 A 
ATOM     85  C   UNL     1      13.362  -6.629 -11.016  1.00  0.00     0.131 A 
ATOM     86  C   UNL     1      11.383  -8.187 -12.161  1.00  0.00     0.055 A 
ATOM     87  C   UNL     1      13.710  -7.619 -11.936  1.00  0.00     0.041 A 
ATOM     88  F   UNL     1      14.357  -5.915 -10.465  1.00  0.00    -0.206 F 
ATOM     89  C   UNL     1      12.718  -8.412 -12.506  1.00  0.00     0.022 A 
BRANCH  86  90
ATOM     90  S   UNL     1      10.085  -9.287 -12.789  1.00  0.00     0.124 S 
ATOM     91  O   UNL     1       9.563  -9.873 -11.559  1.00  0.00    -0.237 OA
ATOM     92  O   UNL     1       9.195  -8.359 -13.480  1.00  0.00    -0.237 OA
ATOM     93  O   UNL     1      10.810 -10.211 -13.659  1.00  0.00    -0.744 OA
ENDBRANCH  86  90
ENDBRANCH  60  83
ENDBRANCH  34  35
ENDBRANCH  26  29
ENDBRANCH   1  25
TORSDOF 14
