REMARK SMILES CC1=C(C)C[C@@H](C(=O)N[C@H](C)C(C)(C)C)[C@@H](C(=O)NCCCNC(=O)c2ccc(-c3c4nc(c(-c5cc(S(=O)(=O)[O-])ccc5F)c5ccc([nH]5)c(-c5cc(S(=O)(=O)[O-])ccc5F)c5nc(c(-c6cc(S(=O)(=O)[O-])ccc6F)c6ccc3[nH]6)C=C5)C=C4)cc2)C1
REMARK SMILES IDX 21 1 20 2 19 3 17 4 18 5 16 7 1 8 2 9 3 10 89 11 4 12 5 13
REMARK SMILES IDX 6 14 7 15 8 16 9 17 10 19 11 20 12 21 13 22 14 23 15 24
REMARK SMILES IDX 22 25 23 26 24 27 25 29 26 30 27 31 88 32 28 33 87 34 29 35
REMARK SMILES IDX 30 36 31 37 81 38 32 39 86 40 80 41 82 42 33 43 85 44 79 45
REMARK SMILES IDX 78 46 34 48 66 49 46 50 65 51 47 52 50 53 64 54 83 55 48 56
REMARK SMILES IDX 49 57 63 59 84 60 51 61 35 62 36 63 44 64 37 65 43 66 45 67
REMARK SMILES IDX 42 68 38 69 39 70 40 71 41 72 67 73 68 74 76 75 69 76 75 77
REMARK SMILES IDX 77 78 74 79 70 80 71 81 72 82 73 83 52 84 53 85 61 86 54 87
REMARK SMILES IDX 60 88 62 89 59 90 55 91 56 92 57 93 58 94
REMARK H PARENT 19 6 9 18 23 28 82 47 50 58
REMARK Flexibility Score: inf
ROOT
ATOM      1  C   UNL     1       0.199   3.792  -1.472  1.00  0.00     0.042 C 
ENDROOT
BRANCH   1   2
ATOM      2  C   UNL     1       0.167   2.848  -0.285  1.00  0.00     0.117 C 
BRANCH   2   3
ATOM      3  N   UNL     1       1.503   2.435   0.098  1.00  0.00    -0.356 N 
ATOM      4  C   UNL     1       2.249   2.727   1.192  1.00  0.00     0.224 C 
ATOM      5  O   UNL     1       3.464   2.598   1.046  1.00  0.00    -0.275 OA
ATOM      6  H   UNL     1       1.945   1.839  -0.549  1.00  0.00     0.163 HD
BRANCH   4   7
ATOM      7  C   UNL     1       1.606   3.243   2.486  1.00  0.00     0.095 C 
ATOM      8  C   UNL     1      -1.478   1.568   4.277  1.00  0.00     0.039 C 
ATOM      9  C   UNL     1      -0.132   2.249   4.203  1.00  0.00    -0.074 C 
ATOM     10  C   UNL     1       0.636   2.589   5.253  1.00  0.00    -0.074 C 
ATOM     11  C   UNL     1       0.268   2.550   2.789  1.00  0.00     0.045 C 
ATOM     12  C   UNL     1       0.302   2.279   6.690  1.00  0.00     0.039 C 
ATOM     13  C   UNL     1       1.950   3.311   5.071  1.00  0.00     0.045 C 
ATOM     14  C   UNL     1       2.586   3.272   3.675  1.00  0.00     0.095 C 
BRANCH  14  15
ATOM     15  C   UNL     1       3.844   2.395   3.658  1.00  0.00     0.224 C 
ATOM     16  O   UNL     1       4.949   2.935   3.819  1.00  0.00    -0.275 OA
ATOM     17  N   UNL     1       3.871   1.047   3.548  1.00  0.00    -0.353 N 
ATOM     18  H   UNL     1       4.784   0.695   3.446  1.00  0.00     0.163 HD
BRANCH  17  19
ATOM     19  C   UNL     1       2.858  -0.012   3.547  1.00  0.00     0.084 C 
ATOM     20  C   UNL     1       2.302  -0.193   4.964  1.00  0.00     0.031 C 
BRANCH  19  21
ATOM     21  C   UNL     1       3.436  -1.364   2.970  1.00  0.00    -0.018 C 
ATOM     22  C   UNL     1       2.397  -2.504   3.085  1.00  0.00     0.013 C 
ATOM     23  C   UNL     1       3.777  -1.209   1.474  1.00  0.00     0.013 C 
ATOM     24  C   UNL     1       4.719  -1.809   3.713  1.00  0.00     0.013 C 
ENDBRANCH  19  21
ENDBRANCH  17  19
ENDBRANCH  14  15
ENDBRANCH   4   7
ENDBRANCH   2   3
ENDBRANCH   1   2
BRANCH   1  25
ATOM     25  C   UNL     1       0.878   3.204  -2.696  1.00  0.00     0.118 C 
BRANCH  25  26
ATOM     26  N   UNL     1       0.230   1.986  -3.161  1.00  0.00    -0.352 N 
ATOM     27  C   UNL     1      -0.386   1.738  -4.362  1.00  0.00     0.251 C 
ATOM     28  H   UNL     1       0.233   1.235  -2.524  1.00  0.00     0.163 HD
ATOM     29  O   UNL     1      -1.079   0.731  -4.493  1.00  0.00    -0.269 OA
BRANCH  27  30
ATOM     30  C   UNL     1      -0.227   2.698  -5.473  1.00  0.00     0.039 A 
ATOM     31  C   UNL     1      -1.330   3.017  -6.265  1.00  0.00     0.014 A 
ATOM     32  C   UNL     1       1.012   3.295  -5.719  1.00  0.00     0.014 A 
ATOM     33  C   UNL     1      -1.197   3.974  -7.272  1.00  0.00     0.010 A 
ATOM     34  C   UNL     1       1.111   4.330  -6.637  1.00  0.00     0.010 A 
ATOM     35  C   UNL     1       0.016   4.660  -7.447  1.00  0.00    -0.014 A 
BRANCH  35  36
ATOM     36  C   UNL     1       0.186   5.678  -8.514  1.00  0.00     0.031 A 
ATOM     37  C   UNL     1       1.216   5.457  -9.591  1.00  0.00     0.074 A 
ATOM     38  C   UNL     1      -0.543   6.811  -8.489  1.00  0.00     0.049 A 
ATOM     39  N   UNL     1       1.574   6.245 -10.572  1.00  0.00    -0.248 NA
ATOM     40  C   UNL     1       1.973   4.196  -9.534  1.00  0.00     0.031 C 
ATOM     41  C   UNL     1      -1.539   7.154  -7.471  1.00  0.00     0.029 A 
ATOM     42  N   UNL     1      -0.559   7.886  -9.342  1.00  0.00    -0.354 N 
ATOM     43  C   UNL     1       2.605   5.584 -11.232  1.00  0.00     0.074 A 
ATOM     44  C   UNL     1       2.869   4.372 -10.491  1.00  0.00     0.031 C 
ATOM     45  C   UNL     1      -2.094   8.338  -7.780  1.00  0.00     0.029 A 
ATOM     46  C   UNL     1      -1.460   8.863  -8.985  1.00  0.00     0.049 A 
ATOM     47  H   UNL     1       0.020   7.951 -10.135  1.00  0.00     0.167 HD
ATOM     48  C   UNL     1       3.250   5.939 -12.370  1.00  0.00     0.034 A 
ATOM     49  C   UNL     1      -1.736  10.049  -9.562  1.00  0.00     0.034 A 
ATOM     50  C   UNL     1       2.958   7.144 -13.104  1.00  0.00     0.049 A 
ATOM     51  C   UNL     1      -0.994  10.433 -10.818  1.00  0.00     0.074 A 
ATOM     52  C   UNL     1       3.511   7.584 -14.294  1.00  0.00     0.029 A 
ATOM     53  N   UNL     1       2.033   8.107 -12.716  1.00  0.00    -0.354 N 
ATOM     54  N   UNL     1      -0.055   9.774 -11.459  1.00  0.00    -0.248 NA
ATOM     55  C   UNL     1      -1.361  11.711 -11.439  1.00  0.00     0.031 C 
ATOM     56  C   UNL     1       2.978   8.844 -14.584  1.00  0.00     0.029 A 
ATOM     57  C   UNL     1       2.022   9.151 -13.628  1.00  0.00     0.049 A 
ATOM     58  H   UNL     1       1.469   8.055 -11.912  1.00  0.00     0.167 HD
ATOM     59  C   UNL     1       0.249  10.540 -12.581  1.00  0.00     0.074 A 
ATOM     60  C   UNL     1      -0.615  11.702 -12.533  1.00  0.00     0.031 C 
ATOM     61  C   UNL     1       1.154  10.304 -13.566  1.00  0.00     0.034 A 
BRANCH  48  62
ATOM     62  C   UNL     1       4.344   5.022 -12.865  1.00  0.00     0.023 A 
ATOM     63  C   UNL     1       4.085   3.687 -13.226  1.00  0.00     0.031 A 
ATOM     64  C   UNL     1       5.672   5.476 -12.946  1.00  0.00     0.131 A 
ATOM     65  C   UNL     1       5.145   2.833 -13.567  1.00  0.00     0.055 A 
ATOM     66  C   UNL     1       6.710   4.646 -13.376  1.00  0.00     0.041 A 
ATOM     67  F   UNL     1       5.989   6.731 -12.593  1.00  0.00    -0.206 F 
ATOM     68  C   UNL     1       6.453   3.311 -13.673  1.00  0.00     0.022 A 
BRANCH  65  69
ATOM     69  S   UNL     1       4.812   1.056 -13.712  1.00  0.00     0.124 S 
ATOM     70  O   UNL     1       4.287   0.745 -12.384  1.00  0.00    -0.237 OA
ATOM     71  O   UNL     1       3.851   1.002 -14.807  1.00  0.00    -0.237 OA
ATOM     72  O   UNL     1       6.125   0.483 -14.004  1.00  0.00    -0.744 OA
ENDBRANCH  65  69
ENDBRANCH  48  62
BRANCH  49  73
ATOM     73  C   UNL     1      -2.756  10.962  -8.967  1.00  0.00     0.023 A 
ATOM     74  C   UNL     1      -3.923  11.302  -9.670  1.00  0.00     0.031 A 
ATOM     75  C   UNL     1      -2.556  11.547  -7.704  1.00  0.00     0.131 A 
ATOM     76  C   UNL     1      -4.817  12.242  -9.133  1.00  0.00     0.055 A 
ATOM     77  C   UNL     1      -3.478  12.435  -7.147  1.00  0.00     0.041 A 
ATOM     78  F   UNL     1      -1.460  11.255  -6.986  1.00  0.00    -0.206 F 
ATOM     79  C   UNL     1      -4.610  12.799  -7.869  1.00  0.00     0.022 A 
BRANCH  76  80
ATOM     80  S   UNL     1      -6.207  12.802 -10.155  1.00  0.00     0.124 S 
ATOM     81  O   UNL     1      -5.519  13.320 -11.331  1.00  0.00    -0.237 OA
ATOM     82  O   UNL     1      -6.961  11.567 -10.343  1.00  0.00    -0.237 OA
ATOM     83  O   UNL     1      -6.860  13.807  -9.318  1.00  0.00    -0.744 OA
ENDBRANCH  76  80
ENDBRANCH  49  73
BRANCH  61  84
ATOM     84  C   UNL     1       1.204  11.291 -14.708  1.00  0.00     0.023 A 
ATOM     85  C   UNL     1       1.600  12.627 -14.524  1.00  0.00     0.031 A 
ATOM     86  C   UNL     1       0.836  10.884 -16.004  1.00  0.00     0.131 A 
ATOM     87  C   UNL     1       1.555  13.523 -15.603  1.00  0.00     0.055 A 
ATOM     88  C   UNL     1       0.864  11.762 -17.087  1.00  0.00     0.041 A 
ATOM     89  F   UNL     1       0.445   9.621 -16.239  1.00  0.00    -0.206 F 
ATOM     90  C   UNL     1       1.209  13.094 -16.887  1.00  0.00     0.022 A 
BRANCH  87  91
ATOM     91  S   UNL     1       1.843  15.285 -15.282  1.00  0.00     0.124 S 
ATOM     92  O   UNL     1       0.831  15.579 -14.273  1.00  0.00    -0.237 OA
ATOM     93  O   UNL     1       3.227  15.295 -14.819  1.00  0.00    -0.237 OA
ATOM     94  O   UNL     1       1.621  15.911 -16.584  1.00  0.00    -0.744 OA
ENDBRANCH  87  91
ENDBRANCH  61  84
ENDBRANCH  35  36
ENDBRANCH  27  30
ENDBRANCH  25  26
ENDBRANCH   1  25
TORSDOF 16
