REMARK SMILES O=C(CCc1ccc(S(=O)(=O)Nc2cccc(I)c2)cc1)NCCCNC(=O)c1ccc(-c2c3nc(c(-c4cc(S(=O)(=O)[O-])ccc4F)c4ccc([nH]4)c(-c4cc(S(=O)(=O)[O-])ccc4F)c4nc(c(-c5cc(S(=O)(=O)[O-])ccc5F)c5ccc2[nH]5)C=C4)C=C3)cc1
REMARK SMILES IDX 23 1 22 2 1 3 2 4 3 6 4 7 5 8 6 9 21 10 7 11 20 12 8 13 9 14
REMARK SMILES IDX 10 15 11 16 12 17 13 19 14 20 19 21 15 22 17 23 16 24 18 25
REMARK SMILES IDX 24 26 25 27 26 28 27 29 28 31 29 32 30 33 91 34 31 35 90 36
REMARK SMILES IDX 32 37 33 38 34 39 84 40 35 41 89 42 83 43 85 44 36 45 88 46
REMARK SMILES IDX 82 47 81 48 37 50 69 51 49 52 68 53 50 54 53 55 67 56 86 57
REMARK SMILES IDX 51 58 52 59 66 61 87 62 54 63 38 64 39 65 47 66 40 67 46 68
REMARK SMILES IDX 48 69 45 70 41 71 42 72 43 73 44 74 70 75 71 76 79 77 72 78
REMARK SMILES IDX 78 79 80 80 77 81 73 82 74 83 75 84 76 85 55 86 56 87 64 88
REMARK SMILES IDX 57 89 63 90 65 91 62 92 58 93 59 94 60 95 61 96
REMARK H PARENT 22 5 12 18 26 30 85 49 53 60
REMARK Flexibility Score: inf
ROOT
ATOM      1  C   UNL     1       1.659  -0.603  -2.471  1.00  0.00     0.117 C 
ENDROOT
BRANCH   1   2
ATOM      2  N   UNL     1       2.331  -0.434  -1.201  1.00  0.00    -0.356 N 
ATOM      3  O   UNL     1       0.507  -0.703   0.161  1.00  0.00    -0.275 OA
ATOM      4  C   UNL     1       1.711  -0.506   0.022  1.00  0.00     0.220 C 
ATOM      5  H   UNL     1       3.300  -0.256  -1.214  1.00  0.00     0.163 HD
BRANCH   4   6
ATOM      6  C   UNL     1       2.615  -0.254   1.221  1.00  0.00     0.105 C 
BRANCH   6   7
ATOM      7  C   UNL     1       3.700  -1.317   1.438  1.00  0.00     0.045 C 
BRANCH   7   8
ATOM      8  C   UNL     1       4.852  -1.329   0.457  1.00  0.00    -0.047 A 
ATOM      9  C   UNL     1       5.452  -2.545   0.095  1.00  0.00     0.005 A 
ATOM     10  C   UNL     1       5.355  -0.148  -0.100  1.00  0.00     0.005 A 
ATOM     11  C   UNL     1       6.522  -2.574  -0.807  1.00  0.00     0.022 A 
ATOM     12  C   UNL     1       6.353  -0.186  -1.072  1.00  0.00     0.022 A 
ATOM     13  C   UNL     1       6.984  -1.387  -1.383  1.00  0.00     0.087 A 
BRANCH  13  14
ATOM     14  S   UNL     1       8.452  -1.478  -2.397  1.00  0.00     0.261 S 
ATOM     15  O   UNL     1       9.562  -1.687  -1.488  1.00  0.00    -0.201 OA
ATOM     16  O   UNL     1       8.156  -2.432  -3.440  1.00  0.00    -0.201 OA
BRANCH  14  17
ATOM     17  N   UNL     1       8.639  -0.006  -3.167  1.00  0.00    -0.280 N 
ATOM     18  H   UNL     1       8.609  -0.015  -4.151  1.00  0.00     0.180 HD
BRANCH  17  19
ATOM     19  C   UNL     1       8.838   1.261  -2.545  1.00  0.00     0.050 A 
ATOM     20  C   UNL     1       8.605   2.391  -3.335  1.00  0.00     0.027 A 
ATOM     21  C   UNL     1       9.085   1.425  -1.179  1.00  0.00     0.041 A 
ATOM     22  C   UNL     1       8.486   3.654  -2.752  1.00  0.00     0.003 A 
ATOM     23  C   UNL     1       8.934   2.685  -0.594  1.00  0.00     0.015 A 
ATOM     24  C   UNL     1       8.617   3.797  -1.372  1.00  0.00     0.015 A 
ATOM     25  I   UNL     1       9.063   2.876   1.474  1.00  0.00    -0.044 I 
ENDBRANCH  17  19
ENDBRANCH  14  17
ENDBRANCH  13  14
ENDBRANCH   7   8
ENDBRANCH   6   7
ENDBRANCH   4   6
ENDBRANCH   1   2
BRANCH   1  26
ATOM     26  C   UNL     1       1.952   0.544  -3.438  1.00  0.00     0.042 C 
BRANCH  26  27
ATOM     27  C   UNL     1       3.424   0.758  -3.795  1.00  0.00     0.118 C 
BRANCH  27  28
ATOM     28  N   UNL     1       4.030  -0.364  -4.495  1.00  0.00    -0.352 N 
ATOM     29  C   UNL     1       4.777  -0.386  -5.651  1.00  0.00     0.251 C 
ATOM     30  H   UNL     1       3.883  -1.244  -4.078  1.00  0.00     0.163 HD
ATOM     31  O   UNL     1       5.070  -1.467  -6.154  1.00  0.00    -0.269 OA
BRANCH  29  32
ATOM     32  C   UNL     1       5.216   0.870  -6.307  1.00  0.00     0.039 A 
ATOM     33  C   UNL     1       5.163   0.958  -7.704  1.00  0.00     0.014 A 
ATOM     34  C   UNL     1       5.707   1.947  -5.567  1.00  0.00     0.014 A 
ATOM     35  C   UNL     1       5.517   2.149  -8.348  1.00  0.00     0.010 A 
ATOM     36  C   UNL     1       6.019   3.148  -6.204  1.00  0.00     0.010 A 
ATOM     37  C   UNL     1       5.910   3.267  -7.598  1.00  0.00    -0.014 A 
BRANCH  37  38
ATOM     38  C   UNL     1       6.157   4.591  -8.227  1.00  0.00     0.031 A 
ATOM     39  C   UNL     1       7.537   5.184  -8.235  1.00  0.00     0.074 A 
ATOM     40  C   UNL     1       5.110   5.311  -8.674  1.00  0.00     0.049 A 
ATOM     41  N   UNL     1       7.917   6.392  -8.562  1.00  0.00    -0.248 NA
ATOM     42  C   UNL     1       8.627   4.307  -7.786  1.00  0.00     0.031 C 
ATOM     43  C   UNL     1       3.718   4.856  -8.691  1.00  0.00     0.029 A 
ATOM     44  N   UNL     1       5.047   6.591  -9.168  1.00  0.00    -0.354 N 
ATOM     45  C   UNL     1       9.291   6.430  -8.349  1.00  0.00     0.074 A 
ATOM     46  C   UNL     1       9.664   5.132  -7.821  1.00  0.00     0.031 C 
ATOM     47  C   UNL     1       2.939   5.845  -9.156  1.00  0.00     0.029 A 
ATOM     48  C   UNL     1       3.765   7.016  -9.430  1.00  0.00     0.049 A 
ATOM     49  H   UNL     1       5.843   7.150  -9.319  1.00  0.00     0.167 HD
ATOM     50  C   UNL     1      10.158   7.448  -8.584  1.00  0.00     0.034 A 
ATOM     51  C   UNL     1       3.303   8.221  -9.819  1.00  0.00     0.034 A 
ATOM     52  C   UNL     1       9.771   8.731  -9.121  1.00  0.00     0.049 A 
ATOM     53  C   UNL     1       4.279   9.343 -10.051  1.00  0.00     0.074 A 
ATOM     54  C   UNL     1      10.577   9.810  -9.444  1.00  0.00     0.029 A 
ATOM     55  N   UNL     1       8.467   9.113  -9.409  1.00  0.00    -0.354 N 
ATOM     56  N   UNL     1       5.579   9.354  -9.874  1.00  0.00    -0.248 NA
ATOM     57  C   UNL     1       3.727  10.611 -10.547  1.00  0.00     0.031 C 
ATOM     58  C   UNL     1       9.757  10.861  -9.874  1.00  0.00     0.029 A 
ATOM     59  C   UNL     1       8.445  10.417  -9.882  1.00  0.00     0.049 A 
ATOM     60  H   UNL     1       7.673   8.542  -9.295  1.00  0.00     0.167 HD
ATOM     61  C   UNL     1       6.004  10.617 -10.274  1.00  0.00     0.074 A 
ATOM     62  C   UNL     1       4.823  11.341 -10.698  1.00  0.00     0.031 C 
ATOM     63  C   UNL     1       7.261  11.128 -10.301  1.00  0.00     0.034 A 
BRANCH  50  64
ATOM     64  C   UNL     1      11.607   7.218  -8.233  1.00  0.00     0.023 A 
ATOM     65  C   UNL     1      12.379   6.247  -8.892  1.00  0.00     0.031 A 
ATOM     66  C   UNL     1      12.221   7.967  -7.213  1.00  0.00     0.131 A 
ATOM     67  C   UNL     1      13.695   5.997  -8.474  1.00  0.00     0.055 A 
ATOM     68  C   UNL     1      13.557   7.768  -6.856  1.00  0.00     0.041 A 
ATOM     69  F   UNL     1      11.528   8.895  -6.535  1.00  0.00    -0.206 F 
ATOM     70  C   UNL     1      14.297   6.767  -7.477  1.00  0.00     0.022 A 
BRANCH  67  71
ATOM     71  S   UNL     1      14.556   4.554  -9.155  1.00  0.00     0.124 S 
ATOM     72  O   UNL     1      13.660   3.468  -8.764  1.00  0.00    -0.237 OA
ATOM     73  O   UNL     1      14.605   4.860 -10.580  1.00  0.00    -0.237 OA
ATOM     74  O   UNL     1      15.845   4.568  -8.467  1.00  0.00    -0.744 OA
ENDBRANCH  67  71
ENDBRANCH  50  64
BRANCH  51  75
ATOM     75  C   UNL     1       1.841   8.437  -9.996  1.00  0.00     0.023 A 
ATOM     76  C   UNL     1       1.295   8.661 -11.268  1.00  0.00     0.031 A 
ATOM     77  C   UNL     1       0.973   8.448  -8.890  1.00  0.00     0.131 A 
ATOM     78  C   UNL     1      -0.075   8.926 -11.402  1.00  0.00     0.055 A 
ATOM     79  C   UNL     1      -0.398   8.669  -9.033  1.00  0.00     0.041 A 
ATOM     80  F   UNL     1       1.446   8.229  -7.653  1.00  0.00    -0.206 F 
ATOM     81  C   UNL     1      -0.928   8.921 -10.295  1.00  0.00     0.022 A 
BRANCH  78  82
ATOM     82  S   UNL     1      -0.719   9.345 -13.045  1.00  0.00     0.124 S 
ATOM     83  O   UNL     1       0.072  10.523 -13.382  1.00  0.00    -0.237 OA
ATOM     84  O   UNL     1      -0.423   8.134 -13.803  1.00  0.00    -0.237 OA
ATOM     85  O   UNL     1      -2.138   9.594 -12.800  1.00  0.00    -0.744 OA
ENDBRANCH  78  82
ENDBRANCH  51  75
BRANCH  63  86
ATOM     86  C   UNL     1       7.425  12.514 -10.870  1.00  0.00     0.023 A 
ATOM     87  C   UNL     1       6.969  13.656 -10.190  1.00  0.00     0.031 A 
ATOM     88  C   UNL     1       8.047  12.687 -12.120  1.00  0.00     0.131 A 
ATOM     89  C   UNL     1       7.104  14.920 -10.785  1.00  0.00     0.055 A 
ATOM     90  C   UNL     1       8.220  13.951 -12.684  1.00  0.00     0.041 A 
ATOM     91  F   UNL     1       8.499  11.628 -12.809  1.00  0.00    -0.206 F 
ATOM     92  C   UNL     1       7.738  15.076 -12.021  1.00  0.00     0.022 A 
BRANCH  89  93
ATOM     93  S   UNL     1       6.382  16.359  -9.949  1.00  0.00     0.124 S 
ATOM     94  O   UNL     1       4.966  16.007  -9.906  1.00  0.00    -0.237 OA
ATOM     95  O   UNL     1       7.078  16.358  -8.666  1.00  0.00    -0.237 OA
ATOM     96  O   UNL     1       6.717  17.474 -10.833  1.00  0.00    -0.744 OA
ENDBRANCH  89  93
ENDBRANCH  63  86
ENDBRANCH  37  38
ENDBRANCH  29  32
ENDBRANCH  27  28
ENDBRANCH  26  27
ENDBRANCH   1  26
TORSDOF 18
