REMARK SMILES O=C(NCCCNC(=O)[C@@H]1CC(=O)N(c2ccc(Cl)cc2C(=O)c2ccccc2)C1)c1ccc(-c2c3nc(c(-c4cc(S(=O)(=O)[O-])ccc4F)c4ccc([nH]4)c(-c4cc(S(=O)(=O)[O-])ccc4F)c4nc(c(-c5cc(S(=O)(=O)[O-])ccc5F)c5ccc2[nH]5)C=C4)C=C3)cc1
REMARK SMILES IDX 5 1 4 2 3 3 1 4 2 5 31 7 32 8 93 9 33 10 92 11 34 12 35 13
REMARK SMILES IDX 36 14 86 15 37 16 91 17 85 18 87 19 38 20 90 21 84 22 83 23
REMARK SMILES IDX 39 25 71 26 51 27 70 28 52 29 55 30 69 31 88 32 53 33 54 34
REMARK SMILES IDX 68 36 89 37 56 38 40 39 41 40 49 41 42 42 48 43 50 44 47 45
REMARK SMILES IDX 43 46 44 47 45 48 46 49 72 50 73 51 81 52 74 53 80 54 82 55
REMARK SMILES IDX 79 56 75 57 76 58 77 59 78 60 57 61 58 62 66 63 59 64 65 65
REMARK SMILES IDX 67 66 64 67 60 68 61 69 62 70 63 71 6 72 7 73 8 74 9 76
REMARK SMILES IDX 10 77 11 78 30 79 12 80 14 81 13 82 15 83 16 84 21 85 17 86
REMARK SMILES IDX 20 87 18 88 19 89 22 90 23 91 24 92 25 93 29 94 26 95 28 96
REMARK SMILES IDX 27 97
REMARK H PARENT 3 6 87 24 55 35 7 75
REMARK Flexibility Score: inf
ROOT
ATOM      1  C   UNL     1       4.160   0.992  -1.125  1.00  0.00     0.042 C 
ENDROOT
BRANCH   1   2
ATOM      2  C   UNL     1       3.641   1.917  -0.043  1.00  0.00     0.118 C 
BRANCH   2   3
ATOM      3  N   UNL     1       2.308   1.516   0.391  1.00  0.00    -0.352 N 
ATOM      4  O   UNL     1       0.688   0.094   1.019  1.00  0.00    -0.269 OA
ATOM      5  C   UNL     1       1.886   0.367   1.030  1.00  0.00     0.251 C 
ATOM      6  H   UNL     1       1.595   2.167   0.198  1.00  0.00     0.163 HD
BRANCH   5   7
ATOM      7  C   UNL     1       2.852  -0.543   1.702  1.00  0.00     0.039 A 
ATOM      8  C   UNL     1       4.042  -0.051   2.221  1.00  0.00     0.014 A 
ATOM      9  C   UNL     1       2.545  -1.896   1.899  1.00  0.00     0.014 A 
ATOM     10  C   UNL     1       4.990  -0.897   2.762  1.00  0.00     0.010 A 
ATOM     11  C   UNL     1       3.410  -2.711   2.649  1.00  0.00     0.010 A 
ATOM     12  C   UNL     1       4.636  -2.205   3.106  1.00  0.00    -0.014 A 
BRANCH  12  13
ATOM     13  C   UNL     1       5.513  -2.891   4.094  1.00  0.00     0.031 A 
ATOM     14  C   UNL     1       6.182  -4.194   3.787  1.00  0.00     0.074 A 
ATOM     15  C   UNL     1       5.765  -2.246   5.257  1.00  0.00     0.049 A 
ATOM     16  N   UNL     1       7.010  -4.880   4.532  1.00  0.00    -0.248 NA
ATOM     17  C   UNL     1       5.874  -4.818   2.494  1.00  0.00     0.031 C 
ATOM     18  C   UNL     1       5.145  -0.975   5.664  1.00  0.00     0.029 A 
ATOM     19  N   UNL     1       6.638  -2.512   6.279  1.00  0.00    -0.354 N 
ATOM     20  C   UNL     1       7.313  -6.027   3.808  1.00  0.00     0.074 A 
ATOM     21  C   UNL     1       6.546  -5.958   2.580  1.00  0.00     0.031 C 
ATOM     22  C   UNL     1       5.743  -0.518   6.769  1.00  0.00     0.029 A 
ATOM     23  C   UNL     1       6.681  -1.524   7.240  1.00  0.00     0.049 A 
ATOM     24  H   UNL     1       7.184  -3.330   6.323  1.00  0.00     0.167 HD
ATOM     25  C   UNL     1       8.158  -7.033   4.143  1.00  0.00     0.034 A 
ATOM     26  C   UNL     1       7.365  -1.444   8.397  1.00  0.00     0.034 A 
ATOM     27  C   UNL     1       8.906  -7.071   5.380  1.00  0.00     0.049 A 
ATOM     28  C   UNL     1       8.265  -2.593   8.753  1.00  0.00     0.074 A 
ATOM     29  C   UNL     1       9.773  -8.050   5.834  1.00  0.00     0.029 A 
ATOM     30  N   UNL     1       8.879  -6.085   6.361  1.00  0.00    -0.354 N 
ATOM     31  N   UNL     1       8.517  -3.683   8.065  1.00  0.00    -0.248 NA
ATOM     32  C   UNL     1       8.965  -2.508  10.037  1.00  0.00     0.031 C 
ATOM     33  C   UNL     1      10.219  -7.689   7.110  1.00  0.00     0.029 A 
ATOM     34  C   UNL     1       9.698  -6.444   7.424  1.00  0.00     0.049 A 
ATOM     35  H   UNL     1       8.355  -5.253   6.310  1.00  0.00     0.167 HD
ATOM     36  C   UNL     1       9.412  -4.415   8.835  1.00  0.00     0.074 A 
ATOM     37  C   UNL     1       9.690  -3.615  10.013  1.00  0.00     0.031 C 
ATOM     38  C   UNL     1       9.945  -5.641   8.600  1.00  0.00     0.034 A 
BRANCH  25  39
ATOM     39  C   UNL     1       8.277  -8.189   3.178  1.00  0.00     0.023 A 
ATOM     40  C   UNL     1       8.798  -8.024   1.883  1.00  0.00     0.031 A 
ATOM     41  C   UNL     1       7.845  -9.475   3.552  1.00  0.00     0.131 A 
ATOM     42  C   UNL     1       8.816  -9.106   0.990  1.00  0.00     0.055 A 
ATOM     43  C   UNL     1       7.937 -10.565   2.685  1.00  0.00     0.041 A 
ATOM     44  F   UNL     1       7.316  -9.692   4.767  1.00  0.00    -0.206 F 
ATOM     45  C   UNL     1       8.413 -10.382   1.391  1.00  0.00     0.022 A 
BRANCH  42  46
ATOM     46  S   UNL     1       9.253  -8.797  -0.744  1.00  0.00     0.124 S 
ATOM     47  O   UNL     1       8.227  -7.835  -1.141  1.00  0.00    -0.237 OA
ATOM     48  O   UNL     1      10.611  -8.275  -0.640  1.00  0.00    -0.237 OA
ATOM     49  O   UNL     1       9.137 -10.114  -1.368  1.00  0.00    -0.744 OA
ENDBRANCH  42  46
ENDBRANCH  25  39
BRANCH  26  50
ATOM     50  C   UNL     1       7.163  -0.292   9.327  1.00  0.00     0.023 A 
ATOM     51  C   UNL     1       8.230   0.528   9.726  1.00  0.00     0.031 A 
ATOM     52  C   UNL     1       5.892  -0.022   9.873  1.00  0.00     0.131 A 
ATOM     53  C   UNL     1       8.018   1.539  10.677  1.00  0.00     0.055 A 
ATOM     54  C   UNL     1       5.672   1.032  10.759  1.00  0.00     0.041 A 
ATOM     55  F   UNL     1       4.832  -0.775   9.536  1.00  0.00    -0.206 F 
ATOM     56  C   UNL     1       6.744   1.809  11.181  1.00  0.00     0.022 A 
BRANCH  53  57
ATOM     57  S   UNL     1       9.456   2.421  11.345  1.00  0.00     0.124 S 
ATOM     58  O   UNL     1      10.287   1.320  11.818  1.00  0.00    -0.237 OA
ATOM     59  O   UNL     1       9.945   3.135  10.170  1.00  0.00    -0.237 OA
ATOM     60  O   UNL     1       8.882   3.264  12.391  1.00  0.00    -0.744 OA
ENDBRANCH  53  57
ENDBRANCH  26  50
BRANCH  38  61
ATOM     61  C   UNL     1      10.910  -6.157   9.639  1.00  0.00     0.023 A 
ATOM     62  C   UNL     1      10.495  -6.437  10.953  1.00  0.00     0.031 A 
ATOM     63  C   UNL     1      12.270  -6.316   9.326  1.00  0.00     0.131 A 
ATOM     64  C   UNL     1      11.444  -6.778  11.927  1.00  0.00     0.055 A 
ATOM     65  C   UNL     1      13.198  -6.731  10.281  1.00  0.00     0.041 A 
ATOM     66  F   UNL     1      12.723  -6.057   8.089  1.00  0.00    -0.206 F 
ATOM     67  C   UNL     1      12.790  -6.946  11.595  1.00  0.00     0.022 A 
BRANCH  64  68
ATOM     68  S   UNL     1      10.916  -6.865  13.660  1.00  0.00     0.124 S 
ATOM     69  O   UNL     1      10.364  -5.532  13.875  1.00  0.00    -0.237 OA
ATOM     70  O   UNL     1       9.950  -7.959  13.637  1.00  0.00    -0.237 OA
ATOM     71  O   UNL     1      12.155  -7.148  14.381  1.00  0.00    -0.744 OA
ENDBRANCH  64  68
ENDBRANCH  38  61
ENDBRANCH  12  13
ENDBRANCH   5   7
ENDBRANCH   2   3
ENDBRANCH   1   2
BRANCH   1  72
ATOM     72  C   UNL     1       3.686   1.493  -2.477  1.00  0.00     0.117 C 
BRANCH  72  73
ATOM     73  N   UNL     1       4.684   2.450  -3.019  1.00  0.00    -0.356 N 
ATOM     74  C   UNL     1       5.736   2.609  -3.989  1.00  0.00     0.225 C 
ATOM     75  H   UNL     1       4.590   3.299  -2.529  1.00  0.00     0.163 HD
ATOM     76  O   UNL     1       6.094   3.738  -3.475  1.00  0.00    -0.275 OA
BRANCH  74  77
ATOM     77  C   UNL     1       6.466   1.517  -5.737  1.00  0.00     0.107 C 
ATOM     78  C   UNL     1       5.784   1.265  -7.353  1.00  0.00     0.116 C 
ATOM     79  C   UNL     1       7.034  -0.103  -5.919  1.00  0.00     0.139 C 
ATOM     80  C   UNL     1       5.211  -0.148  -7.363  1.00  0.00     0.227 C 
ATOM     81  N   UNL     1       5.897  -0.877  -6.385  1.00  0.00    -0.311 N 
ATOM     82  O   UNL     1       4.239  -0.481  -8.024  1.00  0.00    -0.274 OA
BRANCH  81  83
ATOM     83  C   UNL     1       5.239  -1.883  -5.606  1.00  0.00     0.055 A 
ATOM     84  C   UNL     1       4.479  -2.872  -6.244  1.00  0.00     0.028 A 
ATOM     85  C   UNL     1       5.267  -1.900  -4.192  1.00  0.00     0.048 A 
ATOM     86  C   UNL     1       3.826  -3.870  -5.505  1.00  0.00     0.023 A 
ATOM     87  C   UNL     1       4.642  -2.915  -3.452  1.00  0.00     0.035 A 
ATOM     88  C   UNL     1       3.921  -3.895  -4.115  1.00  0.00     0.041 A 
ATOM     89  Cl  UNL     1       3.097  -5.107  -3.217  1.00  0.00    -0.084 Cl
BRANCH  85  90
ATOM     90  C   UNL     1       5.846  -0.801  -3.404  1.00  0.00     0.195 C 
ATOM     91  O   UNL     1       6.377  -0.996  -2.320  1.00  0.00    -0.289 OA
BRANCH  90  92
ATOM     92  C   UNL     1       5.875   0.556  -3.976  1.00  0.00     0.023 A 
ATOM     93  C   UNL     1       7.441   1.424  -3.812  1.00  0.00     0.012 A 
ATOM     94  C   UNL     1       4.557   1.262  -5.027  1.00  0.00     0.012 A 
ATOM     95  C   UNL     1       7.732   2.947  -4.685  1.00  0.00     0.001 A 
ATOM     96  C   UNL     1       4.813   2.876  -5.795  1.00  0.00     0.001 A 
ATOM     97  C   UNL     1       6.417   3.666  -5.693  1.00  0.00     0.000 A 
ENDBRANCH  90  92
ENDBRANCH  85  90
ENDBRANCH  81  83
ENDBRANCH  74  77
ENDBRANCH  72  73
ENDBRANCH   1  72
TORSDOF 16
