REMARK SMILES COC(=O)c1ccccc1-c1ccc(/C=C(\C#N)C(=O)NCCCNC(=O)c2ccc(-c3c4nc(c(-c5cc(S(=O)(=O)[O-])ccc5F)c5ccc([nH]5)c(-c5cc(S(=O)(=O)[O-])ccc5F)c5nc(c(-c6cc(S(=O)(=O)[O-])ccc6F)c6ccc3[nH]6)C=C5)C=C4)cc2)o1
REMARK SMILES IDX 22 1 21 2 19 3 20 4 16 6 15 7 14 8 11 9 12 10 91 11 13 12
REMARK SMILES IDX 10 13 5 14 6 15 7 16 9 17 8 18 3 19 4 20 2 21 1 22 17 23
REMARK SMILES IDX 18 24 23 25 24 26 25 27 26 28 27 30 28 31 29 32 90 33 30 34
REMARK SMILES IDX 89 35 31 36 32 37 33 38 83 39 34 40 88 41 82 42 84 43 35 44
REMARK SMILES IDX 87 45 81 46 80 47 36 49 68 50 48 51 67 52 49 53 52 54 66 55
REMARK SMILES IDX 85 56 50 57 51 58 65 60 86 61 53 62 37 63 38 64 46 65 39 66
REMARK SMILES IDX 45 67 47 68 44 69 40 70 41 71 42 72 43 73 69 74 70 75 78 76
REMARK SMILES IDX 71 77 77 78 79 79 76 80 72 81 73 82 74 83 75 84 54 85 55 86
REMARK SMILES IDX 63 87 56 88 62 89 64 90 61 91 57 92 58 93 59 94 60 95
REMARK H PARENT 21 5 25 29 84 48 52 59
REMARK Flexibility Score: inf
ROOT
ATOM      1  C   UNL     1      -4.545   5.592   4.359  1.00  0.00     0.118 C 
ENDROOT
BRANCH   1   2
ATOM      2  N   UNL     1      -4.674   5.541   2.912  1.00  0.00    -0.351 N 
ATOM      3  C   UNL     1      -4.318   4.613   1.985  1.00  0.00     0.262 C 
ATOM      4  O   UNL     1      -4.631   4.856   0.816  1.00  0.00    -0.268 OA
ATOM      5  H   UNL     1      -5.106   6.337   2.526  1.00  0.00     0.163 HD
BRANCH   3   6
ATOM      6  C   UNL     1      -3.616   3.338   2.324  1.00  0.00     0.120 C 
ATOM      7  C   UNL     1      -3.620   2.381   1.372  1.00  0.00     0.072 C 
BRANCH   7   8
ATOM      8  C   UNL     1      -3.026   1.093   1.515  1.00  0.00     0.129 A 
ATOM      9  C   UNL     1      -1.836  -0.572   2.398  1.00  0.00     0.135 A 
ATOM     10  C   UNL     1      -2.261  -1.022   1.171  1.00  0.00     0.051 A 
ATOM     11  O   UNL     1      -2.321   0.677   2.619  1.00  0.00    -0.457 OA
ATOM     12  C   UNL     1      -3.018   0.037   0.609  1.00  0.00     0.051 A 
BRANCH   9  13
ATOM     13  C   UNL     1      -0.970  -1.098   3.442  1.00  0.00     0.032 A 
ATOM     14  C   UNL     1       0.358  -1.494   3.196  1.00  0.00     0.071 A 
ATOM     15  C   UNL     1       1.136  -2.055   4.221  1.00  0.00     0.016 A 
ATOM     16  C   UNL     1       0.607  -2.200   5.503  1.00  0.00     0.001 A 
ATOM     17  C   UNL     1      -1.479  -1.239   4.743  1.00  0.00     0.013 A 
ATOM     18  C   UNL     1      -0.698  -1.787   5.765  1.00  0.00     0.001 A 
BRANCH  14  19
ATOM     19  C   UNL     1       0.999  -1.355   1.871  1.00  0.00     0.338 C 
ATOM     20  O   UNL     1       1.633  -2.252   1.333  1.00  0.00    -0.246 OA
BRANCH  19  21
ATOM     21  O   UNL     1       0.812  -0.102   1.399  1.00  0.00    -0.465 OA
ATOM     22  C   UNL     1       1.311   0.117   0.081  1.00  0.00     0.282 C 
ENDBRANCH  19  21
ENDBRANCH  14  19
ENDBRANCH   9  13
ENDBRANCH   7   8
BRANCH   6  23
ATOM     23  C   UNL     1      -2.972   3.102   3.681  1.00  0.00     0.105 C 
ATOM     24  N   UNL     1      -2.438   2.905   4.806  1.00  0.00    -0.192 NA
ENDBRANCH   6  23
ENDBRANCH   3   6
ENDBRANCH   1   2
BRANCH   1  25
ATOM     25  C   UNL     1      -3.291   6.350   4.791  1.00  0.00     0.042 C 
BRANCH  25  26
ATOM     26  C   UNL     1      -3.448   7.868   4.702  1.00  0.00     0.118 C 
BRANCH  26  27
ATOM     27  N   UNL     1      -4.435   8.367   5.650  1.00  0.00    -0.352 N 
ATOM     28  C   UNL     1      -4.320   9.319   6.630  1.00  0.00     0.251 C 
ATOM     29  H   UNL     1      -5.326   7.954   5.576  1.00  0.00     0.163 HD
ATOM     30  O   UNL     1      -5.208   9.411   7.474  1.00  0.00    -0.269 OA
BRANCH  28  31
ATOM     31  C   UNL     1      -3.149  10.221   6.680  1.00  0.00     0.039 A 
ATOM     32  C   UNL     1      -2.618  10.564   7.927  1.00  0.00     0.014 A 
ATOM     33  C   UNL     1      -2.613  10.777   5.515  1.00  0.00     0.014 A 
ATOM     34  C   UNL     1      -1.523  11.428   8.003  1.00  0.00     0.010 A 
ATOM     35  C   UNL     1      -1.482  11.586   5.588  1.00  0.00     0.010 A 
ATOM     36  C   UNL     1      -0.932  11.927   6.832  1.00  0.00    -0.014 A 
BRANCH  36  37
ATOM     37  C   UNL     1       0.251  12.824   6.889  1.00  0.00     0.031 A 
ATOM     38  C   UNL     1       0.141  14.245   6.410  1.00  0.00     0.074 A 
ATOM     39  C   UNL     1       1.434  12.337   7.308  1.00  0.00     0.049 A 
ATOM     40  N   UNL     1       1.073  15.156   6.290  1.00  0.00    -0.248 NA
ATOM     41  C   UNL     1      -1.193  14.688   5.979  1.00  0.00     0.031 C 
ATOM     42  C   UNL     1       1.669  10.965   7.764  1.00  0.00     0.029 A 
ATOM     43  N   UNL     1       2.663  12.936   7.410  1.00  0.00    -0.354 N 
ATOM     44  C   UNL     1       0.443  16.274   5.753  1.00  0.00     0.074 A 
ATOM     45  C   UNL     1      -0.936  15.902   5.516  1.00  0.00     0.031 C 
ATOM     46  C   UNL     1       2.957  10.834   8.116  1.00  0.00     0.029 A 
ATOM     47  C   UNL     1       3.649  12.095   7.871  1.00  0.00     0.049 A 
ATOM     48  H   UNL     1       2.825  13.878   7.176  1.00  0.00     0.167 HD
ATOM     49  C   UNL     1       0.963  17.503   5.502  1.00  0.00     0.034 A 
ATOM     50  C   UNL     1       4.965  12.314   8.063  1.00  0.00     0.034 A 
ATOM     51  C   UNL     1       2.339  17.855   5.756  1.00  0.00     0.049 A 
ATOM     52  C   UNL     1       5.526  13.678   7.760  1.00  0.00     0.074 A 
ATOM     53  C   UNL     1       2.964  19.079   5.589  1.00  0.00     0.029 A 
ATOM     54  N   UNL     1       3.310  16.978   6.226  1.00  0.00    -0.354 N 
ATOM     55  N   UNL     1       4.912  14.739   7.288  1.00  0.00    -0.248 NA
ATOM     56  C   UNL     1       6.957  13.876   8.025  1.00  0.00     0.031 C 
ATOM     57  C   UNL     1       4.321  18.927   5.900  1.00  0.00     0.029 A 
ATOM     58  C   UNL     1       4.532  17.626   6.328  1.00  0.00     0.049 A 
ATOM     59  H   UNL     1       3.153  16.033   6.454  1.00  0.00     0.167 HD
ATOM     60  C   UNL     1       5.878  15.739   7.226  1.00  0.00     0.074 A 
ATOM     61  C   UNL     1       7.110  15.156   7.719  1.00  0.00     0.031 C 
ATOM     62  C   UNL     1       5.756  17.024   6.805  1.00  0.00     0.034 A 
BRANCH  49  63
ATOM     63  C   UNL     1       0.037  18.533   4.895  1.00  0.00     0.023 A 
ATOM     64  C   UNL     1      -1.120  18.971   5.566  1.00  0.00     0.031 A 
ATOM     65  C   UNL     1       0.281  19.044   3.609  1.00  0.00     0.131 A 
ATOM     66  C   UNL     1      -2.034  19.811   4.913  1.00  0.00     0.055 A 
ATOM     67  C   UNL     1      -0.589  19.953   2.999  1.00  0.00     0.041 A 
ATOM     68  F   UNL     1       1.357  18.652   2.909  1.00  0.00    -0.206 F 
ATOM     69  C   UNL     1      -1.765  20.326   3.643  1.00  0.00     0.022 A 
BRANCH  66  70
ATOM     70  S   UNL     1      -3.657  20.082   5.678  1.00  0.00     0.124 S 
ATOM     71  O   UNL     1      -4.159  18.714   5.795  1.00  0.00    -0.237 OA
ATOM     72  O   UNL     1      -3.310  20.745   6.929  1.00  0.00    -0.237 OA
ATOM     73  O   UNL     1      -4.361  20.913   4.703  1.00  0.00    -0.744 OA
ENDBRANCH  66  70
ENDBRANCH  49  63
BRANCH  50  74
ATOM     74  C   UNL     1       5.840  11.220   8.567  1.00  0.00     0.023 A 
ATOM     75  C   UNL     1       6.422  11.294   9.842  1.00  0.00     0.031 A 
ATOM     76  C   UNL     1       6.119  10.092   7.776  1.00  0.00     0.131 A 
ATOM     77  C   UNL     1       7.284  10.275  10.276  1.00  0.00     0.055 A 
ATOM     78  C   UNL     1       6.941   9.060   8.229  1.00  0.00     0.041 A 
ATOM     79  F   UNL     1       5.579   9.971   6.552  1.00  0.00    -0.206 F 
ATOM     80  C   UNL     1       7.538   9.153   9.483  1.00  0.00     0.022 A 
BRANCH  77  81
ATOM     81  S   UNL     1       8.117  10.466  11.876  1.00  0.00     0.124 S 
ATOM     82  O   UNL     1       8.869  11.699  11.674  1.00  0.00    -0.237 OA
ATOM     83  O   UNL     1       6.988  10.546  12.797  1.00  0.00    -0.237 OA
ATOM     84  O   UNL     1       8.923   9.252  11.986  1.00  0.00    -0.744 OA
ENDBRANCH  77  81
ENDBRANCH  50  74
BRANCH  62  85
ATOM     85  C   UNL     1       6.987  17.890   6.903  1.00  0.00     0.023 A 
ATOM     86  C   UNL     1       8.114  17.668   6.092  1.00  0.00     0.031 A 
ATOM     87  C   UNL     1       7.037  18.941   7.836  1.00  0.00     0.131 A 
ATOM     88  C   UNL     1       9.264  18.452   6.267  1.00  0.00     0.055 A 
ATOM     89  C   UNL     1       8.164  19.753   7.967  1.00  0.00     0.041 A 
ATOM     90  F   UNL     1       5.990  19.194   8.637  1.00  0.00    -0.206 F 
ATOM     91  C   UNL     1       9.291  19.503   7.188  1.00  0.00     0.022 A 
BRANCH  88  92
ATOM     92  S   UNL     1      10.760  18.025   5.333  1.00  0.00     0.124 S 
ATOM     93  O   UNL     1      11.008  16.655   5.769  1.00  0.00    -0.237 OA
ATOM     94  O   UNL     1      10.321  18.185   3.951  1.00  0.00    -0.237 OA
ATOM     95  O   UNL     1      11.741  19.008   5.789  1.00  0.00    -0.744 OA
ENDBRANCH  88  92
ENDBRANCH  62  85
ENDBRANCH  36  37
ENDBRANCH  28  31
ENDBRANCH  26  27
ENDBRANCH  25  26
ENDBRANCH   1  25
TORSDOF 18
