REMARK SMILES CC/C=C/C/C=C/C/C=C/C/C=C/CCSCCCC(=O)NCCCNC(=O)c1ccc(-c2c3nc(c(-c4cc(S(=O)(=O)[O-])ccc4F)c4ccc([nH]4)c(-c4cc(S(=O)(=O)[O-])ccc4F)c4nc(c(-c5cc(S(=O)(=O)[O-])ccc5F)c5ccc2[nH]5)C=C4)C=C3)cc1
REMARK SMILES IDX 17 1 16 2 15 3 14 4 13 5 12 6 11 7 10 8 9 9 8 10 7 11 6 12
REMARK SMILES IDX 5 13 4 14 3 15 2 16 1 17 18 18 19 19 20 20 21 21 22 22 23 24
REMARK SMILES IDX 24 25 25 26 26 27 27 28 28 30 29 31 30 32 91 33 31 34 90 35
REMARK SMILES IDX 32 36 33 37 34 38 84 39 35 40 89 41 83 42 85 43 36 44 88 45
REMARK SMILES IDX 82 46 81 47 37 49 69 50 49 51 68 52 50 53 53 54 67 55 86 56
REMARK SMILES IDX 51 57 52 58 66 60 87 61 54 62 38 63 39 64 47 65 40 66 46 67
REMARK SMILES IDX 48 68 45 69 41 70 42 71 43 72 44 73 70 74 71 75 79 76 72 77
REMARK SMILES IDX 78 78 80 79 77 80 73 81 74 82 75 83 76 84 55 85 56 86 64 87
REMARK SMILES IDX 57 88 63 89 65 90 62 91 58 92 59 93 60 94 61 95
REMARK H PARENT 22 23 26 29 85 48 53 59
REMARK Flexibility Score: inf
ROOT
ATOM      1  C   UNL     1      -6.100 -10.537  -8.977  1.00  0.00     0.070 C 
ENDROOT
BRANCH   1   2
ATOM      2  S   UNL     1      -6.504  -9.239 -10.231  1.00  0.00    -0.162 SA
BRANCH   2   3
ATOM      3  C   UNL     1      -5.475  -7.729  -9.975  1.00  0.00     0.073 C 
BRANCH   3   4
ATOM      4  C   UNL     1      -6.018  -6.583  -9.077  1.00  0.00     0.038 C 
BRANCH   4   5
ATOM      5  C   UNL     1      -5.259  -6.354  -7.791  1.00  0.00    -0.030 C 
ATOM      6  C   UNL     1      -5.447  -5.358  -6.906  1.00  0.00    -0.027 C 
BRANCH   6   7
ATOM      7  C   UNL     1      -4.927  -5.379  -5.479  1.00  0.00     0.054 C 
BRANCH   7   8
ATOM      8  C   UNL     1      -3.489  -5.781  -5.301  1.00  0.00    -0.027 C 
ATOM      9  C   UNL     1      -2.718  -5.302  -4.309  1.00  0.00    -0.027 C 
BRANCH   9  10
ATOM     10  C   UNL     1      -1.262  -5.630  -4.129  1.00  0.00     0.054 C 
BRANCH  10  11
ATOM     11  C   UNL     1      -0.453  -4.434  -4.537  1.00  0.00    -0.027 C 
ATOM     12  C   UNL     1       0.332  -3.726  -3.711  1.00  0.00    -0.027 C 
BRANCH  12  13
ATOM     13  C   UNL     1       0.951  -2.411  -4.088  1.00  0.00     0.054 C 
BRANCH  13  14
ATOM     14  C   UNL     1       0.430  -1.338  -3.175  1.00  0.00    -0.027 C 
ATOM     15  C   UNL     1       1.198  -0.597  -2.362  1.00  0.00    -0.031 C 
BRANCH  15  16
ATOM     16  C   UNL     1       0.648   0.393  -1.378  1.00  0.00     0.023 C 
ATOM     17  C   UNL     1       1.066   0.027   0.038  1.00  0.00     0.008 C 
ENDBRANCH  15  16
ENDBRANCH  13  14
ENDBRANCH  12  13
ENDBRANCH  10  11
ENDBRANCH   9  10
ENDBRANCH   7   8
ENDBRANCH   6   7
ENDBRANCH   4   5
ENDBRANCH   3   4
ENDBRANCH   2   3
ENDBRANCH   1   2
BRANCH   1  18
ATOM     18  C   UNL     1      -4.728 -10.838  -8.374  1.00  0.00     0.021 C 
BRANCH  18  19
ATOM     19  C   UNL     1      -3.994  -9.775  -7.582  1.00  0.00     0.101 C 
BRANCH  19  20
ATOM     20  C   UNL     1      -4.304  -9.603  -6.104  1.00  0.00     0.220 C 
ATOM     21  O   UNL     1      -3.406  -9.763  -5.271  1.00  0.00    -0.275 OA
ATOM     22  N   UNL     1      -5.512  -9.204  -5.634  1.00  0.00    -0.356 N 
ATOM     23  H   UNL     1      -5.609  -9.273  -4.657  1.00  0.00     0.163 HD
BRANCH  22  24
ATOM     24  C   UNL     1      -6.684  -8.694  -6.312  1.00  0.00     0.117 C 
BRANCH  24  25
ATOM     25  C   UNL     1      -7.949  -9.451  -5.956  1.00  0.00     0.042 C 
BRANCH  25  26
ATOM     26  C   UNL     1      -8.890  -8.576  -5.150  1.00  0.00     0.118 C 
BRANCH  26  27
ATOM     27  N   UNL     1      -9.589  -7.587  -5.967  1.00  0.00    -0.352 N 
ATOM     28  C   UNL     1     -10.925  -7.235  -5.914  1.00  0.00     0.251 C 
ATOM     29  H   UNL     1      -9.043  -7.115  -6.637  1.00  0.00     0.163 HD
ATOM     30  O   UNL     1     -11.405  -6.490  -6.752  1.00  0.00    -0.269 OA
BRANCH  28  31
ATOM     31  C   UNL     1     -11.761  -7.824  -4.842  1.00  0.00     0.039 A 
ATOM     32  C   UNL     1     -12.996  -8.389  -5.161  1.00  0.00     0.014 A 
ATOM     33  C   UNL     1     -11.264  -7.901  -3.540  1.00  0.00     0.014 A 
ATOM     34  C   UNL     1     -13.699  -9.094  -4.179  1.00  0.00     0.010 A 
ATOM     35  C   UNL     1     -11.893  -8.717  -2.613  1.00  0.00     0.010 A 
ATOM     36  C   UNL     1     -13.135  -9.297  -2.908  1.00  0.00    -0.014 A 
BRANCH  36  37
ATOM     37  C   UNL     1     -13.850 -10.048  -1.843  1.00  0.00     0.031 A 
ATOM     38  C   UNL     1     -14.157  -9.359  -0.537  1.00  0.00     0.074 A 
ATOM     39  C   UNL     1     -14.162 -11.347  -2.017  1.00  0.00     0.049 A 
ATOM     40  N   UNL     1     -14.684  -9.845   0.557  1.00  0.00    -0.248 NA
ATOM     41  C   UNL     1     -13.761  -7.945  -0.429  1.00  0.00     0.031 C 
ATOM     42  C   UNL     1     -13.851 -12.144  -3.207  1.00  0.00     0.029 A 
ATOM     43  N   UNL     1     -14.809 -12.231  -1.191  1.00  0.00    -0.354 N 
ATOM     44  C   UNL     1     -14.658  -8.805   1.481  1.00  0.00     0.074 A 
ATOM     45  C   UNL     1     -13.963  -7.704   0.854  1.00  0.00     0.031 C 
ATOM     46  C   UNL     1     -14.342 -13.384  -3.049  1.00  0.00     0.029 A 
ATOM     47  C   UNL     1     -14.967 -13.486  -1.734  1.00  0.00     0.049 A 
ATOM     48  H   UNL     1     -15.131 -11.990  -0.292  1.00  0.00     0.167 HD
ATOM     49  C   UNL     1     -15.208  -8.750   2.720  1.00  0.00     0.034 A 
ATOM     50  C   UNL     1     -15.553 -14.589  -1.228  1.00  0.00     0.034 A 
ATOM     51  C   UNL     1     -15.926  -9.850   3.312  1.00  0.00     0.049 A 
ATOM     52  C   UNL     1     -16.182 -14.505   0.141  1.00  0.00     0.074 A 
ATOM     53  C   UNL     1     -16.562  -9.908   4.539  1.00  0.00     0.029 A 
ATOM     54  N   UNL     1     -16.108 -11.090   2.711  1.00  0.00    -0.354 N 
ATOM     55  N   UNL     1     -16.196 -13.498   0.984  1.00  0.00    -0.248 NA
ATOM     56  C   UNL     1     -16.896 -15.697   0.614  1.00  0.00     0.031 C 
ATOM     57  C   UNL     1     -17.079 -11.198   4.702  1.00  0.00     0.029 A 
ATOM     58  C   UNL     1     -16.836 -11.922   3.546  1.00  0.00     0.049 A 
ATOM     59  H   UNL     1     -15.770 -11.340   1.821  1.00  0.00     0.167 HD
ATOM     60  C   UNL     1     -16.950 -13.925   2.074  1.00  0.00     0.074 A 
ATOM     61  C   UNL     1     -17.386 -15.273   1.769  1.00  0.00     0.031 C 
ATOM     62  C   UNL     1     -17.257 -13.266   3.222  1.00  0.00     0.034 A 
BRANCH  49  63
ATOM     63  C   UNL     1     -15.037  -7.461   3.493  1.00  0.00     0.023 A 
ATOM     64  C   UNL     1     -15.518  -6.235   2.995  1.00  0.00     0.031 A 
ATOM     65  C   UNL     1     -14.327  -7.439   4.706  1.00  0.00     0.131 A 
ATOM     66  C   UNL     1     -15.189  -5.035   3.642  1.00  0.00     0.055 A 
ATOM     67  C   UNL     1     -14.092  -6.249   5.400  1.00  0.00     0.041 A 
ATOM     68  F   UNL     1     -13.824  -8.569   5.226  1.00  0.00    -0.206 F 
ATOM     69  C   UNL     1     -14.504  -5.035   4.858  1.00  0.00     0.022 A 
BRANCH  66  70
ATOM     70  S   UNL     1     -15.507  -3.473   2.775  1.00  0.00     0.124 S 
ATOM     71  O   UNL     1     -14.713  -3.646   1.560  1.00  0.00    -0.237 OA
ATOM     72  O   UNL     1     -16.954  -3.496   2.602  1.00  0.00    -0.237 OA
ATOM     73  O   UNL     1     -15.003  -2.459   3.700  1.00  0.00    -0.744 OA
ENDBRANCH  66  70
ENDBRANCH  49  63
BRANCH  50  74
ATOM     74  C   UNL     1     -15.588 -15.856  -2.015  1.00  0.00     0.023 A 
ATOM     75  C   UNL     1     -16.801 -16.399  -2.469  1.00  0.00     0.031 A 
ATOM     76  C   UNL     1     -14.405 -16.560  -2.304  1.00  0.00     0.131 A 
ATOM     77  C   UNL     1     -16.811 -17.630  -3.144  1.00  0.00     0.055 A 
ATOM     78  C   UNL     1     -14.414 -17.758  -3.021  1.00  0.00     0.041 A 
ATOM     79  F   UNL     1     -13.216 -16.083  -1.903  1.00  0.00    -0.206 F 
ATOM     80  C   UNL     1     -15.624 -18.307  -3.435  1.00  0.00     0.022 A 
BRANCH  77  81
ATOM     81  S   UNL     1     -18.408 -18.378  -3.571  1.00  0.00     0.124 S 
ATOM     82  O   UNL     1     -19.045 -18.486  -2.263  1.00  0.00    -0.237 OA
ATOM     83  O   UNL     1     -18.973 -17.386  -4.480  1.00  0.00    -0.237 OA
ATOM     84  O   UNL     1     -18.035 -19.647  -4.191  1.00  0.00    -0.744 OA
ENDBRANCH  77  81
ENDBRANCH  50  74
BRANCH  62  85
ATOM     85  C   UNL     1     -18.153 -13.982   4.203  1.00  0.00     0.023 A 
ATOM     86  C   UNL     1     -17.744 -15.154   4.863  1.00  0.00     0.031 A 
ATOM     87  C   UNL     1     -19.445 -13.491   4.466  1.00  0.00     0.131 A 
ATOM     88  C   UNL     1     -18.643 -15.833   5.698  1.00  0.00     0.055 A 
ATOM     89  C   UNL     1     -20.309 -14.133   5.352  1.00  0.00     0.041 A 
ATOM     90  F   UNL     1     -19.888 -12.376   3.863  1.00  0.00    -0.206 F 
ATOM     91  C   UNL     1     -19.916 -15.321   5.961  1.00  0.00     0.022 A 
BRANCH  88  92
ATOM     92  S   UNL     1     -18.167 -17.460   6.344  1.00  0.00     0.124 S 
ATOM     93  O   UNL     1     -17.863 -18.195   5.120  1.00  0.00    -0.237 OA
ATOM     94  O   UNL     1     -17.025 -17.136   7.192  1.00  0.00    -0.237 OA
ATOM     95  O   UNL     1     -19.361 -17.908   7.057  1.00  0.00    -0.744 OA
ENDBRANCH  88  92
ENDBRANCH  62  85
ENDBRANCH  36  37
ENDBRANCH  28  31
ENDBRANCH  26  27
ENDBRANCH  25  26
ENDBRANCH  24  25
ENDBRANCH  22  24
ENDBRANCH  19  20
ENDBRANCH  18  19
ENDBRANCH   1  18
TORSDOF 26
