REMARK SMILES O=C(NCCCNC(=O)[C@@]1([NH2+]C2CC2)CCC[C@H]1CCn1ccnc1)c1ccc(-c2c3nc(c(-c4cc(S(=O)(=O)[O-])ccc4F)c4ccc([nH]4)c(-c4cc(S(=O)(=O)[O-])ccc4F)c4nc(c(-c5cc(S(=O)(=O)[O-])ccc5F)c5ccc2[nH]5)C=C4)C=C3)cc1
REMARK SMILES IDX 5 1 4 2 3 3 1 4 2 5 26 7 27 8 88 9 28 10 87 11 29 12 30 13
REMARK SMILES IDX 31 14 81 15 32 16 86 17 80 18 82 19 33 20 85 21 79 22 78 23
REMARK SMILES IDX 34 25 66 26 46 27 65 28 47 29 50 30 64 31 83 32 48 33 49 34
REMARK SMILES IDX 63 36 84 37 51 38 35 39 36 40 44 41 37 42 43 43 45 44 42 45
REMARK SMILES IDX 38 46 39 47 40 48 41 49 67 50 68 51 76 52 69 53 75 54 77 55
REMARK SMILES IDX 74 56 70 57 71 58 72 59 73 60 52 61 53 62 61 63 54 64 60 65
REMARK SMILES IDX 62 66 59 67 55 68 56 69 57 70 58 71 6 72 7 73 8 74 9 76
REMARK SMILES IDX 10 77 15 78 18 79 16 80 17 81 11 82 12 85 13 86 14 87 19 88
REMARK SMILES IDX 20 89 21 90 22 91 25 92 23 93 24 94
REMARK H PARENT 3 6 82 24 50 35 7 75 11 83 11 84
REMARK Flexibility Score: inf
ROOT
ATOM      1  C   UNL     1       4.965  -1.107  -1.234  1.00  0.00     0.042 C 
ENDROOT
BRANCH   1   2
ATOM      2  C   UNL     1       4.572   0.349  -0.967  1.00  0.00     0.118 C 
BRANCH   2   3
ATOM      3  N   UNL     1       3.150   0.625  -1.030  1.00  0.00    -0.352 N 
ATOM      4  O   UNL     1       1.010   0.904  -0.650  1.00  0.00    -0.269 OA
ATOM      5  C   UNL     1       2.075   0.463  -0.205  1.00  0.00     0.251 C 
ATOM      6  H   UNL     1       2.895   1.033  -1.888  1.00  0.00     0.163 HD
BRANCH   5   7
ATOM      7  C   UNL     1       2.070  -0.224   1.116  1.00  0.00     0.039 A 
ATOM      8  C   UNL     1       3.173  -0.774   1.771  1.00  0.00     0.014 A 
ATOM      9  C   UNL     1       0.803  -0.351   1.719  1.00  0.00     0.014 A 
ATOM     10  C   UNL     1       2.999  -1.521   2.940  1.00  0.00     0.010 A 
ATOM     11  C   UNL     1       0.628  -1.071   2.893  1.00  0.00     0.010 A 
ATOM     12  C   UNL     1       1.722  -1.698   3.483  1.00  0.00    -0.014 A 
BRANCH  12  13
ATOM     13  C   UNL     1       1.568  -2.376   4.774  1.00  0.00     0.031 A 
ATOM     14  C   UNL     1       2.195  -1.652   5.922  1.00  0.00     0.074 A 
ATOM     15  C   UNL     1       0.747  -3.432   4.964  1.00  0.00     0.049 A 
ATOM     16  N   UNL     1       3.099  -2.070   6.747  1.00  0.00    -0.248 NA
ATOM     17  C   UNL     1       1.856  -0.228   6.095  1.00  0.00     0.031 C 
ATOM     18  C   UNL     1      -0.148  -4.056   3.986  1.00  0.00     0.029 A 
ATOM     19  N   UNL     1       0.442  -4.100   6.116  1.00  0.00    -0.354 N 
ATOM     20  C   UNL     1       3.286  -1.042   7.673  1.00  0.00     0.074 A 
ATOM     21  C   UNL     1       2.642   0.115   7.115  1.00  0.00     0.031 C 
ATOM     22  C   UNL     1      -1.052  -4.829   4.631  1.00  0.00     0.029 A 
ATOM     23  C   UNL     1      -0.729  -4.858   6.049  1.00  0.00     0.049 A 
ATOM     24  H   UNL     1       1.000  -4.051   6.925  1.00  0.00     0.167 HD
ATOM     25  C   UNL     1       3.761  -1.281   8.927  1.00  0.00     0.034 A 
ATOM     26  C   UNL     1      -1.425  -5.407   7.085  1.00  0.00     0.034 A 
ATOM     27  C   UNL     1       4.439  -2.555   8.994  1.00  0.00     0.049 A 
ATOM     28  C   UNL     1      -0.488  -5.500   8.232  1.00  0.00     0.074 A 
ATOM     29  C   UNL     1       5.527  -3.109   8.347  1.00  0.00     0.029 A 
ATOM     30  N   UNL     1       3.778  -3.619   9.566  1.00  0.00    -0.354 N 
ATOM     31  N   UNL     1       0.568  -6.266   8.230  1.00  0.00    -0.248 NA
ATOM     32  C   UNL     1      -0.442  -4.384   9.166  1.00  0.00     0.031 C 
ATOM     33  C   UNL     1       5.157  -4.467   8.114  1.00  0.00     0.029 A 
ATOM     34  C   UNL     1       3.908  -4.678   8.701  1.00  0.00     0.049 A 
ATOM     35  H   UNL     1       3.304  -3.620  10.428  1.00  0.00     0.167 HD
ATOM     36  C   UNL     1       1.566  -5.500   8.812  1.00  0.00     0.074 A 
ATOM     37  C   UNL     1       0.864  -4.388   9.452  1.00  0.00     0.031 C 
ATOM     38  C   UNL     1       2.881  -5.676   8.484  1.00  0.00     0.034 A 
BRANCH  25  39
ATOM     39  C   UNL     1       3.305  -0.550  10.176  1.00  0.00     0.023 A 
ATOM     40  C   UNL     1       3.867  -0.957  11.403  1.00  0.00     0.031 A 
ATOM     41  C   UNL     1       2.163   0.278  10.274  1.00  0.00     0.131 A 
ATOM     42  C   UNL     1       3.237  -0.658  12.624  1.00  0.00     0.055 A 
ATOM     43  C   UNL     1       1.581   0.631  11.495  1.00  0.00     0.041 A 
ATOM     44  F   UNL     1       1.488   0.716   9.206  1.00  0.00    -0.206 F 
ATOM     45  C   UNL     1       2.093   0.132  12.678  1.00  0.00     0.022 A 
BRANCH  42  46
ATOM     46  S   UNL     1       3.824  -1.492  14.122  1.00  0.00     0.124 S 
ATOM     47  O   UNL     1       3.817  -2.889  13.702  1.00  0.00    -0.237 OA
ATOM     48  O   UNL     1       5.137  -0.882  14.308  1.00  0.00    -0.237 OA
ATOM     49  O   UNL     1       2.822  -1.135  15.123  1.00  0.00    -0.744 OA
ENDBRANCH  42  46
ENDBRANCH  25  39
BRANCH  26  50
ATOM     50  C   UNL     1      -2.913  -5.492   7.226  1.00  0.00     0.023 A 
ATOM     51  C   UNL     1      -3.574  -6.383   8.105  1.00  0.00     0.031 A 
ATOM     52  C   UNL     1      -3.714  -4.489   6.633  1.00  0.00     0.131 A 
ATOM     53  C   UNL     1      -4.968  -6.254   8.340  1.00  0.00     0.055 A 
ATOM     54  C   UNL     1      -5.085  -4.368   6.867  1.00  0.00     0.041 A 
ATOM     55  F   UNL     1      -3.171  -3.531   5.866  1.00  0.00    -0.206 F 
ATOM     56  C   UNL     1      -5.718  -5.248   7.728  1.00  0.00     0.022 A 
BRANCH  53  57
ATOM     57  S   UNL     1      -5.829  -7.352   9.520  1.00  0.00     0.124 S 
ATOM     58  O   UNL     1      -5.746  -8.651   8.851  1.00  0.00    -0.237 OA
ATOM     59  O   UNL     1      -5.045  -7.195  10.731  1.00  0.00    -0.237 OA
ATOM     60  O   UNL     1      -7.181  -6.790   9.586  1.00  0.00    -0.744 OA
ENDBRANCH  53  57
ENDBRANCH  26  50
BRANCH  38  61
ATOM     61  C   UNL     1       3.261  -6.882   7.647  1.00  0.00     0.023 A 
ATOM     62  C   UNL     1       2.757  -7.158   6.353  1.00  0.00     0.031 A 
ATOM     63  C   UNL     1       4.283  -7.712   8.137  1.00  0.00     0.131 A 
ATOM     64  C   UNL     1       3.271  -8.241   5.611  1.00  0.00     0.055 A 
ATOM     65  C   UNL     1       4.802  -8.770   7.392  1.00  0.00     0.041 A 
ATOM     66  F   UNL     1       4.827  -7.481   9.344  1.00  0.00    -0.206 F 
ATOM     67  C   UNL     1       4.294  -9.042   6.128  1.00  0.00     0.022 A 
BRANCH  64  68
ATOM     68  S   UNL     1       2.614  -8.633   3.955  1.00  0.00     0.124 S 
ATOM     69  O   UNL     1       1.170  -8.664   4.159  1.00  0.00    -0.237 OA
ATOM     70  O   UNL     1       3.122  -7.533   3.139  1.00  0.00    -0.237 OA
ATOM     71  O   UNL     1       3.212  -9.934   3.650  1.00  0.00    -0.744 OA
ENDBRANCH  64  68
ENDBRANCH  38  61
ENDBRANCH  12  13
ENDBRANCH   5   7
ENDBRANCH   2   3
ENDBRANCH   1   2
BRANCH   1  72
ATOM     72  C   UNL     1       4.216  -1.789  -2.389  1.00  0.00     0.118 C 
BRANCH  72  73
ATOM     73  N   UNL     1       4.929  -1.755  -3.644  1.00  0.00    -0.351 N 
ATOM     74  C   UNL     1       5.793  -2.606  -4.235  1.00  0.00     0.281 C 
ATOM     75  H   UNL     1       4.749  -0.946  -4.175  1.00  0.00     0.163 HD
ATOM     76  O   UNL     1       6.722  -1.948  -4.738  1.00  0.00    -0.268 OA
BRANCH  74  77
ATOM     77  C   UNL     1       5.834  -4.192  -4.330  1.00  0.00     0.178 C 
ATOM     78  C   UNL     1       4.814  -5.187  -4.923  1.00  0.00     0.079 C 
ATOM     79  C   UNL     1       6.949  -4.443  -5.513  1.00  0.00     0.062 C 
ATOM     80  C   UNL     1       5.645  -6.452  -5.292  1.00  0.00     0.008 C 
ATOM     81  C   UNL     1       7.062  -5.973  -5.587  1.00  0.00     0.011 C 
BRANCH  77  82
ATOM     82  N   UNL     1       6.271  -4.716  -3.002  1.00  0.00    -0.331 N 
ATOM     83  H   UNL     1       7.032  -4.112  -2.693  1.00  0.00     0.347 HD
ATOM     84  H   UNL     1       6.468  -5.695  -3.212  1.00  0.00     0.347 HD
BRANCH  82  85
ATOM     85  C   UNL     1       5.335  -4.828  -1.851  1.00  0.00     0.183 C 
ATOM     86  C   UNL     1       3.825  -4.954  -1.855  1.00  0.00     0.071 C 
ATOM     87  C   UNL     1       4.652  -6.156  -1.581  1.00  0.00     0.071 C 
ENDBRANCH  82  85
ENDBRANCH  77  82
BRANCH  79  88
ATOM     88  C   UNL     1       6.564  -4.004  -6.995  1.00  0.00     0.032 C 
BRANCH  88  89
ATOM     89  C   UNL     1       6.512  -2.532  -7.421  1.00  0.00     0.123 C 
BRANCH  89  90
ATOM     90  N   UNL     1       7.753  -1.792  -7.364  1.00  0.00    -0.337 N 
ATOM     91  C   UNL     1       7.857  -0.438  -7.186  1.00  0.00     0.107 A 
ATOM     92  C   UNL     1       9.020  -2.283  -7.493  1.00  0.00     0.199 A 
ATOM     93  C   UNL     1       9.208  -0.189  -7.147  1.00  0.00     0.130 A 
ATOM     94  N   UNL     1       9.923  -1.335  -7.378  1.00  0.00    -0.245 NA
ENDBRANCH  89  90
ENDBRANCH  88  89
ENDBRANCH  79  88
ENDBRANCH  74  77
ENDBRANCH  72  73
ENDBRANCH   1  72
TORSDOF 18
