REMARK SMILES O=C(NCCCNC(=O)c1cc(-c2cccc(F)c2)nc2c(F)cccc12)c1ccc(-c2c3nc(c(-c4cc(S(=O)(=O)[O-])ccc4F)c4ccc([nH]4)c(-c4cc(S(=O)(=O)[O-])ccc4F)c4nc(c(-c5cc(S(=O)(=O)[O-])ccc5F)c5ccc2[nH]5)C=C4)C=C3)cc1
REMARK SMILES IDX 4 1 3 2 1 3 2 4 28 6 29 7 90 8 30 9 89 10 31 11 32 12 33 13
REMARK SMILES IDX 83 14 34 15 88 16 82 17 84 18 35 19 87 20 81 21 80 22 36 24
REMARK SMILES IDX 68 25 48 26 67 27 49 28 52 29 66 30 85 31 50 32 51 33 65 35
REMARK SMILES IDX 86 36 53 37 37 38 38 39 46 40 39 41 45 42 47 43 44 44 40 45
REMARK SMILES IDX 41 46 42 47 43 48 69 49 70 50 78 51 71 52 77 53 79 54 76 55
REMARK SMILES IDX 72 56 73 57 74 58 75 59 54 60 55 61 63 62 56 63 62 64 64 65
REMARK SMILES IDX 61 66 57 67 58 68 59 69 60 70 5 71 6 72 7 73 8 74 9 76 10 77
REMARK SMILES IDX 11 78 27 79 12 80 21 81 26 82 20 83 22 84 25 85 23 86 24 87
REMARK SMILES IDX 13 88 14 89 19 90 15 91 17 92 16 93 18 94
REMARK H PARENT 3 5 84 23 52 34 7 75
REMARK Flexibility Score: inf
ROOT
ATOM      1  C   UNL     1       4.628   0.846  -0.954  1.00  0.00     0.118 C 
ENDROOT
BRANCH   1   2
ATOM      2  N   UNL     1       3.185   0.733  -0.763  1.00  0.00    -0.352 N 
ATOM      3  O   UNL     1       1.231  -0.098  -0.009  1.00  0.00    -0.269 OA
ATOM      4  C   UNL     1       2.455  -0.063   0.093  1.00  0.00     0.251 C 
ATOM      5  H   UNL     1       2.646   1.321  -1.339  1.00  0.00     0.163 HD
BRANCH   4   6
ATOM      6  C   UNL     1       3.141  -0.894   1.106  1.00  0.00     0.039 A 
ATOM      7  C   UNL     1       4.232  -0.390   1.809  1.00  0.00     0.014 A 
ATOM      8  C   UNL     1       2.702  -2.200   1.352  1.00  0.00     0.014 A 
ATOM      9  C   UNL     1       5.017  -1.246   2.564  1.00  0.00     0.010 A 
ATOM     10  C   UNL     1       3.415  -3.023   2.232  1.00  0.00     0.010 A 
ATOM     11  C   UNL     1       4.610  -2.568   2.809  1.00  0.00    -0.014 A 
BRANCH  11  12
ATOM     12  C   UNL     1       5.446  -3.401   3.715  1.00  0.00     0.031 A 
ATOM     13  C   UNL     1       6.115  -4.661   3.239  1.00  0.00     0.074 A 
ATOM     14  C   UNL     1       5.682  -2.938   4.960  1.00  0.00     0.049 A 
ATOM     15  N   UNL     1       6.962  -5.429   3.876  1.00  0.00    -0.248 NA
ATOM     16  C   UNL     1       5.786  -5.131   1.885  1.00  0.00     0.031 C 
ATOM     17  C   UNL     1       5.076  -1.731   5.533  1.00  0.00     0.029 A 
ATOM     18  N   UNL     1       6.536  -3.373   5.940  1.00  0.00    -0.354 N 
ATOM     19  C   UNL     1       7.243  -6.487   3.019  1.00  0.00     0.074 A 
ATOM     20  C   UNL     1       6.461  -6.271   1.820  1.00  0.00     0.031 C 
ATOM     21  C   UNL     1       5.665  -1.455   6.703  1.00  0.00     0.029 A 
ATOM     22  C   UNL     1       6.621  -2.511   7.010  1.00  0.00     0.049 A 
ATOM     23  H   UNL     1       7.038  -4.217   5.884  1.00  0.00     0.167 HD
ATOM     24  C   UNL     1       8.078  -7.537   3.217  1.00  0.00     0.034 A 
ATOM     25  C   UNL     1       7.380  -2.559   8.121  1.00  0.00     0.034 A 
ATOM     26  C   UNL     1       8.875  -7.719   4.406  1.00  0.00     0.049 A 
ATOM     27  C   UNL     1       8.297  -3.728   8.317  1.00  0.00     0.074 A 
ATOM     28  C   UNL     1       9.782  -8.726   4.689  1.00  0.00     0.029 A 
ATOM     29  N   UNL     1       8.863  -6.875   5.509  1.00  0.00    -0.354 N 
ATOM     30  N   UNL     1       8.526  -4.733   7.507  1.00  0.00    -0.248 NA
ATOM     31  C   UNL     1       9.037  -3.785   9.583  1.00  0.00     0.031 C 
ATOM     32  C   UNL     1      10.274  -8.524   5.983  1.00  0.00     0.029 A 
ATOM     33  C   UNL     1       9.723  -7.356   6.485  1.00  0.00     0.049 A 
ATOM     34  H   UNL     1       8.323  -6.056   5.587  1.00  0.00     0.167 HD
ATOM     35  C   UNL     1       9.431  -5.552   8.168  1.00  0.00     0.074 A 
ATOM     36  C   UNL     1       9.719  -4.915   9.439  1.00  0.00     0.031 C 
ATOM     37  C   UNL     1       9.972  -6.726   7.759  1.00  0.00     0.034 A 
BRANCH  24  38
ATOM     38  C   UNL     1       8.137  -8.598   2.147  1.00  0.00     0.023 A 
ATOM     39  C   UNL     1       8.697  -8.352   0.883  1.00  0.00     0.031 A 
ATOM     40  C   UNL     1       7.629  -9.885   2.406  1.00  0.00     0.131 A 
ATOM     41  C   UNL     1       8.692  -9.362  -0.092  1.00  0.00     0.055 A 
ATOM     42  C   UNL     1       7.684 -10.904   1.454  1.00  0.00     0.041 A 
ATOM     43  F   UNL     1       7.067 -10.171   3.591  1.00  0.00    -0.206 F 
ATOM     44  C   UNL     1       8.210 -10.643   0.192  1.00  0.00     0.022 A 
BRANCH  41  45
ATOM     45  S   UNL     1       9.238  -8.953  -1.772  1.00  0.00     0.124 S 
ATOM     46  O   UNL     1       8.261  -7.939  -2.161  1.00  0.00    -0.237 OA
ATOM     47  O   UNL     1      10.600  -8.477  -1.556  1.00  0.00    -0.237 OA
ATOM     48  O   UNL     1       9.128 -10.222  -2.488  1.00  0.00    -0.744 OA
ENDBRANCH  41  45
ENDBRANCH  24  38
BRANCH  25  49
ATOM     49  C   UNL     1       7.263  -1.472   9.128  1.00  0.00     0.023 A 
ATOM     50  C   UNL     1       8.280  -0.520   9.289  1.00  0.00     0.031 A 
ATOM     51  C   UNL     1       6.088  -1.329   9.888  1.00  0.00     0.131 A 
ATOM     52  C   UNL     1       8.099   0.542  10.190  1.00  0.00     0.055 A 
ATOM     53  C   UNL     1       5.899  -0.254  10.755  1.00  0.00     0.041 A 
ATOM     54  F   UNL     1       5.081  -2.207   9.749  1.00  0.00    -0.206 F 
ATOM     55  C   UNL     1       6.910   0.690  10.910  1.00  0.00     0.022 A 
BRANCH  52  56
ATOM     56  S   UNL     1       9.433   1.754  10.396  1.00  0.00     0.124 S 
ATOM     57  O   UNL     1      10.458   0.955  11.060  1.00  0.00    -0.237 OA
ATOM     58  O   UNL     1       9.713   2.142   9.018  1.00  0.00    -0.237 OA
ATOM     59  O   UNL     1       8.821   2.795  11.219  1.00  0.00    -0.744 OA
ENDBRANCH  52  56
ENDBRANCH  25  49
BRANCH  37  60
ATOM     60  C   UNL     1      10.936  -7.396   8.695  1.00  0.00     0.023 A 
ATOM     61  C   UNL     1      10.486  -8.080   9.836  1.00  0.00     0.031 A 
ATOM     62  C   UNL     1      12.314  -7.381   8.420  1.00  0.00     0.131 A 
ATOM     63  C   UNL     1      11.415  -8.707  10.680  1.00  0.00     0.055 A 
ATOM     64  C   UNL     1      13.229  -8.039   9.242  1.00  0.00     0.041 A 
ATOM     65  F   UNL     1      12.786  -6.741   7.339  1.00  0.00    -0.206 F 
ATOM     66  C   UNL     1      12.781  -8.704  10.381  1.00  0.00     0.022 A 
BRANCH  63  67
ATOM     67  S   UNL     1      10.820  -9.522  12.187  1.00  0.00     0.124 S 
ATOM     68  O   UNL     1      10.402  -8.383  12.998  1.00  0.00    -0.237 OA
ATOM     69  O   UNL     1       9.748 -10.376  11.686  1.00  0.00    -0.237 OA
ATOM     70  O   UNL     1      11.998 -10.235  12.678  1.00  0.00    -0.744 OA
ENDBRANCH  63  67
ENDBRANCH  37  60
ENDBRANCH  11  12
ENDBRANCH   4   6
ENDBRANCH   1   2
BRANCH   1  71
ATOM     71  C   UNL     1       5.109   0.291  -2.284  1.00  0.00     0.042 C 
BRANCH  71  72
ATOM     72  C   UNL     1       4.596   1.048  -3.492  1.00  0.00     0.118 C 
BRANCH  72  73
ATOM     73  N   UNL     1       4.973   2.457  -3.495  1.00  0.00    -0.352 N 
ATOM     74  C   UNL     1       5.559   3.198  -4.488  1.00  0.00     0.252 C 
ATOM     75  H   UNL     1       4.780   2.946  -2.663  1.00  0.00     0.163 HD
ATOM     76  O   UNL     1       5.838   4.379  -4.306  1.00  0.00    -0.269 OA
BRANCH  74  77
ATOM     77  C   UNL     1       5.899   2.564  -5.776  1.00  0.00     0.051 A 
ATOM     78  C   UNL     1       7.246   2.591  -6.129  1.00  0.00     0.043 A 
ATOM     79  C   UNL     1       4.931   1.946  -6.598  1.00  0.00     0.016 A 
ATOM     80  C   UNL     1       7.620   1.962  -7.299  1.00  0.00     0.072 A 
ATOM     81  C   UNL     1       5.421   1.260  -7.721  1.00  0.00     0.107 A 
ATOM     82  C   UNL     1       3.533   1.962  -6.343  1.00  0.00     0.011 A 
ATOM     83  N   UNL     1       6.727   1.297  -8.070  1.00  0.00    -0.245 NA
ATOM     84  C   UNL     1       4.504   0.520  -8.471  1.00  0.00     0.149 A 
ATOM     85  C   UNL     1       2.648   1.212  -7.109  1.00  0.00     0.004 A 
ATOM     86  F   UNL     1       4.929  -0.193  -9.527  1.00  0.00    -0.205 F 
ATOM     87  C   UNL     1       3.142   0.468  -8.168  1.00  0.00     0.041 A 
BRANCH  80  88
ATOM     88  C   UNL     1       8.995   2.006  -7.808  1.00  0.00     0.003 A 
ATOM     89  C   UNL     1       9.249   2.472  -9.113  1.00  0.00     0.010 A 
ATOM     90  C   UNL     1      10.089   1.609  -7.024  1.00  0.00     0.049 A 
ATOM     91  C   UNL     1      10.551   2.557  -9.615  1.00  0.00     0.004 A 
ATOM     92  C   UNL     1      11.382   1.687  -7.537  1.00  0.00     0.123 A 
ATOM     93  C   UNL     1      11.622   2.162  -8.820  1.00  0.00     0.039 A 
ATOM     94  F   UNL     1      12.416   1.302  -6.777  1.00  0.00    -0.207 F 
ENDBRANCH  80  88
ENDBRANCH  74  77
ENDBRANCH  72  73
ENDBRANCH  71  72
ENDBRANCH   1  71
TORSDOF 14
