REMARK SMILES CSc1ccc(C[C@H]([NH3+])C(=O)NCCCNC(=O)c2ccc(-c3c4nc(c(-c5cc(S(=O)(=O)[O-])ccc5F)c5ccc([nH]5)c(-c5cc(S(=O)(=O)[O-])ccc5F)c5nc(c(-c6cc(S(=O)(=O)[O-])ccc6F)c6ccc3[nH]6)C=C5)C=C4)cc2)cc1
REMARK SMILES IDX 14 1 13 2 12 3 10 4 11 5 8 7 7 8 6 9 3 10 4 11 83 12 5 13
REMARK SMILES IDX 82 14 2 15 1 16 9 17 15 21 16 22 17 23 18 25 19 26 20 27
REMARK SMILES IDX 81 28 21 29 80 30 22 31 23 32 24 33 74 34 25 35 79 36 73 37
REMARK SMILES IDX 75 38 26 39 78 40 72 41 71 42 27 44 59 45 39 46 58 47 40 48
REMARK SMILES IDX 43 49 57 50 76 51 41 52 42 53 56 55 77 56 44 57 28 58 29 59
REMARK SMILES IDX 37 60 30 61 36 62 38 63 35 64 31 65 32 66 33 67 34 68 60 69
REMARK SMILES IDX 61 70 69 71 62 72 68 73 70 74 67 75 63 76 64 77 65 78 66 79
REMARK SMILES IDX 45 80 46 81 54 82 47 83 53 84 55 85 52 86 48 87 49 88 50 89
REMARK SMILES IDX 51 90
REMARK H PARENT 12 6 9 18 9 19 9 20 16 24 75 43 43 54
REMARK Flexibility Score: inf
ROOT
ATOM      1  C   UNL     1       4.359  -3.450   8.169  1.00  0.00     0.042 C 
ENDROOT
BRANCH   1   2
ATOM      2  C   UNL     1       2.921  -3.849   7.910  1.00  0.00     0.118 C 
BRANCH   2   3
ATOM      3  N   UNL     1       1.979  -3.412   8.919  1.00  0.00    -0.351 N 
ATOM      4  C   UNL     1       0.900  -2.587   8.759  1.00  0.00     0.278 C 
ATOM      5  O   UNL     1       0.170  -2.381   9.732  1.00  0.00    -0.268 OA
ATOM      6  H   UNL     1       2.134  -3.750   9.831  1.00  0.00     0.163 HD
BRANCH   4   7
ATOM      7  C   UNL     1       0.612  -1.908   7.395  1.00  0.00     0.275 C 
BRANCH   7   8
ATOM      8  C   UNL     1       0.134  -2.937   6.320  1.00  0.00     0.111 C 
BRANCH   8   9
ATOM      9  C   UNL     1       0.944  -3.038   5.040  1.00  0.00    -0.041 A 
ATOM     10  C   UNL     1       2.765  -3.066   2.882  1.00  0.00     0.007 A 
ATOM     11  C   UNL     1       1.916  -1.974   3.083  1.00  0.00     0.015 A 
ATOM     12  C   UNL     1       2.644  -4.174   3.725  1.00  0.00     0.015 A 
ATOM     13  C   UNL     1       0.999  -1.968   4.140  1.00  0.00     0.005 A 
ATOM     14  C   UNL     1       1.723  -4.173   4.775  1.00  0.00     0.005 A 
BRANCH  10  15
ATOM     15  S   UNL     1       4.075  -3.091   1.669  1.00  0.00    -0.130 SA
ATOM     16  C   UNL     1       3.333  -2.183   0.292  1.00  0.00     0.091 C 
ENDBRANCH  10  15
ENDBRANCH   8   9
ENDBRANCH   7   8
BRANCH   7  17
ATOM     17  N   UNL     1       1.748  -1.020   7.069  1.00  0.00    -0.347 N 
ATOM     18  H   UNL     1       2.605  -1.570   7.014  1.00  0.00     0.345 HD
ATOM     19  H   UNL     1       1.845  -0.311   7.796  1.00  0.00     0.345 HD
ATOM     20  H   UNL     1       1.578  -0.566   6.172  1.00  0.00     0.345 HD
ENDBRANCH   7  17
ENDBRANCH   4   7
ENDBRANCH   2   3
ENDBRANCH   1   2
BRANCH   1  21
ATOM     21  C   UNL     1       4.983  -4.128   9.373  1.00  0.00     0.118 C 
BRANCH  21  22
ATOM     22  N   UNL     1       5.029  -5.580   9.251  1.00  0.00    -0.352 N 
ATOM     23  C   UNL     1       6.101  -6.437   9.183  1.00  0.00     0.251 C 
ATOM     24  H   UNL     1       4.148  -6.018   9.210  1.00  0.00     0.163 HD
ATOM     25  O   UNL     1       5.906  -7.617   8.897  1.00  0.00    -0.269 OA
BRANCH  23  26
ATOM     26  C   UNL     1       7.475  -5.944   9.422  1.00  0.00     0.039 A 
ATOM     27  C   UNL     1       8.521  -6.431   8.633  1.00  0.00     0.014 A 
ATOM     28  C   UNL     1       7.739  -5.004  10.420  1.00  0.00     0.014 A 
ATOM     29  C   UNL     1       9.809  -5.912   8.792  1.00  0.00     0.010 A 
ATOM     30  C   UNL     1       8.993  -4.410  10.501  1.00  0.00     0.010 A 
ATOM     31  C   UNL     1      10.046  -4.862   9.694  1.00  0.00    -0.014 A 
BRANCH  31  32
ATOM     32  C   UNL     1      11.386  -4.231   9.822  1.00  0.00     0.031 A 
ATOM     33  C   UNL     1      12.109  -4.264  11.143  1.00  0.00     0.074 A 
ATOM     34  C   UNL     1      11.917  -3.568   8.775  1.00  0.00     0.049 A 
ATOM     35  N   UNL     1      13.239  -3.699  11.485  1.00  0.00    -0.248 NA
ATOM     36  C   UNL     1      11.455  -5.001  12.235  1.00  0.00     0.031 C 
ATOM     37  C   UNL     1      11.293  -3.429   7.457  1.00  0.00     0.029 A 
ATOM     38  N   UNL     1      13.099  -2.880   8.653  1.00  0.00    -0.354 N 
ATOM     39  C   UNL     1      13.418  -3.994  12.832  1.00  0.00     0.074 A 
ATOM     40  C   UNL     1      12.248  -4.729  13.259  1.00  0.00     0.031 C 
ATOM     41  C   UNL     1      12.113  -2.735   6.652  1.00  0.00     0.029 A 
ATOM     42  C   UNL     1      13.293  -2.329   7.407  1.00  0.00     0.049 A 
ATOM     43  H   UNL     1      13.747  -2.789   9.389  1.00  0.00     0.167 HD
ATOM     44  C   UNL     1      14.474  -3.702  13.632  1.00  0.00     0.034 A 
ATOM     45  C   UNL     1      14.302  -1.572   6.931  1.00  0.00     0.034 A 
ATOM     46  C   UNL     1      15.641  -2.982  13.182  1.00  0.00     0.049 A 
ATOM     47  C   UNL     1      15.451  -1.234   7.848  1.00  0.00     0.074 A 
ATOM     48  C   UNL     1      16.795  -2.688  13.886  1.00  0.00     0.029 A 
ATOM     49  N   UNL     1      15.799  -2.433  11.915  1.00  0.00    -0.354 N 
ATOM     50  N   UNL     1      15.633  -1.569   9.104  1.00  0.00    -0.248 NA
ATOM     51  C   UNL     1      16.534  -0.422   7.279  1.00  0.00     0.031 C 
ATOM     52  C   UNL     1      17.614  -1.896  13.075  1.00  0.00     0.029 A 
ATOM     53  C   UNL     1      17.014  -1.769  11.832  1.00  0.00     0.049 A 
ATOM     54  H   UNL     1      15.144  -2.505  11.184  1.00  0.00     0.167 HD
ATOM     55  C   UNL     1      16.870  -1.038   9.463  1.00  0.00     0.074 A 
ATOM     56  C   UNL     1      17.392  -0.374   8.287  1.00  0.00     0.031 C 
ATOM     57  C   UNL     1      17.518  -1.100  10.655  1.00  0.00     0.034 A 
BRANCH  44  58
ATOM     58  C   UNL     1      14.394  -4.136  15.078  1.00  0.00     0.023 A 
ATOM     59  C   UNL     1      14.284  -5.490  15.442  1.00  0.00     0.031 A 
ATOM     60  C   UNL     1      14.398  -3.180  16.109  1.00  0.00     0.131 A 
ATOM     61  C   UNL     1      14.096  -5.843  16.787  1.00  0.00     0.055 A 
ATOM     62  C   UNL     1      14.302  -3.544  17.454  1.00  0.00     0.041 A 
ATOM     63  F   UNL     1      14.478  -1.870  15.827  1.00  0.00    -0.206 F 
ATOM     64  C   UNL     1      14.133  -4.882  17.799  1.00  0.00     0.022 A 
BRANCH  61  65
ATOM     65  S   UNL     1      13.644  -7.556  17.177  1.00  0.00     0.124 S 
ATOM     66  O   UNL     1      12.422  -7.724  16.394  1.00  0.00    -0.237 OA
ATOM     67  O   UNL     1      14.807  -8.303  16.714  1.00  0.00    -0.237 OA
ATOM     68  O   UNL     1      13.449  -7.537  18.625  1.00  0.00    -0.744 OA
ENDBRANCH  61  65
ENDBRANCH  44  58
BRANCH  45  69
ATOM     69  C   UNL     1      14.278  -1.075   5.525  1.00  0.00     0.023 A 
ATOM     70  C   UNL     1      15.254  -1.479   4.600  1.00  0.00     0.031 A 
ATOM     71  C   UNL     1      13.305  -0.155   5.094  1.00  0.00     0.131 A 
ATOM     72  C   UNL     1      15.267  -0.929   3.308  1.00  0.00     0.055 A 
ATOM     73  C   UNL     1      13.286   0.344   3.791  1.00  0.00     0.041 A 
ATOM     74  F   UNL     1      12.347   0.265   5.936  1.00  0.00    -0.206 F 
ATOM     75  C   UNL     1      14.280  -0.032   2.893  1.00  0.00     0.022 A 
BRANCH  72  76
ATOM     76  S   UNL     1      16.649  -1.333   2.206  1.00  0.00     0.124 S 
ATOM     77  O   UNL     1      17.794  -0.876   2.986  1.00  0.00    -0.237 OA
ATOM     78  O   UNL     1      16.508  -2.778   2.059  1.00  0.00    -0.237 OA
ATOM     79  O   UNL     1      16.363  -0.556   1.002  1.00  0.00    -0.744 OA
ENDBRANCH  72  76
ENDBRANCH  45  69
BRANCH  57  80
ATOM     80  C   UNL     1      18.890  -0.472  10.725  1.00  0.00     0.023 A 
ATOM     81  C   UNL     1      19.081   0.914  10.587  1.00  0.00     0.031 A 
ATOM     82  C   UNL     1      20.025  -1.279  10.924  1.00  0.00     0.131 A 
ATOM     83  C   UNL     1      20.380   1.444  10.592  1.00  0.00     0.055 A 
ATOM     84  C   UNL     1      21.309  -0.738  10.996  1.00  0.00     0.041 A 
ATOM     85  F   UNL     1      19.903  -2.609  11.058  1.00  0.00    -0.206 F 
ATOM     86  C   UNL     1      21.494   0.629  10.816  1.00  0.00     0.022 A 
BRANCH  83  87
ATOM     87  S   UNL     1      20.606   3.201  10.201  1.00  0.00     0.124 S 
ATOM     88  O   UNL     1      20.003   3.296   8.876  1.00  0.00    -0.237 OA
ATOM     89  O   UNL     1      19.878   3.857  11.282  1.00  0.00    -0.237 OA
ATOM     90  O   UNL     1      22.057   3.376  10.237  1.00  0.00    -0.744 OA
ENDBRANCH  83  87
ENDBRANCH  57  80
ENDBRANCH  31  32
ENDBRANCH  23  26
ENDBRANCH  21  22
ENDBRANCH   1  21
TORSDOF 17
