REMARK SMILES C[C@]1(c2ccccc2C(=O)NCCCNC(=O)c2ccc(-c3c4nc(c(-c5cc(S(=O)(=O)[O-])ccc5F)c5ccc([nH]5)c(-c5cc(S(=O)(=O)[O-])ccc5F)c5nc(c(-c6cc(S(=O)(=O)[O-])ccc6F)c6ccc3[nH]6)C=C5)C=C4)cc2)NN=C(c2ccccc2)S1
REMARK SMILES IDX 13 1 12 2 11 3 9 4 10 5 8 7 3 8 4 9 5 10 7 11 6 12 2 13 1 14
REMARK SMILES IDX 81 15 90 16 82 17 83 19 84 20 85 21 89 22 86 23 88 24 87 25
REMARK SMILES IDX 14 26 15 27 16 28 17 30 18 31 19 32 80 33 20 34 79 35 21 36
REMARK SMILES IDX 22 37 23 38 73 39 24 40 78 41 72 42 74 43 25 44 77 45 71 46
REMARK SMILES IDX 70 47 26 49 58 50 38 51 57 52 39 53 42 54 56 55 75 56 40 57
REMARK SMILES IDX 41 58 55 60 76 61 43 62 27 63 28 64 36 65 29 66 35 67 37 68
REMARK SMILES IDX 34 69 30 70 31 71 32 72 33 73 59 74 60 75 68 76 61 77 67 78
REMARK SMILES IDX 69 79 66 80 62 81 63 82 64 83 65 84 44 85 45 86 53 87 46 88
REMARK SMILES IDX 52 89 54 90 51 91 47 92 48 93 49 94 50 95
REMARK H PARENT 11 6 81 18 15 29 74 48 42 59
REMARK Flexibility Score: inf
ROOT
ATOM      1  C   UNL     1       1.719  -3.264   2.302  1.00  0.00     0.042 C 
ENDROOT
BRANCH   1   2
ATOM      2  C   UNL     1       2.784  -2.203   1.933  1.00  0.00     0.118 C 
BRANCH   2   3
ATOM      3  N   UNL     1       3.133  -2.054   0.526  1.00  0.00    -0.352 N 
ATOM      4  C   UNL     1       3.009  -1.067  -0.430  1.00  0.00     0.251 C 
ATOM      5  O   UNL     1       3.745  -1.194  -1.418  1.00  0.00    -0.269 OA
ATOM      6  H   UNL     1       3.566  -2.862   0.167  1.00  0.00     0.163 HD
BRANCH   4   7
ATOM      7  C   UNL     1       2.114   0.149  -0.419  1.00  0.00     0.046 A 
ATOM      8  C   UNL     1       0.689   0.208  -0.343  1.00  0.00     0.002 A 
ATOM      9  C   UNL     1       0.064   1.470  -0.565  1.00  0.00     0.008 A 
ATOM     10  C   UNL     1       0.776   2.603  -0.952  1.00  0.00     0.000 A 
ATOM     11  C   UNL     1       2.804   1.319  -0.830  1.00  0.00     0.014 A 
ATOM     12  C   UNL     1       2.148   2.523  -1.105  1.00  0.00     0.001 A 
BRANCH   8  13
ATOM     13  C   UNL     1      -0.255  -0.965  -0.044  1.00  0.00     0.129 C 
ATOM     14  C   UNL     1      -0.533  -0.948   1.470  1.00  0.00     0.054 C 
ATOM     15  N   UNL     1      -1.575  -0.894  -0.729  1.00  0.00    -0.288 NA
ATOM     16  S   UNL     1       0.399  -2.527  -0.666  1.00  0.00    -0.070 SA
ATOM     17  N   UNL     1      -2.048  -2.045  -1.335  1.00  0.00    -0.171 NA
ATOM     18  H   UNL     1      -2.094  -0.058  -0.750  1.00  0.00     0.185 HD
ATOM     19  C   UNL     1      -1.105  -2.926  -1.401  1.00  0.00     0.126 C 
BRANCH  19  20
ATOM     20  C   UNL     1      -1.071  -4.224  -2.069  1.00  0.00     0.009 A 
ATOM     21  C   UNL     1      -0.672  -4.221  -3.410  1.00  0.00     0.011 A 
ATOM     22  C   UNL     1      -0.945  -5.380  -1.288  1.00  0.00     0.011 A 
ATOM     23  C   UNL     1      -0.098  -5.368  -3.957  1.00  0.00     0.001 A 
ATOM     24  C   UNL     1      -0.369  -6.520  -1.846  1.00  0.00     0.001 A 
ATOM     25  C   UNL     1       0.069  -6.508  -3.171  1.00  0.00     0.000 A 
ENDBRANCH  19  20
ENDBRANCH   8  13
ENDBRANCH   4   7
ENDBRANCH   2   3
ENDBRANCH   1   2
BRANCH   1  26
ATOM     26  C   UNL     1       1.976  -4.737   1.944  1.00  0.00     0.118 C 
BRANCH  26  27
ATOM     27  N   UNL     1       2.185  -5.521   3.155  1.00  0.00    -0.352 N 
ATOM     28  C   UNL     1       1.349  -6.357   3.860  1.00  0.00     0.251 C 
ATOM     29  H   UNL     1       3.088  -5.437   3.539  1.00  0.00     0.163 HD
ATOM     30  O   UNL     1       1.609  -6.543   5.049  1.00  0.00    -0.269 OA
BRANCH  28  31
ATOM     31  C   UNL     1       0.176  -7.059   3.262  1.00  0.00     0.039 A 
ATOM     32  C   UNL     1      -0.914  -7.362   4.095  1.00  0.00     0.014 A 
ATOM     33  C   UNL     1       0.189  -7.582   1.967  1.00  0.00     0.014 A 
ATOM     34  C   UNL     1      -1.982  -8.150   3.635  1.00  0.00     0.010 A 
ATOM     35  C   UNL     1      -0.897  -8.348   1.500  1.00  0.00     0.010 A 
ATOM     36  C   UNL     1      -1.996  -8.646   2.324  1.00  0.00    -0.014 A 
BRANCH  36  37
ATOM     37  C   UNL     1      -3.127  -9.486   1.816  1.00  0.00     0.031 A 
ATOM     38  C   UNL     1      -2.908 -10.934   1.440  1.00  0.00     0.074 A 
ATOM     39  C   UNL     1      -4.355  -8.951   1.655  1.00  0.00     0.049 A 
ATOM     40  N   UNL     1      -3.745 -11.791   0.906  1.00  0.00    -0.248 NA
ATOM     41  C   UNL     1      -1.567 -11.481   1.682  1.00  0.00     0.031 C 
ATOM     42  C   UNL     1      -4.720  -7.569   1.970  1.00  0.00     0.029 A 
ATOM     43  N   UNL     1      -5.524  -9.499   1.176  1.00  0.00    -0.354 N 
ATOM     44  C   UNL     1      -3.032 -12.975   0.741  1.00  0.00     0.074 A 
ATOM     45  C   UNL     1      -1.679 -12.706   1.187  1.00  0.00     0.031 C 
ATOM     46  C   UNL     1      -6.020  -7.382   1.688  1.00  0.00     0.029 A 
ATOM     47  C   UNL     1      -6.576  -8.611   1.127  1.00  0.00     0.049 A 
ATOM     48  H   UNL     1      -5.600 -10.439   0.894  1.00  0.00     0.167 HD
ATOM     49  C   UNL     1      -3.462 -14.178   0.279  1.00  0.00     0.034 A 
ATOM     50  C   UNL     1      -7.836  -8.755   0.665  1.00  0.00     0.034 A 
ATOM     51  C   UNL     1      -4.813 -14.451  -0.154  1.00  0.00     0.049 A 
ATOM     52  C   UNL     1      -8.271 -10.082   0.092  1.00  0.00     0.074 A 
ATOM     53  C   UNL     1      -5.354 -15.652  -0.586  1.00  0.00     0.029 A 
ATOM     54  N   UNL     1      -5.835 -13.515  -0.224  1.00  0.00    -0.354 N 
ATOM     55  N   UNL     1      -7.588 -11.196  -0.026  1.00  0.00    -0.248 NA
ATOM     56  C   UNL     1      -9.651 -10.169  -0.409  1.00  0.00     0.031 C 
ATOM     57  C   UNL     1      -6.678 -15.427  -0.978  1.00  0.00     0.029 A 
ATOM     58  C   UNL     1      -6.988 -14.102  -0.726  1.00  0.00     0.049 A 
ATOM     59  H   UNL     1      -5.753 -12.571   0.045  1.00  0.00     0.167 HD
ATOM     60  C   UNL     1      -8.464 -12.120  -0.592  1.00  0.00     0.074 A 
ATOM     61  C   UNL     1      -9.728 -11.440  -0.775  1.00  0.00     0.031 C 
ATOM     62  C   UNL     1      -8.243 -13.416  -0.925  1.00  0.00     0.034 A 
BRANCH  49  63
ATOM     63  C   UNL     1      -2.447 -15.296   0.195  1.00  0.00     0.023 A 
ATOM     64  C   UNL     1      -1.843 -15.832   1.345  1.00  0.00     0.031 A 
ATOM     65  C   UNL     1      -2.078 -15.831  -1.053  1.00  0.00     0.131 A 
ATOM     66  C   UNL     1      -0.854 -16.819   1.221  1.00  0.00     0.055 A 
ATOM     67  C   UNL     1      -1.148 -16.867  -1.164  1.00  0.00     0.041 A 
ATOM     68  F   UNL     1      -2.611 -15.350  -2.187  1.00  0.00    -0.206 F 
ATOM     69  C   UNL     1      -0.519 -17.358  -0.024  1.00  0.00     0.022 A 
BRANCH  66  70
ATOM     70  S   UNL     1       0.086 -17.299   2.696  1.00  0.00     0.124 S 
ATOM     71  O   UNL     1       0.668 -16.019   3.102  1.00  0.00    -0.237 OA
ATOM     72  O   UNL     1      -0.956 -17.829   3.574  1.00  0.00    -0.237 OA
ATOM     73  O   UNL     1       1.039 -18.278   2.196  1.00  0.00    -0.744 OA
ENDBRANCH  66  70
ENDBRANCH  49  63
BRANCH  50  74
ATOM     74  C   UNL     1      -8.786  -7.604   0.682  1.00  0.00     0.023 A 
ATOM     75  C   UNL     1      -9.959  -7.644   1.454  1.00  0.00     0.031 A 
ATOM     76  C   UNL     1      -8.567  -6.474  -0.126  1.00  0.00     0.131 A 
ATOM     77  C   UNL     1     -10.891  -6.598   1.364  1.00  0.00     0.055 A 
ATOM     78  C   UNL     1      -9.471  -5.412  -0.171  1.00  0.00     0.041 A 
ATOM     79  F   UNL     1      -7.463  -6.387  -0.886  1.00  0.00    -0.206 F 
ATOM     80  C   UNL     1     -10.648  -5.476   0.568  1.00  0.00     0.022 A 
BRANCH  77  81
ATOM     81  S   UNL     1     -12.473  -6.767   2.236  1.00  0.00     0.124 S 
ATOM     82  O   UNL     1     -12.999  -8.000   1.661  1.00  0.00    -0.237 OA
ATOM     83  O   UNL     1     -12.045  -6.839   3.629  1.00  0.00    -0.237 OA
ATOM     84  O   UNL     1     -13.195  -5.550   1.870  1.00  0.00    -0.744 OA
ENDBRANCH  77  81
ENDBRANCH  50  74
BRANCH  62  85
ATOM     85  C   UNL     1      -9.408 -14.191  -1.492  1.00  0.00     0.023 A 
ATOM     86  C   UNL     1      -9.943 -13.901  -2.759  1.00  0.00     0.031 A 
ATOM     87  C   UNL     1     -10.000 -15.227  -0.747  1.00  0.00     0.131 A 
ATOM     88  C   UNL     1     -11.066 -14.605  -3.224  1.00  0.00     0.055 A 
ATOM     89  C   UNL     1     -11.082 -15.960  -1.236  1.00  0.00     0.041 A 
ATOM     90  F   UNL     1      -9.532 -15.546   0.471  1.00  0.00    -0.206 F 
ATOM     91  C   UNL     1     -11.629 -15.643  -2.477  1.00  0.00     0.022 A 
BRANCH  88  92
ATOM     92  S   UNL     1     -11.830 -14.098  -4.789  1.00  0.00     0.124 S 
ATOM     93  O   UNL     1     -12.215 -12.719  -4.507  1.00  0.00    -0.237 OA
ATOM     94  O   UNL     1     -10.738 -14.272  -5.742  1.00  0.00    -0.237 OA
ATOM     95  O   UNL     1     -12.942 -15.033  -4.948  1.00  0.00    -0.744 OA
ENDBRANCH  88  92
ENDBRANCH  62  85
ENDBRANCH  36  37
ENDBRANCH  28  31
ENDBRANCH  26  27
ENDBRANCH   1  26
TORSDOF 15
