REMARK SMILES O=C(NCCCNC(=O)[C@H](CO)NC(=O)[C@H]1CC(=O)N(CC(F)(F)F)C1)c1ccc(-c2c3nc(c(-c4cc(S(=O)(=O)[O-])ccc4F)c4ccc([nH]4)c(-c4cc(S(=O)(=O)[O-])ccc4F)c4nc(c(-c5cc(S(=O)(=O)[O-])ccc5F)c5ccc2[nH]5)C=C4)C=C3)cc1
REMARK SMILES IDX 5 1 4 2 3 3 1 4 2 5 27 7 28 8 89 9 29 10 88 11 30 12 31 13
REMARK SMILES IDX 32 14 82 15 33 16 87 17 81 18 83 19 34 20 86 21 80 22 79 23
REMARK SMILES IDX 35 25 67 26 47 27 66 28 48 29 51 30 65 31 84 32 49 33 50 34
REMARK SMILES IDX 64 36 85 37 52 38 36 39 37 40 45 41 38 42 44 43 46 44 43 45
REMARK SMILES IDX 39 46 40 47 41 48 42 49 68 50 69 51 77 52 70 53 76 54 78 55
REMARK SMILES IDX 75 56 71 57 72 58 73 59 74 60 53 61 54 62 62 63 55 64 61 65
REMARK SMILES IDX 63 66 60 67 56 68 57 69 58 70 59 71 6 72 7 73 8 74 9 76
REMARK SMILES IDX 10 77 13 78 14 79 15 81 16 82 17 83 26 84 18 85 20 86 19 87
REMARK SMILES IDX 21 88 22 89 23 90 24 91 25 92 11 93 12 94
REMARK H PARENT 3 6 83 24 51 35 7 75 13 80 12 95
REMARK Flexibility Score: inf
ROOT
ATOM      1  C   UNL     1      11.717   4.324  -8.646  1.00  0.00     0.042 C 
ENDROOT
BRANCH   1   2
ATOM      2  C   UNL     1      12.614   5.085  -9.602  1.00  0.00     0.118 C 
BRANCH   2   3
ATOM      3  N   UNL     1      12.531   6.526  -9.417  1.00  0.00    -0.352 N 
ATOM      4  O   UNL     1      13.191   8.554  -8.686  1.00  0.00    -0.269 OA
ATOM      5  C   UNL     1      13.495   7.397  -8.961  1.00  0.00     0.251 C 
ATOM      6  H   UNL     1      11.667   6.934  -9.651  1.00  0.00     0.163 HD
BRANCH   5   7
ATOM      7  C   UNL     1      14.890   6.928  -8.789  1.00  0.00     0.039 A 
ATOM      8  C   UNL     1      15.469   6.081  -9.734  1.00  0.00     0.014 A 
ATOM      9  C   UNL     1      15.630   7.333  -7.675  1.00  0.00     0.014 A 
ATOM     10  C   UNL     1      16.697   5.493  -9.475  1.00  0.00     0.010 A 
ATOM     11  C   UNL     1      16.932   6.851  -7.490  1.00  0.00     0.010 A 
ATOM     12  C   UNL     1      17.470   5.907  -8.378  1.00  0.00    -0.014 A 
BRANCH  12  13
ATOM     13  C   UNL     1      18.866   5.402  -8.270  1.00  0.00     0.031 A 
ATOM     14  C   UNL     1      19.332   4.608  -7.082  1.00  0.00     0.074 A 
ATOM     15  C   UNL     1      19.701   5.627  -9.306  1.00  0.00     0.049 A 
ATOM     16  N   UNL     1      20.509   4.076  -6.861  1.00  0.00    -0.248 NA
ATOM     17  C   UNL     1      18.365   4.390  -5.997  1.00  0.00     0.031 C 
ATOM     18  C   UNL     1      19.358   6.400 -10.506  1.00  0.00     0.029 A 
ATOM     19  N   UNL     1      20.985   5.212  -9.543  1.00  0.00    -0.354 N 
ATOM     20  C   UNL     1      20.427   3.463  -5.616  1.00  0.00     0.074 A 
ATOM     21  C   UNL     1      19.097   3.732  -5.109  1.00  0.00     0.031 C 
ATOM     22  C   UNL     1      20.373   6.341 -11.376  1.00  0.00     0.029 A 
ATOM     23  C   UNL     1      21.479   5.621 -10.761  1.00  0.00     0.049 A 
ATOM     24  H   UNL     1      21.505   4.673  -8.904  1.00  0.00     0.167 HD
ATOM     25  C   UNL     1      21.370   2.733  -4.968  1.00  0.00     0.034 A 
ATOM     26  C   UNL     1      22.696   5.469 -11.315  1.00  0.00     0.034 A 
ATOM     27  C   UNL     1      22.697   2.488  -5.488  1.00  0.00     0.049 A 
ATOM     28  C   UNL     1      23.738   4.704 -10.547  1.00  0.00     0.074 A 
ATOM     29  C   UNL     1      23.730   1.767  -4.912  1.00  0.00     0.029 A 
ATOM     30  N   UNL     1      23.179   2.960  -6.704  1.00  0.00    -0.354 N 
ATOM     31  N   UNL     1      23.637   4.126  -9.371  1.00  0.00    -0.248 NA
ATOM     32  C   UNL     1      25.053   4.564 -11.180  1.00  0.00     0.031 C 
ATOM     33  C   UNL     1      24.852   1.862  -5.742  1.00  0.00     0.029 A 
ATOM     34  C   UNL     1      24.499   2.567  -6.881  1.00  0.00     0.049 A 
ATOM     35  H   UNL     1      22.660   3.495  -7.346  1.00  0.00     0.167 HD
ATOM     36  C   UNL     1      24.875   3.536  -9.135  1.00  0.00     0.074 A 
ATOM     37  C   UNL     1      25.687   3.797 -10.307  1.00  0.00     0.031 C 
ATOM     38  C   UNL     1      25.304   2.848  -8.047  1.00  0.00     0.034 A 
BRANCH  25  39
ATOM     39  C   UNL     1      21.011   2.173  -3.611  1.00  0.00     0.023 A 
ATOM     40  C   UNL     1      19.988   1.221  -3.454  1.00  0.00     0.031 A 
ATOM     41  C   UNL     1      21.698   2.592  -2.457  1.00  0.00     0.131 A 
ATOM     42  C   UNL     1      19.641   0.766  -2.171  1.00  0.00     0.055 A 
ATOM     43  C   UNL     1      21.402   2.076  -1.193  1.00  0.00     0.041 A 
ATOM     44  F   UNL     1      22.671   3.514  -2.538  1.00  0.00    -0.206 F 
ATOM     45  C   UNL     1      20.359   1.167  -1.043  1.00  0.00     0.022 A 
BRANCH  42  46
ATOM     46  S   UNL     1      18.154  -0.255  -1.987  1.00  0.00     0.124 S 
ATOM     47  O   UNL     1      17.122   0.626  -2.530  1.00  0.00    -0.237 OA
ATOM     48  O   UNL     1      18.475  -1.430  -2.788  1.00  0.00    -0.237 OA
ATOM     49  O   UNL     1      18.071  -0.484  -0.546  1.00  0.00    -0.744 OA
ENDBRANCH  42  46
ENDBRANCH  25  39
BRANCH  26  50
ATOM     50  C   UNL     1      23.012   6.099 -12.630  1.00  0.00     0.023 A 
ATOM     51  C   UNL     1      23.415   5.329 -13.731  1.00  0.00     0.031 A 
ATOM     52  C   UNL     1      22.965   7.497 -12.788  1.00  0.00     0.131 A 
ATOM     53  C   UNL     1      23.814   5.964 -14.917  1.00  0.00     0.055 A 
ATOM     54  C   UNL     1      23.289   8.118 -13.994  1.00  0.00     0.041 A 
ATOM     55  F   UNL     1      22.586   8.285 -11.768  1.00  0.00    -0.206 F 
ATOM     56  C   UNL     1      23.736   7.351 -15.063  1.00  0.00     0.022 A 
BRANCH  53  57
ATOM     57  S   UNL     1      24.559   4.956 -16.228  1.00  0.00     0.124 S 
ATOM     58  O   UNL     1      25.647   4.298 -15.514  1.00  0.00    -0.237 OA
ATOM     59  O   UNL     1      23.443   4.104 -16.625  1.00  0.00    -0.237 OA
ATOM     60  O   UNL     1      24.971   5.945 -17.223  1.00  0.00    -0.744 OA
ENDBRANCH  53  57
ENDBRANCH  26  50
BRANCH  38  61
ATOM     61  C   UNL     1      26.709   2.297  -8.107  1.00  0.00     0.023 A 
ATOM     62  C   UNL     1      27.831   3.142  -8.189  1.00  0.00     0.031 A 
ATOM     63  C   UNL     1      26.926   0.908  -8.133  1.00  0.00     0.131 A 
ATOM     64  C   UNL     1      29.107   2.592  -8.376  1.00  0.00     0.055 A 
ATOM     65  C   UNL     1      28.207   0.366  -8.241  1.00  0.00     0.041 A 
ATOM     66  F   UNL     1      25.893   0.053  -8.064  1.00  0.00    -0.206 F 
ATOM     67  C   UNL     1      29.305   1.210  -8.383  1.00  0.00     0.022 A 
BRANCH  64  68
ATOM     68  S   UNL     1      30.488   3.710  -8.745  1.00  0.00     0.124 S 
ATOM     69  O   UNL     1      30.005   4.403  -9.936  1.00  0.00    -0.237 OA
ATOM     70  O   UNL     1      30.572   4.513  -7.530  1.00  0.00    -0.237 OA
ATOM     71  O   UNL     1      31.612   2.803  -8.968  1.00  0.00    -0.744 OA
ENDBRANCH  64  68
ENDBRANCH  38  61
ENDBRANCH  12  13
ENDBRANCH   5   7
ENDBRANCH   2   3
ENDBRANCH   1   2
BRANCH   1  72
ATOM     72  C   UNL     1      10.263   4.274  -9.098  1.00  0.00     0.117 C 
BRANCH  72  73
ATOM     73  N   UNL     1      10.105   3.460 -10.301  1.00  0.00    -0.354 N 
ATOM     74  C   UNL     1       9.560   2.212 -10.437  1.00  0.00     0.244 C 
ATOM     75  H   UNL     1      10.438   3.868 -11.133  1.00  0.00     0.163 HD
ATOM     76  O   UNL     1       9.674   1.628 -11.517  1.00  0.00    -0.273 OA
BRANCH  74  77
ATOM     77  C   UNL     1       8.796   1.593  -9.258  1.00  0.00     0.197 C 
BRANCH  77  78
ATOM     78  N   UNL     1       7.784   0.661  -9.769  1.00  0.00    -0.342 N 
ATOM     79  C   UNL     1       6.520   0.400  -9.366  1.00  0.00     0.226 C 
ATOM     80  H   UNL     1       8.077   0.131 -10.545  1.00  0.00     0.164 HD
ATOM     81  O   UNL     1       6.042  -0.696  -9.672  1.00  0.00    -0.275 OA
BRANCH  79  82
ATOM     82  C   UNL     1       5.620   1.448  -8.744  1.00  0.00     0.107 C 
ATOM     83  C   UNL     1       6.056   2.262  -7.531  1.00  0.00     0.115 C 
ATOM     84  C   UNL     1       5.266   2.451  -9.831  1.00  0.00     0.133 C 
ATOM     85  C   UNL     1       5.689   3.688  -7.880  1.00  0.00     0.223 C 
ATOM     86  N   UNL     1       5.164   3.713  -9.155  1.00  0.00    -0.333 N 
ATOM     87  O   UNL     1       5.809   4.646  -7.141  1.00  0.00    -0.275 OA
BRANCH  86  88
ATOM     88  C   UNL     1       4.600   4.902  -9.805  1.00  0.00     0.234 C 
BRANCH  88  89
ATOM     89  C   UNL     1       5.265   5.333 -11.112  1.00  0.00     0.406 C 
ATOM     90  F   UNL     1       5.155   4.370 -12.057  1.00  0.00    -0.169 F 
ATOM     91  F   UNL     1       4.670   6.443 -11.605  1.00  0.00    -0.169 F 
ATOM     92  F   UNL     1       6.577   5.605 -10.948  1.00  0.00    -0.169 F 
ENDBRANCH  88  89
ENDBRANCH  86  88
ENDBRANCH  79  82
ENDBRANCH  77  78
BRANCH  77  93
ATOM     93  C   UNL     1       9.700   0.803  -8.301  1.00  0.00     0.191 C 
BRANCH  93  94
ATOM     94  O   UNL     1      10.845   1.505  -7.865  1.00  0.00    -0.394 OA
ATOM     95  H   UNL     1      11.407   1.711  -8.628  1.00  0.00     0.210 HD
ENDBRANCH  93  94
ENDBRANCH  77  93
ENDBRANCH  74  77
ENDBRANCH  72  73
ENDBRANCH   1  72
TORSDOF 19
