REMARK SMILES O=C(CSc1nc(-c2cccc(F)c2)n[nH]1)NCCCNC(=O)c1ccc(-c2c3nc(c(-c4cc(S(=O)(=O)[O-])ccc4F)c4ccc([nH]4)c(-c4cc(S(=O)(=O)[O-])ccc4F)c4nc(c(-c5cc(S(=O)(=O)[O-])ccc5F)c5ccc2[nH]5)C=C4)C=C3)cc1
REMARK SMILES IDX 19 1 18 2 17 3 1 4 2 5 3 7 4 8 5 9 6 10 16 11 7 12 15 13
REMARK SMILES IDX 8 15 9 16 14 17 10 18 12 19 11 20 13 21 20 22 21 23 22 24
REMARK SMILES IDX 23 26 24 27 25 28 86 29 26 30 85 31 27 32 28 33 29 34 79 35
REMARK SMILES IDX 30 36 84 37 78 38 80 39 31 40 83 41 77 42 76 43 32 45 64 46
REMARK SMILES IDX 44 47 63 48 45 49 48 50 62 51 81 52 46 53 47 54 61 56 82 57
REMARK SMILES IDX 49 58 33 59 34 60 42 61 35 62 41 63 43 64 40 65 36 66 37 67
REMARK SMILES IDX 38 68 39 69 65 70 66 71 74 72 67 73 73 74 75 75 72 76 68 77
REMARK SMILES IDX 69 78 70 79 71 80 50 81 51 82 59 83 52 84 58 85 60 86 57 87
REMARK SMILES IDX 53 88 54 89 55 90 56 91
REMARK H PARENT 17 6 16 14 21 25 80 44 48 55
REMARK Flexibility Score: inf
ROOT
ATOM      1  C   UNL     1       2.512   1.993   2.724  1.00  0.00     0.042 C 
ENDROOT
BRANCH   1   2
ATOM      2  C   UNL     1       2.254   2.090   1.223  1.00  0.00     0.117 C 
BRANCH   2   3
ATOM      3  N   UNL     1       2.921   1.042   0.471  1.00  0.00    -0.355 N 
ATOM      4  O   UNL     1       1.014   0.068  -0.374  1.00  0.00    -0.274 OA
ATOM      5  C   UNL     1       2.238   0.118  -0.286  1.00  0.00     0.230 C 
ATOM      6  H   UNL     1       3.903   0.991   0.504  1.00  0.00     0.163 HD
BRANCH   5   7
ATOM      7  C   UNL     1       3.107  -0.904  -0.995  1.00  0.00     0.178 C 
BRANCH   7   8
ATOM      8  S   UNL     1       4.271  -0.146  -2.160  1.00  0.00    -0.077 SA
BRANCH   8   9
ATOM      9  C   UNL     1       3.255   0.866  -3.111  1.00  0.00     0.184 A 
ATOM     10  N   UNL     1       3.468   2.124  -3.400  1.00  0.00    -0.201 NA
ATOM     11  N   UNL     1       2.107   0.445  -3.703  1.00  0.00    -0.254 N 
ATOM     12  C   UNL     1       2.356   2.468  -4.136  1.00  0.00     0.182 A 
ATOM     13  N   UNL     1       1.502   1.453  -4.355  1.00  0.00    -0.153 NA
ATOM     14  H   UNL     1       1.763  -0.476  -3.660  1.00  0.00     0.192 HD
BRANCH  12  15
ATOM     15  C   UNL     1       2.136   3.826  -4.606  1.00  0.00     0.024 A 
ATOM     16  C   UNL     1       3.212   4.595  -5.074  1.00  0.00     0.012 A 
ATOM     17  C   UNL     1       0.854   4.387  -4.571  1.00  0.00     0.051 A 
ATOM     18  C   UNL     1       3.009   5.908  -5.509  1.00  0.00     0.004 A 
ATOM     19  C   UNL     1       0.668   5.699  -4.990  1.00  0.00     0.123 A 
ATOM     20  C   UNL     1       1.731   6.463  -5.461  1.00  0.00     0.039 A 
ATOM     21  F   UNL     1      -0.556   6.242  -4.935  1.00  0.00    -0.207 F 
ENDBRANCH  12  15
ENDBRANCH   8   9
ENDBRANCH   7   8
ENDBRANCH   5   7
ENDBRANCH   2   3
ENDBRANCH   1   2
BRANCH   1  22
ATOM     22  C   UNL     1       3.973   2.151   3.144  1.00  0.00     0.118 C 
BRANCH  22  23
ATOM     23  N   UNL     1       4.535   3.446   2.794  1.00  0.00    -0.352 N 
ATOM     24  C   UNL     1       5.229   4.354   3.553  1.00  0.00     0.251 C 
ATOM     25  H   UNL     1       4.394   3.715   1.857  1.00  0.00     0.163 HD
ATOM     26  O   UNL     1       5.489   5.454   3.058  1.00  0.00    -0.269 OA
BRANCH  24  27
ATOM     27  C   UNL     1       5.646   4.059   4.944  1.00  0.00     0.039 A 
ATOM     28  C   UNL     1       5.585   5.093   5.886  1.00  0.00     0.014 A 
ATOM     29  C   UNL     1       6.140   2.809   5.328  1.00  0.00     0.014 A 
ATOM     30  C   UNL     1       5.959   4.859   7.213  1.00  0.00     0.010 A 
ATOM     31  C   UNL     1       6.453   2.558   6.667  1.00  0.00     0.010 A 
ATOM     32  C   UNL     1       6.365   3.579   7.625  1.00  0.00    -0.014 A 
BRANCH  32  33
ATOM     33  C   UNL     1       6.689   3.305   9.052  1.00  0.00     0.031 A 
ATOM     34  C   UNL     1       8.088   2.925   9.462  1.00  0.00     0.074 A 
ATOM     35  C   UNL     1       5.715   3.373   9.982  1.00  0.00     0.049 A 
ATOM     36  N   UNL     1       8.542   2.608  10.648  1.00  0.00    -0.248 NA
ATOM     37  C   UNL     1       9.102   2.876   8.399  1.00  0.00     0.031 C 
ATOM     38  C   UNL     1       4.314   3.707   9.712  1.00  0.00     0.029 A 
ATOM     39  N   UNL     1       5.750   3.172  11.340  1.00  0.00    -0.354 N 
ATOM     40  C   UNL     1       9.890   2.315  10.474  1.00  0.00     0.074 A 
ATOM     41  C   UNL     1      10.168   2.445   9.060  1.00  0.00     0.031 C 
ATOM     42  C   UNL     1       3.635   3.726  10.870  1.00  0.00     0.029 A 
ATOM     43  C   UNL     1       4.537   3.361  11.960  1.00  0.00     0.049 A 
ATOM     44  H   UNL     1       6.568   2.915  11.825  1.00  0.00     0.167 HD
ATOM     45  C   UNL     1      10.814   1.987  11.410  1.00  0.00     0.034 A 
ATOM     46  C   UNL     1       4.182   3.250  13.256  1.00  0.00     0.034 A 
ATOM     47  C   UNL     1      10.538   1.888  12.821  1.00  0.00     0.049 A 
ATOM     48  C   UNL     1       5.220   2.860  14.273  1.00  0.00     0.074 A 
ATOM     49  C   UNL     1      11.422   1.616  13.852  1.00  0.00     0.029 A 
ATOM     50  N   UNL     1       9.289   2.054  13.402  1.00  0.00    -0.354 N 
ATOM     51  N   UNL     1       6.491   2.592  14.088  1.00  0.00    -0.248 NA
ATOM     52  C   UNL     1       4.779   2.755  15.671  1.00  0.00     0.031 C 
ATOM     53  C   UNL     1      10.699   1.562  15.047  1.00  0.00     0.029 A 
ATOM     54  C   UNL     1       9.375   1.864  14.772  1.00  0.00     0.049 A 
ATOM     55  H   UNL     1       8.464   2.276  12.913  1.00  0.00     0.167 HD
ATOM     56  C   UNL     1       7.005   2.306  15.349  1.00  0.00     0.074 A 
ATOM     57  C   UNL     1       5.909   2.433  16.287  1.00  0.00     0.031 C 
ATOM     58  C   UNL     1       8.273   1.976  15.696  1.00  0.00     0.034 A 
BRANCH  45  59
ATOM     59  C   UNL     1      12.217   1.700  10.939  1.00  0.00     0.023 A 
ATOM     60  C   UNL     1      13.037   2.713  10.415  1.00  0.00     0.031 A 
ATOM     61  C   UNL     1      12.749   0.403  11.045  1.00  0.00     0.131 A 
ATOM     62  C   UNL     1      14.332   2.403   9.974  1.00  0.00     0.055 A 
ATOM     63  C   UNL     1      14.060   0.115  10.664  1.00  0.00     0.041 A 
ATOM     64  F   UNL     1      12.002  -0.604  11.525  1.00  0.00    -0.206 F 
ATOM     65  C   UNL     1      14.858   1.116  10.118  1.00  0.00     0.022 A 
BRANCH  62  66
ATOM     66  S   UNL     1      15.297   3.689   9.137  1.00  0.00     0.124 S 
ATOM     67  O   UNL     1      14.507   3.906   7.927  1.00  0.00    -0.237 OA
ATOM     68  O   UNL     1      15.289   4.776  10.109  1.00  0.00    -0.237 OA
ATOM     69  O   UNL     1      16.596   3.056   8.921  1.00  0.00    -0.744 OA
ENDBRANCH  62  66
ENDBRANCH  45  59
BRANCH  46  70
ATOM     70  C   UNL     1       2.773   3.506  13.662  1.00  0.00     0.023 A 
ATOM     71  C   UNL     1       2.432   4.647  14.403  1.00  0.00     0.031 A 
ATOM     72  C   UNL     1       1.746   2.616  13.301  1.00  0.00     0.131 A 
ATOM     73  C   UNL     1       1.096   4.861  14.777  1.00  0.00     0.055 A 
ATOM     74  C   UNL     1       0.414   2.852  13.644  1.00  0.00     0.041 A 
ATOM     75  F   UNL     1       2.024   1.516  12.583  1.00  0.00    -0.206 F 
ATOM     76  C   UNL     1       0.084   3.978  14.391  1.00  0.00     0.022 A 
BRANCH  73  77
ATOM     77  S   UNL     1       0.696   6.308  15.796  1.00  0.00     0.124 S 
ATOM     78  O   UNL     1       1.396   5.998  17.037  1.00  0.00    -0.237 OA
ATOM     79  O   UNL     1       1.247   7.402  15.003  1.00  0.00    -0.237 OA
ATOM     80  O   UNL     1      -0.763   6.274  15.875  1.00  0.00    -0.744 OA
ENDBRANCH  73  77
ENDBRANCH  46  70
BRANCH  58  81
ATOM     81  C   UNL     1       8.561   1.753  17.156  1.00  0.00     0.023 A 
ATOM     82  C   UNL     1       8.136   0.590  17.818  1.00  0.00     0.031 A 
ATOM     83  C   UNL     1       9.325   2.690  17.874  1.00  0.00     0.131 A 
ATOM     84  C   UNL     1       8.463   0.401  19.170  1.00  0.00     0.055 A 
ATOM     85  C   UNL     1       9.682   2.478  19.206  1.00  0.00     0.041 A 
ATOM     86  F   UNL     1       9.758   3.814  17.281  1.00  0.00    -0.206 F 
ATOM     87  C   UNL     1       9.248   1.329  19.861  1.00  0.00     0.022 A 
BRANCH  84  88
ATOM     88  S   UNL     1       7.841  -1.074  20.023  1.00  0.00     0.124 S 
ATOM     89  O   UNL     1       6.404  -0.823  20.049  1.00  0.00    -0.237 OA
ATOM     90  O   UNL     1       8.284  -2.156  19.151  1.00  0.00    -0.237 OA
ATOM     91  O   UNL     1       8.504  -1.021  21.325  1.00  0.00    -0.744 OA
ENDBRANCH  84  88
ENDBRANCH  58  81
ENDBRANCH  32  33
ENDBRANCH  24  27
ENDBRANCH  22  23
ENDBRANCH   1  22
TORSDOF 16
