REMARK SMILES O=C(NCCCNC(=O)[C@H](c1c[nH]c2ccc(Br)cc12)[N@H+]1CCC[C@H](c2nc3ccccc3s2)C1)c1ccc(-c2c3nc(c(-c4cc(S(=O)(=O)[O-])ccc4F)c4ccc([nH]4)c(-c4cc(S(=O)(=O)[O-])ccc4F)c4nc(c(-c5cc(S(=O)(=O)[O-])ccc5F)c5ccc2[nH]5)C=C4)C=C3)cc1
REMARK SMILES IDX 4 1 3 2 1 3 2 4 36 6 37 7 98 8 38 9 97 10 39 11 40 12 41 13
REMARK SMILES IDX 91 14 42 15 96 16 90 17 92 18 43 19 95 20 89 21 88 22 44 24
REMARK SMILES IDX 76 25 56 26 75 27 57 28 60 29 74 30 93 31 58 32 59 33 73 35
REMARK SMILES IDX 94 36 61 37 45 38 46 39 54 40 47 41 53 42 55 43 52 44 48 45
REMARK SMILES IDX 49 46 50 47 51 48 77 49 78 50 86 51 79 52 85 53 87 54 84 55
REMARK SMILES IDX 80 56 81 57 82 58 83 59 62 60 63 61 71 62 64 63 70 64 72 65
REMARK SMILES IDX 69 66 65 67 66 68 67 69 68 70 5 71 6 72 7 73 8 74 9 76 10 77
REMARK SMILES IDX 21 78 22 79 35 80 23 82 25 83 24 84 26 85 27 86 34 87 28 88
REMARK SMILES IDX 33 89 29 90 32 91 30 92 31 93 11 94 12 95 20 96 13 97 14 98
REMARK SMILES IDX 19 99 15 101 17 102 16 103 18 104
REMARK H PARENT 3 5 92 23 60 34 7 75 21 81 13 100
REMARK Flexibility Score: inf
ROOT
ATOM      1  C   UNL     1       9.809   1.895  -2.345  1.00  0.00     0.118 C 
ENDROOT
BRANCH   1   2
ATOM      2  N   UNL     1      11.232   2.134  -2.545  1.00  0.00    -0.352 N 
ATOM      3  O   UNL     1      13.254   3.012  -2.095  1.00  0.00    -0.269 OA
ATOM      4  C   UNL     1      12.150   2.668  -1.676  1.00  0.00     0.251 C 
ATOM      5  H   UNL     1      11.584   1.875  -3.427  1.00  0.00     0.163 HD
BRANCH   4   6
ATOM      6  C   UNL     1      11.811   2.825  -0.245  1.00  0.00     0.039 A 
ATOM      7  C   UNL     1      11.100   1.827   0.423  1.00  0.00     0.014 A 
ATOM      8  C   UNL     1      12.239   3.963   0.446  1.00  0.00     0.014 A 
ATOM      9  C   UNL     1      10.698   2.027   1.736  1.00  0.00     0.010 A 
ATOM     10  C   UNL     1      11.925   4.112   1.802  1.00  0.00     0.010 A 
ATOM     11  C   UNL     1      11.138   3.151   2.453  1.00  0.00    -0.014 A 
BRANCH  11  12
ATOM     12  C   UNL     1      10.830   3.224   3.905  1.00  0.00     0.031 A 
ATOM     13  C   UNL     1       9.953   4.305   4.467  1.00  0.00     0.074 A 
ATOM     14  C   UNL     1      11.309   2.246   4.700  1.00  0.00     0.049 A 
ATOM     15  N   UNL     1       9.540   4.470   5.697  1.00  0.00    -0.248 NA
ATOM     16  C   UNL     1       9.487   5.340   3.533  1.00  0.00     0.031 C 
ATOM     17  C   UNL     1      12.189   1.159   4.253  1.00  0.00     0.029 A 
ATOM     18  N   UNL     1      11.105   1.977   6.027  1.00  0.00    -0.354 N 
ATOM     19  C   UNL     1       8.769   5.626   5.691  1.00  0.00     0.074 A 
ATOM     20  C   UNL     1       8.808   6.145   4.339  1.00  0.00     0.031 C 
ATOM     21  C   UNL     1      12.389   0.308   5.268  1.00  0.00     0.029 A 
ATOM     22  C   UNL     1      11.723   0.825   6.456  1.00  0.00     0.049 A 
ATOM     23  H   UNL     1      10.567   2.553   6.618  1.00  0.00     0.167 HD
ATOM     24  C   UNL     1       8.085   6.192   6.718  1.00  0.00     0.034 A 
ATOM     25  C   UNL     1      11.766   0.253   7.674  1.00  0.00     0.034 A 
ATOM     26  C   UNL     1       8.072   5.661   8.062  1.00  0.00     0.049 A 
ATOM     27  C   UNL     1      11.012   0.912   8.796  1.00  0.00     0.074 A 
ATOM     28  C   UNL     1       7.428   6.158   9.183  1.00  0.00     0.029 A 
ATOM     29  N   UNL     1       8.737   4.510   8.471  1.00  0.00    -0.354 N 
ATOM     30  N   UNL     1      10.288   2.008   8.770  1.00  0.00    -0.248 NA
ATOM     31  C   UNL     1      11.074   0.256  10.105  1.00  0.00     0.031 C 
ATOM     32  C   UNL     1       7.747   5.342  10.275  1.00  0.00     0.029 A 
ATOM     33  C   UNL     1       8.532   4.293   9.826  1.00  0.00     0.049 A 
ATOM     34  H   UNL     1       9.275   3.932   7.883  1.00  0.00     0.167 HD
ATOM     35  C   UNL     1       9.804   2.170  10.062  1.00  0.00     0.074 A 
ATOM     36  C   UNL     1      10.283   1.035  10.828  1.00  0.00     0.031 C 
ATOM     37  C   UNL     1       9.043   3.169  10.577  1.00  0.00     0.034 A 
BRANCH  24  38
ATOM     38  C   UNL     1       7.329   7.467   6.429  1.00  0.00     0.023 A 
ATOM     39  C   UNL     1       6.237   7.493   5.543  1.00  0.00     0.031 A 
ATOM     40  C   UNL     1       7.711   8.678   7.034  1.00  0.00     0.131 A 
ATOM     41  C   UNL     1       5.607   8.710   5.238  1.00  0.00     0.055 A 
ATOM     42  C   UNL     1       7.034   9.874   6.784  1.00  0.00     0.041 A 
ATOM     43  F   UNL     1       8.758   8.722   7.872  1.00  0.00    -0.206 F 
ATOM     44  C   UNL     1       5.982   9.897   5.872  1.00  0.00     0.022 A 
BRANCH  41  45
ATOM     45  S   UNL     1       4.371   8.740   3.910  1.00  0.00     0.124 S 
ATOM     46  O   UNL     1       5.151   8.269   2.767  1.00  0.00    -0.237 OA
ATOM     47  O   UNL     1       3.351   7.823   4.406  1.00  0.00    -0.237 OA
ATOM     48  O   UNL     1       3.971  10.144   3.845  1.00  0.00    -0.744 OA
ENDBRANCH  41  45
ENDBRANCH  24  38
BRANCH  25  49
ATOM     49  C   UNL     1      12.579  -0.976   7.900  1.00  0.00     0.023 A 
ATOM     50  C   UNL     1      11.987  -2.181   8.309  1.00  0.00     0.031 A 
ATOM     51  C   UNL     1      13.977  -0.952   7.735  1.00  0.00     0.131 A 
ATOM     52  C   UNL     1      12.793  -3.297   8.582  1.00  0.00     0.055 A 
ATOM     53  C   UNL     1      14.766  -2.082   7.948  1.00  0.00     0.041 A 
ATOM     54  F   UNL     1      14.595   0.173   7.342  1.00  0.00    -0.206 F 
ATOM     55  C   UNL     1      14.176  -3.260   8.389  1.00  0.00     0.022 A 
BRANCH  52  56
ATOM     56  S   UNL     1      12.017  -4.777   9.289  1.00  0.00     0.124 S 
ATOM     57  O   UNL     1      11.346  -4.230  10.463  1.00  0.00    -0.237 OA
ATOM     58  O   UNL     1      11.150  -5.213   8.200  1.00  0.00    -0.237 OA
ATOM     59  O   UNL     1      13.152  -5.654   9.570  1.00  0.00    -0.744 OA
ENDBRANCH  52  56
ENDBRANCH  25  49
BRANCH  37  60
ATOM     60  C   UNL     1       8.680   3.049  12.036  1.00  0.00     0.023 A 
ATOM     61  C   UNL     1       9.659   3.122  13.043  1.00  0.00     0.031 A 
ATOM     62  C   UNL     1       7.350   2.804  12.420  1.00  0.00     0.131 A 
ATOM     63  C   UNL     1       9.307   2.876  14.377  1.00  0.00     0.055 A 
ATOM     64  C   UNL     1       6.995   2.625  13.758  1.00  0.00     0.041 A 
ATOM     65  F   UNL     1       6.376   2.723  11.499  1.00  0.00    -0.206 F 
ATOM     66  C   UNL     1       7.979   2.643  14.743  1.00  0.00     0.022 A 
BRANCH  63  67
ATOM     67  S   UNL     1      10.628   2.747  15.614  1.00  0.00     0.124 S 
ATOM     68  O   UNL     1      11.457   1.680  15.062  1.00  0.00    -0.237 OA
ATOM     69  O   UNL     1      11.210   4.085  15.588  1.00  0.00    -0.237 OA
ATOM     70  O   UNL     1       9.915   2.406  16.843  1.00  0.00    -0.744 OA
ENDBRANCH  63  67
ENDBRANCH  37  60
ENDBRANCH  11  12
ENDBRANCH   4   6
ENDBRANCH   1   2
BRANCH   1  71
ATOM     71  C   UNL     1       8.957   2.687  -3.322  1.00  0.00     0.042 C 
BRANCH  71  72
ATOM     72  C   UNL     1       9.060   2.180  -4.757  1.00  0.00     0.118 C 
BRANCH  72  73
ATOM     73  N   UNL     1       8.426   0.886  -4.902  1.00  0.00    -0.351 N 
ATOM     74  C   UNL     1       7.105   0.602  -5.154  1.00  0.00     0.283 C 
ATOM     75  H   UNL     1       9.020   0.106  -4.807  1.00  0.00     0.163 HD
ATOM     76  O   UNL     1       6.769  -0.550  -4.873  1.00  0.00    -0.268 OA
BRANCH  74  77
ATOM     77  C   UNL     1       6.190   1.710  -5.794  1.00  0.00     0.307 C 
BRANCH  77  78
ATOM     78  N   UNL     1       4.982   1.245  -6.533  1.00  0.00    -0.320 N 
ATOM     79  C   UNL     1       4.569   2.232  -7.540  1.00  0.00     0.263 C 
ATOM     80  C   UNL     1       5.006  -0.117  -7.085  1.00  0.00     0.274 C 
ATOM     81  H   UNL     1       4.275   1.172  -5.801  1.00  0.00     0.349 HD
ATOM     82  C   UNL     1       3.223   1.886  -8.178  1.00  0.00     0.062 C 
ATOM     83  C   UNL     1       3.643  -0.553  -7.681  1.00  0.00     0.104 C 
ATOM     84  C   UNL     1       3.213   0.469  -8.741  1.00  0.00     0.022 C 
BRANCH  83  85
ATOM     85  C   UNL     1       2.597  -0.756  -6.595  1.00  0.00     0.103 A 
ATOM     86  N   UNL     1       2.795  -0.515  -5.318  1.00  0.00    -0.241 NA
ATOM     87  S   UNL     1       1.032  -1.376  -6.969  1.00  0.00    -0.118 S 
ATOM     88  C   UNL     1       1.644  -0.713  -4.590  1.00  0.00     0.082 A 
ATOM     89  C   UNL     1       0.553  -1.178  -5.324  1.00  0.00     0.055 A 
ATOM     90  C   UNL     1       1.493  -0.480  -3.210  1.00  0.00     0.030 A 
ATOM     91  C   UNL     1      -0.693  -1.414  -4.720  1.00  0.00     0.021 A 
ATOM     92  C   UNL     1       0.256  -0.702  -2.600  1.00  0.00     0.002 A 
ATOM     93  C   UNL     1      -0.823  -1.162  -3.349  1.00  0.00     0.002 A 
ENDBRANCH  83  85
ENDBRANCH  77  78
BRANCH  77  94
ATOM     94  C   UNL     1       5.721   2.653  -4.699  1.00  0.00     0.044 A 
ATOM     95  C   UNL     1       4.926   2.320  -3.614  1.00  0.00     0.094 A 
ATOM     96  C   UNL     1       6.066   4.040  -4.532  1.00  0.00     0.010 A 
ATOM     97  N   UNL     1       4.844   3.399  -2.779  1.00  0.00    -0.361 N 
ATOM     98  C   UNL     1       5.577   4.445  -3.288  1.00  0.00     0.046 A 
ATOM     99  C   UNL     1       6.820   4.966  -5.285  1.00  0.00     0.026 A 
ATOM    100  H   UNL     1       4.335   3.423  -1.936  1.00  0.00     0.166 HD
ATOM    101  C   UNL     1       5.853   5.701  -2.732  1.00  0.00     0.028 A 
ATOM    102  C   UNL     1       7.112   6.219  -4.734  1.00  0.00     0.018 A 
ATOM    103  C   UNL     1       6.649   6.579  -3.473  1.00  0.00     0.018 A 
ATOM    104  Br  UNL     1       8.194   7.424  -5.714  1.00  0.00    -0.051 Br
ENDBRANCH  77  94
ENDBRANCH  74  77
ENDBRANCH  72  73
ENDBRANCH  71  72
ENDBRANCH   1  71
TORSDOF 16
