REMARK SMILES CS(=O)(=O)c1ccc(/C=C(/C(=O)NCCCNC(=O)c2ccc(-c3c4nc(c(-c5cc(S(=O)(=O)[O-])ccc5F)c5ccc([nH]5)c(-c5cc(S(=O)(=O)[O-])ccc5F)c5nc(c(-c6cc(S(=O)(=O)[O-])ccc6F)c6ccc3[nH]6)C=C5)C=C4)cc2)c2ccc(F)cc2)cc1
REMARK SMILES IDX 15 1 14 2 13 3 11 4 12 5 10 7 9 8 8 9 5 10 6 11 91 12 7 13
REMARK SMILES IDX 90 14 2 15 1 16 3 17 4 18 83 19 84 20 89 21 85 22 88 23
REMARK SMILES IDX 86 24 87 25 16 26 17 27 18 28 19 30 20 31 21 32 82 33 22 34
REMARK SMILES IDX 81 35 23 36 24 37 25 38 75 39 26 40 80 41 74 42 76 43 27 44
REMARK SMILES IDX 79 45 73 46 72 47 28 49 60 50 40 51 59 52 41 53 44 54 58 55
REMARK SMILES IDX 77 56 42 57 43 58 57 60 78 61 45 62 29 63 30 64 38 65 31 66
REMARK SMILES IDX 37 67 39 68 36 69 32 70 33 71 34 72 35 73 61 74 62 75 70 76
REMARK SMILES IDX 63 77 69 78 71 79 68 80 64 81 65 82 66 83 67 84 46 85 47 86
REMARK SMILES IDX 55 87 48 88 54 89 56 90 53 91 49 92 50 93 51 94 52 95
REMARK H PARENT 13 6 17 29 76 48 44 59
REMARK Flexibility Score: inf
ROOT
ATOM      1  C   UNL     1       2.552  -6.190   7.624  1.00  0.00     0.042 C 
ENDROOT
BRANCH   1   2
ATOM      2  C   UNL     1       3.251  -6.511   6.301  1.00  0.00     0.118 C 
BRANCH   2   3
ATOM      3  N   UNL     1       2.555  -7.565   5.584  1.00  0.00    -0.352 N 
ATOM      4  C   UNL     1       1.721  -7.593   4.512  1.00  0.00     0.251 C 
ATOM      5  O   UNL     1       1.321  -8.708   4.166  1.00  0.00    -0.269 OA
ATOM      6  H   UNL     1       2.727  -8.460   5.958  1.00  0.00     0.163 HD
BRANCH   4   7
ATOM      7  C   UNL     1       1.349  -6.370   3.703  1.00  0.00     0.047 C 
ATOM      8  C   UNL     1       1.176  -5.158   4.276  1.00  0.00     0.022 C 
BRANCH   8   9
ATOM      9  C   UNL     1       0.885  -3.853   3.641  1.00  0.00    -0.025 A 
ATOM     10  C   UNL     1       0.508  -1.334   2.462  1.00  0.00     0.067 A 
ATOM     11  C   UNL     1      -0.275  -2.415   2.056  1.00  0.00     0.021 A 
ATOM     12  C   UNL     1       1.437  -1.480   3.491  1.00  0.00     0.021 A 
ATOM     13  C   UNL     1      -0.095  -3.664   2.659  1.00  0.00     0.009 A 
ATOM     14  C   UNL     1       1.623  -2.738   4.073  1.00  0.00     0.009 A 
BRANCH  10  15
ATOM     15  S   UNL     1       0.288   0.244   1.676  1.00  0.00     0.175 S 
ATOM     16  C   UNL     1       1.060   0.028   0.093  1.00  0.00     0.163 C 
ATOM     17  O   UNL     1       1.062   1.223   2.409  1.00  0.00    -0.224 OA
ATOM     18  O   UNL     1      -1.138   0.424   1.460  1.00  0.00    -0.224 OA
ENDBRANCH  10  15
ENDBRANCH   8   9
BRANCH   7  19
ATOM     19  C   UNL     1       1.007  -6.595   2.275  1.00  0.00    -0.013 A 
ATOM     20  C   UNL     1      -0.157  -7.324   1.964  1.00  0.00     0.012 A 
ATOM     21  C   UNL     1       1.768  -6.051   1.231  1.00  0.00     0.012 A 
ATOM     22  C   UNL     1      -0.566  -7.487   0.642  1.00  0.00     0.040 A 
ATOM     23  C   UNL     1       1.350  -6.207  -0.094  1.00  0.00     0.040 A 
ATOM     24  C   UNL     1       0.187  -6.918  -0.375  1.00  0.00     0.123 A 
ATOM     25  F   UNL     1      -0.217  -7.048  -1.646  1.00  0.00    -0.207 F 
ENDBRANCH   7  19
ENDBRANCH   4   7
ENDBRANCH   2   3
ENDBRANCH   1   2
BRANCH   1  26
ATOM     26  C   UNL     1       2.630  -7.316   8.658  1.00  0.00     0.118 C 
BRANCH  26  27
ATOM     27  N   UNL     1       3.983  -7.512   9.156  1.00  0.00    -0.352 N 
ATOM     28  C   UNL     1       4.468  -7.459  10.440  1.00  0.00     0.251 C 
ATOM     29  H   UNL     1       4.655  -7.715   8.465  1.00  0.00     0.163 HD
ATOM     30  O   UNL     1       5.685  -7.433  10.612  1.00  0.00    -0.269 OA
BRANCH  28  31
ATOM     31  C   UNL     1       3.552  -7.417  11.602  1.00  0.00     0.039 A 
ATOM     32  C   UNL     1       3.868  -6.581  12.678  1.00  0.00     0.014 A 
ATOM     33  C   UNL     1       2.418  -8.233  11.667  1.00  0.00     0.014 A 
ATOM     34  C   UNL     1       3.023  -6.523  13.791  1.00  0.00     0.010 A 
ATOM     35  C   UNL     1       1.546  -8.130  12.751  1.00  0.00     0.010 A 
ATOM     36  C   UNL     1       1.840  -7.277  13.826  1.00  0.00    -0.014 A 
BRANCH  36  37
ATOM     37  C   UNL     1       0.906  -7.193  14.980  1.00  0.00     0.031 A 
ATOM     38  C   UNL     1       0.682  -8.392  15.862  1.00  0.00     0.074 A 
ATOM     39  C   UNL     1       0.214  -6.058  15.198  1.00  0.00     0.049 A 
ATOM     40  N   UNL     1      -0.151  -8.545  16.860  1.00  0.00    -0.248 NA
ATOM     41  C   UNL     1       1.484  -9.586  15.559  1.00  0.00     0.031 C 
ATOM     42  C   UNL     1       0.323  -4.836  14.398  1.00  0.00     0.029 A 
ATOM     43  N   UNL     1      -0.724  -5.748  16.150  1.00  0.00    -0.354 N 
ATOM     44  C   UNL     1       0.014  -9.856  17.296  1.00  0.00     0.074 A 
ATOM     45  C   UNL     1       0.986 -10.467  16.412  1.00  0.00     0.031 C 
ATOM     46  C   UNL     1      -0.500  -3.904  14.905  1.00  0.00     0.029 A 
ATOM     47  C   UNL     1      -1.226  -4.472  16.036  1.00  0.00     0.049 A 
ATOM     48  H   UNL     1      -1.011  -6.379  16.849  1.00  0.00     0.167 HD
ATOM     49  C   UNL     1      -0.574 -10.485  18.346  1.00  0.00     0.034 A 
ATOM     50  C   UNL     1      -2.173  -3.836  16.754  1.00  0.00     0.034 A 
ATOM     51  C   UNL     1      -1.534  -9.858  19.222  1.00  0.00     0.049 A 
ATOM     52  C   UNL     1      -2.837  -4.563  17.894  1.00  0.00     0.074 A 
ATOM     53  C   UNL     1      -2.153 -10.382  20.345  1.00  0.00     0.029 A 
ATOM     54  N   UNL     1      -2.025  -8.566  19.070  1.00  0.00    -0.354 N 
ATOM     55  N   UNL     1      -2.641  -5.790  18.319  1.00  0.00    -0.248 NA
ATOM     56  C   UNL     1      -3.845  -3.814  18.656  1.00  0.00     0.031 C 
ATOM     57  C   UNL     1      -3.059  -9.433  20.834  1.00  0.00     0.029 A 
ATOM     58  C   UNL     1      -2.958  -8.289  20.059  1.00  0.00     0.049 A 
ATOM     59  H   UNL     1      -1.750  -7.939  18.363  1.00  0.00     0.167 HD
ATOM     60  C   UNL     1      -3.480  -5.948  19.418  1.00  0.00     0.074 A 
ATOM     61  C   UNL     1      -4.175  -4.689  19.595  1.00  0.00     0.031 C 
ATOM     62  C   UNL     1      -3.654  -7.033  20.215  1.00  0.00     0.034 A 
BRANCH  49  63
ATOM     63  C   UNL     1      -0.209 -11.934  18.574  1.00  0.00     0.023 A 
ATOM     64  C   UNL     1       1.108 -12.325  18.872  1.00  0.00     0.031 A 
ATOM     65  C   UNL     1      -1.180 -12.944  18.446  1.00  0.00     0.131 A 
ATOM     66  C   UNL     1       1.438 -13.687  18.939  1.00  0.00     0.055 A 
ATOM     67  C   UNL     1      -0.862 -14.295  18.601  1.00  0.00     0.041 A 
ATOM     68  F   UNL     1      -2.451 -12.637  18.145  1.00  0.00    -0.206 F 
ATOM     69  C   UNL     1       0.458 -14.675  18.829  1.00  0.00     0.022 A 
BRANCH  66  70
ATOM     70  S   UNL     1       3.192 -14.149  19.002  1.00  0.00     0.124 S 
ATOM     71  O   UNL     1       3.707 -13.518  17.789  1.00  0.00    -0.237 OA
ATOM     72  O   UNL     1       3.627 -13.560  20.264  1.00  0.00    -0.237 OA
ATOM     73  O   UNL     1       3.163 -15.610  18.971  1.00  0.00    -0.744 OA
ENDBRANCH  66  70
ENDBRANCH  49  63
BRANCH  50  74
ATOM     74  C   UNL     1      -2.556  -2.436  16.421  1.00  0.00     0.023 A 
ATOM     75  C   UNL     1      -2.286  -1.386  17.311  1.00  0.00     0.031 A 
ATOM     76  C   UNL     1      -3.228  -2.132  15.224  1.00  0.00     0.131 A 
ATOM     77  C   UNL     1      -2.720  -0.086  17.012  1.00  0.00     0.055 A 
ATOM     78  C   UNL     1      -3.618  -0.829  14.909  1.00  0.00     0.041 A 
ATOM     79  F   UNL     1      -3.504  -3.100  14.335  1.00  0.00    -0.206 F 
ATOM     80  C   UNL     1      -3.374   0.202  15.812  1.00  0.00     0.022 A 
BRANCH  77  81
ATOM     81  S   UNL     1      -2.477   1.216  18.251  1.00  0.00     0.124 S 
ATOM     82  O   UNL     1      -3.209   0.680  19.393  1.00  0.00    -0.237 OA
ATOM     83  O   UNL     1      -1.024   1.247  18.376  1.00  0.00    -0.237 OA
ATOM     84  O   UNL     1      -3.072   2.396  17.625  1.00  0.00    -0.744 OA
ENDBRANCH  77  81
ENDBRANCH  50  74
BRANCH  62  85
ATOM     85  C   UNL     1      -4.605  -6.879  21.376  1.00  0.00     0.023 A 
ATOM     86  C   UNL     1      -5.989  -6.727  21.185  1.00  0.00     0.031 A 
ATOM     87  C   UNL     1      -4.111  -6.861  22.693  1.00  0.00     0.131 A 
ATOM     88  C   UNL     1      -6.827  -6.509  22.289  1.00  0.00     0.055 A 
ATOM     89  C   UNL     1      -4.956  -6.699  23.791  1.00  0.00     0.041 A 
ATOM     90  F   UNL     1      -2.797  -7.000  22.932  1.00  0.00    -0.206 F 
ATOM     91  C   UNL     1      -6.321  -6.509  23.592  1.00  0.00     0.022 A 
BRANCH  88  92
ATOM     92  S   UNL     1      -8.578  -6.139  21.996  1.00  0.00     0.124 S 
ATOM     93  O   UNL     1      -8.501  -4.935  21.175  1.00  0.00    -0.237 OA
ATOM     94  O   UNL     1      -9.043  -7.344  21.317  1.00  0.00    -0.237 OA
ATOM     95  O   UNL     1      -9.117  -5.940  23.340  1.00  0.00    -0.744 OA
ENDBRANCH  88  92
ENDBRANCH  62  85
ENDBRANCH  36  37
ENDBRANCH  28  31
ENDBRANCH  26  27
ENDBRANCH   1  26
TORSDOF 16
