REMARK SMILES CC1(C)[C@H](C(=O)NCCCNC(=O)c2ccc(-c3c4nc(c(-c5cc(S(=O)(=O)[O-])ccc5F)c5ccc([nH]5)c(-c5cc(S(=O)(=O)[O-])ccc5F)c5nc(c(-c6cc(S(=O)(=O)[O-])ccc6F)c6ccc3[nH]6)C=C5)C=C4)cc2)[C@@H]1C(=O)Nc1ccc(NC(=O)C2CCC2)cc1
REMARK SMILES IDX 8 1 7 2 5 3 6 4 4 6 1 7 2 8 3 9 77 10 78 11 79 12 80 13
REMARK SMILES IDX 81 15 82 16 93 17 83 18 92 19 84 20 85 21 86 22 87 24 88 25
REMARK SMILES IDX 89 26 91 27 90 28 9 29 10 30 11 31 12 32 13 34 14 35 15 36
REMARK SMILES IDX 76 37 16 38 75 39 17 40 18 41 19 42 69 43 20 44 74 45 68 46
REMARK SMILES IDX 70 47 21 48 73 49 67 50 66 51 22 53 54 54 34 55 53 56 35 57
REMARK SMILES IDX 38 58 52 59 71 60 36 61 37 62 51 64 72 65 39 66 23 67 24 68
REMARK SMILES IDX 32 69 25 70 31 71 33 72 30 73 26 74 27 75 28 76 29 77 55 78
REMARK SMILES IDX 56 79 64 80 57 81 63 82 65 83 62 84 58 85 59 86 60 87 61 88
REMARK SMILES IDX 40 89 41 90 49 91 42 92 48 93 50 94 47 95 43 96 44 97 45 98
REMARK SMILES IDX 46 99
REMARK H PARENT 7 5 80 14 85 23 11 33 70 52 38 63
REMARK Flexibility Score: inf
ROOT
ATOM      1  C   UNL     1      -0.718   3.027  -0.302  1.00  0.00     0.117 C 
ENDROOT
BRANCH   1   2
ATOM      2  N   UNL     1      -0.946   2.167  -1.446  1.00  0.00    -0.356 N 
ATOM      3  C   UNL     1      -0.974   0.824  -1.668  1.00  0.00     0.224 C 
ATOM      4  O   UNL     1      -1.230   0.493  -2.829  1.00  0.00    -0.275 OA
ATOM      5  H   UNL     1      -1.125   2.681  -2.266  1.00  0.00     0.163 HD
BRANCH   3   6
ATOM      6  C   UNL     1      -0.743  -0.279  -0.706  1.00  0.00     0.098 C 
ATOM      7  C   UNL     1       1.169  -1.756   0.143  1.00  0.00     0.013 C 
ATOM      8  C   UNL     1       0.450  -0.427   0.222  1.00  0.00    -0.011 C 
ATOM      9  C   UNL     1       1.412   0.720   0.419  1.00  0.00     0.013 C 
ATOM     10  C   UNL     1      -1.000  -0.432   0.759  1.00  0.00     0.098 C 
BRANCH  10  11
ATOM     11  C   UNL     1      -1.572   0.564   1.686  1.00  0.00     0.228 C 
ATOM     12  O   UNL     1      -0.929   0.927   2.668  1.00  0.00    -0.274 OA
ATOM     13  N   UNL     1      -2.843   1.059   1.492  1.00  0.00    -0.326 N 
ATOM     14  H   UNL     1      -3.235   1.568   2.238  1.00  0.00     0.169 HD
BRANCH  13  15
ATOM     15  C   UNL     1      -3.636   0.917   0.349  1.00  0.00     0.041 A 
ATOM     16  C   UNL     1      -3.931   2.091  -0.324  1.00  0.00     0.028 A 
ATOM     17  C   UNL     1      -4.020  -0.303  -0.200  1.00  0.00     0.028 A 
ATOM     18  C   UNL     1      -4.375   2.027  -1.635  1.00  0.00     0.028 A 
ATOM     19  C   UNL     1      -4.684  -0.324  -1.438  1.00  0.00     0.028 A 
ATOM     20  C   UNL     1      -4.864   0.857  -2.171  1.00  0.00     0.041 A 
BRANCH  20  21
ATOM     21  N   UNL     1      -5.524   0.805  -3.402  1.00  0.00    -0.326 N 
ATOM     22  C   UNL     1      -5.999   1.761  -4.280  1.00  0.00     0.227 C 
ATOM     23  H   UNL     1      -5.688  -0.115  -3.711  1.00  0.00     0.169 HD
ATOM     24  O   UNL     1      -6.547   1.282  -5.294  1.00  0.00    -0.274 OA
BRANCH  22  25
ATOM     25  C   UNL     1      -5.905   3.302  -4.107  1.00  0.00     0.079 C 
ATOM     26  C   UNL     1      -7.182   4.063  -4.625  1.00  0.00     0.013 C 
ATOM     27  C   UNL     1      -6.153   4.110  -2.792  1.00  0.00     0.013 C 
ATOM     28  C   UNL     1      -6.851   5.182  -3.634  1.00  0.00     0.002 C 
ENDBRANCH  22  25
ENDBRANCH  20  21
ENDBRANCH  13  15
ENDBRANCH  10  11
ENDBRANCH   3   6
ENDBRANCH   1   2
BRANCH   1  29
ATOM     29  C   UNL     1       0.256   4.146  -0.625  1.00  0.00     0.042 C 
BRANCH  29  30
ATOM     30  C   UNL     1      -0.337   5.183  -1.573  1.00  0.00     0.118 C 
BRANCH  30  31
ATOM     31  N   UNL     1      -1.369   6.002  -0.942  1.00  0.00    -0.352 N 
ATOM     32  C   UNL     1      -1.359   7.350  -0.666  1.00  0.00     0.251 C 
ATOM     33  H   UNL     1      -2.187   5.522  -0.676  1.00  0.00     0.163 HD
ATOM     34  O   UNL     1      -2.233   7.835   0.046  1.00  0.00    -0.269 OA
BRANCH  32  35
ATOM     35  C   UNL     1      -0.272   8.188  -1.212  1.00  0.00     0.039 A 
ATOM     36  C   UNL     1       0.408   9.070  -0.371  1.00  0.00     0.014 A 
ATOM     37  C   UNL     1       0.105   8.054  -2.550  1.00  0.00     0.014 A 
ATOM     38  C   UNL     1       1.528   9.753  -0.854  1.00  0.00     0.010 A 
ATOM     39  C   UNL     1       1.276   8.653  -2.995  1.00  0.00     0.010 A 
ATOM     40  C   UNL     1       1.999   9.513  -2.155  1.00  0.00    -0.014 A 
BRANCH  40  41
ATOM     41  C   UNL     1       3.227  10.166  -2.682  1.00  0.00     0.031 A 
ATOM     42  C   UNL     1       3.128  11.050  -3.897  1.00  0.00     0.074 A 
ATOM     43  C   UNL     1       4.427   9.901  -2.128  1.00  0.00     0.049 A 
ATOM     44  N   UNL     1       4.082  11.594  -4.607  1.00  0.00    -0.248 NA
ATOM     45  C   UNL     1       1.773  11.325  -4.401  1.00  0.00     0.031 C 
ATOM     46  C   UNL     1       4.656   9.032  -0.970  1.00  0.00     0.029 A 
ATOM     47  N   UNL     1       5.687  10.327  -2.471  1.00  0.00    -0.354 N 
ATOM     48  C   UNL     1       3.444  12.256  -5.651  1.00  0.00     0.074 A 
ATOM     49  C   UNL     1       2.029  11.982  -5.521  1.00  0.00     0.031 C 
ATOM     50  C   UNL     1       5.968   9.013  -0.685  1.00  0.00     0.029 A 
ATOM     51  C   UNL     1       6.683   9.821  -1.667  1.00  0.00     0.049 A 
ATOM     52  H   UNL     1       5.861  10.938  -3.223  1.00  0.00     0.167 HD
ATOM     53  C   UNL     1       3.983  13.045  -6.612  1.00  0.00     0.034 A 
ATOM     54  C   UNL     1       8.021   9.980  -1.726  1.00  0.00     0.034 A 
ATOM     55  C   UNL     1       5.392  13.330  -6.712  1.00  0.00     0.049 A 
ATOM     56  C   UNL     1       8.600  10.846  -2.820  1.00  0.00     0.074 A 
ATOM     57  C   UNL     1       6.046  14.143  -7.621  1.00  0.00     0.029 A 
ATOM     58  N   UNL     1       6.367  12.815  -5.867  1.00  0.00    -0.354 N 
ATOM     59  N   UNL     1       7.979  11.487  -3.783  1.00  0.00    -0.248 NA
ATOM     60  C   UNL     1      10.059  11.017  -2.829  1.00  0.00     0.031 C 
ATOM     61  C   UNL     1       7.418  14.077  -7.361  1.00  0.00     0.029 A 
ATOM     62  C   UNL     1       7.616  13.281  -6.244  1.00  0.00     0.049 A 
ATOM     63  H   UNL     1       6.195  12.209  -5.111  1.00  0.00     0.167 HD
ATOM     64  C   UNL     1       8.969  12.171  -4.483  1.00  0.00     0.074 A 
ATOM     65  C   UNL     1      10.224  11.872  -3.827  1.00  0.00     0.031 C 
ATOM     66  C   UNL     1       8.854  12.979  -5.568  1.00  0.00     0.034 A 
BRANCH  53  67
ATOM     67  C   UNL     1       3.042  13.642  -7.630  1.00  0.00     0.023 A 
ATOM     68  C   UNL     1       2.031  14.544  -7.254  1.00  0.00     0.031 A 
ATOM     69  C   UNL     1       3.138  13.290  -8.987  1.00  0.00     0.131 A 
ATOM     70  C   UNL     1       1.111  15.004  -8.207  1.00  0.00     0.055 A 
ATOM     71  C   UNL     1       2.271  13.818  -9.947  1.00  0.00     0.041 A 
ATOM     72  F   UNL     1       4.069  12.417  -9.403  1.00  0.00    -0.206 F 
ATOM     73  C   UNL     1       1.241  14.669  -9.557  1.00  0.00     0.022 A 
BRANCH  70  74
ATOM     74  S   UNL     1      -0.335  15.935  -7.634  1.00  0.00     0.124 S 
ATOM     75  O   UNL     1      -0.989  14.957  -6.768  1.00  0.00    -0.237 OA
ATOM     76  O   UNL     1       0.271  17.079  -6.962  1.00  0.00    -0.237 OA
ATOM     77  O   UNL     1      -1.054  16.245  -8.868  1.00  0.00    -0.744 OA
ENDBRANCH  70  74
ENDBRANCH  53  67
BRANCH  54  78
ATOM     78  C   UNL     1       8.918   9.313  -0.737  1.00  0.00     0.023 A 
ATOM     79  C   UNL     1       9.723  10.070   0.129  1.00  0.00     0.031 A 
ATOM     80  C   UNL     1       9.038   7.912  -0.688  1.00  0.00     0.131 A 
ATOM     81  C   UNL     1      10.658   9.430   0.958  1.00  0.00     0.055 A 
ATOM     82  C   UNL     1       9.925   7.277   0.183  1.00  0.00     0.041 A 
ATOM     83  F   UNL     1       8.290   7.138  -1.490  1.00  0.00    -0.206 F 
ATOM     84  C   UNL     1      10.756   8.038   1.000  1.00  0.00     0.022 A 
BRANCH  81  85
ATOM     85  S   UNL     1      11.827  10.453   1.895  1.00  0.00     0.124 S 
ATOM     86  O   UNL     1      12.442  11.246   0.837  1.00  0.00    -0.237 OA
ATOM     87  O   UNL     1      10.938  11.172   2.802  1.00  0.00    -0.237 OA
ATOM     88  O   UNL     1      12.703   9.471   2.530  1.00  0.00    -0.744 OA
ENDBRANCH  81  85
ENDBRANCH  54  78
BRANCH  66  89
ATOM     89  C   UNL     1      10.111  13.648  -6.064  1.00  0.00     0.023 A 
ATOM     90  C   UNL     1      11.158  12.919  -6.652  1.00  0.00     0.031 A 
ATOM     91  C   UNL     1      10.258  15.041  -5.944  1.00  0.00     0.131 A 
ATOM     92  C   UNL     1      12.328  13.580  -7.054  1.00  0.00     0.055 A 
ATOM     93  C   UNL     1      11.399  15.701  -6.398  1.00  0.00     0.041 A 
ATOM     94  F   UNL     1       9.287  15.785  -5.388  1.00  0.00    -0.206 F 
ATOM     95  C   UNL     1      12.448  14.969  -6.946  1.00  0.00     0.022 A 
BRANCH  92  96
ATOM     96  S   UNL     1      13.727  12.592  -7.649  1.00  0.00     0.124 S 
ATOM     97  O   UNL     1      14.005  11.736  -6.500  1.00  0.00    -0.237 OA
ATOM     98  O   UNL     1      13.164  11.925  -8.818  1.00  0.00    -0.237 OA
ATOM     99  O   UNL     1      14.754  13.591  -7.941  1.00  0.00    -0.744 OA
ENDBRANCH  92  96
ENDBRANCH  66  89
ENDBRANCH  40  41
ENDBRANCH  32  35
ENDBRANCH  30  31
ENDBRANCH  29  30
ENDBRANCH   1  29
TORSDOF 17
