REMARK SMILES O=C(NCCCNC(=O)C1(Cc2ccncc2)Cc2ccccc2C1)c1ccc(-c2c3nc(c(-c4cc(S(=O)(=O)[O-])ccc4F)c4ccc([nH]4)c(-c4cc(S(=O)(=O)[O-])ccc4F)c4nc(c(-c5cc(S(=O)(=O)[O-])ccc5F)c5ccc2[nH]5)C=C4)C=C3)cc1
REMARK SMILES IDX 4 1 3 2 1 3 2 4 26 6 27 7 88 8 28 9 87 10 29 11 30 12 31 13
REMARK SMILES IDX 81 14 32 15 86 16 80 17 82 18 33 19 85 20 79 21 78 22 34 24
REMARK SMILES IDX 66 25 46 26 65 27 47 28 50 29 64 30 83 31 48 32 49 33 63 35
REMARK SMILES IDX 84 36 51 37 35 38 36 39 44 40 37 41 43 42 45 43 42 44 38 45
REMARK SMILES IDX 39 46 40 47 41 48 67 49 68 50 76 51 69 52 75 53 77 54 74 55
REMARK SMILES IDX 70 56 71 57 72 58 73 59 52 60 53 61 61 62 54 63 60 64 62 65
REMARK SMILES IDX 59 66 55 67 56 68 57 69 58 70 5 71 6 72 7 73 8 74 9 76 10 77
REMARK SMILES IDX 18 78 25 79 19 80 24 81 20 82 23 83 21 84 22 85 11 86 12 87
REMARK SMILES IDX 13 88 17 89 14 90 16 91 15 92
REMARK H PARENT 3 5 82 23 50 34 7 75
REMARK Flexibility Score: inf
ROOT
ATOM      1  C   UNL     1       4.598  -1.223  -0.573  1.00  0.00     0.118 C 
ENDROOT
BRANCH   1   2
ATOM      2  N   UNL     1       3.159  -0.972  -0.575  1.00  0.00    -0.352 N 
ATOM      3  O   UNL     1       1.221   0.070  -0.113  1.00  0.00    -0.269 OA
ATOM      4  C   UNL     1       2.442   0.154  -0.244  1.00  0.00     0.251 C 
ATOM      5  H   UNL     1       2.611  -1.737  -0.860  1.00  0.00     0.163 HD
BRANCH   4   6
ATOM      6  C   UNL     1       3.122   1.449  -0.030  1.00  0.00     0.039 A 
ATOM      7  C   UNL     1       4.195   1.825  -0.835  1.00  0.00     0.014 A 
ATOM      8  C   UNL     1       2.666   2.321   0.964  1.00  0.00     0.014 A 
ATOM      9  C   UNL     1       4.935   2.955  -0.523  1.00  0.00     0.010 A 
ATOM     10  C   UNL     1       3.329   3.534   1.186  1.00  0.00     0.010 A 
ATOM     11  C   UNL     1       4.492   3.845   0.465  1.00  0.00    -0.014 A 
BRANCH  11  12
ATOM     12  C   UNL     1       5.228   5.122   0.652  1.00  0.00     0.031 A 
ATOM     13  C   UNL     1       5.889   5.459   1.959  1.00  0.00     0.074 A 
ATOM     14  C   UNL     1       5.338   5.956  -0.402  1.00  0.00     0.049 A 
ATOM     15  N   UNL     1       6.588   6.519   2.279  1.00  0.00    -0.248 NA
ATOM     16  C   UNL     1       5.735   4.489   3.051  1.00  0.00     0.031 C 
ATOM     17  C   UNL     1       4.735   5.726  -1.720  1.00  0.00     0.029 A 
ATOM     18  N   UNL     1       6.013   7.139  -0.553  1.00  0.00    -0.354 N 
ATOM     19  C   UNL     1       6.941   6.356   3.614  1.00  0.00     0.074 A 
ATOM     20  C   UNL     1       6.344   5.110   4.051  1.00  0.00     0.031 C 
ATOM     21  C   UNL     1       5.126   6.693  -2.559  1.00  0.00     0.029 A 
ATOM     22  C   UNL     1       5.925   7.662  -1.822  1.00  0.00     0.049 A 
ATOM     23  H   UNL     1       6.512   7.572   0.176  1.00  0.00     0.167 HD
ATOM     24  C   UNL     1       7.697   7.169   4.395  1.00  0.00     0.034 A 
ATOM     25  C   UNL     1       6.406   8.810  -2.334  1.00  0.00     0.034 A 
ATOM     26  C   UNL     1       8.278   8.409   3.932  1.00  0.00     0.049 A 
ATOM     27  C   UNL     1       7.194   9.719  -1.434  1.00  0.00     0.074 A 
ATOM     28  C   UNL     1       9.081   9.299   4.626  1.00  0.00     0.029 A 
ATOM     29  N   UNL     1       8.111   8.943   2.659  1.00  0.00    -0.354 N 
ATOM     30  N   UNL     1       7.522   9.548  -0.174  1.00  0.00    -0.248 NA
ATOM     31  C   UNL     1       7.671  10.974  -2.022  1.00  0.00     0.031 C 
ATOM     32  C   UNL     1       9.334  10.401   3.801  1.00  0.00     0.029 A 
ATOM     33  C   UNL     1       8.762  10.165   2.561  1.00  0.00     0.049 A 
ATOM     34  H   UNL     1       7.604   8.515   1.931  1.00  0.00     0.167 HD
ATOM     35  C   UNL     1       8.260  10.672   0.179  1.00  0.00     0.074 A 
ATOM     36  C   UNL     1       8.346  11.499  -1.010  1.00  0.00     0.031 C 
ATOM     37  C   UNL     1       8.816  10.991   1.375  1.00  0.00     0.034 A 
BRANCH  24  38
ATOM     38  C   UNL     1       7.883   6.767   5.842  1.00  0.00     0.023 A 
ATOM     39  C   UNL     1       8.532   5.573   6.205  1.00  0.00     0.031 A 
ATOM     40  C   UNL     1       7.367   7.570   6.875  1.00  0.00     0.131 A 
ATOM     41  C   UNL     1       8.572   5.176   7.551  1.00  0.00     0.055 A 
ATOM     42  C   UNL     1       7.487   7.213   8.220  1.00  0.00     0.041 A 
ATOM     43  F   UNL     1       6.718   8.712   6.594  1.00  0.00    -0.206 F 
ATOM     44  C   UNL     1       8.077   6.000   8.564  1.00  0.00     0.022 A 
BRANCH  41  45
ATOM     45  S   UNL     1       9.129   3.494   7.942  1.00  0.00     0.124 S 
ATOM     46  O   UNL     1       8.225   2.685   7.128  1.00  0.00    -0.237 OA
ATOM     47  O   UNL     1      10.523   3.516   7.516  1.00  0.00    -0.237 OA
ATOM     48  O   UNL     1       8.918   3.388   9.384  1.00  0.00    -0.744 OA
ENDBRANCH  41  45
ENDBRANCH  24  38
BRANCH  25  49
ATOM     49  C   UNL     1       6.119   9.174  -3.749  1.00  0.00     0.023 A 
ATOM     50  C   UNL     1       7.149   9.286  -4.694  1.00  0.00     0.031 A 
ATOM     51  C   UNL     1       4.800   9.415  -4.178  1.00  0.00     0.131 A 
ATOM     52  C   UNL     1       6.848   9.657  -6.013  1.00  0.00     0.055 A 
ATOM     53  C   UNL     1       4.500   9.731  -5.503  1.00  0.00     0.041 A 
ATOM     54  F   UNL     1       3.776   9.316  -3.314  1.00  0.00    -0.206 F 
ATOM     55  C   UNL     1       5.529   9.864  -6.428  1.00  0.00     0.022 A 
BRANCH  52  56
ATOM     56  S   UNL     1       8.215   9.931  -7.172  1.00  0.00     0.124 S 
ATOM     57  O   UNL     1       8.968  10.984  -6.500  1.00  0.00    -0.237 OA
ATOM     58  O   UNL     1       8.846   8.616  -7.212  1.00  0.00    -0.237 OA
ATOM     59  O   UNL     1       7.541  10.333  -8.405  1.00  0.00    -0.744 OA
ENDBRANCH  52  56
ENDBRANCH  25  49
BRANCH  37  60
ATOM     60  C   UNL     1       9.595  12.282   1.434  1.00  0.00     0.023 A 
ATOM     61  C   UNL     1       8.966  13.531   1.288  1.00  0.00     0.031 A 
ATOM     62  C   UNL     1      10.990  12.259   1.606  1.00  0.00     0.131 A 
ATOM     63  C   UNL     1       9.738  14.702   1.254  1.00  0.00     0.055 A 
ATOM     64  C   UNL     1      11.745  13.432   1.637  1.00  0.00     0.041 A 
ATOM     65  F   UNL     1      11.643  11.094   1.744  1.00  0.00    -0.206 F 
ATOM     66  C   UNL     1      11.121  14.662   1.446  1.00  0.00     0.022 A 
BRANCH  63  67
ATOM     67  S   UNL     1       8.922  16.272   0.854  1.00  0.00     0.124 S 
ATOM     68  O   UNL     1       8.354  15.991  -0.461  1.00  0.00    -0.237 OA
ATOM     69  O   UNL     1       7.964  16.413   1.946  1.00  0.00    -0.237 OA
ATOM     70  O   UNL     1      10.018  17.239   0.862  1.00  0.00    -0.744 OA
ENDBRANCH  63  67
ENDBRANCH  37  60
ENDBRANCH  11  12
ENDBRANCH   4   6
ENDBRANCH   1   2
BRANCH   1  71
ATOM     71  C   UNL     1       5.064  -1.948   0.675  1.00  0.00     0.042 C 
BRANCH  71  72
ATOM     72  C   UNL     1       4.500  -3.347   0.808  1.00  0.00     0.117 C 
BRANCH  72  73
ATOM     73  N   UNL     1       4.926  -4.256  -0.247  1.00  0.00    -0.356 N 
ATOM     74  C   UNL     1       5.448  -5.514  -0.228  1.00  0.00     0.227 C 
ATOM     75  H   UNL     1       4.815  -3.888  -1.153  1.00  0.00     0.163 HD
ATOM     76  O   UNL     1       5.475  -6.092  -1.320  1.00  0.00    -0.274 OA
BRANCH  74  77
ATOM     77  C   UNL     1       6.080  -6.145   1.022  1.00  0.00     0.061 C 
ATOM     78  C   UNL     1       5.202  -5.923   2.284  1.00  0.00     0.053 C 
ATOM     79  C   UNL     1       6.120  -7.705   0.859  1.00  0.00     0.053 C 
ATOM     80  C   UNL     1       5.265  -7.209   3.025  1.00  0.00    -0.044 A 
ATOM     81  C   UNL     1       5.788  -8.219   2.229  1.00  0.00    -0.044 A 
ATOM     82  C   UNL     1       4.809  -7.446   4.311  1.00  0.00     0.004 A 
ATOM     83  C   UNL     1       5.867  -9.514   2.710  1.00  0.00     0.004 A 
ATOM     84  C   UNL     1       4.890  -8.743   4.806  1.00  0.00     0.000 A 
ATOM     85  C   UNL     1       5.417  -9.771   4.010  1.00  0.00     0.000 A 
BRANCH  77  86
ATOM     86  C   UNL     1       7.496  -5.529   1.240  1.00  0.00     0.053 C 
BRANCH  86  87
ATOM     87  C   UNL     1       8.573  -5.884   0.231  1.00  0.00    -0.044 A 
ATOM     88  C   UNL     1       8.605  -5.312  -1.044  1.00  0.00     0.024 A 
ATOM     89  C   UNL     1       9.583  -6.794   0.561  1.00  0.00     0.024 A 
ATOM     90  C   UNL     1       9.607  -5.691  -1.927  1.00  0.00     0.111 A 
ATOM     91  C   UNL     1      10.547  -7.105  -0.389  1.00  0.00     0.111 A 
ATOM     92  N   UNL     1      10.579  -6.580  -1.630  1.00  0.00    -0.265 NA
ENDBRANCH  86  87
ENDBRANCH  77  86
ENDBRANCH  74  77
ENDBRANCH  72  73
ENDBRANCH  71  72
ENDBRANCH   1  71
TORSDOF 15
