REMARK SMILES Cc1ccc(Cl)cc1S(=O)(=O)N1CC[C@@H](C(=O)NCCCNC(=O)c2ccc(-c3c4nc(c(-c5cc(S(=O)(=O)[O-])ccc5F)c5ccc([nH]5)c(-c5cc(S(=O)(=O)[O-])ccc5F)c5nc(c(-c6cc(S(=O)(=O)[O-])ccc6F)c6ccc3[nH]6)C=C5)C=C4)cc2)[C@@H]1C
REMARK SMILES IDX 20 1 19 2 18 3 16 4 17 5 15 7 12 8 13 9 88 10 14 11 89 12
REMARK SMILES IDX 9 13 10 14 11 15 8 16 1 17 2 18 3 19 4 20 7 21 5 22 6 23
REMARK SMILES IDX 21 24 22 25 23 26 24 28 25 29 26 30 87 31 27 32 86 33 28 34
REMARK SMILES IDX 29 35 30 36 80 37 31 38 85 39 79 40 81 41 32 42 84 43 78 44
REMARK SMILES IDX 77 45 33 47 65 48 45 49 64 50 46 51 49 52 63 53 82 54 47 55
REMARK SMILES IDX 48 56 62 58 83 59 50 60 34 61 35 62 43 63 36 64 42 65 44 66
REMARK SMILES IDX 41 67 37 68 38 69 39 70 40 71 66 72 67 73 75 74 68 75 74 76
REMARK SMILES IDX 76 77 73 78 69 79 70 80 71 81 72 82 51 83 52 84 60 85 53 86
REMARK SMILES IDX 59 87 61 88 58 89 54 90 55 91 56 92 57 93
REMARK H PARENT 18 6 22 27 81 46 49 57
REMARK Flexibility Score: inf
ROOT
ATOM      1  C   UNL     1       1.192   0.732  -2.836  1.00  0.00     0.042 C 
ENDROOT
BRANCH   1   2
ATOM      2  C   UNL     1       2.046  -0.146  -1.934  1.00  0.00     0.117 C 
BRANCH   2   3
ATOM      3  N   UNL     1       3.317  -0.564  -2.495  1.00  0.00    -0.356 N 
ATOM      4  C   UNL     1       4.540  -0.493  -1.892  1.00  0.00     0.224 C 
ATOM      5  O   UNL     1       5.263  -1.491  -1.998  1.00  0.00    -0.275 OA
ATOM      6  H   UNL     1       3.296  -0.938  -3.405  1.00  0.00     0.163 HD
BRANCH   4   7
ATOM      7  C   UNL     1       5.102   0.774  -1.234  1.00  0.00     0.098 C 
ATOM      8  N   UNL     1       3.813   1.795   0.418  1.00  0.00    -0.194 NA
ATOM      9  C   UNL     1       4.974   1.336   1.171  1.00  0.00     0.104 C 
ATOM     10  C   UNL     1       4.192   1.980  -0.997  1.00  0.00     0.082 C 
ATOM     11  C   UNL     1       5.733   0.479   0.151  1.00  0.00     0.032 C 
ATOM     12  C   UNL     1       4.977   3.285  -1.194  1.00  0.00     0.026 C 
BRANCH   8  13
ATOM     13  S   UNL     1       2.460   2.439   1.142  1.00  0.00     0.243 S 
ATOM     14  O   UNL     1       1.947   3.433   0.223  1.00  0.00    -0.207 OA
ATOM     15  O   UNL     1       2.796   2.767   2.511  1.00  0.00    -0.207 OA
BRANCH  13  16
ATOM     16  C   UNL     1       1.178   1.166   1.248  1.00  0.00     0.087 A 
ATOM     17  C   UNL     1       2.688  -0.926   1.510  1.00  0.00     0.046 C 
ATOM     18  C   UNL     1       1.370  -0.227   1.390  1.00  0.00    -0.031 A 
ATOM     19  C   UNL     1       0.232  -1.063   1.439  1.00  0.00     0.006 A 
ATOM     20  C   UNL     1      -1.059  -0.545   1.370  1.00  0.00     0.021 A 
ATOM     21  C   UNL     1      -0.137   1.675   1.183  1.00  0.00     0.042 A 
ATOM     22  C   UNL     1      -1.239   0.825   1.255  1.00  0.00     0.042 A 
ATOM     23  Cl  UNL     1      -2.829   1.478   1.231  1.00  0.00    -0.084 Cl
ENDBRANCH  13  16
ENDBRANCH   8  13
ENDBRANCH   4   7
ENDBRANCH   2   3
ENDBRANCH   1   2
BRANCH   1  24
ATOM     24  C   UNL     1       0.066  -0.027  -3.530  1.00  0.00     0.118 C 
BRANCH  24  25
ATOM     25  N   UNL     1      -0.917  -0.584  -2.602  1.00  0.00    -0.352 N 
ATOM     26  C   UNL     1      -2.261  -0.330  -2.438  1.00  0.00     0.251 C 
ATOM     27  H   UNL     1      -0.555  -1.261  -1.986  1.00  0.00     0.163 HD
ATOM     28  O   UNL     1      -2.864  -0.881  -1.521  1.00  0.00    -0.269 OA
BRANCH  26  29
ATOM     29  C   UNL     1      -2.968   0.613  -3.332  1.00  0.00     0.039 A 
ATOM     30  C   UNL     1      -3.844   1.555  -2.782  1.00  0.00     0.014 A 
ATOM     31  C   UNL     1      -2.767   0.576  -4.711  1.00  0.00     0.014 A 
ATOM     32  C   UNL     1      -4.423   2.532  -3.600  1.00  0.00     0.010 A 
ATOM     33  C   UNL     1      -3.273   1.597  -5.508  1.00  0.00     0.010 A 
ATOM     34  C   UNL     1      -4.090   2.600  -4.961  1.00  0.00    -0.014 A 
BRANCH  34  35
ATOM     35  C   UNL     1      -4.536   3.708  -5.851  1.00  0.00     0.031 A 
ATOM     36  C   UNL     1      -5.310   3.386  -7.101  1.00  0.00     0.074 A 
ATOM     37  C   UNL     1      -4.105   4.967  -5.626  1.00  0.00     0.049 A 
ATOM     38  N   UNL     1      -5.530   4.126  -8.156  1.00  0.00    -0.248 NA
ATOM     39  C   UNL     1      -5.866   2.026  -7.192  1.00  0.00     0.031 C 
ATOM     40  C   UNL     1      -3.321   5.403  -4.468  1.00  0.00     0.029 A 
ATOM     41  N   UNL     1      -4.224   6.105  -6.388  1.00  0.00    -0.354 N 
ATOM     42  C   UNL     1      -6.196   3.306  -9.061  1.00  0.00     0.074 A 
ATOM     43  C   UNL     1      -6.325   2.007  -8.435  1.00  0.00     0.031 C 
ATOM     44  C   UNL     1      -3.022   6.705  -4.601  1.00  0.00     0.029 A 
ATOM     45  C   UNL     1      -3.532   7.183  -5.881  1.00  0.00     0.049 A 
ATOM     46  H   UNL     1      -4.753   6.146  -7.217  1.00  0.00     0.167 HD
ATOM     47  C   UNL     1      -6.656   3.614 -10.299  1.00  0.00     0.034 A 
ATOM     48  C   UNL     1      -3.291   8.401  -6.407  1.00  0.00     0.034 A 
ATOM     49  C   UNL     1      -6.573   4.932 -10.878  1.00  0.00     0.049 A 
ATOM     50  C   UNL     1      -3.831   8.723  -7.778  1.00  0.00     0.074 A 
ATOM     51  C   UNL     1      -7.111   5.383 -12.071  1.00  0.00     0.029 A 
ATOM     52  N   UNL     1      -5.907   6.009 -10.310  1.00  0.00    -0.354 N 
ATOM     53  N   UNL     1      -4.500   7.951  -8.603  1.00  0.00    -0.248 NA
ATOM     54  C   UNL     1      -3.580  10.077  -8.290  1.00  0.00     0.031 C 
ATOM     55  C   UNL     1      -6.723   6.714 -12.252  1.00  0.00     0.029 A 
ATOM     56  C   UNL     1      -5.993   7.113 -11.143  1.00  0.00     0.049 A 
ATOM     57  H   UNL     1      -5.443   5.992  -9.442  1.00  0.00     0.167 HD
ATOM     58  C   UNL     1      -4.764   8.734  -9.723  1.00  0.00     0.074 A 
ATOM     59  C   UNL     1      -4.200  10.042  -9.460  1.00  0.00     0.031 C 
ATOM     60  C   UNL     1      -5.414   8.405 -10.867  1.00  0.00     0.034 A 
BRANCH  47  61
ATOM     61  C   UNL     1      -7.261   2.504 -11.122  1.00  0.00     0.023 A 
ATOM     62  C   UNL     1      -8.453   1.862 -10.747  1.00  0.00     0.031 A 
ATOM     63  C   UNL     1      -6.629   2.083 -12.306  1.00  0.00     0.131 A 
ATOM     64  C   UNL     1      -8.941   0.793 -11.514  1.00  0.00     0.055 A 
ATOM     65  C   UNL     1      -7.159   1.068 -13.104  1.00  0.00     0.041 A 
ATOM     66  F   UNL     1      -5.478   2.648 -12.704  1.00  0.00    -0.206 F 
ATOM     67  C   UNL     1      -8.316   0.407 -12.702  1.00  0.00     0.022 A 
BRANCH  64  68
ATOM     68  S   UNL     1     -10.345  -0.161 -10.876  1.00  0.00     0.124 S 
ATOM     69  O   UNL     1      -9.794  -0.702  -9.636  1.00  0.00    -0.237 OA
ATOM     70  O   UNL     1     -11.377   0.858 -10.725  1.00  0.00    -0.237 OA
ATOM     71  O   UNL     1     -10.593  -1.149 -11.924  1.00  0.00    -0.744 OA
ENDBRANCH  64  68
ENDBRANCH  47  61
BRANCH  48  72
ATOM     72  C   UNL     1      -2.452   9.394  -5.674  1.00  0.00     0.023 A 
ATOM     73  C   UNL     1      -2.996  10.609  -5.230  1.00  0.00     0.031 A 
ATOM     74  C   UNL     1      -1.080   9.168  -5.460  1.00  0.00     0.131 A 
ATOM     75  C   UNL     1      -2.164  11.575  -4.642  1.00  0.00     0.055 A 
ATOM     76  C   UNL     1      -0.268  10.109  -4.825  1.00  0.00     0.041 A 
ATOM     77  F   UNL     1      -0.509   8.023  -5.864  1.00  0.00    -0.206 F 
ATOM     78  C   UNL     1      -0.806  11.329  -4.425  1.00  0.00     0.022 A 
BRANCH  75  79
ATOM     79  S   UNL     1      -2.864  13.205  -4.260  1.00  0.00     0.124 S 
ATOM     80  O   UNL     1      -3.402  13.609  -5.554  1.00  0.00    -0.237 OA
ATOM     81  O   UNL     1      -3.845  12.878  -3.231  1.00  0.00    -0.237 OA
ATOM     82  O   UNL     1      -1.709  13.971  -3.798  1.00  0.00    -0.744 OA
ENDBRANCH  75  79
ENDBRANCH  48  72
BRANCH  60  83
ATOM     83  C   UNL     1      -5.575   9.491 -11.898  1.00  0.00     0.023 A 
ATOM     84  C   UNL     1      -4.479   9.973 -12.634  1.00  0.00     0.031 A 
ATOM     85  C   UNL     1      -6.840  10.052 -12.143  1.00  0.00     0.131 A 
ATOM     86  C   UNL     1      -4.663  11.015 -13.554  1.00  0.00     0.055 A 
ATOM     87  C   UNL     1      -7.026  11.054 -13.095  1.00  0.00     0.041 A 
ATOM     88  F   UNL     1      -7.918   9.626 -11.464  1.00  0.00    -0.206 F 
ATOM     89  C   UNL     1      -5.931  11.548 -13.800  1.00  0.00     0.022 A 
BRANCH  86  90
ATOM     90  S   UNL     1      -3.209  11.711 -14.386  1.00  0.00     0.124 S 
ATOM     91  O   UNL     1      -2.441  12.240 -13.263  1.00  0.00    -0.237 OA
ATOM     92  O   UNL     1      -2.640  10.544 -15.053  1.00  0.00    -0.237 OA
ATOM     93  O   UNL     1      -3.775  12.719 -15.280  1.00  0.00    -0.744 OA
ENDBRANCH  86  90
ENDBRANCH  60  83
ENDBRANCH  34  35
ENDBRANCH  26  29
ENDBRANCH  24  25
ENDBRANCH   1  24
TORSDOF 15
