REMARK SMILES C#CC[N@H+](CC(=O)NCCCNC(=O)c1ccc(-c2c3nc(c(-c4cc(S(=O)(=O)[O-])ccc4F)c4ccc([nH]4)c(-c4cc(S(=O)(=O)[O-])ccc4F)c4nc(c(-c5cc(S(=O)(=O)[O-])ccc5F)c5ccc2[nH]5)C=C4)C=C3)cc1)[C@H](C)c1nc2ccccc2s1
REMARK SMILES IDX 10 1 9 2 8 3 6 4 7 5 5 7 4 8 3 10 2 11 1 12 78 13 79 14
REMARK SMILES IDX 80 15 81 16 88 17 82 18 87 19 83 20 86 21 84 22 85 23 11 24
REMARK SMILES IDX 12 25 13 26 14 28 15 29 16 30 77 31 17 32 76 33 18 34 19 35
REMARK SMILES IDX 20 36 70 37 21 38 75 39 69 40 71 41 22 42 74 43 68 44 67 45
REMARK SMILES IDX 23 47 55 48 35 49 54 50 36 51 39 52 53 53 72 54 37 55 38 56
REMARK SMILES IDX 52 58 73 59 40 60 24 61 25 62 33 63 26 64 32 65 34 66 31 67
REMARK SMILES IDX 27 68 28 69 29 70 30 71 56 72 57 73 65 74 58 75 64 76 66 77
REMARK SMILES IDX 63 78 59 79 60 80 61 81 62 82 41 83 42 84 50 85 43 86 49 87
REMARK SMILES IDX 51 88 48 89 44 90 45 91 46 92 47 93
REMARK H PARENT 8 6 4 9 12 27 71 46 39 57
REMARK Flexibility Score: inf
ROOT
ATOM      1  C   UNL     1      -2.399   4.147  -0.756  1.00  0.00     0.042 C 
ENDROOT
BRANCH   1   2
ATOM      2  C   UNL     1      -3.637   3.252  -0.923  1.00  0.00     0.118 C 
BRANCH   2   3
ATOM      3  N   UNL     1      -4.047   3.056  -2.315  1.00  0.00    -0.351 N 
ATOM      4  C   UNL     1      -3.973   1.966  -3.154  1.00  0.00     0.275 C 
ATOM      5  O   UNL     1      -4.404   2.103  -4.301  1.00  0.00    -0.269 OA
ATOM      6  H   UNL     1      -4.451   3.852  -2.729  1.00  0.00     0.163 HD
BRANCH   4   7
ATOM      7  C   UNL     1      -3.413   0.609  -2.664  1.00  0.00     0.364 C 
BRANCH   7   8
ATOM      8  N   UNL     1      -1.930   0.419  -2.847  1.00  0.00    -0.309 N 
ATOM      9  H   UNL     1      -1.666   0.444  -3.832  1.00  0.00     0.349 HD
BRANCH   8  10
ATOM     10  C   UNL     1      -1.255   1.530  -2.175  1.00  0.00     0.354 C 
BRANCH  10  11
ATOM     11  C   UNL     1       0.149   1.872  -2.409  1.00  0.00    -0.047 C 
ATOM     12  C   UNL     1       1.252   2.342  -2.449  1.00  0.00     0.010 C 
ENDBRANCH  10  11
ENDBRANCH   8  10
BRANCH   8  13
ATOM     13  C   UNL     1      -1.501  -0.949  -2.387  1.00  0.00     0.242 C 
ATOM     14  C   UNL     1      -2.196  -1.466  -1.105  1.00  0.00     0.083 C 
BRANCH  13  15
ATOM     15  C   UNL     1       0.005  -1.086  -2.185  1.00  0.00     0.151 A 
ATOM     16  N   UNL     1       0.580  -0.999  -1.001  1.00  0.00    -0.235 NA
ATOM     17  S   UNL     1       1.093  -1.234  -3.513  1.00  0.00    -0.113 S 
ATOM     18  C   UNL     1       1.917  -0.694  -1.161  1.00  0.00     0.082 A 
ATOM     19  C   UNL     1       2.383  -0.722  -2.478  1.00  0.00     0.055 A 
ATOM     20  C   UNL     1       2.783  -0.276  -0.133  1.00  0.00     0.030 A 
ATOM     21  C   UNL     1       3.688  -0.315  -2.804  1.00  0.00     0.021 A 
ATOM     22  C   UNL     1       4.069   0.166  -0.451  1.00  0.00     0.002 A 
ATOM     23  C   UNL     1       4.510   0.154  -1.771  1.00  0.00     0.002 A 
ENDBRANCH  13  15
ENDBRANCH   8  13
ENDBRANCH   7   8
ENDBRANCH   4   7
ENDBRANCH   2   3
ENDBRANCH   1   2
BRANCH   1  24
ATOM     24  C   UNL     1      -2.614   5.607  -1.108  1.00  0.00     0.118 C 
BRANCH  24  25
ATOM     25  N   UNL     1      -3.133   6.340   0.028  1.00  0.00    -0.352 N 
ATOM     26  C   UNL     1      -2.481   7.213   0.867  1.00  0.00     0.251 C 
ATOM     27  H   UNL     1      -4.086   6.192   0.228  1.00  0.00     0.163 HD
ATOM     28  O   UNL     1      -2.980   7.460   1.962  1.00  0.00    -0.269 OA
BRANCH  26  29
ATOM     29  C   UNL     1      -1.190   7.836   0.474  1.00  0.00     0.039 A 
ATOM     30  C   UNL     1      -0.238   8.097   1.464  1.00  0.00     0.014 A 
ATOM     31  C   UNL     1      -0.927   8.216  -0.846  1.00  0.00     0.014 A 
ATOM     32  C   UNL     1       0.980   8.696   1.124  1.00  0.00     0.010 A 
ATOM     33  C   UNL     1       0.326   8.714  -1.199  1.00  0.00     0.010 A 
ATOM     34  C   UNL     1       1.288   8.983  -0.215  1.00  0.00    -0.014 A 
BRANCH  34  35
ATOM     35  C   UNL     1       2.587   9.604  -0.597  1.00  0.00     0.031 A 
ATOM     36  C   UNL     1       2.611  10.956  -1.265  1.00  0.00     0.074 A 
ATOM     37  C   UNL     1       3.742   8.945  -0.369  1.00  0.00     0.049 A 
ATOM     38  N   UNL     1       3.632  11.635  -1.725  1.00  0.00    -0.248 NA
ATOM     39  C   UNL     1       1.314  11.621  -1.462  1.00  0.00     0.031 C 
ATOM     40  C   UNL     1       3.852   7.625   0.254  1.00  0.00     0.029 A 
ATOM     41  N   UNL     1       5.044   9.294  -0.632  1.00  0.00    -0.354 N 
ATOM     42  C   UNL     1       3.100  12.803  -2.263  1.00  0.00     0.074 A 
ATOM     43  C   UNL     1       1.662  12.701  -2.144  1.00  0.00     0.031 C 
ATOM     44  C   UNL     1       5.149   7.295   0.362  1.00  0.00     0.029 A 
ATOM     45  C   UNL     1       5.963   8.346  -0.240  1.00  0.00     0.049 A 
ATOM     46  H   UNL     1       5.297  10.143  -1.062  1.00  0.00     0.167 HD
ATOM     47  C   UNL     1       3.749  13.876  -2.779  1.00  0.00     0.034 A 
ATOM     48  C   UNL     1       7.305   8.319  -0.365  1.00  0.00     0.034 A 
ATOM     49  C   UNL     1       5.183  13.966  -2.894  1.00  0.00     0.049 A 
ATOM     50  C   UNL     1       7.998   9.490  -1.023  1.00  0.00     0.074 A 
ATOM     51  C   UNL     1       5.944  15.013  -3.384  1.00  0.00     0.029 A 
ATOM     52  N   UNL     1       6.076  12.969  -2.521  1.00  0.00    -0.354 N 
ATOM     53  N   UNL     1       7.479  10.599  -1.498  1.00  0.00    -0.248 NA
ATOM     54  C   UNL     1       9.459   9.409  -1.151  1.00  0.00     0.031 C 
ATOM     55  C   UNL     1       7.285  14.619  -3.385  1.00  0.00     0.029 A 
ATOM     56  C   UNL     1       7.374  13.365  -2.803  1.00  0.00     0.049 A 
ATOM     57  H   UNL     1       5.824  12.108  -2.117  1.00  0.00     0.167 HD
ATOM     58  C   UNL     1       8.557  11.364  -1.938  1.00  0.00     0.074 A 
ATOM     59  C   UNL     1       9.752  10.597  -1.658  1.00  0.00     0.031 C 
ATOM     60  C   UNL     1       8.560  12.593  -2.515  1.00  0.00     0.034 A 
BRANCH  47  61
ATOM     61  C   UNL     1       2.907  15.030  -3.272  1.00  0.00     0.023 A 
ATOM     62  C   UNL     1       2.071  15.753  -2.404  1.00  0.00     0.031 A 
ATOM     63  C   UNL     1       2.929  15.407  -4.627  1.00  0.00     0.131 A 
ATOM     64  C   UNL     1       1.237  16.761  -2.910  1.00  0.00     0.055 A 
ATOM     65  C   UNL     1       2.165  16.472  -5.108  1.00  0.00     0.041 A 
ATOM     66  F   UNL     1       3.689  14.740  -5.511  1.00  0.00    -0.206 F 
ATOM     67  C   UNL     1       1.300  17.146  -4.251  1.00  0.00     0.022 A 
BRANCH  64  68
ATOM     68  S   UNL     1      -0.041  17.451  -1.824  1.00  0.00     0.124 S 
ATOM     69  O   UNL     1      -0.801  16.254  -1.467  1.00  0.00    -0.237 OA
ATOM     70  O   UNL     1       0.746  18.051  -0.753  1.00  0.00    -0.237 OA
ATOM     71  O   UNL     1      -0.749  18.395  -2.685  1.00  0.00    -0.744 OA
ENDBRANCH  64  68
ENDBRANCH  47  61
BRANCH  48  72
ATOM     72  C   UNL     1       8.097   7.149   0.119  1.00  0.00     0.023 A 
ATOM     73  C   UNL     1       9.094   7.309   1.094  1.00  0.00     0.031 A 
ATOM     74  C   UNL     1       7.930   5.870  -0.443  1.00  0.00     0.131 A 
ATOM     75  C   UNL     1       9.934   6.233   1.422  1.00  0.00     0.055 A 
ATOM     76  C   UNL     1       8.717   4.784  -0.057  1.00  0.00     0.041 A 
ATOM     77  F   UNL     1       6.995   5.656  -1.383  1.00  0.00    -0.206 F 
ATOM     78  C   UNL     1       9.741   4.967   0.866  1.00  0.00     0.022 A 
BRANCH  75  79
ATOM     79  S   UNL     1      11.374   6.552   2.478  1.00  0.00     0.124 S 
ATOM     80  O   UNL     1      12.060   7.600   1.730  1.00  0.00    -0.237 OA
ATOM     81  O   UNL     1      10.747   6.960   3.730  1.00  0.00    -0.237 OA
ATOM     82  O   UNL     1      12.058   5.261   2.515  1.00  0.00    -0.744 OA
ENDBRANCH  75  79
ENDBRANCH  48  72
BRANCH  60  83
ATOM     83  C   UNL     1       9.904  13.213  -2.820  1.00  0.00     0.023 A 
ATOM     84  C   UNL     1      10.788  12.655  -3.759  1.00  0.00     0.031 A 
ATOM     85  C   UNL     1      10.304  14.385  -2.153  1.00  0.00     0.131 A 
ATOM     86  C   UNL     1      12.051  13.234  -3.959  1.00  0.00     0.055 A 
ATOM     87  C   UNL     1      11.530  14.999  -2.412  1.00  0.00     0.041 A 
ATOM     88  F   UNL     1       9.504  14.960  -1.240  1.00  0.00    -0.206 F 
ATOM     89  C   UNL     1      12.418  14.414  -3.309  1.00  0.00     0.022 A 
BRANCH  86  90
ATOM     90  S   UNL     1      13.253  12.360  -5.000  1.00  0.00     0.124 S 
ATOM     91  O   UNL     1      13.355  11.070  -4.326  1.00  0.00    -0.237 OA
ATOM     92  O   UNL     1      12.591  12.349  -6.300  1.00  0.00    -0.237 OA
ATOM     93  O   UNL     1      14.448  13.199  -4.921  1.00  0.00    -0.744 OA
ENDBRANCH  86  90
ENDBRANCH  60  83
ENDBRANCH  34  35
ENDBRANCH  26  29
ENDBRANCH  24  25
ENDBRANCH   1  24
TORSDOF 18
