REMARK SMILES CCc1ncc(CC(=O)NCCCNC(=O)c2ccc(-c3c4nc(c(-c5cc(S(=O)(=O)[O-])ccc5F)c5ccc([nH]5)c(-c5cc(S(=O)(=O)[O-])ccc5F)c5nc(c(-c6cc(S(=O)(=O)[O-])ccc6F)c6ccc3[nH]6)C=C5)C=C4)cc2)c(=O)[nH]1
REMARK SMILES IDX 12 1 11 2 10 3 8 4 9 5 7 7 6 8 3 9 4 10 82 11 5 12 80 13
REMARK SMILES IDX 81 15 2 16 1 17 13 18 14 19 15 20 16 22 17 23 18 24 79 25
REMARK SMILES IDX 19 26 78 27 20 28 21 29 22 30 72 31 23 32 77 33 71 34 73 35
REMARK SMILES IDX 24 36 76 37 70 38 69 39 25 41 57 42 37 43 56 44 38 45 41 46
REMARK SMILES IDX 55 47 74 48 39 49 40 50 54 52 75 53 42 54 26 55 27 56 35 57
REMARK SMILES IDX 28 58 34 59 36 60 33 61 29 62 30 63 31 64 32 65 58 66 59 67
REMARK SMILES IDX 67 68 60 69 66 70 68 71 65 72 61 73 62 74 63 75 64 76 43 77
REMARK SMILES IDX 44 78 52 79 45 80 51 81 53 82 50 83 46 84 47 85 48 86 49 87
REMARK H PARENT 10 6 82 14 14 21 73 40 41 51
REMARK Flexibility Score: inf
ROOT
ATOM      1  C   UNL     1       4.782  -3.727  -2.064  1.00  0.00     0.042 C 
ENDROOT
BRANCH   1   2
ATOM      2  C   UNL     1       4.562  -4.739  -3.185  1.00  0.00     0.117 C 
BRANCH   2   3
ATOM      3  N   UNL     1       3.745  -5.859  -2.751  1.00  0.00    -0.356 N 
ATOM      4  C   UNL     1       2.425  -6.101  -2.991  1.00  0.00     0.224 C 
ATOM      5  O   UNL     1       1.895  -7.077  -2.455  1.00  0.00    -0.275 OA
ATOM      6  H   UNL     1       4.208  -6.537  -2.208  1.00  0.00     0.163 HD
BRANCH   4   7
ATOM      7  C   UNL     1       1.637  -5.187  -3.914  1.00  0.00     0.143 C 
BRANCH   7   8
ATOM      8  C   UNL     1       1.282  -3.894  -3.250  1.00  0.00     0.045 A 
ATOM      9  C   UNL     1       0.702  -1.506  -2.038  1.00  0.00     0.108 A 
ATOM     10  N   UNL     1       0.272  -2.595  -1.489  1.00  0.00    -0.243 NA
ATOM     11  N   UNL     1       1.423  -1.494  -3.199  1.00  0.00    -0.310 N 
ATOM     12  C   UNL     1       0.591  -3.776  -2.106  1.00  0.00     0.123 A 
ATOM     13  C   UNL     1       1.719  -2.632  -3.883  1.00  0.00     0.254 A 
ATOM     14  H   UNL     1       1.739  -0.631  -3.553  1.00  0.00     0.171 HD
ATOM     15  O   UNL     1       2.317  -2.606  -4.956  1.00  0.00    -0.269 OA
BRANCH   9  16
ATOM     16  C   UNL     1       0.398  -0.155  -1.435  1.00  0.00     0.072 C 
ATOM     17  C   UNL     1       0.989  -0.024  -0.043  1.00  0.00     0.012 C 
ENDBRANCH   9  16
ENDBRANCH   7   8
ENDBRANCH   4   7
ENDBRANCH   2   3
ENDBRANCH   1   2
BRANCH   1  18
ATOM     18  C   UNL     1       5.651  -4.249  -0.922  1.00  0.00     0.118 C 
BRANCH  18  19
ATOM     19  N   UNL     1       7.005  -4.565  -1.355  1.00  0.00    -0.352 N 
ATOM     20  C   UNL     1       8.213  -4.074  -0.925  1.00  0.00     0.251 C 
ATOM     21  H   UNL     1       7.064  -5.238  -2.071  1.00  0.00     0.163 HD
ATOM     22  O   UNL     1       9.223  -4.322  -1.580  1.00  0.00    -0.269 OA
BRANCH  20  23
ATOM     23  C   UNL     1       8.303  -3.243   0.295  1.00  0.00     0.039 A 
ATOM     24  C   UNL     1       9.169  -2.146   0.302  1.00  0.00     0.014 A 
ATOM     25  C   UNL     1       7.566  -3.555   1.441  1.00  0.00     0.014 A 
ATOM     26  C   UNL     1       9.247  -1.328   1.431  1.00  0.00     0.010 A 
ATOM     27  C   UNL     1       7.583  -2.693   2.535  1.00  0.00     0.010 A 
ATOM     28  C   UNL     1       8.426  -1.572   2.544  1.00  0.00    -0.014 A 
BRANCH  28  29
ATOM     29  C   UNL     1       8.436  -0.667   3.724  1.00  0.00     0.031 A 
ATOM     30  C   UNL     1       8.872  -1.176   5.070  1.00  0.00     0.074 A 
ATOM     31  C   UNL     1       7.997   0.600   3.594  1.00  0.00     0.049 A 
ATOM     32  N   UNL     1       8.894  -0.559   6.224  1.00  0.00    -0.248 NA
ATOM     33  C   UNL     1       9.312  -2.577   5.127  1.00  0.00     0.031 C 
ATOM     34  C   UNL     1       7.523   1.206   2.347  1.00  0.00     0.029 A 
ATOM     35  N   UNL     1       7.877   1.607   4.518  1.00  0.00    -0.354 N 
ATOM     36  C   UNL     1       9.343  -1.498   7.147  1.00  0.00     0.074 A 
ATOM     37  C   UNL     1       9.501  -2.744   6.426  1.00  0.00     0.031 C 
ATOM     38  C   UNL     1       7.207   2.490   2.576  1.00  0.00     0.029 A 
ATOM     39  C   UNL     1       7.401   2.785   3.992  1.00  0.00     0.049 A 
ATOM     40  H   UNL     1       8.110   1.497   5.468  1.00  0.00     0.167 HD
ATOM     41  C   UNL     1       9.625  -1.331   8.465  1.00  0.00     0.034 A 
ATOM     42  C   UNL     1       7.144   3.968   4.583  1.00  0.00     0.034 A 
ATOM     43  C   UNL     1       9.450  -0.082   9.169  1.00  0.00     0.049 A 
ATOM     44  C   UNL     1       7.391   4.114   6.063  1.00  0.00     0.074 A 
ATOM     45  C   UNL     1       9.739   0.214  10.490  1.00  0.00     0.029 A 
ATOM     46  N   UNL     1       8.921   1.078   8.614  1.00  0.00    -0.354 N 
ATOM     47  N   UNL     1       7.859   3.231   6.915  1.00  0.00    -0.248 NA
ATOM     48  C   UNL     1       7.079   5.419   6.656  1.00  0.00     0.031 C 
ATOM     49  C   UNL     1       9.310   1.520  10.753  1.00  0.00     0.029 A 
ATOM     50  C   UNL     1       8.836   2.075   9.575  1.00  0.00     0.049 A 
ATOM     51  H   UNL     1       8.646   1.178   7.673  1.00  0.00     0.167 HD
ATOM     52  C   UNL     1       7.930   3.888   8.140  1.00  0.00     0.074 A 
ATOM     53  C   UNL     1       7.466   5.242   7.911  1.00  0.00     0.031 C 
ATOM     54  C   UNL     1       8.350   3.418   9.343  1.00  0.00     0.034 A 
BRANCH  41  55
ATOM     55  C   UNL     1      10.116  -2.547   9.222  1.00  0.00     0.023 A 
ATOM     56  C   UNL     1      11.284  -3.231   8.837  1.00  0.00     0.031 A 
ATOM     57  C   UNL     1       9.374  -3.075  10.293  1.00  0.00     0.131 A 
ATOM     58  C   UNL     1      11.608  -4.458   9.432  1.00  0.00     0.055 A 
ATOM     59  C   UNL     1       9.762  -4.243  10.954  1.00  0.00     0.041 A 
ATOM     60  F   UNL     1       8.241  -2.482  10.700  1.00  0.00    -0.206 F 
ATOM     61  C   UNL     1      10.871  -4.957  10.508  1.00  0.00     0.022 A 
BRANCH  58  62
ATOM     62  S   UNL     1      12.875  -5.490   8.642  1.00  0.00     0.124 S 
ATOM     63  O   UNL     1      12.349  -5.612   7.284  1.00  0.00    -0.237 OA
ATOM     64  O   UNL     1      14.078  -4.681   8.791  1.00  0.00    -0.237 OA
ATOM     65  O   UNL     1      12.849  -6.724   9.424  1.00  0.00    -0.744 OA
ENDBRANCH  58  62
ENDBRANCH  41  55
BRANCH  42  66
ATOM     66  C   UNL     1       6.638   5.116   3.779  1.00  0.00     0.023 A 
ATOM     67  C   UNL     1       7.419   6.270   3.611  1.00  0.00     0.031 A 
ATOM     68  C   UNL     1       5.365   5.087   3.183  1.00  0.00     0.131 A 
ATOM     69  C   UNL     1       6.907   7.363   2.897  1.00  0.00     0.055 A 
ATOM     70  C   UNL     1       4.880   6.158   2.430  1.00  0.00     0.041 A 
ATOM     71  F   UNL     1       4.580   4.005   3.308  1.00  0.00    -0.206 F 
ATOM     72  C   UNL     1       5.649   7.310   2.293  1.00  0.00     0.022 A 
BRANCH  69  73
ATOM     73  S   UNL     1       7.887   8.887   2.823  1.00  0.00     0.124 S 
ATOM     74  O   UNL     1       7.996   9.238   4.234  1.00  0.00    -0.237 OA
ATOM     75  O   UNL     1       9.113   8.428   2.178  1.00  0.00    -0.237 OA
ATOM     76  O   UNL     1       7.061   9.783   2.017  1.00  0.00    -0.744 OA
ENDBRANCH  69  73
ENDBRANCH  42  66
BRANCH  54  77
ATOM     77  C   UNL     1       8.364   4.395  10.496  1.00  0.00     0.023 A 
ATOM     78  C   UNL     1       7.181   4.953  11.012  1.00  0.00     0.031 A 
ATOM     79  C   UNL     1       9.585   4.789  11.074  1.00  0.00     0.131 A 
ATOM     80  C   UNL     1       7.248   5.918  12.030  1.00  0.00     0.055 A 
ATOM     81  C   UNL     1       9.640   5.697  12.133  1.00  0.00     0.041 A 
ATOM     82  F   UNL     1      10.748   4.295  10.619  1.00  0.00    -0.206 F 
ATOM     83  C   UNL     1       8.468   6.278  12.607  1.00  0.00     0.022 A 
BRANCH  80  84
ATOM     84  S   UNL     1       5.726   6.775  12.520  1.00  0.00     0.124 S 
ATOM     85  O   UNL     1       5.294   7.370  11.259  1.00  0.00    -0.237 OA
ATOM     86  O   UNL     1       4.900   5.683  13.025  1.00  0.00    -0.237 OA
ATOM     87  O   UNL     1       6.179   7.728  13.532  1.00  0.00    -0.744 OA
ENDBRANCH  80  84
ENDBRANCH  54  77
ENDBRANCH  28  29
ENDBRANCH  20  23
ENDBRANCH  18  19
ENDBRANCH   1  18
TORSDOF 15
