REMARK SMILES C=CC[N@@H+](CC(=O)NCCCNC(=O)c1ccc(-c2c3nc(c(-c4cc(S(=O)(=O)[O-])ccc4F)c4ccc([nH]4)c(-c4cc(S(=O)(=O)[O-])ccc4F)c4nc(c(-c5cc(S(=O)(=O)[O-])ccc5F)c5ccc2[nH]5)C=C4)C=C3)cc1)CC(=O)Nc1ccccc1
REMARK SMILES IDX 9 1 8 2 6 3 7 4 5 6 4 7 3 9 2 10 1 11 78 12 79 13 80 14
REMARK SMILES IDX 81 15 82 17 83 18 87 19 84 20 86 21 85 22 10 23 11 24 12 25
REMARK SMILES IDX 13 26 14 28 15 29 16 30 77 31 17 32 76 33 18 34 19 35 20 36
REMARK SMILES IDX 70 37 21 38 75 39 69 40 71 41 22 42 74 43 68 44 67 45 23 47
REMARK SMILES IDX 55 48 35 49 54 50 36 51 39 52 53 53 72 54 37 55 38 56 52 58
REMARK SMILES IDX 73 59 40 60 24 61 25 62 33 63 26 64 32 65 34 66 31 67 27 68
REMARK SMILES IDX 28 69 29 70 30 71 56 72 57 73 65 74 58 75 64 76 66 77 63 78
REMARK SMILES IDX 59 79 60 80 61 81 62 82 41 83 42 84 50 85 43 86 49 87 51 88
REMARK SMILES IDX 48 89 44 90 45 91 46 92 47 93
REMARK H PARENT 8 5 4 8 81 16 12 27 71 46 39 57
REMARK Flexibility Score: inf
ROOT
ATOM      1  C   UNL     1      -2.244  -0.509   2.513  1.00  0.00     0.118 C 
ENDROOT
BRANCH   1   2
ATOM      2  N   UNL     1      -3.237  -0.363   1.472  1.00  0.00    -0.351 N 
ATOM      3  C   UNL     1      -3.193  -0.737   0.169  1.00  0.00     0.275 C 
ATOM      4  O   UNL     1      -3.928  -0.105  -0.589  1.00  0.00    -0.269 OA
ATOM      5  H   UNL     1      -4.073   0.075   1.752  1.00  0.00     0.163 HD
BRANCH   3   6
ATOM      6  C   UNL     1      -2.344  -1.933  -0.281  1.00  0.00     0.364 C 
BRANCH   6   7
ATOM      7  N   UNL     1      -1.274  -1.628  -1.240  1.00  0.00    -0.316 N 
ATOM      8  H   UNL     1      -0.815  -2.520  -1.428  1.00  0.00     0.349 HD
BRANCH   7   9
ATOM      9  C   UNL     1      -0.245  -0.789  -0.647  1.00  0.00     0.291 C 
BRANCH   9  10
ATOM     10  C   UNL     1       1.166  -1.089  -1.050  1.00  0.00     0.025 C 
ATOM     11  C   UNL     1       2.170  -0.237  -0.791  1.00  0.00     0.010 C 
ENDBRANCH   9  10
ENDBRANCH   7   9
BRANCH   7  12
ATOM     12  C   UNL     1      -1.679  -1.327  -2.629  1.00  0.00     0.364 C 
BRANCH  12  13
ATOM     13  C   UNL     1      -2.320   0.037  -2.924  1.00  0.00     0.279 C 
ATOM     14  O   UNL     1      -1.684   1.084  -2.746  1.00  0.00    -0.268 OA
ATOM     15  N   UNL     1      -3.530   0.144  -3.571  1.00  0.00    -0.321 N 
ATOM     16  H   UNL     1      -3.626   0.989  -4.067  1.00  0.00     0.170 HD
BRANCH  15  17
ATOM     17  C   UNL     1      -4.662  -0.691  -3.679  1.00  0.00     0.041 A 
ATOM     18  C   UNL     1      -5.643  -0.346  -4.615  1.00  0.00     0.026 A 
ATOM     19  C   UNL     1      -4.936  -1.754  -2.826  1.00  0.00     0.026 A 
ATOM     20  C   UNL     1      -6.849  -1.060  -4.692  1.00  0.00     0.002 A 
ATOM     21  C   UNL     1      -6.153  -2.440  -2.860  1.00  0.00     0.002 A 
ATOM     22  C   UNL     1      -7.110  -2.099  -3.804  1.00  0.00     0.000 A 
ENDBRANCH  15  17
ENDBRANCH  12  13
ENDBRANCH   7  12
ENDBRANCH   6   7
ENDBRANCH   3   6
ENDBRANCH   1   2
BRANCH   1  23
ATOM     23  C   UNL     1      -1.209   0.615   2.465  1.00  0.00     0.042 C 
BRANCH  23  24
ATOM     24  C   UNL     1      -1.808   2.002   2.263  1.00  0.00     0.118 C 
BRANCH  24  25
ATOM     25  N   UNL     1      -2.495   2.450   3.458  1.00  0.00    -0.352 N 
ATOM     26  C   UNL     1      -1.952   3.065   4.559  1.00  0.00     0.251 C 
ATOM     27  H   UNL     1      -3.467   2.294   3.483  1.00  0.00     0.163 HD
ATOM     28  O   UNL     1      -2.554   3.036   5.627  1.00  0.00    -0.269 OA
BRANCH  26  29
ATOM     29  C   UNL     1      -0.633   3.730   4.451  1.00  0.00     0.039 A 
ATOM     30  C   UNL     1       0.297   3.572   5.480  1.00  0.00     0.014 A 
ATOM     31  C   UNL     1      -0.328   4.538   3.351  1.00  0.00     0.014 A 
ATOM     32  C   UNL     1       1.541   4.203   5.390  1.00  0.00     0.010 A 
ATOM     33  C   UNL     1       0.944   5.087   3.219  1.00  0.00     0.010 A 
ATOM     34  C   UNL     1       1.883   4.952   4.251  1.00  0.00    -0.014 A 
BRANCH  34  35
ATOM     35  C   UNL     1       3.194   5.647   4.150  1.00  0.00     0.031 A 
ATOM     36  C   UNL     1       3.239   7.152   4.060  1.00  0.00     0.074 A 
ATOM     37  C   UNL     1       4.334   4.931   4.101  1.00  0.00     0.049 A 
ATOM     38  N   UNL     1       4.271   7.944   3.915  1.00  0.00    -0.248 NA
ATOM     39  C   UNL     1       1.948   7.856   4.109  1.00  0.00     0.031 C 
ATOM     40  C   UNL     1       4.415   3.470   4.139  1.00  0.00     0.029 A 
ATOM     41  N   UNL     1       5.643   5.332   4.004  1.00  0.00    -0.354 N 
ATOM     42  C   UNL     1       3.753   9.233   3.837  1.00  0.00     0.074 A 
ATOM     43  C   UNL     1       2.312   9.109   3.884  1.00  0.00     0.031 C 
ATOM     44  C   UNL     1       5.705   3.100   4.097  1.00  0.00     0.029 A 
ATOM     45  C   UNL     1       6.542   4.290   3.980  1.00  0.00     0.049 A 
ATOM     46  H   UNL     1       5.914   6.278   3.956  1.00  0.00     0.167 HD
ATOM     47  C   UNL     1       4.417  10.413   3.761  1.00  0.00     0.034 A 
ATOM     48  C   UNL     1       7.885   4.294   3.867  1.00  0.00     0.034 A 
ATOM     49  C   UNL     1       5.855  10.520   3.734  1.00  0.00     0.049 A 
ATOM     50  C   UNL     1       8.602   5.617   3.766  1.00  0.00     0.074 A 
ATOM     51  C   UNL     1       6.635  11.663   3.718  1.00  0.00     0.029 A 
ATOM     52  N   UNL     1       6.732   9.442   3.711  1.00  0.00    -0.354 N 
ATOM     53  N   UNL     1       8.099   6.831   3.750  1.00  0.00    -0.248 NA
ATOM     54  C   UNL     1      10.067   5.572   3.680  1.00  0.00     0.031 C 
ATOM     55  C   UNL     1       7.976  11.278   3.612  1.00  0.00     0.029 A 
ATOM     56  C   UNL     1       8.041   9.894   3.647  1.00  0.00     0.049 A 
ATOM     57  H   UNL     1       6.463   8.495   3.736  1.00  0.00     0.167 HD
ATOM     58  C   UNL     1       9.191   7.693   3.683  1.00  0.00     0.074 A 
ATOM     59  C   UNL     1      10.376   6.860   3.680  1.00  0.00     0.031 C 
ATOM     60  C   UNL     1       9.213   9.050   3.633  1.00  0.00     0.034 A 
BRANCH  47  61
ATOM     61  C   UNL     1       3.589  11.675   3.676  1.00  0.00     0.023 A 
ATOM     62  C   UNL     1       2.715  12.060   4.709  1.00  0.00     0.031 A 
ATOM     63  C   UNL     1       3.653  12.494   2.534  1.00  0.00     0.131 A 
ATOM     64  C   UNL     1       1.886  13.181   4.547  1.00  0.00     0.055 A 
ATOM     65  C   UNL     1       2.888  13.656   2.416  1.00  0.00     0.041 A 
ATOM     66  F   UNL     1       4.453  12.171   1.506  1.00  0.00    -0.206 F 
ATOM     67  C   UNL     1       1.986  13.997   3.419  1.00  0.00     0.022 A 
BRANCH  64  68
ATOM     68  S   UNL     1       0.573  13.471   5.765  1.00  0.00     0.124 S 
ATOM     69  O   UNL     1      -0.194  12.230   5.673  1.00  0.00    -0.237 OA
ATOM     70  O   UNL     1       1.325  13.667   6.999  1.00  0.00    -0.237 OA
ATOM     71  O   UNL     1      -0.112  14.657   5.255  1.00  0.00    -0.744 OA
ENDBRANCH  64  68
ENDBRANCH  47  61
BRANCH  48  72
ATOM     72  C   UNL     1       8.644   3.010   3.833  1.00  0.00     0.023 A 
ATOM     73  C   UNL     1       9.559   2.681   4.845  1.00  0.00     0.031 A 
ATOM     74  C   UNL     1       8.494   2.109   2.763  1.00  0.00     0.131 A 
ATOM     75  C   UNL     1      10.324   1.507   4.744  1.00  0.00     0.055 A 
ATOM     76  C   UNL     1       9.216   0.917   2.694  1.00  0.00     0.041 A 
ATOM     77  F   UNL     1       7.629   2.372   1.770  1.00  0.00    -0.206 F 
ATOM     78  C   UNL     1      10.148   0.617   3.682  1.00  0.00     0.022 A 
BRANCH  75  79
ATOM     79  S   UNL     1      11.618   1.203   5.978  1.00  0.00     0.124 S 
ATOM     80  O   UNL     1      12.447   2.395   5.840  1.00  0.00    -0.237 OA
ATOM     81  O   UNL     1      10.842   1.100   7.210  1.00  0.00    -0.237 OA
ATOM     82  O   UNL     1      12.234  -0.042   5.526  1.00  0.00    -0.744 OA
ENDBRANCH  75  79
ENDBRANCH  48  72
BRANCH  60  83
ATOM     83  C   UNL     1      10.569   9.714   3.616  1.00  0.00     0.023 A 
ATOM     84  C   UNL     1      11.450   9.574   2.529  1.00  0.00     0.031 A 
ATOM     85  C   UNL     1      10.987  10.492   4.710  1.00  0.00     0.131 A 
ATOM     86  C   UNL     1      12.726  10.155   2.586  1.00  0.00     0.055 A 
ATOM     87  C   UNL     1      12.232  11.121   4.732  1.00  0.00     0.041 A 
ATOM     88  F   UNL     1      10.188  10.658   5.777  1.00  0.00    -0.206 F 
ATOM     89  C   UNL     1      13.116  10.943   3.672  1.00  0.00     0.022 A 
BRANCH  86  90
ATOM     90  S   UNL     1      13.909   9.787   1.261  1.00  0.00     0.124 S 
ATOM     91  O   UNL     1      13.994   8.331   1.326  1.00  0.00    -0.237 OA
ATOM     92  O   UNL     1      13.243  10.335   0.085  1.00  0.00    -0.237 OA
ATOM     93  O   UNL     1      15.119  10.497   1.675  1.00  0.00    -0.744 OA
ENDBRANCH  86  90
ENDBRANCH  60  83
ENDBRANCH  34  35
ENDBRANCH  26  29
ENDBRANCH  24  25
ENDBRANCH  23  24
ENDBRANCH   1  23
TORSDOF 19
