REMARK SMILES O=C(NCCCNC(=O)c1cc(-c2ccccc2)nc(Nc2nc3ccccc3s2)n1)c1ccc(-c2c3nc(c(-c4cc(S(=O)(=O)[O-])ccc4F)c4ccc([nH]4)c(-c4cc(S(=O)(=O)[O-])ccc4F)c4nc(c(-c5cc(S(=O)(=O)[O-])ccc5F)c5ccc2[nH]5)C=C4)C=C3)cc1
REMARK SMILES IDX 4 1 3 2 1 3 2 4 32 6 33 7 94 8 34 9 93 10 35 11 36 12 37 13
REMARK SMILES IDX 87 14 38 15 92 16 86 17 88 18 39 19 91 20 85 21 84 22 40 24
REMARK SMILES IDX 72 25 52 26 71 27 53 28 56 29 70 30 89 31 54 32 55 33 69 35
REMARK SMILES IDX 90 36 57 37 41 38 42 39 50 40 43 41 49 42 51 43 48 44 44 45
REMARK SMILES IDX 45 46 46 47 47 48 73 49 74 50 82 51 75 52 81 53 83 54 80 55
REMARK SMILES IDX 76 56 77 57 78 58 79 59 58 60 59 61 67 62 60 63 66 64 68 65
REMARK SMILES IDX 65 66 61 67 62 68 63 69 64 70 5 71 6 72 7 73 8 74 9 76 10 77
REMARK SMILES IDX 11 78 31 79 12 80 20 81 19 82 13 83 14 84 18 85 15 86 17 87
REMARK SMILES IDX 16 88 21 89 22 91 23 92 30 93 24 94 29 95 25 96 28 97 26 98
REMARK SMILES IDX 27 99
REMARK H PARENT 3 5 88 23 56 34 7 75 21 90
REMARK Flexibility Score: inf
ROOT
ATOM      1  C   UNL     1       4.435   1.126  -1.041  1.00  0.00     0.118 C 
ENDROOT
BRANCH   1   2
ATOM      2  N   UNL     1       3.014   0.982  -0.739  1.00  0.00    -0.352 N 
ATOM      3  O   UNL     1       1.125   0.001  -0.015  1.00  0.00    -0.269 OA
ATOM      4  C   UNL     1       2.348   0.036   0.008  1.00  0.00     0.251 C 
ATOM      5  H   UNL     1       2.437   1.674  -1.134  1.00  0.00     0.163 HD
BRANCH   4   6
ATOM      6  C   UNL     1       3.108  -0.941   0.821  1.00  0.00     0.039 A 
ATOM      7  C   UNL     1       4.246  -0.543   1.520  1.00  0.00     0.014 A 
ATOM      8  C   UNL     1       2.671  -2.267   0.901  1.00  0.00     0.014 A 
ATOM      9  C   UNL     1       5.049  -1.496   2.128  1.00  0.00     0.010 A 
ATOM     10  C   UNL     1       3.416  -3.205   1.627  1.00  0.00     0.010 A 
ATOM     11  C   UNL     1       4.632  -2.834   2.218  1.00  0.00    -0.014 A 
BRANCH  11  12
ATOM     12  C   UNL     1       5.472  -3.778   3.001  1.00  0.00     0.031 A 
ATOM     13  C   UNL     1       6.134  -4.964   2.356  1.00  0.00     0.074 A 
ATOM     14  C   UNL     1       5.701  -3.492   4.300  1.00  0.00     0.049 A 
ATOM     15  N   UNL     1       6.962  -5.830   2.884  1.00  0.00    -0.248 NA
ATOM     16  C   UNL     1       5.819  -5.223   0.944  1.00  0.00     0.031 C 
ATOM     17  C   UNL     1       5.092  -2.374   5.030  1.00  0.00     0.029 A 
ATOM     18  N   UNL     1       6.530  -4.073   5.222  1.00  0.00    -0.354 N 
ATOM     19  C   UNL     1       7.262  -6.740   1.876  1.00  0.00     0.074 A 
ATOM     20  C   UNL     1       6.495  -6.341   0.714  1.00  0.00     0.031 C 
ATOM     21  C   UNL     1       5.628  -2.303   6.255  1.00  0.00     0.029 A 
ATOM     22  C   UNL     1       6.554  -3.414   6.431  1.00  0.00     0.049 A 
ATOM     23  H   UNL     1       7.058  -4.883   5.039  1.00  0.00     0.167 HD
ATOM     24  C   UNL     1       8.105  -7.803   1.917  1.00  0.00     0.034 A 
ATOM     25  C   UNL     1       7.233  -3.679   7.562  1.00  0.00     0.034 A 
ATOM     26  C   UNL     1       8.863  -8.183   3.088  1.00  0.00     0.049 A 
ATOM     27  C   UNL     1       8.159  -4.864   7.577  1.00  0.00     0.074 A 
ATOM     28  C   UNL     1       9.742  -9.241   3.243  1.00  0.00     0.029 A 
ATOM     29  N   UNL     1       8.833  -7.516   4.308  1.00  0.00    -0.354 N 
ATOM     30  N   UNL     1       8.424  -5.715   6.613  1.00  0.00    -0.248 NA
ATOM     31  C   UNL     1       8.878  -5.121   8.829  1.00  0.00     0.031 C 
ATOM     32  C   UNL     1      10.199  -9.248   4.566  1.00  0.00     0.029 A 
ATOM     33  C   UNL     1       9.660  -8.153   5.222  1.00  0.00     0.049 A 
ATOM     34  H   UNL     1       8.301  -6.709   4.496  1.00  0.00     0.167 HD
ATOM     35  C   UNL     1       9.342  -6.612   7.145  1.00  0.00     0.074 A 
ATOM     36  C   UNL     1       9.619  -6.167   8.497  1.00  0.00     0.031 C 
ATOM     37  C   UNL     1       9.898  -7.712   6.576  1.00  0.00     0.034 A 
BRANCH  24  38
ATOM     38  C   UNL     1       8.220  -8.652   0.673  1.00  0.00     0.023 A 
ATOM     39  C   UNL     1       8.777  -8.152  -0.517  1.00  0.00     0.031 A 
ATOM     40  C   UNL     1       7.763  -9.982   0.677  1.00  0.00     0.131 A 
ATOM     41  C   UNL     1       8.814  -8.958  -1.667  1.00  0.00     0.055 A 
ATOM     42  C   UNL     1       7.867 -10.801  -0.450  1.00  0.00     0.041 A 
ATOM     43  F   UNL     1       7.204 -10.509   1.778  1.00  0.00    -0.206 F 
ATOM     44  C   UNL     1       8.385 -10.287  -1.634  1.00  0.00     0.022 A 
BRANCH  41  45
ATOM     45  S   UNL     1       9.330  -8.212  -3.238  1.00  0.00     0.124 S 
ATOM     46  O   UNL     1       8.327  -7.163  -3.410  1.00  0.00    -0.237 OA
ATOM     47  O   UNL     1      10.684  -7.758  -2.944  1.00  0.00    -0.237 OA
ATOM     48  O   UNL     1       9.235  -9.316  -4.191  1.00  0.00    -0.744 OA
ENDBRANCH  41  45
ENDBRANCH  24  38
BRANCH  25  49
ATOM     49  C   UNL     1       7.030  -2.839   8.777  1.00  0.00     0.023 A 
ATOM     50  C   UNL     1       8.082  -2.104   9.343  1.00  0.00     0.031 A 
ATOM     51  C   UNL     1       5.773  -2.787   9.409  1.00  0.00     0.131 A 
ATOM     52  C   UNL     1       7.871  -1.384  10.530  1.00  0.00     0.055 A 
ATOM     53  C   UNL     1       5.553  -2.020  10.554  1.00  0.00     0.041 A 
ATOM     54  F   UNL     1       4.731  -3.468   8.908  1.00  0.00    -0.206 F 
ATOM     55  C   UNL     1       6.610  -1.325  11.129  1.00  0.00     0.022 A 
BRANCH  52  56
ATOM     56  S   UNL     1       9.294  -0.600  11.336  1.00  0.00     0.124 S 
ATOM     57  O   UNL     1      10.214  -1.723  11.476  1.00  0.00    -0.237 OA
ATOM     58  O   UNL     1       9.669   0.419  10.362  1.00  0.00    -0.237 OA
ATOM     59  O   UNL     1       8.737  -0.090  12.587  1.00  0.00    -0.744 OA
ENDBRANCH  52  56
ENDBRANCH  25  49
BRANCH  37  60
ATOM     60  C   UNL     1      10.864  -8.490   7.434  1.00  0.00     0.023 A 
ATOM     61  C   UNL     1      10.433  -9.165   8.591  1.00  0.00     0.031 A 
ATOM     62  C   UNL     1      12.235  -8.507   7.128  1.00  0.00     0.131 A 
ATOM     63  C   UNL     1      11.373  -9.764   9.440  1.00  0.00     0.055 A 
ATOM     64  C   UNL     1      13.159  -9.160   7.944  1.00  0.00     0.041 A 
ATOM     65  F   UNL     1      12.700  -7.877   6.037  1.00  0.00    -0.206 F 
ATOM     66  C   UNL     1      12.732  -9.778   9.117  1.00  0.00     0.022 A 
BRANCH  63  67
ATOM     67  S   UNL     1      10.808 -10.421  11.034  1.00  0.00     0.124 S 
ATOM     68  O   UNL     1      10.186  -9.249  11.642  1.00  0.00    -0.237 OA
ATOM     69  O   UNL     1       9.899 -11.486  10.627  1.00  0.00    -0.237 OA
ATOM     70  O   UNL     1      12.042 -10.871  11.676  1.00  0.00    -0.744 OA
ENDBRANCH  63  67
ENDBRANCH  37  60
ENDBRANCH  11  12
ENDBRANCH   4   6
ENDBRANCH   1   2
BRANCH   1  71
ATOM     71  C   UNL     1       4.755   0.893  -2.509  1.00  0.00     0.042 C 
BRANCH  71  72
ATOM     72  C   UNL     1       4.075   1.878  -3.443  1.00  0.00     0.118 C 
BRANCH  72  73
ATOM     73  N   UNL     1       4.475   3.257  -3.198  1.00  0.00    -0.351 N 
ATOM     74  C   UNL     1       5.324   4.068  -3.919  1.00  0.00     0.270 C 
ATOM     75  H   UNL     1       4.078   3.672  -2.398  1.00  0.00     0.163 HD
ATOM     76  O   UNL     1       5.607   5.185  -3.494  1.00  0.00    -0.268 OA
BRANCH  74  77
ATOM     77  C   UNL     1       5.847   3.598  -5.223  1.00  0.00     0.134 A 
ATOM     78  C   UNL     1       4.976   3.200  -6.196  1.00  0.00     0.063 A 
ATOM     79  N   UNL     1       7.176   3.557  -5.356  1.00  0.00    -0.207 NA
ATOM     80  C   UNL     1       5.554   2.614  -7.296  1.00  0.00     0.077 A 
ATOM     81  C   UNL     1       7.674   3.043  -6.484  1.00  0.00     0.230 A 
ATOM     82  N   UNL     1       6.896   2.546  -7.464  1.00  0.00    -0.213 NA
BRANCH  80  83
ATOM     83  C   UNL     1       4.696   1.916  -8.263  1.00  0.00     0.000 A 
ATOM     84  C   UNL     1       4.900   0.556  -8.546  1.00  0.00     0.010 A 
ATOM     85  C   UNL     1       3.557   2.542  -8.804  1.00  0.00     0.010 A 
ATOM     86  C   UNL     1       3.975  -0.164  -9.307  1.00  0.00     0.001 A 
ATOM     87  C   UNL     1       2.634   1.824  -9.567  1.00  0.00     0.001 A 
ATOM     88  C   UNL     1       2.838   0.468  -9.808  1.00  0.00     0.000 A 
ENDBRANCH  80  83
BRANCH  81  89
ATOM     89  N   UNL     1       9.046   3.094  -6.717  1.00  0.00    -0.300 N 
ATOM     90  H   UNL     1       9.387   2.751  -7.575  1.00  0.00     0.172 HD
BRANCH  89  91
ATOM     91  C   UNL     1       9.931   3.588  -5.827  1.00  0.00     0.190 A 
ATOM     92  N   UNL     1       9.827   3.491  -4.522  1.00  0.00    -0.220 NA
ATOM     93  S   UNL     1      11.326   4.458  -6.356  1.00  0.00    -0.097 S 
ATOM     94  C   UNL     1      10.749   4.290  -3.888  1.00  0.00     0.084 A 
ATOM     95  C   UNL     1      11.648   4.942  -4.731  1.00  0.00     0.056 A 
ATOM     96  C   UNL     1      10.826   4.510  -2.499  1.00  0.00     0.030 A 
ATOM     97  C   UNL     1      12.614   5.831  -4.229  1.00  0.00     0.021 A 
ATOM     98  C   UNL     1      11.774   5.399  -1.989  1.00  0.00     0.002 A 
ATOM     99  C   UNL     1      12.652   6.056  -2.847  1.00  0.00     0.002 A 
ENDBRANCH  89  91
ENDBRANCH  81  89
ENDBRANCH  74  77
ENDBRANCH  72  73
ENDBRANCH  71  72
ENDBRANCH   1  71
TORSDOF 16
