REMARK SMILES CCN(Cc1cn(CC)nc1C)C(=O)c1ccn([C@@H](C)C(=O)NCCCNC(=O)c2ccc(-c3c4nc(c(-c5cc(S(=O)(=O)[O-])ccc5F)c5ccc([nH]5)c(-c5cc(S(=O)(=O)[O-])ccc5F)c5nc(c(-c6cc(S(=O)(=O)[O-])ccc6F)c6ccc3[nH]6)C=C5)C=C4)cc2)n1
REMARK SMILES IDX 21 1 22 2 23 3 19 5 20 6 18 7 15 8 16 9 93 10 17 11 13 12
REMARK SMILES IDX 14 13 3 14 2 15 1 16 4 17 5 18 6 19 11 20 7 21 10 22 12 23
REMARK SMILES IDX 8 24 9 25 24 26 25 27 26 28 27 29 28 30 29 32 30 33 31 34
REMARK SMILES IDX 92 35 32 36 91 37 33 38 34 39 35 40 85 41 36 42 90 43 84 44
REMARK SMILES IDX 86 45 37 46 89 47 83 48 82 49 38 51 70 52 50 53 69 54 51 55
REMARK SMILES IDX 54 56 68 57 87 58 52 59 53 60 67 62 88 63 55 64 39 65 40 66
REMARK SMILES IDX 48 67 41 68 47 69 49 70 46 71 42 72 43 73 44 74 45 75 71 76
REMARK SMILES IDX 72 77 80 78 73 79 79 80 81 81 78 82 74 83 75 84 76 85 77 86
REMARK SMILES IDX 56 87 57 88 65 89 58 90 64 91 66 92 63 93 59 94 60 95 61 96
REMARK SMILES IDX 62 97
REMARK H PARENT 23 4 27 31 86 50 54 61
REMARK Flexibility Score: inf
ROOT
ATOM      1  C   UNL     1       5.694  -2.694  -6.382  1.00  0.00     0.244 C 
ATOM      2  O   UNL     1       6.907  -2.644  -6.141  1.00  0.00    -0.273 OA
ATOM      3  N   UNL     1       5.334  -2.353  -7.657  1.00  0.00    -0.354 N 
ATOM      4  H   UNL     1       6.103  -2.116  -8.225  1.00  0.00     0.163 HD
ENDROOT
BRANCH   1   5
ATOM      5  C   UNL     1       4.721  -3.176  -5.289  1.00  0.00     0.193 C 
ATOM      6  C   UNL     1       3.941  -4.415  -5.720  1.00  0.00     0.044 C 
BRANCH   5   7
ATOM      7  N   UNL     1       3.906  -2.092  -4.750  1.00  0.00    -0.260 N 
ATOM      8  C   UNL     1       3.130  -0.616  -3.439  1.00  0.00     0.150 A 
ATOM      9  C   UNL     1       3.067  -0.096  -4.741  1.00  0.00     0.056 A 
ATOM     10  N   UNL     1       3.712  -1.847  -3.427  1.00  0.00    -0.167 NA
ATOM     11  C   UNL     1       3.157  -1.235  -5.474  1.00  0.00     0.110 A 
BRANCH   8  12
ATOM     12  C   UNL     1       2.552   0.074  -2.289  1.00  0.00     0.274 C 
ATOM     13  O   UNL     1       3.278   0.559  -1.422  1.00  0.00    -0.267 OA
BRANCH  12  14
ATOM     14  N   UNL     1       1.140   0.221  -2.259  1.00  0.00    -0.333 N 
BRANCH  14  15
ATOM     15  C   UNL     1       0.593   0.862  -1.067  1.00  0.00     0.117 C 
ATOM     16  C   UNL     1       0.848   0.050   0.201  1.00  0.00     0.027 C 
ENDBRANCH  14  15
BRANCH  14  17
ATOM     17  C   UNL     1       0.181  -0.383  -3.211  1.00  0.00     0.159 C 
BRANCH  17  18
ATOM     18  C   UNL     1       0.072   0.344  -4.526  1.00  0.00     0.012 A 
ATOM     19  C   UNL     1       0.008   1.705  -4.781  1.00  0.00     0.114 A 
ATOM     20  C   UNL     1       0.021  -0.239  -5.837  1.00  0.00     0.064 A 
ATOM     21  N   UNL     1       0.060   1.859  -6.141  1.00  0.00    -0.272 N 
ATOM     22  N   UNL     1       0.024   0.689  -6.801  1.00  0.00    -0.178 NA
ATOM     23  C   UNL     1       0.038  -1.674  -6.232  1.00  0.00     0.069 C 
BRANCH  21  24
ATOM     24  C   UNL     1       0.117   3.104  -6.887  1.00  0.00     0.141 C 
ATOM     25  C   UNL     1       1.461   3.357  -7.557  1.00  0.00     0.029 C 
ENDBRANCH  21  24
ENDBRANCH  17  18
ENDBRANCH  14  17
ENDBRANCH  12  14
ENDBRANCH   8  12
ENDBRANCH   5   7
ENDBRANCH   1   5
BRANCH   3  26
ATOM     26  C   UNL     1       4.057  -2.265  -8.355  1.00  0.00     0.117 C 
BRANCH  26  27
ATOM     27  C   UNL     1       3.539  -0.829  -8.466  1.00  0.00     0.042 C 
BRANCH  27  28
ATOM     28  C   UNL     1       4.169  -0.089  -9.589  1.00  0.00     0.118 C 
BRANCH  28  29
ATOM     29  N   UNL     1       3.712  -0.549 -10.892  1.00  0.00    -0.352 N 
ATOM     30  C   UNL     1       3.646   0.229 -12.044  1.00  0.00     0.251 C 
ATOM     31  H   UNL     1       3.427  -1.489 -10.964  1.00  0.00     0.163 HD
ATOM     32  O   UNL     1       2.937  -0.070 -12.974  1.00  0.00    -0.269 OA
BRANCH  30  33
ATOM     33  C   UNL     1       4.578   1.381 -12.075  1.00  0.00     0.039 A 
ATOM     34  C   UNL     1       4.462   2.569 -12.784  1.00  0.00     0.014 A 
ATOM     35  C   UNL     1       5.759   1.193 -11.390  1.00  0.00     0.014 A 
ATOM     36  C   UNL     1       5.595   3.428 -12.758  1.00  0.00     0.010 A 
ATOM     37  C   UNL     1       6.332   2.291 -10.866  1.00  0.00     0.010 A 
ATOM     38  C   UNL     1       6.675   3.133 -11.875  1.00  0.00    -0.014 A 
BRANCH  38  39
ATOM     39  C   UNL     1       7.811   3.982 -11.447  1.00  0.00     0.031 A 
ATOM     40  C   UNL     1       7.157   5.276 -10.973  1.00  0.00     0.074 A 
ATOM     41  C   UNL     1       9.126   3.546 -11.304  1.00  0.00     0.049 A 
ATOM     42  N   UNL     1       6.885   6.285 -11.745  1.00  0.00    -0.248 NA
ATOM     43  C   UNL     1       6.304   5.340  -9.742  1.00  0.00     0.031 C 
ATOM     44  C   UNL     1       9.775   2.232 -11.579  1.00  0.00     0.029 A 
ATOM     45  N   UNL     1      10.259   4.247 -10.885  1.00  0.00    -0.354 N 
ATOM     46  C   UNL     1       6.332   7.251 -10.907  1.00  0.00     0.074 A 
ATOM     47  C   UNL     1       5.680   6.517  -9.877  1.00  0.00     0.031 C 
ATOM     48  C   UNL     1      11.046   2.171 -11.067  1.00  0.00     0.029 A 
ATOM     49  C   UNL     1      11.434   3.471 -10.539  1.00  0.00     0.049 A 
ATOM     50  H   UNL     1      10.260   5.230 -10.826  1.00  0.00     0.167 HD
ATOM     51  C   UNL     1       6.912   8.485 -10.867  1.00  0.00     0.034 A 
ATOM     52  C   UNL     1      12.685   3.927 -10.095  1.00  0.00     0.034 A 
ATOM     53  C   UNL     1       7.764   8.616 -12.037  1.00  0.00     0.049 A 
ATOM     54  C   UNL     1      12.679   5.380 -10.428  1.00  0.00     0.074 A 
ATOM     55  C   UNL     1       7.582   8.610 -13.403  1.00  0.00     0.029 A 
ATOM     56  N   UNL     1       9.040   8.171 -11.809  1.00  0.00    -0.354 N 
ATOM     57  N   UNL     1      12.648   5.797 -11.666  1.00  0.00    -0.248 NA
ATOM     58  C   UNL     1      12.034   6.228  -9.437  1.00  0.00     0.031 C 
ATOM     59  C   UNL     1       8.671   7.843 -13.929  1.00  0.00     0.029 A 
ATOM     60  C   UNL     1       9.583   7.575 -12.909  1.00  0.00     0.049 A 
ATOM     61  H   UNL     1       9.511   8.269 -10.950  1.00  0.00     0.167 HD
ATOM     62  C   UNL     1      11.581   6.683 -11.700  1.00  0.00     0.074 A 
ATOM     63  C   UNL     1      11.246   6.908 -10.278  1.00  0.00     0.031 C 
ATOM     64  C   UNL     1      10.834   6.840 -12.843  1.00  0.00     0.034 A 
BRANCH  51  65
ATOM     65  C   UNL     1       7.239   9.255  -9.583  1.00  0.00     0.023 A 
ATOM     66  C   UNL     1       7.985  10.440  -9.751  1.00  0.00     0.031 A 
ATOM     67  C   UNL     1       7.162   8.780  -8.250  1.00  0.00     0.131 A 
ATOM     68  C   UNL     1       8.683  11.028  -8.681  1.00  0.00     0.055 A 
ATOM     69  C   UNL     1       7.811   9.405  -7.174  1.00  0.00     0.041 A 
ATOM     70  F   UNL     1       6.530   7.652  -7.911  1.00  0.00    -0.206 F 
ATOM     71  C   UNL     1       8.598  10.522  -7.388  1.00  0.00     0.022 A 
BRANCH  68  72
ATOM     72  S   UNL     1       9.851  12.360  -9.058  1.00  0.00     0.124 S 
ATOM     73  O   UNL     1      10.722  11.717 -10.034  1.00  0.00    -0.237 OA
ATOM     74  O   UNL     1       8.962  13.398  -9.570  1.00  0.00    -0.237 OA
ATOM     75  O   UNL     1      10.464  12.648  -7.764  1.00  0.00    -0.744 OA
ENDBRANCH  68  72
ENDBRANCH  51  65
BRANCH  52  76
ATOM     76  C   UNL     1      13.605   3.432  -8.941  1.00  0.00     0.023 A 
ATOM     77  C   UNL     1      14.970   3.814  -8.614  1.00  0.00     0.031 A 
ATOM     78  C   UNL     1      12.944   2.720  -7.925  1.00  0.00     0.131 A 
ATOM     79  C   UNL     1      15.566   3.456  -7.344  1.00  0.00     0.055 A 
ATOM     80  C   UNL     1      13.515   2.421  -6.681  1.00  0.00     0.041 A 
ATOM     81  F   UNL     1      11.665   2.353  -8.078  1.00  0.00    -0.206 F 
ATOM     82  C   UNL     1      14.814   2.790  -6.380  1.00  0.00     0.022 A 
BRANCH  79  83
ATOM     83  S   UNL     1      17.333   3.792  -6.847  1.00  0.00     0.124 S 
ATOM     84  O   UNL     1      18.096   3.050  -7.845  1.00  0.00    -0.237 OA
ATOM     85  O   UNL     1      17.430   5.245  -6.902  1.00  0.00    -0.237 OA
ATOM     86  O   UNL     1      17.427   3.236  -5.493  1.00  0.00    -0.744 OA
ENDBRANCH  79  83
ENDBRANCH  52  76
BRANCH  64  87
ATOM     87  C   UNL     1      11.351   6.247 -14.149  1.00  0.00     0.023 A 
ATOM     88  C   UNL     1      11.454   4.878 -14.519  1.00  0.00     0.031 A 
ATOM     89  C   UNL     1      11.677   7.203 -15.124  1.00  0.00     0.131 A 
ATOM     90  C   UNL     1      11.912   4.534 -15.818  1.00  0.00     0.055 A 
ATOM     91  C   UNL     1      12.072   6.859 -16.411  1.00  0.00     0.041 A 
ATOM     92  F   UNL     1      11.576   8.512 -14.843  1.00  0.00    -0.206 F 
ATOM     93  C   UNL     1      12.204   5.524 -16.761  1.00  0.00     0.022 A 
BRANCH  90  94
ATOM     94  S   UNL     1      12.237   2.794 -16.297  1.00  0.00     0.124 S 
ATOM     95  O   UNL     1      13.076   2.305 -15.209  1.00  0.00    -0.237 OA
ATOM     96  O   UNL     1      10.896   2.222 -16.373  1.00  0.00    -0.237 OA
ATOM     97  O   UNL     1      12.920   2.914 -17.587  1.00  0.00    -0.744 OA
ENDBRANCH  90  94
ENDBRANCH  64  87
ENDBRANCH  38  39
ENDBRANCH  30  33
ENDBRANCH  28  29
ENDBRANCH  27  28
ENDBRANCH  26  27
ENDBRANCH   3  26
TORSDOF 20
