REMARK SMILES Cc1nn(-c2ccccc2)c(C)c1CNC(=O)[C@@H]1[C@@H](C(=O)NCCCNC(=O)c2ccc(-c3c4nc(c(-c5cc(S(=O)(=O)[O-])ccc5F)c5ccc([nH]5)c(-c5cc(S(=O)(=O)[O-])ccc5F)c5nc(c(-c6cc(S(=O)(=O)[O-])ccc6F)c6ccc3[nH]6)C=C5)C=C4)cc2)[C@@H]2C=C[C@H]1C2
REMARK SMILES IDX 23 1 22 2 20 3 21 4 19 6 18 7 95 8 92 9 94 10 96 11 93 12
REMARK SMILES IDX 16 13 15 14 17 16 14 17 13 18 1 19 2 20 3 21 4 22 11 23
REMARK SMILES IDX 12 24 5 25 6 26 10 27 7 28 9 29 8 30 24 31 25 32 26 33 27 34
REMARK SMILES IDX 28 36 29 37 30 38 91 39 31 40 90 41 32 42 33 43 34 44 84 45
REMARK SMILES IDX 35 46 89 47 83 48 85 49 36 50 88 51 82 52 81 53 37 55 69 56
REMARK SMILES IDX 49 57 68 58 50 59 53 60 67 61 86 62 51 63 52 64 66 66 87 67
REMARK SMILES IDX 54 68 38 69 39 70 47 71 40 72 46 73 48 74 45 75 41 76 42 77
REMARK SMILES IDX 43 78 44 79 70 80 71 81 79 82 72 83 78 84 80 85 77 86 73 87
REMARK SMILES IDX 74 88 75 89 76 90 55 91 56 92 64 93 57 94 63 95 65 96 62 97
REMARK SMILES IDX 58 98 59 99 60 100 61 101
REMARK H PARENT 22 5 15 15 26 35 85 54 53 65
REMARK Flexibility Score: inf
ROOT
ATOM      1  C   UNL     1       0.775   5.338   4.304  1.00  0.00     0.117 C 
ENDROOT
BRANCH   1   2
ATOM      2  N   UNL     1       0.263   5.809   3.029  1.00  0.00    -0.356 N 
ATOM      3  C   UNL     1       0.809   6.464   1.981  1.00  0.00     0.224 C 
ATOM      4  O   UNL     1       0.001   6.998   1.211  1.00  0.00    -0.275 OA
ATOM      5  H   UNL     1      -0.692   5.606   2.899  1.00  0.00     0.163 HD
BRANCH   3   6
ATOM      6  C   UNL     1       2.299   6.613   1.686  1.00  0.00     0.098 C 
ATOM      7  C   UNL     1       3.275   5.446   2.029  1.00  0.00     0.098 C 
ATOM      8  C   UNL     1       4.402   6.230   2.787  1.00  0.00     0.025 C 
ATOM      9  C   UNL     1       2.912   7.851   2.382  1.00  0.00     0.025 C 
ATOM     10  C   UNL     1       5.068   7.240   1.878  1.00  0.00    -0.027 C 
ATOM     11  C   UNL     1       3.596   7.246   3.601  1.00  0.00     0.017 C 
ATOM     12  C   UNL     1       4.172   8.205   1.620  1.00  0.00    -0.027 C 
BRANCH   7  13
ATOM     13  C   UNL     1       3.799   4.646   0.827  1.00  0.00     0.224 C 
ATOM     14  N   UNL     1       3.154   3.530   0.380  1.00  0.00    -0.352 N 
ATOM     15  H   UNL     1       3.597   3.100  -0.387  1.00  0.00     0.163 HD
ATOM     16  O   UNL     1       4.833   4.946   0.227  1.00  0.00    -0.275 OA
BRANCH  14  17
ATOM     17  C   UNL     1       1.944   2.847   0.808  1.00  0.00     0.155 C 
BRANCH  17  18
ATOM     18  C   UNL     1       1.010   2.711  -0.355  1.00  0.00     0.016 A 
ATOM     19  C   UNL     1       0.445   0.154  -0.371  1.00  0.00     0.069 C 
ATOM     20  C   UNL     1       0.308   1.563  -0.823  1.00  0.00     0.065 A 
ATOM     21  N   UNL     1      -0.596   1.869  -1.766  1.00  0.00    -0.173 NA
ATOM     22  N   UNL     1      -0.389   3.179  -2.030  1.00  0.00    -0.237 N 
ATOM     23  C   UNL     1       0.569   3.717  -1.198  1.00  0.00     0.046 A 
ATOM     24  C   UNL     1       0.877   5.162  -1.182  1.00  0.00     0.067 C 
BRANCH  22  25
ATOM     25  C   UNL     1      -1.177   3.920  -2.943  1.00  0.00     0.065 A 
ATOM     26  C   UNL     1      -2.567   3.909  -2.809  1.00  0.00     0.028 A 
ATOM     27  C   UNL     1      -0.551   4.841  -3.798  1.00  0.00     0.028 A 
ATOM     28  C   UNL     1      -3.316   4.890  -3.466  1.00  0.00     0.002 A 
ATOM     29  C   UNL     1      -1.306   5.805  -4.459  1.00  0.00     0.002 A 
ATOM     30  C   UNL     1      -2.686   5.842  -4.274  1.00  0.00     0.000 A 
ENDBRANCH  22  25
ENDBRANCH  17  18
ENDBRANCH  14  17
ENDBRANCH   7  13
ENDBRANCH   3   6
ENDBRANCH   1   2
BRANCH   1  31
ATOM     31  C   UNL     1       0.754   6.441   5.365  1.00  0.00     0.042 C 
BRANCH  31  32
ATOM     32  C   UNL     1      -0.583   6.507   6.056  1.00  0.00     0.118 C 
BRANCH  32  33
ATOM     33  N   UNL     1      -0.802   5.390   6.983  1.00  0.00    -0.352 N 
ATOM     34  C   UNL     1      -1.874   5.221   7.857  1.00  0.00     0.251 C 
ATOM     35  H   UNL     1      -0.116   4.683   6.987  1.00  0.00     0.163 HD
ATOM     36  O   UNL     1      -1.804   4.461   8.799  1.00  0.00    -0.269 OA
BRANCH  34  37
ATOM     37  C   UNL     1      -3.085   6.018   7.577  1.00  0.00     0.039 A 
ATOM     38  C   UNL     1      -3.792   6.710   8.559  1.00  0.00     0.014 A 
ATOM     39  C   UNL     1      -3.392   6.179   6.236  1.00  0.00     0.014 A 
ATOM     40  C   UNL     1      -4.751   7.633   8.141  1.00  0.00     0.010 A 
ATOM     41  C   UNL     1      -4.051   7.305   5.852  1.00  0.00     0.010 A 
ATOM     42  C   UNL     1      -4.852   7.949   6.773  1.00  0.00    -0.014 A 
BRANCH  42  43
ATOM     43  C   UNL     1      -5.739   8.980   6.250  1.00  0.00     0.031 A 
ATOM     44  C   UNL     1      -5.714  10.248   7.013  1.00  0.00     0.074 A 
ATOM     45  C   UNL     1      -6.415   8.860   5.081  1.00  0.00     0.049 A 
ATOM     46  N   UNL     1      -6.602  10.648   7.857  1.00  0.00    -0.248 NA
ATOM     47  C   UNL     1      -4.496  11.071   7.000  1.00  0.00     0.031 C 
ATOM     48  C   UNL     1      -6.368   7.785   4.076  1.00  0.00     0.029 A 
ATOM     49  N   UNL     1      -7.257   9.752   4.496  1.00  0.00    -0.354 N 
ATOM     50  C   UNL     1      -6.188  11.900   8.289  1.00  0.00     0.074 A 
ATOM     51  C   UNL     1      -4.805  12.007   7.903  1.00  0.00     0.031 C 
ATOM     52  C   UNL     1      -6.946   8.196   2.925  1.00  0.00     0.029 A 
ATOM     53  C   UNL     1      -7.586   9.473   3.171  1.00  0.00     0.049 A 
ATOM     54  H   UNL     1      -7.609  10.537   4.974  1.00  0.00     0.167 HD
ATOM     55  C   UNL     1      -7.099  12.819   8.712  1.00  0.00     0.034 A 
ATOM     56  C   UNL     1      -8.364  10.214   2.336  1.00  0.00     0.034 A 
ATOM     57  C   UNL     1      -8.389  12.198   8.931  1.00  0.00     0.049 A 
ATOM     58  C   UNL     1      -9.239  11.026   3.218  1.00  0.00     0.074 A 
ATOM     59  C   UNL     1      -8.846  11.191   9.760  1.00  0.00     0.029 A 
ATOM     60  N   UNL     1      -9.330  12.306   7.929  1.00  0.00    -0.354 N 
ATOM     61  N   UNL     1     -10.134  10.491   4.008  1.00  0.00    -0.248 NA
ATOM     62  C   UNL     1      -8.766  12.341   3.626  1.00  0.00     0.031 C 
ATOM     63  C   UNL     1      -9.725  10.418   8.941  1.00  0.00     0.029 A 
ATOM     64  C   UNL     1      -9.838  11.049   7.699  1.00  0.00     0.049 A 
ATOM     65  H   UNL     1      -9.591  13.133   7.463  1.00  0.00     0.167 HD
ATOM     66  C   UNL     1     -10.006  11.170   5.211  1.00  0.00     0.074 A 
ATOM     67  C   UNL     1      -9.212  12.358   4.888  1.00  0.00     0.031 C 
ATOM     68  C   UNL     1     -10.304  10.574   6.405  1.00  0.00     0.034 A 
BRANCH  55  69
ATOM     69  C   UNL     1      -6.952  14.315   8.582  1.00  0.00     0.023 A 
ATOM     70  C   UNL     1      -7.979  15.111   9.124  1.00  0.00     0.031 A 
ATOM     71  C   UNL     1      -6.043  14.977   7.728  1.00  0.00     0.131 A 
ATOM     72  C   UNL     1      -8.131  16.453   8.739  1.00  0.00     0.055 A 
ATOM     73  C   UNL     1      -6.160  16.330   7.399  1.00  0.00     0.041 A 
ATOM     74  F   UNL     1      -5.056  14.340   7.088  1.00  0.00    -0.206 F 
ATOM     75  C   UNL     1      -7.228  17.069   7.878  1.00  0.00     0.022 A 
BRANCH  72  76
ATOM     76  S   UNL     1      -9.638  17.324   9.240  1.00  0.00     0.124 S 
ATOM     77  O   UNL     1     -10.677  16.412   8.774  1.00  0.00    -0.237 OA
ATOM     78  O   UNL     1      -9.463  17.418  10.685  1.00  0.00    -0.237 OA
ATOM     79  O   UNL     1      -9.551  18.591   8.517  1.00  0.00    -0.744 OA
ENDBRANCH  72  76
ENDBRANCH  55  69
BRANCH  56  80
ATOM     80  C   UNL     1      -8.059  10.545   0.911  1.00  0.00     0.023 A 
ATOM     81  C   UNL     1      -9.028  10.988  -0.017  1.00  0.00     0.031 A 
ATOM     82  C   UNL     1      -6.707  10.648   0.507  1.00  0.00     0.131 A 
ATOM     83  C   UNL     1      -8.628  11.505  -1.277  1.00  0.00     0.055 A 
ATOM     84  C   UNL     1      -6.319  11.164  -0.732  1.00  0.00     0.041 A 
ATOM     85  F   UNL     1      -5.708  10.324   1.344  1.00  0.00    -0.206 F 
ATOM     86  C   UNL     1      -7.279  11.603  -1.628  1.00  0.00     0.022 A 
BRANCH  83  87
ATOM     87  S   UNL     1      -9.862  12.124  -2.473  1.00  0.00     0.124 S 
ATOM     88  O   UNL     1     -10.626  10.922  -2.785  1.00  0.00    -0.237 OA
ATOM     89  O   UNL     1     -10.553  13.153  -1.705  1.00  0.00    -0.237 OA
ATOM     90  O   UNL     1      -9.046  12.632  -3.578  1.00  0.00    -0.744 OA
ENDBRANCH  83  87
ENDBRANCH  56  80
BRANCH  68  91
ATOM     91  C   UNL     1     -11.020   9.233   6.388  1.00  0.00     0.023 A 
ATOM     92  C   UNL     1     -10.521   8.043   5.804  1.00  0.00     0.031 A 
ATOM     93  C   UNL     1     -12.212   9.142   7.127  1.00  0.00     0.131 A 
ATOM     94  C   UNL     1     -11.221   6.827   5.973  1.00  0.00     0.055 A 
ATOM     95  C   UNL     1     -12.886   7.936   7.311  1.00  0.00     0.041 A 
ATOM     96  F   UNL     1     -12.725  10.230   7.726  1.00  0.00    -0.206 F 
ATOM     97  C   UNL     1     -12.395   6.774   6.731  1.00  0.00     0.022 A 
BRANCH  94  98
ATOM     98  S   UNL     1     -10.628   5.284   5.197  1.00  0.00     0.124 S 
ATOM     99  O   UNL     1     -10.389   5.670   3.811  1.00  0.00    -0.237 OA
ATOM    100  O   UNL     1      -9.440   4.965   5.985  1.00  0.00    -0.237 OA
ATOM    101  O   UNL     1     -11.745   4.356   5.385  1.00  0.00    -0.744 OA
ENDBRANCH  94  98
ENDBRANCH  68  91
ENDBRANCH  42  43
ENDBRANCH  34  37
ENDBRANCH  32  33
ENDBRANCH  31  32
ENDBRANCH   1  31
TORSDOF 17
