REMARK SMILES O=C(C[C@]12CSc3[nH]c(=O)sc3[C@H]1c1cc(Cl)ccc1OC2=O)NCCCNC(=O)c1ccc(-c2c3nc(c(-c4cc(S(=O)(=O)[O-])ccc4F)c4ccc([nH]4)c(-c4cc(S(=O)(=O)[O-])ccc4F)c4nc(c(-c5cc(S(=O)(=O)[O-])ccc5F)c5ccc2[nH]5)C=C4)C=C3)cc1
REMARK SMILES IDX 27 1 26 2 25 3 24 4 1 5 2 6 3 8 4 9 5 10 13 11 22 12 6 13
REMARK SMILES IDX 12 14 14 15 21 16 23 17 7 18 11 19 15 20 20 21 8 22 9 23
REMARK SMILES IDX 16 24 19 25 10 27 17 28 18 29 28 30 29 31 30 33 31 34 32 35
REMARK SMILES IDX 93 36 33 37 92 38 34 39 35 40 36 41 86 42 37 43 91 44 85 45
REMARK SMILES IDX 87 46 38 47 90 48 84 49 83 50 39 52 71 53 51 54 70 55 52 56
REMARK SMILES IDX 55 57 69 58 88 59 53 60 54 61 68 63 89 64 56 65 40 66 41 67
REMARK SMILES IDX 49 68 42 69 48 70 50 71 47 72 43 73 44 74 45 75 46 76 72 77
REMARK SMILES IDX 73 78 81 79 74 80 80 81 82 82 79 83 75 84 76 85 77 86 78 87
REMARK SMILES IDX 57 88 58 89 66 90 59 91 65 92 67 93 64 94 60 95 61 96 62 97
REMARK SMILES IDX 63 98
REMARK H PARENT 24 7 8 26 28 32 87 51 55 62
REMARK Flexibility Score: inf
ROOT
ATOM      1  C   UNL     1       4.288   3.636  -2.141  1.00  0.00     0.118 C 
ENDROOT
BRANCH   1   2
ATOM      2  C   UNL     1       2.767   3.596  -2.132  1.00  0.00     0.042 C 
BRANCH   2   3
ATOM      3  C   UNL     1       2.188   2.208  -2.376  1.00  0.00     0.117 C 
BRANCH   3   4
ATOM      4  N   UNL     1       2.401   1.153  -1.061  1.00  0.00    -0.356 N 
ATOM      5  O   UNL     1       0.151  -0.291   0.212  1.00  0.00    -0.275 OA
ATOM      6  C   UNL     1       1.408  -0.150  -0.016  1.00  0.00     0.221 C 
ATOM      7  H   UNL     1       3.321   1.226  -0.719  1.00  0.00     0.163 HD
BRANCH   6   8
ATOM      8  C   UNL     1       1.956  -1.469   0.806  1.00  0.00     0.120 C 
BRANCH   8   9
ATOM      9  C   UNL     1       3.248  -2.241   0.513  1.00  0.00     0.098 C 
ATOM     10  C   UNL     1       3.097  -3.623   1.146  1.00  0.00     0.097 C 
ATOM     11  C   UNL     1       4.224  -1.207   1.024  1.00  0.00     0.085 C 
ATOM     12  C   UNL     1       3.746  -2.561  -0.930  1.00  0.00     0.319 C 
ATOM     13  S   UNL     1       4.508  -4.276   2.028  1.00  0.00    -0.106 SA
ATOM     14  C   UNL     1       5.567  -1.813   1.305  1.00  0.00     0.049 A 
ATOM     15  C   UNL     1       3.625  -0.094   0.047  1.00  0.00     0.006 A 
ATOM     16  O   UNL     1       3.102  -1.982  -1.961  1.00  0.00    -0.426 OA
ATOM     17  O   UNL     1       4.699  -3.308  -1.147  1.00  0.00    -0.251 OA
ATOM     18  C   UNL     1       5.689  -3.071   1.791  1.00  0.00     0.090 A 
ATOM     19  S   UNL     1       7.042  -0.930   1.654  1.00  0.00    -0.077 S 
ATOM     20  C   UNL     1       2.753   1.248   0.940  1.00  0.00     0.028 A 
ATOM     21  C   UNL     1       2.794  -0.736  -1.484  1.00  0.00     0.134 A 
ATOM     22  N   UNL     1       6.875  -3.363   2.381  1.00  0.00    -0.307 N 
ATOM     23  C   UNL     1       7.761  -2.337   2.489  1.00  0.00     0.305 A 
ATOM     24  C   UNL     1       1.172   1.931   0.335  1.00  0.00     0.041 A 
ATOM     25  C   UNL     1       1.181  -0.101  -2.080  1.00  0.00     0.049 A 
ATOM     26  H   UNL     1       7.082  -4.266   2.712  1.00  0.00     0.171 HD
ATOM     27  O   UNL     1       8.816  -2.356   3.099  1.00  0.00    -0.257 OA
ATOM     28  Cl  UNL     1       0.341   3.079   1.309  1.00  0.00    -0.084 Cl
ATOM     29  C   UNL     1       0.363   1.273  -1.167  1.00  0.00     0.024 A 
ENDBRANCH   8   9
ENDBRANCH   6   8
ENDBRANCH   3   4
ENDBRANCH   2   3
ENDBRANCH   1   2
BRANCH   1  30
ATOM     30  N   UNL     1       4.891   3.017  -3.304  1.00  0.00    -0.352 N 
ATOM     31  C   UNL     1       5.244   3.446  -4.554  1.00  0.00     0.251 C 
ATOM     32  H   UNL     1       5.095   2.065  -3.161  1.00  0.00     0.163 HD
ATOM     33  O   UNL     1       5.902   2.639  -5.218  1.00  0.00    -0.269 OA
BRANCH  31  34
ATOM     34  C   UNL     1       4.828   4.728  -5.186  1.00  0.00     0.039 A 
ATOM     35  C   UNL     1       4.008   5.694  -4.608  1.00  0.00     0.014 A 
ATOM     36  C   UNL     1       5.219   4.901  -6.529  1.00  0.00     0.014 A 
ATOM     37  C   UNL     1       3.449   6.694  -5.400  1.00  0.00     0.010 A 
ATOM     38  C   UNL     1       4.702   5.928  -7.311  1.00  0.00     0.010 A 
ATOM     39  C   UNL     1       3.750   6.775  -6.769  1.00  0.00    -0.014 A 
BRANCH  39  40
ATOM     40  C   UNL     1       3.128   7.838  -7.559  1.00  0.00     0.031 A 
ATOM     41  C   UNL     1       3.386   9.198  -7.013  1.00  0.00     0.074 A 
ATOM     42  C   UNL     1       2.413   7.655  -8.692  1.00  0.00     0.049 A 
ATOM     43  N   UNL     1       2.553   9.939  -6.362  1.00  0.00    -0.248 NA
ATOM     44  C   UNL     1       4.765   9.707  -7.005  1.00  0.00     0.031 C 
ATOM     45  C   UNL     1       2.256   6.447  -9.507  1.00  0.00     0.029 A 
ATOM     46  N   UNL     1       1.680   8.572  -9.391  1.00  0.00    -0.354 N 
ATOM     47  C   UNL     1       3.237  11.108  -6.039  1.00  0.00     0.074 A 
ATOM     48  C   UNL     1       4.626  10.845  -6.320  1.00  0.00     0.031 C 
ATOM     49  C   UNL     1       1.678   6.767 -10.692  1.00  0.00     0.029 A 
ATOM     50  C   UNL     1       1.269   8.161 -10.657  1.00  0.00     0.049 A 
ATOM     51  H   UNL     1       1.459   9.459  -9.026  1.00  0.00     0.167 HD
ATOM     52  C   UNL     1       2.566  12.258  -5.742  1.00  0.00     0.034 A 
ATOM     53  C   UNL     1       0.636   8.908 -11.605  1.00  0.00     0.034 A 
ATOM     54  C   UNL     1       1.173  11.986  -5.502  1.00  0.00     0.049 A 
ATOM     55  C   UNL     1       0.018  10.068 -10.920  1.00  0.00     0.074 A 
ATOM     56  C   UNL     1       0.469  11.293  -4.540  1.00  0.00     0.029 A 
ATOM     57  N   UNL     1       0.316  12.143  -6.564  1.00  0.00    -0.354 N 
ATOM     58  N   UNL     1      -1.000   9.964 -10.114  1.00  0.00    -0.248 NA
ATOM     59  C   UNL     1       0.843  11.255 -10.752  1.00  0.00     0.031 C 
ATOM     60  C   UNL     1      -0.588  10.656  -5.249  1.00  0.00     0.029 A 
ATOM     61  C   UNL     1      -0.530  11.065  -6.583  1.00  0.00     0.049 A 
ATOM     62  H   UNL     1       0.310  12.896  -7.198  1.00  0.00     0.167 HD
ATOM     63  C   UNL     1      -0.668  10.784  -9.049  1.00  0.00     0.074 A 
ATOM     64  C   UNL     1       0.448  11.604  -9.526  1.00  0.00     0.031 C 
ATOM     65  C   UNL     1      -1.118  10.522  -7.789  1.00  0.00     0.034 A 
BRANCH  52  66
ATOM     66  C   UNL     1       3.075  13.651  -6.014  1.00  0.00     0.023 A 
ATOM     67  C   UNL     1       4.221  13.917  -6.785  1.00  0.00     0.031 A 
ATOM     68  C   UNL     1       2.269  14.768  -5.701  1.00  0.00     0.131 A 
ATOM     69  C   UNL     1       4.522  15.215  -7.222  1.00  0.00     0.055 A 
ATOM     70  C   UNL     1       2.535  16.051  -6.191  1.00  0.00     0.041 A 
ATOM     71  F   UNL     1       1.158  14.635  -4.958  1.00  0.00    -0.206 F 
ATOM     72  C   UNL     1       3.665  16.279  -6.962  1.00  0.00     0.022 A 
BRANCH  69  73
ATOM     73  S   UNL     1       6.037  15.543  -8.164  1.00  0.00     0.124 S 
ATOM     74  O   UNL     1       5.510  16.132  -9.390  1.00  0.00    -0.237 OA
ATOM     75  O   UNL     1       6.742  16.461  -7.272  1.00  0.00    -0.237 OA
ATOM     76  O   UNL     1       6.646  14.223  -8.300  1.00  0.00    -0.744 OA
ENDBRANCH  69  73
ENDBRANCH  52  66
BRANCH  53  77
ATOM     77  C   UNL     1       1.016   9.022 -13.041  1.00  0.00     0.023 A 
ATOM     78  C   UNL     1       2.346   8.774 -13.417  1.00  0.00     0.031 A 
ATOM     79  C   UNL     1       0.208   9.723 -13.961  1.00  0.00     0.131 A 
ATOM     80  C   UNL     1       2.853   9.283 -14.621  1.00  0.00     0.055 A 
ATOM     81  C   UNL     1       0.709  10.202 -15.181  1.00  0.00     0.041 A 
ATOM     82  F   UNL     1      -1.060  10.037 -13.652  1.00  0.00    -0.206 F 
ATOM     83  C   UNL     1       2.046  10.000 -15.506  1.00  0.00     0.022 A 
BRANCH  80  84
ATOM     84  S   UNL     1       4.623   9.136 -14.992  1.00  0.00     0.124 S 
ATOM     85  O   UNL     1       4.609   8.637 -16.365  1.00  0.00    -0.237 OA
ATOM     86  O   UNL     1       5.074  10.513 -14.827  1.00  0.00    -0.237 OA
ATOM     87  O   UNL     1       5.102   8.185 -13.994  1.00  0.00    -0.744 OA
ENDBRANCH  80  84
ENDBRANCH  53  77
BRANCH  65  88
ATOM     88  C   UNL     1      -2.162   9.447  -7.592  1.00  0.00     0.023 A 
ATOM     89  C   UNL     1      -3.272   9.796  -6.808  1.00  0.00     0.031 A 
ATOM     90  C   UNL     1      -1.998   8.086  -7.920  1.00  0.00     0.131 A 
ATOM     91  C   UNL     1      -4.131   8.810  -6.316  1.00  0.00     0.055 A 
ATOM     92  C   UNL     1      -2.907   7.111  -7.492  1.00  0.00     0.041 A 
ATOM     93  F   UNL     1      -0.918   7.647  -8.579  1.00  0.00    -0.206 F 
ATOM     94  C   UNL     1      -3.969   7.468  -6.667  1.00  0.00     0.022 A 
BRANCH  91  95
ATOM     95  S   UNL     1      -5.365   9.239  -5.063  1.00  0.00     0.124 S 
ATOM     96  O   UNL     1      -6.618   8.951  -5.753  1.00  0.00    -0.237 OA
ATOM     97  O   UNL     1      -5.024   8.328  -3.972  1.00  0.00    -0.237 OA
ATOM     98  O   UNL     1      -5.113  10.651  -4.787  1.00  0.00    -0.744 OA
ENDBRANCH  91  95
ENDBRANCH  65  88
ENDBRANCH  39  40
ENDBRANCH  31  34
ENDBRANCH   1  30
TORSDOF 14
