REMARK SMILES O=C(NCCCNC(=O)[C@H]1[C@@H](C(=O)Nc2ccccc2-c2ccccc2)[C@@H]2C=C[C@H]1O2)c1ccc(-c2c3nc(c(-c4cc(S(=O)(=O)[O-])ccc4F)c4ccc([nH]4)c(-c4cc(S(=O)(=O)[O-])ccc4F)c4nc(c(-c5cc(S(=O)(=O)[O-])ccc5F)c5ccc2[nH]5)C=C4)C=C3)cc1
REMARK SMILES IDX 5 1 4 2 3 3 1 4 2 5 32 7 33 8 94 9 34 10 93 11 35 12 36 13
REMARK SMILES IDX 37 14 87 15 38 16 92 17 86 18 88 19 39 20 91 21 85 22 84 23
REMARK SMILES IDX 40 25 72 26 52 27 71 28 53 29 56 30 70 31 89 32 54 33 55 34
REMARK SMILES IDX 69 36 90 37 57 38 41 39 42 40 50 41 43 42 49 43 51 44 48 45
REMARK SMILES IDX 44 46 45 47 46 48 47 49 73 50 74 51 82 52 75 53 81 54 83 55
REMARK SMILES IDX 80 56 76 57 77 58 78 59 79 60 58 61 59 62 67 63 60 64 66 65
REMARK SMILES IDX 68 66 65 67 61 68 62 69 63 70 64 71 6 72 7 73 8 74 9 76
REMARK SMILES IDX 10 77 11 78 30 79 27 80 29 81 31 82 28 83 12 84 13 85 14 86
REMARK SMILES IDX 15 88 16 89 20 90 17 91 19 92 18 93 21 94 22 95 26 96 23 97
REMARK SMILES IDX 25 98 24 99
REMARK H PARENT 3 6 88 24 56 35 7 75 14 87
REMARK Flexibility Score: inf
ROOT
ATOM      1  C   UNL     1       3.341  -0.696   2.400  1.00  0.00     0.042 C 
ENDROOT
BRANCH   1   2
ATOM      2  C   UNL     1       1.830  -0.824   2.395  1.00  0.00     0.118 C 
BRANCH   2   3
ATOM      3  N   UNL     1       1.212   0.458   2.521  1.00  0.00    -0.352 N 
ATOM      4  O   UNL     1       0.360   2.272   1.489  1.00  0.00    -0.269 OA
ATOM      5  C   UNL     1       0.476   1.056   1.540  1.00  0.00     0.251 C 
ATOM      6  H   UNL     1       1.324   0.942   3.371  1.00  0.00     0.163 HD
BRANCH   5   7
ATOM      7  C   UNL     1      -0.172   0.158   0.567  1.00  0.00     0.039 A 
ATOM      8  C   UNL     1      -0.847  -0.983   1.034  1.00  0.00     0.014 A 
ATOM      9  C   UNL     1      -0.044   0.419  -0.792  1.00  0.00     0.014 A 
ATOM     10  C   UNL     1      -1.371  -1.888   0.131  1.00  0.00     0.010 A 
ATOM     11  C   UNL     1      -0.670  -0.433  -1.692  1.00  0.00     0.010 A 
ATOM     12  C   UNL     1      -1.358  -1.572  -1.230  1.00  0.00    -0.014 A 
BRANCH  12  13
ATOM     13  C   UNL     1      -2.186  -2.349  -2.172  1.00  0.00     0.031 A 
ATOM     14  C   UNL     1      -1.558  -3.038  -3.335  1.00  0.00     0.074 A 
ATOM     15  C   UNL     1      -3.523  -2.320  -2.009  1.00  0.00     0.049 A 
ATOM     16  N   UNL     1      -2.134  -3.578  -4.373  1.00  0.00    -0.248 NA
ATOM     17  C   UNL     1      -0.091  -3.100  -3.344  1.00  0.00     0.031 C 
ATOM     18  C   UNL     1      -4.223  -1.676  -0.893  1.00  0.00     0.029 A 
ATOM     19  N   UNL     1      -4.532  -2.817  -2.789  1.00  0.00    -0.354 N 
ATOM     20  C   UNL     1      -1.099  -4.021  -5.184  1.00  0.00     0.074 A 
ATOM     21  C   UNL     1       0.138  -3.646  -4.528  1.00  0.00     0.031 C 
ATOM     22  C   UNL     1      -5.543  -1.828  -1.054  1.00  0.00     0.029 A 
ATOM     23  C   UNL     1      -5.785  -2.484  -2.330  1.00  0.00     0.049 A 
ATOM     24  H   UNL     1      -4.377  -3.359  -3.597  1.00  0.00     0.167 HD
ATOM     25  C   UNL     1      -1.190  -4.677  -6.365  1.00  0.00     0.034 A 
ATOM     26  C   UNL     1      -6.994  -2.627  -2.903  1.00  0.00     0.034 A 
ATOM     27  C   UNL     1      -2.448  -4.995  -6.995  1.00  0.00     0.049 A 
ATOM     28  C   UNL     1      -7.069  -3.267  -4.259  1.00  0.00     0.074 A 
ATOM     29  C   UNL     1      -2.668  -5.680  -8.175  1.00  0.00     0.029 A 
ATOM     30  N   UNL     1      -3.699  -4.619  -6.515  1.00  0.00    -0.354 N 
ATOM     31  N   UNL     1      -6.087  -3.691  -5.021  1.00  0.00    -0.248 NA
ATOM     32  C   UNL     1      -8.405  -3.450  -4.834  1.00  0.00     0.031 C 
ATOM     33  C   UNL     1      -4.033  -5.615  -8.467  1.00  0.00     0.029 A 
ATOM     34  C   UNL     1      -4.687  -5.013  -7.403  1.00  0.00     0.049 A 
ATOM     35  H   UNL     1      -3.859  -4.142  -5.668  1.00  0.00     0.167 HD
ATOM     36  C   UNL     1      -6.691  -4.234  -6.149  1.00  0.00     0.074 A 
ATOM     37  C   UNL     1      -8.120  -4.067  -5.973  1.00  0.00     0.031 C 
ATOM     38  C   UNL     1      -6.112  -4.836  -7.218  1.00  0.00     0.034 A 
BRANCH  25  39
ATOM     39  C   UNL     1       0.101  -5.010  -7.071  1.00  0.00     0.023 A 
ATOM     40  C   UNL     1       1.095  -5.794  -6.462  1.00  0.00     0.031 A 
ATOM     41  C   UNL     1       0.377  -4.470  -8.340  1.00  0.00     0.131 A 
ATOM     42  C   UNL     1       2.357  -5.911  -7.062  1.00  0.00     0.055 A 
ATOM     43  C   UNL     1       1.594  -4.691  -8.986  1.00  0.00     0.041 A 
ATOM     44  F   UNL     1      -0.519  -3.688  -8.962  1.00  0.00    -0.206 F 
ATOM     45  C   UNL     1       2.603  -5.394  -8.335  1.00  0.00     0.022 A 
BRANCH  42  46
ATOM     46  S   UNL     1       3.727  -6.540  -6.052  1.00  0.00     0.124 S 
ATOM     47  O   UNL     1       3.685  -5.636  -4.903  1.00  0.00    -0.237 OA
ATOM     48  O   UNL     1       3.324  -7.917  -5.793  1.00  0.00    -0.237 OA
ATOM     49  O   UNL     1       4.893  -6.378  -6.918  1.00  0.00    -0.744 OA
ENDBRANCH  42  46
ENDBRANCH  25  39
BRANCH  26  50
ATOM     50  C   UNL     1      -8.200  -2.102  -2.207  1.00  0.00     0.023 A 
ATOM     51  C   UNL     1      -9.199  -2.965  -1.737  1.00  0.00     0.031 A 
ATOM     52  C   UNL     1      -8.354  -0.721  -1.977  1.00  0.00     0.131 A 
ATOM     53  C   UNL     1     -10.322  -2.436  -1.083  1.00  0.00     0.055 A 
ATOM     54  C   UNL     1      -9.439  -0.208  -1.268  1.00  0.00     0.041 A 
ATOM     55  F   UNL     1      -7.423   0.147  -2.406  1.00  0.00    -0.206 F 
ATOM     56  C   UNL     1     -10.437  -1.067  -0.824  1.00  0.00     0.022 A 
BRANCH  53  57
ATOM     57  S   UNL     1     -11.680  -3.556  -0.652  1.00  0.00     0.124 S 
ATOM     58  O   UNL     1     -12.042  -4.096  -1.958  1.00  0.00    -0.237 OA
ATOM     59  O   UNL     1     -11.031  -4.483   0.268  1.00  0.00    -0.237 OA
ATOM     60  O   UNL     1     -12.672  -2.670  -0.046  1.00  0.00    -0.744 OA
ENDBRANCH  53  57
ENDBRANCH  26  50
BRANCH  38  61
ATOM     61  C   UNL     1      -7.021  -5.452  -8.254  1.00  0.00     0.023 A 
ATOM     62  C   UNL     1      -7.848  -4.686  -9.091  1.00  0.00     0.031 A 
ATOM     63  C   UNL     1      -7.003  -6.848  -8.435  1.00  0.00     0.131 A 
ATOM     64  C   UNL     1      -8.640  -5.328 -10.057  1.00  0.00     0.055 A 
ATOM     65  C   UNL     1      -7.732  -7.470  -9.445  1.00  0.00     0.041 A 
ATOM     66  F   UNL     1      -6.245  -7.629  -7.647  1.00  0.00    -0.206 F 
ATOM     67  C   UNL     1      -8.562  -6.709 -10.260  1.00  0.00     0.022 A 
BRANCH  64  68
ATOM     68  S   UNL     1      -9.845  -4.348 -10.993  1.00  0.00     0.124 S 
ATOM     69  O   UNL     1     -10.675  -3.794  -9.928  1.00  0.00    -0.237 OA
ATOM     70  O   UNL     1      -8.996  -3.397 -11.702  1.00  0.00    -0.237 OA
ATOM     71  O   UNL     1     -10.507  -5.339 -11.840  1.00  0.00    -0.744 OA
ENDBRANCH  64  68
ENDBRANCH  38  61
ENDBRANCH  12  13
ENDBRANCH   5   7
ENDBRANCH   2   3
ENDBRANCH   1   2
BRANCH   1  72
ATOM     72  C   UNL     1       4.064  -0.060   3.661  1.00  0.00     0.117 C 
BRANCH  72  73
ATOM     73  N   UNL     1       4.504  -0.797   5.004  1.00  0.00    -0.356 N 
ATOM     74  C   UNL     1       5.604  -1.631   5.602  1.00  0.00     0.227 C 
ATOM     75  H   UNL     1       3.807  -0.657   5.685  1.00  0.00     0.163 HD
ATOM     76  O   UNL     1       5.786  -1.165   6.750  1.00  0.00    -0.275 OA
BRANCH  74  77
ATOM     77  C   UNL     1       6.640  -3.233   4.860  1.00  0.00     0.127 C 
ATOM     78  C   UNL     1       8.012  -1.952   4.578  1.00  0.00     0.127 C 
ATOM     79  C   UNL     1       7.363  -4.848   6.145  1.00  0.00     0.155 C 
ATOM     80  C   UNL     1       9.297  -2.309   6.028  1.00  0.00     0.155 C 
ATOM     81  C   UNL     1       9.041  -5.236   5.107  1.00  0.00     0.004 C 
ATOM     82  O   UNL     1       8.066  -3.193   7.361  1.00  0.00    -0.365 OA
ATOM     83  C   UNL     1      10.018  -3.928   5.093  1.00  0.00     0.004 C 
BRANCH  78  84
ATOM     84  C   UNL     1       6.907  -1.230   3.793  1.00  0.00     0.231 C 
ATOM     85  O   UNL     1       7.073  -0.075   3.402  1.00  0.00    -0.274 OA
ATOM     86  N   UNL     1       5.626  -2.122   3.350  1.00  0.00    -0.325 N 
ATOM     87  H   UNL     1       5.395  -2.045   2.396  1.00  0.00     0.169 HD
BRANCH  86  88
ATOM     88  C   UNL     1       4.559  -3.215   4.271  1.00  0.00     0.049 A 
ATOM     89  C   UNL     1       3.317  -3.488   3.776  1.00  0.00     0.027 A 
ATOM     90  C   UNL     1       4.867  -3.930   5.664  1.00  0.00     0.005 A 
ATOM     91  C   UNL     1       2.678  -4.681   4.040  1.00  0.00     0.002 A 
ATOM     92  C   UNL     1       4.284  -5.202   5.786  1.00  0.00     0.011 A 
ATOM     93  C   UNL     1       3.273  -5.602   4.891  1.00  0.00     0.001 A 
BRANCH  90  94
ATOM     94  C   UNL     1       6.309  -3.462   6.729  1.00  0.00    -0.016 A 
ATOM     95  C   UNL     1       8.092  -3.527   5.850  1.00  0.00     0.009 A 
ATOM     96  C   UNL     1       6.114  -3.919   8.216  1.00  0.00     0.009 A 
ATOM     97  C   UNL     1       9.192  -4.534   7.114  1.00  0.00     0.001 A 
ATOM     98  C   UNL     1       7.253  -4.593   9.014  1.00  0.00     0.001 A 
ATOM     99  C   UNL     1       8.670  -4.952   8.517  1.00  0.00     0.000 A 
ENDBRANCH  90  94
ENDBRANCH  86  88
ENDBRANCH  78  84
ENDBRANCH  74  77
ENDBRANCH  72  73
ENDBRANCH   1  72
TORSDOF 16
