REMARK SMILES COc1ccccc1C[C@@H](C(=O)NCCCNC(=O)c1ccc(-c2c3nc(c(-c4cc(S(=O)(=O)[O-])ccc4F)c4ccc([nH]4)c(-c4cc(S(=O)(=O)[O-])ccc4F)c4nc(c(-c5cc(S(=O)(=O)[O-])ccc5F)c5ccc2[nH]5)C=C4)C=C3)cc1)[C@@H]1CCCCC[C@@H]1O
REMARK SMILES IDX 14 1 13 2 11 3 12 4 10 6 9 7 8 8 3 9 4 10 5 11 7 12 6 13
REMARK SMILES IDX 2 14 1 15 83 16 84 17 85 18 86 19 87 20 89 22 88 23 90 25
REMARK SMILES IDX 15 27 16 28 17 29 18 30 19 32 20 33 21 34 82 35 22 36 81 37
REMARK SMILES IDX 23 38 24 39 25 40 75 41 26 42 80 43 74 44 76 45 27 46 79 47
REMARK SMILES IDX 73 48 72 49 28 51 60 52 40 53 59 54 41 55 44 56 58 57 77 58
REMARK SMILES IDX 42 59 43 60 57 62 78 63 45 64 29 65 30 66 38 67 31 68 37 69
REMARK SMILES IDX 39 70 36 71 32 72 33 73 34 74 35 75 61 76 62 77 70 78 63 79
REMARK SMILES IDX 69 80 71 81 68 82 64 83 65 84 66 85 67 86 46 87 47 88 55 89
REMARK SMILES IDX 48 90 54 91 56 92 53 93 49 94 50 95 51 96 52 97
REMARK H PARENT 13 5 90 26 17 31 76 50 44 61
REMARK Flexibility Score: 90.00
ROOT
ATOM      1  C   UNL     1       9.636   1.328   1.825  1.00  0.00     0.117 C 
ENDROOT
BRANCH   1   2
ATOM      2  N   UNL     1       8.388   1.005   2.503  1.00  0.00    -0.356 N 
ATOM      3  C   UNL     1       7.104   1.339   2.194  1.00  0.00     0.223 C 
ATOM      4  O   UNL     1       6.257   1.214   3.084  1.00  0.00    -0.275 OA
ATOM      5  H   UNL     1       8.488   0.457   3.315  1.00  0.00     0.163 HD
BRANCH   3   6
ATOM      6  C   UNL     1       6.707   1.794   0.782  1.00  0.00     0.088 C 
BRANCH   6   7
ATOM      7  C   UNL     1       6.409   3.321   0.848  1.00  0.00     0.053 C 
BRANCH   7   8
ATOM      8  C   UNL     1       7.604   4.210   0.572  1.00  0.00    -0.005 A 
ATOM      9  C   UNL     1       8.211   4.262  -0.689  1.00  0.00     0.122 A 
ATOM     10  C   UNL     1       9.399   4.966  -0.898  1.00  0.00     0.047 A 
ATOM     11  C   UNL     1       9.948   5.714   0.141  1.00  0.00     0.004 A 
ATOM     12  C   UNL     1       8.121   5.036   1.579  1.00  0.00     0.007 A 
ATOM     13  C   UNL     1       9.290   5.777   1.367  1.00  0.00     0.001 A 
BRANCH   9  14
ATOM     14  O   UNL     1       7.613   3.643  -1.757  1.00  0.00    -0.496 OA
ATOM     15  C   UNL     1       6.796   4.600  -2.450  1.00  0.00     0.278 C 
ENDBRANCH   9  14
ENDBRANCH   7   8
ENDBRANCH   6   7
BRANCH   6  16
ATOM     16  C   UNL     1       5.439   0.955   0.339  1.00  0.00     0.030 C 
BRANCH  16  17
ATOM     17  C   UNL     1       5.729  -0.572   0.411  1.00  0.00     0.007 C 
BRANCH  17  18
ATOM     18  C   UNL     1       4.454  -1.410   0.528  1.00  0.00     0.000 C 
BRANCH  18  19
ATOM     19  C   UNL     1       3.853  -1.865  -0.795  1.00  0.00     0.000 C 
BRANCH  19  20
ATOM     20  C   UNL     1       3.886  -0.860  -1.939  1.00  0.00     0.003 CG0
ATOM     21  G   UNL     1       3.650   0.592  -1.527  1.00  0.00     0.000 G0
ENDBRANCH  19  20
ENDBRANCH  18  19
ENDBRANCH  17  18
ENDBRANCH  16  17
BRANCH  16  22
ATOM     22  C   UNL     1       4.901   1.355  -1.059  1.00  0.00     0.118 C 
BRANCH  22  23
ATOM     23  C   UNL     1       3.650   0.592  -1.527  1.00  0.00     0.032 CG0
ATOM     24  G   UNL     1       3.886  -0.860  -1.939  1.00  0.00     0.000 G0
ENDBRANCH  22  23
BRANCH  22  25
ATOM     25  O   UNL     1       5.915   1.227  -2.053  1.00  0.00    -0.393 OA
ATOM     26  H   UNL     1       6.165   0.294  -2.142  1.00  0.00     0.210 HD
ENDBRANCH  22  25
ENDBRANCH  16  22
ENDBRANCH   6  16
ENDBRANCH   3   6
ENDBRANCH   1   2
BRANCH   1  27
ATOM     27  C   UNL     1      10.252   2.583   2.434  1.00  0.00     0.042 C 
BRANCH  27  28
ATOM     28  C   UNL     1      10.942   2.375   3.776  1.00  0.00     0.118 C 
BRANCH  28  29
ATOM     29  N   UNL     1      12.366   2.158   3.623  1.00  0.00    -0.352 N 
ATOM     30  C   UNL     1      13.449   3.000   3.680  1.00  0.00     0.251 C 
ATOM     31  H   UNL     1      12.605   1.220   3.441  1.00  0.00     0.163 HD
ATOM     32  O   UNL     1      14.512   2.558   3.236  1.00  0.00    -0.269 OA
BRANCH  30  33
ATOM     33  C   UNL     1      13.418   4.388   4.232  1.00  0.00     0.039 A 
ATOM     34  C   UNL     1      14.438   5.264   3.825  1.00  0.00     0.014 A 
ATOM     35  C   UNL     1      12.538   4.827   5.224  1.00  0.00     0.014 A 
ATOM     36  C   UNL     1      14.582   6.532   4.409  1.00  0.00     0.010 A 
ATOM     37  C   UNL     1      12.620   6.131   5.736  1.00  0.00     0.010 A 
ATOM     38  C   UNL     1      13.674   6.984   5.375  1.00  0.00    -0.014 A 
BRANCH  38  39
ATOM     39  C   UNL     1      13.882   8.283   6.086  1.00  0.00     0.031 A 
ATOM     40  C   UNL     1      14.107   8.301   7.583  1.00  0.00     0.074 A 
ATOM     41  C   UNL     1      13.869   9.449   5.409  1.00  0.00     0.049 A 
ATOM     42  N   UNL     1      14.256   9.320   8.393  1.00  0.00    -0.248 NA
ATOM     43  C   UNL     1      14.137   6.996   8.261  1.00  0.00     0.031 C 
ATOM     44  C   UNL     1      13.645   9.588   3.970  1.00  0.00     0.029 A 
ATOM     45  N   UNL     1      14.051  10.741   5.841  1.00  0.00    -0.354 N 
ATOM     46  C   UNL     1      14.370   8.781   9.673  1.00  0.00     0.074 A 
ATOM     47  C   UNL     1      14.206   7.350   9.534  1.00  0.00     0.031 C 
ATOM     48  C   UNL     1      13.732  10.886   3.634  1.00  0.00     0.029 A 
ATOM     49  C   UNL     1      13.975  11.679   4.837  1.00  0.00     0.049 A 
ATOM     50  H   UNL     1      14.220  10.975   6.783  1.00  0.00     0.167 HD
ATOM     51  C   UNL     1      14.616   9.410  10.851  1.00  0.00     0.034 A 
ATOM     52  C   UNL     1      14.083  13.023   4.875  1.00  0.00     0.034 A 
ATOM     53  C   UNL     1      14.813  10.835  10.980  1.00  0.00     0.049 A 
ATOM     54  C   UNL     1      14.361  13.703   6.194  1.00  0.00     0.074 A 
ATOM     55  C   UNL     1      15.103  11.568  12.118  1.00  0.00     0.029 A 
ATOM     56  N   UNL     1      14.744  11.746   9.933  1.00  0.00    -0.354 N 
ATOM     57  N   UNL     1      14.489  13.173   7.388  1.00  0.00    -0.248 NA
ATOM     58  C   UNL     1      14.529  15.162   6.162  1.00  0.00     0.031 C 
ATOM     59  C   UNL     1      15.151  12.923  11.772  1.00  0.00     0.029 A 
ATOM     60  C   UNL     1      14.970  13.032  10.403  1.00  0.00     0.049 A 
ATOM     61  H   UNL     1      14.562  11.513   8.994  1.00  0.00     0.167 HD
ATOM     62  C   UNL     1      14.794  14.232   8.241  1.00  0.00     0.074 A 
ATOM     63  C   UNL     1      14.844  15.424   7.421  1.00  0.00     0.031 C 
ATOM     64  C   UNL     1      15.019  14.218   9.581  1.00  0.00     0.034 A 
BRANCH  51  65
ATOM     65  C   UNL     1      14.661   8.555  12.100  1.00  0.00     0.023 A 
ATOM     66  C   UNL     1      15.614   7.534  12.266  1.00  0.00     0.031 A 
ATOM     67  C   UNL     1      13.714   8.738  13.124  1.00  0.00     0.131 A 
ATOM     68  C   UNL     1      15.544   6.682  13.379  1.00  0.00     0.055 A 
ATOM     69  C   UNL     1      13.708   7.945  14.275  1.00  0.00     0.041 A 
ATOM     70  F   UNL     1      12.767   9.683  13.019  1.00  0.00    -0.206 F 
ATOM     71  C   UNL     1      14.615   6.898  14.399  1.00  0.00     0.022 A 
BRANCH  68  72
ATOM     72  S   UNL     1      16.579   5.192  13.395  1.00  0.00     0.124 S 
ATOM     73  O   UNL     1      16.135   4.513  12.180  1.00  0.00    -0.237 OA
ATOM     74  O   UNL     1      17.928   5.744  13.361  1.00  0.00    -0.237 OA
ATOM     75  O   UNL     1      16.206   4.528  14.642  1.00  0.00    -0.744 OA
ENDBRANCH  68  72
ENDBRANCH  51  65
BRANCH  52  76
ATOM     76  C   UNL     1      13.931  13.830   3.628  1.00  0.00     0.023 A 
ATOM     77  C   UNL     1      15.003  14.576   3.112  1.00  0.00     0.031 A 
ATOM     78  C   UNL     1      12.695  13.907   2.964  1.00  0.00     0.131 A 
ATOM     79  C   UNL     1      14.806  15.406   1.998  1.00  0.00     0.055 A 
ATOM     80  C   UNL     1      12.518  14.692   1.823  1.00  0.00     0.041 A 
ATOM     81  F   UNL     1      11.639  13.210   3.412  1.00  0.00    -0.206 F 
ATOM     82  C   UNL     1      13.574  15.460   1.342  1.00  0.00     0.022 A 
BRANCH  79  83
ATOM     83  S   UNL     1      16.161  16.488   1.464  1.00  0.00     0.124 S 
ATOM     84  O   UNL     1      16.405  17.274   2.672  1.00  0.00    -0.237 OA
ATOM     85  O   UNL     1      17.198  15.520   1.112  1.00  0.00    -0.237 OA
ATOM     86  O   UNL     1      15.592  17.224   0.344  1.00  0.00    -0.744 OA
ENDBRANCH  79  83
ENDBRANCH  52  76
BRANCH  64  87
ATOM     87  C   UNL     1      15.408  15.527  10.227  1.00  0.00     0.023 A 
ATOM     88  C   UNL     1      14.529  16.624  10.281  1.00  0.00     0.031 A 
ATOM     89  C   UNL     1      16.696  15.689  10.768  1.00  0.00     0.131 A 
ATOM     90  C   UNL     1      14.973  17.852  10.795  1.00  0.00     0.055 A 
ATOM     91  C   UNL     1      17.110  16.894  11.339  1.00  0.00     0.041 A 
ATOM     92  F   UNL     1      17.580  14.678  10.745  1.00  0.00    -0.206 F 
ATOM     93  C   UNL     1      16.252  17.990  11.338  1.00  0.00     0.022 A 
BRANCH  90  94
ATOM     94  S   UNL     1      13.897  19.305  10.633  1.00  0.00     0.124 S 
ATOM     95  O   UNL     1      13.632  19.329   9.198  1.00  0.00    -0.237 OA
ATOM     96  O   UNL     1      12.766  18.949  11.484  1.00  0.00    -0.237 OA
ATOM     97  O   UNL     1      14.725  20.402  11.129  1.00  0.00    -0.744 OA
ENDBRANCH  90  94
ENDBRANCH  64  87
ENDBRANCH  38  39
ENDBRANCH  30  33
ENDBRANCH  28  29
ENDBRANCH  27  28
ENDBRANCH   1  27
TORSDOF 18
