REMARK SMILES C[C@@H](C(=O)NCCCNC(=O)c1ccc(-c2c3nc(c(-c4cc(S(=O)(=O)[O-])ccc4F)c4ccc([nH]4)c(-c4cc(S(=O)(=O)[O-])ccc4F)c4nc(c(-c5cc(S(=O)(=O)[O-])ccc5F)c5ccc2[nH]5)C=C4)C=C3)cc1)c1ccc(C[C@H]2CCC[C@H]2O)cc1-c1ccc(O)cc1
REMARK SMILES IDX 6 1 5 2 3 3 4 4 2 6 1 7 75 8 76 9 87 10 77 11 86 12 78 13
REMARK SMILES IDX 88 14 89 15 94 16 90 17 93 18 91 19 92 20 79 22 80 23 81 24
REMARK SMILES IDX 84 25 82 26 83 27 85 28 7 30 8 31 9 32 10 33 11 35 12 36
REMARK SMILES IDX 13 37 74 38 14 39 73 40 15 41 16 42 17 43 67 44 18 45 72 46
REMARK SMILES IDX 66 47 68 48 19 49 71 50 65 51 64 52 20 54 52 55 32 56 51 57
REMARK SMILES IDX 33 58 36 59 50 60 69 61 34 62 35 63 49 65 70 66 37 67 21 68
REMARK SMILES IDX 22 69 30 70 23 71 29 72 31 73 28 74 24 75 25 76 26 77 27 78
REMARK SMILES IDX 53 79 54 80 62 81 55 82 61 83 63 84 60 85 56 86 57 87 58 88
REMARK SMILES IDX 59 89 38 90 39 91 47 92 40 93 46 94 48 95 45 96 41 97 42 98
REMARK SMILES IDX 43 99 44 100
REMARK H PARENT 5 5 92 21 85 29 9 34 68 53 36 64
REMARK Flexibility Score: inf
ROOT
ATOM      1  C   UNL     1       3.466  -2.018  -0.279  1.00  0.00     0.117 C 
ENDROOT
BRANCH   1   2
ATOM      2  N   UNL     1       2.390  -2.328   0.644  1.00  0.00    -0.356 N 
ATOM      3  C   UNL     1       1.152  -1.752   0.715  1.00  0.00     0.227 C 
ATOM      4  O   UNL     1       0.565  -1.778   1.798  1.00  0.00    -0.274 OA
ATOM      5  H   UNL     1       2.573  -3.039   1.298  1.00  0.00     0.163 HD
BRANCH   3   6
ATOM      6  C   UNL     1       0.574  -1.090  -0.538  1.00  0.00     0.106 C 
ATOM      7  C   UNL     1       1.039   0.379  -0.450  1.00  0.00     0.023 C 
BRANCH   6   8
ATOM      8  C   UNL     1      -0.946  -1.271  -0.665  1.00  0.00    -0.028 A 
ATOM      9  C   UNL     1      -1.735  -0.150  -0.988  1.00  0.00     0.005 A 
ATOM     10  C   UNL     1      -1.610  -2.516  -0.496  1.00  0.00    -0.014 A 
ATOM     11  C   UNL     1      -3.122  -0.199  -0.968  1.00  0.00     0.004 A 
ATOM     12  C   UNL     1      -3.019  -2.513  -0.371  1.00  0.00     0.012 A 
ATOM     13  C   UNL     1      -3.774  -1.345  -0.536  1.00  0.00    -0.047 A 
BRANCH  10  14
ATOM     14  C   UNL     1      -0.940  -3.833  -0.569  1.00  0.00    -0.018 A 
ATOM     15  C   UNL     1      -0.960  -4.538  -1.788  1.00  0.00     0.012 A 
ATOM     16  C   UNL     1      -0.336  -4.458   0.531  1.00  0.00     0.012 A 
ATOM     17  C   UNL     1      -0.351  -5.790  -1.914  1.00  0.00     0.047 A 
ATOM     18  C   UNL     1       0.317  -5.691   0.400  1.00  0.00     0.047 A 
ATOM     19  C   UNL     1       0.307  -6.344  -0.826  1.00  0.00     0.115 A 
BRANCH  19  20
ATOM     20  O   UNL     1       0.930  -7.543  -1.003  1.00  0.00    -0.508 OA
ATOM     21  H   UNL     1       0.909  -7.963  -1.840  1.00  0.00     0.293 HD
ENDBRANCH  19  20
ENDBRANCH  10  14
BRANCH  13  22
ATOM     22  C   UNL     1      -5.248  -1.297  -0.239  1.00  0.00     0.041 C 
BRANCH  22  23
ATOM     23  C   UNL     1      -5.661  -0.725   1.134  1.00  0.00     0.022 C 
ATOM     24  C   UNL     1      -5.048  -1.425   2.358  1.00  0.00     0.007 C 
ATOM     25  C   UNL     1      -5.467   0.776   1.416  1.00  0.00     0.117 C 
ATOM     26  C   UNL     1      -5.008  -0.374   3.472  1.00  0.00     0.003 C 
ATOM     27  C   UNL     1      -5.711   0.863   2.918  1.00  0.00     0.032 C 
BRANCH  25  28
ATOM     28  O   UNL     1      -4.173   1.288   1.156  1.00  0.00    -0.393 OA
ATOM     29  H   UNL     1      -3.523   0.816   1.700  1.00  0.00     0.210 HD
ENDBRANCH  25  28
ENDBRANCH  22  23
ENDBRANCH  13  22
ENDBRANCH   6   8
ENDBRANCH   3   6
ENDBRANCH   1   2
BRANCH   1  30
ATOM     30  C   UNL     1       4.482  -1.093   0.391  1.00  0.00     0.042 C 
BRANCH  30  31
ATOM     31  C   UNL     1       5.268  -1.772   1.505  1.00  0.00     0.118 C 
BRANCH  31  32
ATOM     32  N   UNL     1       6.167  -2.789   0.988  1.00  0.00    -0.352 N 
ATOM     33  C   UNL     1       7.503  -2.962   1.230  1.00  0.00     0.251 C 
ATOM     34  H   UNL     1       5.758  -3.446   0.380  1.00  0.00     0.163 HD
ATOM     35  O   UNL     1       8.143  -3.740   0.518  1.00  0.00    -0.269 OA
BRANCH  33  36
ATOM     36  C   UNL     1       8.176  -2.216   2.314  1.00  0.00     0.039 A 
ATOM     37  C   UNL     1       9.472  -1.740   2.098  1.00  0.00     0.014 A 
ATOM     38  C   UNL     1       7.558  -2.021   3.555  1.00  0.00     0.014 A 
ATOM     39  C   UNL     1      10.139  -1.056   3.115  1.00  0.00     0.010 A 
ATOM     40  C   UNL     1       8.194  -1.270   4.540  1.00  0.00     0.010 A 
ATOM     41  C   UNL     1       9.502  -0.805   4.341  1.00  0.00    -0.014 A 
BRANCH  41  42
ATOM     42  C   UNL     1      10.220  -0.115   5.444  1.00  0.00     0.031 A 
ATOM     43  C   UNL     1      10.524  -0.855   6.719  1.00  0.00     0.074 A 
ATOM     44  C   UNL     1      10.575   1.177   5.308  1.00  0.00     0.049 A 
ATOM     45  N   UNL     1      11.115  -0.429   7.806  1.00  0.00    -0.248 NA
ATOM     46  C   UNL     1      10.073  -2.253   6.791  1.00  0.00     0.031 C 
ATOM     47  C   UNL     1      10.291   2.012   4.138  1.00  0.00     0.029 A 
ATOM     48  N   UNL     1      11.247   2.016   6.160  1.00  0.00    -0.354 N 
ATOM     49  C   UNL     1      11.099  -1.502   8.692  1.00  0.00     0.074 A 
ATOM     50  C   UNL     1      10.370  -2.569   8.041  1.00  0.00     0.031 C 
ATOM     51  C   UNL     1      10.807   3.236   4.338  1.00  0.00     0.029 A 
ATOM     52  C   UNL     1      11.426   3.284   5.659  1.00  0.00     0.049 A 
ATOM     53  H   UNL     1      11.570   1.737   7.046  1.00  0.00     0.167 HD
ATOM     54  C   UNL     1      11.667  -1.601   9.920  1.00  0.00     0.034 A 
ATOM     55  C   UNL     1      12.019   4.364   6.205  1.00  0.00     0.034 A 
ATOM     56  C   UNL     1      12.396  -0.527  10.551  1.00  0.00     0.049 A 
ATOM     57  C   UNL     1      12.648   4.235   7.568  1.00  0.00     0.074 A 
ATOM     58  C   UNL     1      13.037  -0.519  11.777  1.00  0.00     0.029 A 
ATOM     59  N   UNL     1      12.580   0.737  10.002  1.00  0.00    -0.354 N 
ATOM     60  N   UNL     1      12.665   3.199   8.377  1.00  0.00    -0.248 NA
ATOM     61  C   UNL     1      13.359   5.412   8.082  1.00  0.00     0.031 C 
ATOM     62  C   UNL     1      13.557   0.763  11.994  1.00  0.00     0.029 A 
ATOM     63  C   UNL     1      13.309   1.535  10.871  1.00  0.00     0.049 A 
ATOM     64  H   UNL     1      12.242   1.024   9.123  1.00  0.00     0.167 HD
ATOM     65  C   UNL     1      13.415   3.592   9.482  1.00  0.00     0.074 A 
ATOM     66  C   UNL     1      13.846   4.952   9.225  1.00  0.00     0.031 C 
ATOM     67  C   UNL     1      13.723   2.894  10.605  1.00  0.00     0.034 A 
BRANCH  54  68
ATOM     68  C   UNL     1      11.496  -2.912  10.656  1.00  0.00     0.023 A 
ATOM     69  C   UNL     1      11.989  -4.120  10.130  1.00  0.00     0.031 A 
ATOM     70  C   UNL     1      10.787  -2.967  11.868  1.00  0.00     0.131 A 
ATOM     71  C   UNL     1      11.686  -5.337  10.761  1.00  0.00     0.055 A 
ATOM     72  C   UNL     1      10.568  -4.173  12.540  1.00  0.00     0.041 A 
ATOM     73  F   UNL     1      10.272  -1.853  12.412  1.00  0.00    -0.206 F 
ATOM     74  C   UNL     1      11.002  -5.369  11.977  1.00  0.00     0.022 A 
BRANCH  71  75
ATOM     75  S   UNL     1      12.052  -6.880   9.880  1.00  0.00     0.124 S 
ATOM     76  O   UNL     1      11.274  -6.711   8.655  1.00  0.00    -0.237 OA
ATOM     77  O   UNL     1      13.501  -6.824   9.730  1.00  0.00    -0.237 OA
ATOM     78  O   UNL     1      11.556  -7.916  10.785  1.00  0.00    -0.744 OA
ENDBRANCH  71  75
ENDBRANCH  54  68
BRANCH  55  79
ATOM     79  C   UNL     1      12.051   5.657   5.464  1.00  0.00     0.023 A 
ATOM     80  C   UNL     1      13.261   6.208   5.013  1.00  0.00     0.031 A 
ATOM     81  C   UNL     1      10.867   6.375   5.220  1.00  0.00     0.131 A 
ATOM     82  C   UNL     1      13.265   7.462   4.381  1.00  0.00     0.055 A 
ATOM     83  C   UNL     1      10.871   7.598   4.547  1.00  0.00     0.041 A 
ATOM     84  F   UNL     1       9.682   5.887   5.622  1.00  0.00    -0.206 F 
ATOM     85  C   UNL     1      12.078   8.154   4.134  1.00  0.00     0.022 A 
BRANCH  82  86
ATOM     86  S   UNL     1      14.859   8.212   3.949  1.00  0.00     0.124 S 
ATOM     87  O   UNL     1      15.518   8.279   5.248  1.00  0.00    -0.237 OA
ATOM     88  O   UNL     1      15.403   7.243   3.002  1.00  0.00    -0.237 OA
ATOM     89  O   UNL     1      14.483   9.501   3.371  1.00  0.00    -0.744 OA
ENDBRANCH  82  86
ENDBRANCH  55  79
BRANCH  67  90
ATOM     90  C   UNL     1      14.611   3.580  11.614  1.00  0.00     0.023 A 
ATOM     91  C   UNL     1      14.189   4.719  12.322  1.00  0.00     0.031 A 
ATOM     92  C   UNL     1      15.911   3.099  11.851  1.00  0.00     0.131 A 
ATOM     93  C   UNL     1      15.080   5.378  13.182  1.00  0.00     0.055 A 
ATOM     94  C   UNL     1      16.772   3.721  12.757  1.00  0.00     0.041 A 
ATOM     95  F   UNL     1      16.369   2.016  11.203  1.00  0.00    -0.206 F 
ATOM     96  C   UNL     1      16.363   4.877  13.416  1.00  0.00     0.022 A 
BRANCH  93  97
ATOM     97  S   UNL     1      14.579   6.964  13.906  1.00  0.00     0.124 S 
ATOM     98  O   UNL     1      14.257   7.751  12.721  1.00  0.00    -0.237 OA
ATOM     99  O   UNL     1      13.448   6.580  14.744  1.00  0.00    -0.237 OA
ATOM    100  O   UNL     1      15.770   7.399  14.635  1.00  0.00    -0.744 OA
ENDBRANCH  93  97
ENDBRANCH  67  90
ENDBRANCH  41  42
ENDBRANCH  33  36
ENDBRANCH  31  32
ENDBRANCH  30  31
ENDBRANCH   1  30
TORSDOF 19
