REMARK SMILES CCc1ccc(Nc2nc(OCC(=O)NCCCNC(=O)c3ccc(-c4c5nc(c(-c6cc(S(=O)(=O)[O-])ccc6F)c6ccc([nH]6)c(-c6cc(S(=O)(=O)[O-])ccc6F)c6nc(c(-c7cc(S(=O)(=O)[O-])ccc7F)c7ccc4[nH]7)C=C6)C=C5)cc3)cc(-c3cccnc3)n2)cc1
REMARK SMILES IDX 16 1 15 2 13 3 14 4 12 6 11 7 10 8 8 9 9 10 93 11 86 12
REMARK SMILES IDX 85 13 7 14 6 16 3 17 4 18 95 19 5 20 94 21 2 22 1 23 87 24
REMARK SMILES IDX 88 25 92 26 89 27 91 28 90 29 17 30 18 31 19 32 20 33 21 35
REMARK SMILES IDX 22 36 23 37 84 38 24 39 83 40 25 41 26 42 27 43 77 44 28 45
REMARK SMILES IDX 82 46 76 47 78 48 29 49 81 50 75 51 74 52 30 54 62 55 42 56
REMARK SMILES IDX 61 57 43 58 46 59 60 60 79 61 44 62 45 63 59 65 80 66 47 67
REMARK SMILES IDX 31 68 32 69 40 70 33 71 39 72 41 73 38 74 34 75 35 76 36 77
REMARK SMILES IDX 37 78 63 79 64 80 72 81 65 82 71 83 73 84 70 85 66 86 67 87
REMARK SMILES IDX 68 88 69 89 48 90 49 91 57 92 50 93 56 94 58 95 55 96 51 97
REMARK SMILES IDX 52 98 53 99 54 100
REMARK H PARENT 15 5 7 15 19 34 78 53 46 64
REMARK Flexibility Score: inf
ROOT
ATOM      1  C   UNL     1       4.027  -8.783  -2.921  1.00  0.00     0.117 C 
ENDROOT
BRANCH   1   2
ATOM      2  N   UNL     1       2.673  -9.272  -3.103  1.00  0.00    -0.353 N 
ATOM      3  C   UNL     1       1.964  -9.396  -4.259  1.00  0.00     0.258 C 
ATOM      4  O   UNL     1       0.817  -9.845  -4.208  1.00  0.00    -0.271 OA
ATOM      5  H   UNL     1       2.205  -9.551  -2.282  1.00  0.00     0.163 HD
BRANCH   3   6
ATOM      6  C   UNL     1       2.602  -8.995  -5.597  1.00  0.00     0.331 C 
BRANCH   6   7
ATOM      7  O   UNL     1       2.973  -7.637  -5.759  1.00  0.00    -0.467 OA
BRANCH   7   8
ATOM      8  C   UNL     1       1.985  -6.694  -5.727  1.00  0.00     0.219 A 
ATOM      9  C   UNL     1       1.592  -4.446  -5.502  1.00  0.00     0.231 A 
ATOM     10  N   UNL     1       2.470  -5.443  -5.671  1.00  0.00    -0.177 NA
ATOM     11  N   UNL     1       0.263  -4.629  -5.474  1.00  0.00    -0.212 NA
ATOM     12  C   UNL     1      -0.199  -5.883  -5.567  1.00  0.00     0.081 A 
ATOM     13  C   UNL     1       0.640  -6.965  -5.708  1.00  0.00     0.097 A 
BRANCH   9  14
ATOM     14  N   UNL     1       2.116  -3.175  -5.275  1.00  0.00    -0.324 N 
ATOM     15  H   UNL     1       2.855  -2.900  -5.865  1.00  0.00     0.170 HD
BRANCH  14  16
ATOM     16  C   UNL     1       1.717  -2.239  -4.305  1.00  0.00     0.041 A 
ATOM     17  C   UNL     1       0.989  -0.345  -2.328  1.00  0.00    -0.048 A 
ATOM     18  C   UNL     1       0.466  -1.640  -2.301  1.00  0.00     0.006 A 
ATOM     19  C   UNL     1       1.848   0.009  -3.375  1.00  0.00     0.006 A 
ATOM     20  C   UNL     1       0.821  -2.567  -3.280  1.00  0.00     0.026 A 
ATOM     21  C   UNL     1       2.205  -0.929  -4.354  1.00  0.00     0.026 A 
BRANCH  17  22
ATOM     22  C   UNL     1       0.623   0.639  -1.246  1.00  0.00     0.032 C 
ATOM     23  C   UNL     1       1.131   0.212   0.127  1.00  0.00     0.009 C 
ENDBRANCH  17  22
ENDBRANCH  14  16
ENDBRANCH   9  14
BRANCH  12  24
ATOM     24  C   UNL     1      -1.644  -6.052  -5.449  1.00  0.00     0.019 A 
ATOM     25  C   UNL     1      -2.213  -6.801  -4.411  1.00  0.00     0.013 A 
ATOM     26  C   UNL     1      -2.523  -5.499  -6.377  1.00  0.00     0.121 A 
ATOM     27  C   UNL     1      -3.592  -6.985  -4.354  1.00  0.00     0.021 A 
ATOM     28  N   UNL     1      -3.868  -5.681  -6.364  1.00  0.00    -0.264 NA
ATOM     29  C   UNL     1      -4.369  -6.418  -5.350  1.00  0.00     0.111 A 
ENDBRANCH  12  24
ENDBRANCH   7   8
ENDBRANCH   6   7
ENDBRANCH   3   6
ENDBRANCH   1   2
BRANCH   1  30
ATOM     30  C   UNL     1       4.070  -7.427  -2.227  1.00  0.00     0.042 C 
BRANCH  30  31
ATOM     31  C   UNL     1       3.478  -7.412  -0.820  1.00  0.00     0.118 C 
BRANCH  31  32
ATOM     32  N   UNL     1       4.151  -8.326   0.094  1.00  0.00    -0.352 N 
ATOM     33  C   UNL     1       4.790  -8.084   1.286  1.00  0.00     0.251 C 
ATOM     34  H   UNL     1       4.148  -9.269  -0.189  1.00  0.00     0.163 HD
ATOM     35  O   UNL     1       5.442  -8.991   1.803  1.00  0.00    -0.269 OA
BRANCH  33  36
ATOM     36  C   UNL     1       4.724  -6.754   1.931  1.00  0.00     0.039 A 
ATOM     37  C   UNL     1       5.878  -6.236   2.525  1.00  0.00     0.014 A 
ATOM     38  C   UNL     1       3.533  -6.024   1.976  1.00  0.00     0.014 A 
ATOM     39  C   UNL     1       5.855  -4.961   3.096  1.00  0.00     0.010 A 
ATOM     40  C   UNL     1       3.533  -4.720   2.469  1.00  0.00     0.010 A 
ATOM     41  C   UNL     1       4.694  -4.173   3.036  1.00  0.00    -0.014 A 
BRANCH  41  42
ATOM     42  C   UNL     1       4.684  -2.778   3.555  1.00  0.00     0.031 A 
ATOM     43  C   UNL     1       3.777  -2.393   4.693  1.00  0.00     0.074 A 
ATOM     44  C   UNL     1       5.460  -1.844   2.967  1.00  0.00     0.049 A 
ATOM     45  N   UNL     1       3.599  -1.222   5.251  1.00  0.00    -0.248 NA
ATOM     46  C   UNL     1       2.938  -3.459   5.258  1.00  0.00     0.031 C 
ATOM     47  C   UNL     1       6.348  -2.083   1.827  1.00  0.00     0.029 A 
ATOM     48  N   UNL     1       5.626  -0.509   3.240  1.00  0.00    -0.354 N 
ATOM     49  C   UNL     1       2.623  -1.408   6.224  1.00  0.00     0.074 A 
ATOM     50  C   UNL     1       2.200  -2.789   6.130  1.00  0.00     0.031 C 
ATOM     51  C   UNL     1       6.989  -0.944   1.522  1.00  0.00     0.029 A 
ATOM     52  C   UNL     1       6.522   0.120   2.406  1.00  0.00     0.049 A 
ATOM     53  H   UNL     1       5.148  -0.044   3.965  1.00  0.00     0.167 HD
ATOM     54  C   UNL     1       2.141  -0.516   7.127  1.00  0.00     0.034 A 
ATOM     55  C   UNL     1       6.915   1.408   2.348  1.00  0.00     0.034 A 
ATOM     56  C   UNL     1       2.578   0.858   7.208  1.00  0.00     0.049 A 
ATOM     57  C   UNL     1       6.343   2.389   3.339  1.00  0.00     0.074 A 
ATOM     58  C   UNL     1       2.199   1.829   8.118  1.00  0.00     0.029 A 
ATOM     59  N   UNL     1       3.479   1.461   6.339  1.00  0.00    -0.354 N 
ATOM     60  N   UNL     1       5.463   2.183   4.292  1.00  0.00    -0.248 NA
ATOM     61  C   UNL     1       6.825   3.773   3.255  1.00  0.00     0.031 C 
ATOM     62  C   UNL     1       2.803   3.036   7.750  1.00  0.00     0.029 A 
ATOM     63  C   UNL     1       3.636   2.800   6.668  1.00  0.00     0.049 A 
ATOM     64  H   UNL     1       3.939   1.005   5.598  1.00  0.00     0.167 HD
ATOM     65  C   UNL     1       5.313   3.406   4.941  1.00  0.00     0.074 A 
ATOM     66  C   UNL     1       6.204   4.337   4.280  1.00  0.00     0.031 C 
ATOM     67  C   UNL     1       4.517   3.727   5.993  1.00  0.00     0.034 A 
BRANCH  54  68
ATOM     68  C   UNL     1       1.066  -0.997   8.075  1.00  0.00     0.023 A 
ATOM     69  C   UNL     1       1.293  -2.048   8.982  1.00  0.00     0.031 A 
ATOM     70  C   UNL     1      -0.215  -0.416   8.055  1.00  0.00     0.131 A 
ATOM     71  C   UNL     1       0.238  -2.541   9.764  1.00  0.00     0.055 A 
ATOM     72  C   UNL     1      -1.236  -0.851   8.904  1.00  0.00     0.041 A 
ATOM     73  F   UNL     1      -0.503   0.576   7.199  1.00  0.00    -0.206 F 
ATOM     74  C   UNL     1      -1.017  -1.931   9.753  1.00  0.00     0.022 A 
BRANCH  71  75
ATOM     75  S   UNL     1       0.487  -4.092  10.672  1.00  0.00     0.124 S 
ATOM     76  O   UNL     1       0.855  -5.008   9.594  1.00  0.00    -0.237 OA
ATOM     77  O   UNL     1       1.551  -3.745  11.606  1.00  0.00    -0.237 OA
ATOM     78  O   UNL     1      -0.819  -4.348  11.277  1.00  0.00    -0.744 OA
ENDBRANCH  71  75
ENDBRANCH  54  68
BRANCH  55  79
ATOM     79  C   UNL     1       7.892   1.851   1.311  1.00  0.00     0.023 A 
ATOM     80  C   UNL     1       9.156   2.349   1.669  1.00  0.00     0.031 A 
ATOM     81  C   UNL     1       7.562   1.816  -0.056  1.00  0.00     0.131 A 
ATOM     82  C   UNL     1      10.024   2.832   0.677  1.00  0.00     0.055 A 
ATOM     83  C   UNL     1       8.453   2.243  -1.042  1.00  0.00     0.041 A 
ATOM     84  F   UNL     1       6.368   1.349  -0.454  1.00  0.00    -0.206 F 
ATOM     85  C   UNL     1       9.688   2.767  -0.677  1.00  0.00     0.022 A 
BRANCH  82  86
ATOM     86  S   UNL     1      11.570   3.632   1.190  1.00  0.00     0.124 S 
ATOM     87  O   UNL     1      11.078   4.716   2.031  1.00  0.00    -0.237 OA
ATOM     88  O   UNL     1      12.259   2.546   1.879  1.00  0.00    -0.237 OA
ATOM     89  O   UNL     1      12.174   4.046  -0.075  1.00  0.00    -0.744 OA
ENDBRANCH  82  86
ENDBRANCH  55  79
BRANCH  67  90
ATOM     90  C   UNL     1       4.611   5.138   6.525  1.00  0.00     0.023 A 
ATOM     91  C   UNL     1       4.215   6.250   5.761  1.00  0.00     0.031 A 
ATOM     92  C   UNL     1       5.113   5.372   7.818  1.00  0.00     0.131 A 
ATOM     93  C   UNL     1       4.383   7.546   6.272  1.00  0.00     0.055 A 
ATOM     94  C   UNL     1       5.212   6.660   8.348  1.00  0.00     0.041 A 
ATOM     95  F   UNL     1       5.511   4.350   8.592  1.00  0.00    -0.206 F 
ATOM     96  C   UNL     1       4.860   7.757   7.569  1.00  0.00     0.022 A 
BRANCH  93  97
ATOM     97  S   UNL     1       4.067   8.961   5.183  1.00  0.00     0.124 S 
ATOM     98  O   UNL     1       4.985   8.704   4.078  1.00  0.00    -0.237 OA
ATOM     99  O   UNL     1       2.647   8.812   4.880  1.00  0.00    -0.237 OA
ATOM    100  O   UNL     1       4.404  10.116   6.013  1.00  0.00    -0.744 OA
ENDBRANCH  93  97
ENDBRANCH  67  90
ENDBRANCH  41  42
ENDBRANCH  33  36
ENDBRANCH  31  32
ENDBRANCH  30  31
ENDBRANCH   1  30
TORSDOF 19
