REMARK SMILES O=C(NCCCNC(=O)[C@@H]1CCCN(c2ccc3cc(S(=O)(=O)N4CCCCC4)ccc3n2)C1)c1ccc(-c2c3nc(c(-c4cc(S(=O)(=O)[O-])ccc4F)c4ccc([nH]4)c(-c4cc(S(=O)(=O)[O-])ccc4F)c4nc(c(-c5cc(S(=O)(=O)[O-])ccc5F)c5ccc2[nH]5)C=C4)C=C3)cc1
REMARK SMILES IDX 5 1 4 2 3 3 1 4 2 5 35 7 36 8 97 9 37 10 96 11 38 12 39 13
REMARK SMILES IDX 40 14 90 15 41 16 95 17 89 18 91 19 42 20 94 21 88 22 87 23
REMARK SMILES IDX 43 25 75 26 55 27 74 28 56 29 59 30 73 31 92 32 57 33 58 34
REMARK SMILES IDX 72 36 93 37 60 38 44 39 45 40 53 41 46 42 52 43 54 44 51 45
REMARK SMILES IDX 47 46 48 47 49 48 50 49 76 50 77 51 85 52 78 53 84 54 86 55
REMARK SMILES IDX 83 56 79 57 80 58 81 59 82 60 61 61 62 62 70 63 63 64 69 65
REMARK SMILES IDX 71 66 68 67 64 68 65 69 66 70 67 71 6 72 7 73 8 74 9 76
REMARK SMILES IDX 10 77 11 78 34 79 12 80 14 81 13 82 15 83 16 84 33 85 17 86
REMARK SMILES IDX 32 87 18 88 31 89 19 90 30 91 20 92 21 93 22 94 23 95 24 96
REMARK SMILES IDX 25 97 29 98 26 99 28 100 27 101
REMARK H PARENT 3 6 91 24 59 35 7 75
REMARK Flexibility Score: inf
ROOT
ATOM      1  C   UNL     1       4.302   0.093  -2.589  1.00  0.00     0.042 C 
ENDROOT
BRANCH   1   2
ATOM      2  C   UNL     1       4.186   0.867  -1.279  1.00  0.00     0.118 C 
BRANCH   2   3
ATOM      3  N   UNL     1       2.819   0.894  -0.777  1.00  0.00    -0.352 N 
ATOM      4  O   UNL     1       1.017   0.158   0.349  1.00  0.00    -0.269 OA
ATOM      5  C   UNL     1       2.241   0.176   0.244  1.00  0.00     0.251 C 
ATOM      6  H   UNL     1       2.217   1.522  -1.238  1.00  0.00     0.163 HD
BRANCH   5   7
ATOM      7  C   UNL     1       3.079  -0.575   1.208  1.00  0.00     0.039 A 
ATOM      8  C   UNL     1       4.262  -0.024   1.701  1.00  0.00     0.014 A 
ATOM      9  C   UNL     1       2.654  -1.826   1.669  1.00  0.00     0.014 A 
ATOM     10  C   UNL     1       5.090  -0.778   2.523  1.00  0.00     0.010 A 
ATOM     11  C   UNL     1       3.436  -2.538   2.588  1.00  0.00     0.010 A 
ATOM     12  C   UNL     1       4.674  -2.029   3.008  1.00  0.00    -0.014 A 
BRANCH  12  13
ATOM     13  C   UNL     1       5.526  -2.717   4.017  1.00  0.00     0.031 A 
ATOM     14  C   UNL     1       6.161  -4.051   3.736  1.00  0.00     0.074 A 
ATOM     15  C   UNL     1       5.775  -2.080   5.180  1.00  0.00     0.049 A 
ATOM     16  N   UNL     1       6.981  -4.746   4.485  1.00  0.00    -0.248 NA
ATOM     17  C   UNL     1       5.827  -4.696   2.458  1.00  0.00     0.031 C 
ATOM     18  C   UNL     1       5.192  -0.792   5.570  1.00  0.00     0.029 A 
ATOM     19  N   UNL     1       6.601  -2.395   6.228  1.00  0.00    -0.354 N 
ATOM     20  C   UNL     1       7.259  -5.909   3.775  1.00  0.00     0.074 A 
ATOM     21  C   UNL     1       6.483  -5.844   2.553  1.00  0.00     0.031 C 
ATOM     22  C   UNL     1       5.731  -0.395   6.730  1.00  0.00     0.029 A 
ATOM     23  C   UNL     1       6.635  -1.432   7.211  1.00  0.00     0.049 A 
ATOM     24  H   UNL     1       7.119  -3.231   6.273  1.00  0.00     0.167 HD
ATOM     25  C   UNL     1       8.092  -6.928   4.108  1.00  0.00     0.034 A 
ATOM     26  C   UNL     1       7.304  -1.390   8.379  1.00  0.00     0.034 A 
ATOM     27  C   UNL     1       8.851  -6.979   5.338  1.00  0.00     0.049 A 
ATOM     28  C   UNL     1       8.208  -2.539   8.728  1.00  0.00     0.074 A 
ATOM     29  C   UNL     1       9.718  -7.965   5.779  1.00  0.00     0.029 A 
ATOM     30  N   UNL     1       8.835  -6.001   6.326  1.00  0.00    -0.354 N 
ATOM     31  N   UNL     1       8.459  -3.630   8.040  1.00  0.00    -0.248 NA
ATOM     32  C   UNL     1       8.924  -2.451  10.005  1.00  0.00     0.031 C 
ATOM     33  C   UNL     1      10.179  -7.613   7.053  1.00  0.00     0.029 A 
ATOM     34  C   UNL     1       9.660  -6.371   7.380  1.00  0.00     0.049 A 
ATOM     35  H   UNL     1       8.315  -5.167   6.285  1.00  0.00     0.167 HD
ATOM     36  C   UNL     1       9.367  -4.355   8.802  1.00  0.00     0.074 A 
ATOM     37  C   UNL     1       9.651  -3.557   9.978  1.00  0.00     0.031 C 
ATOM     38  C   UNL     1       9.911  -5.576   8.559  1.00  0.00     0.034 A 
BRANCH  25  39
ATOM     39  C   UNL     1       8.196  -8.087   3.143  1.00  0.00     0.023 A 
ATOM     40  C   UNL     1       8.734  -7.928   1.854  1.00  0.00     0.031 A 
ATOM     41  C   UNL     1       7.744  -9.367   3.513  1.00  0.00     0.131 A 
ATOM     42  C   UNL     1       8.752  -9.013   0.962  1.00  0.00     0.055 A 
ATOM     43  C   UNL     1       7.833 -10.459   2.647  1.00  0.00     0.041 A 
ATOM     44  F   UNL     1       7.203  -9.577   4.723  1.00  0.00    -0.206 F 
ATOM     45  C   UNL     1       8.327 -10.283   1.358  1.00  0.00     0.022 A 
BRANCH  42  46
ATOM     46  S   UNL     1       9.223  -8.711  -0.764  1.00  0.00     0.124 S 
ATOM     47  O   UNL     1       8.223  -7.731  -1.178  1.00  0.00    -0.237 OA
ATOM     48  O   UNL     1      10.588  -8.215  -0.637  1.00  0.00    -0.237 OA
ATOM     49  O   UNL     1       9.093 -10.025  -1.390  1.00  0.00    -0.744 OA
ENDBRANCH  42  46
ENDBRANCH  25  39
BRANCH  26  50
ATOM     50  C   UNL     1       7.110  -0.246   9.316  1.00  0.00     0.023 A 
ATOM     51  C   UNL     1       8.173   0.596   9.676  1.00  0.00     0.031 A 
ATOM     52  C   UNL     1       5.851   0.001   9.896  1.00  0.00     0.131 A 
ATOM     53  C   UNL     1       7.970   1.613  10.622  1.00  0.00     0.055 A 
ATOM     54  C   UNL     1       5.639   1.052  10.787  1.00  0.00     0.041 A 
ATOM     55  F   UNL     1       4.797  -0.772   9.586  1.00  0.00    -0.206 F 
ATOM     56  C   UNL     1       6.707   1.857  11.167  1.00  0.00     0.022 A 
BRANCH  53  57
ATOM     57  S   UNL     1       9.406   2.552  11.210  1.00  0.00     0.124 S 
ATOM     58  O   UNL     1      10.291   1.487  11.671  1.00  0.00    -0.237 OA
ATOM     59  O   UNL     1       9.823   3.254  10.001  1.00  0.00    -0.237 OA
ATOM     60  O   UNL     1       8.850   3.400  12.262  1.00  0.00    -0.744 OA
ENDBRANCH  53  57
ENDBRANCH  26  50
BRANCH  38  61
ATOM     61  C   UNL     1      10.880  -6.095   9.592  1.00  0.00     0.023 A 
ATOM     62  C   UNL     1      10.462  -6.411  10.898  1.00  0.00     0.031 A 
ATOM     63  C   UNL     1      12.246  -6.223   9.286  1.00  0.00     0.131 A 
ATOM     64  C   UNL     1      11.410  -6.766  11.868  1.00  0.00     0.055 A 
ATOM     65  C   UNL     1      13.175  -6.640  10.239  1.00  0.00     0.041 A 
ATOM     66  F   UNL     1      12.700  -5.933   8.056  1.00  0.00    -0.206 F 
ATOM     67  C   UNL     1      12.762  -6.897  11.544  1.00  0.00     0.022 A 
BRANCH  64  68
ATOM     68  S   UNL     1      10.867  -6.938  13.591  1.00  0.00     0.124 S 
ATOM     69  O   UNL     1      10.276  -5.630  13.855  1.00  0.00    -0.237 OA
ATOM     70  O   UNL     1       9.932  -8.056  13.512  1.00  0.00    -0.237 OA
ATOM     71  O   UNL     1      12.106  -7.217  14.314  1.00  0.00    -0.744 OA
ENDBRANCH  64  68
ENDBRANCH  38  61
ENDBRANCH  12  13
ENDBRANCH   5   7
ENDBRANCH   2   3
ENDBRANCH   1   2
BRANCH   1  72
ATOM     72  C   UNL     1       3.761   0.848  -3.796  1.00  0.00     0.117 C 
BRANCH  72  73
ATOM     73  N   UNL     1       4.426   2.118  -4.004  1.00  0.00    -0.356 N 
ATOM     74  C   UNL     1       5.401   2.568  -4.819  1.00  0.00     0.224 C 
ATOM     75  H   UNL     1       4.083   2.821  -3.407  1.00  0.00     0.163 HD
ATOM     76  O   UNL     1       5.545   3.800  -4.772  1.00  0.00    -0.275 OA
BRANCH  74  77
ATOM     77  C   UNL     1       6.177   1.745  -5.854  1.00  0.00     0.098 C 
ATOM     78  C   UNL     1       6.418   0.235  -5.693  1.00  0.00     0.017 C 
ATOM     79  C   UNL     1       7.544   2.438  -6.063  1.00  0.00     0.131 C 
ATOM     80  C   UNL     1       7.494  -0.127  -4.668  1.00  0.00     0.022 C 
ATOM     81  N   UNL     1       8.455   2.042  -4.992  1.00  0.00    -0.356 N 
ATOM     82  C   UNL     1       8.795   0.631  -4.907  1.00  0.00     0.118 C 
BRANCH  81  83
ATOM     83  C   UNL     1       9.298   2.957  -4.402  1.00  0.00     0.129 A 
ATOM     84  C   UNL     1       8.802   4.141  -3.864  1.00  0.00     0.047 A 
ATOM     85  N   UNL     1      10.605   2.647  -4.302  1.00  0.00    -0.231 NA
ATOM     86  C   UNL     1       9.656   5.025  -3.214  1.00  0.00     0.014 A 
ATOM     87  C   UNL     1      11.437   3.504  -3.698  1.00  0.00     0.073 A 
ATOM     88  C   UNL     1      11.012   4.720  -3.131  1.00  0.00     0.002 A 
ATOM     89  C   UNL     1      12.780   3.184  -3.638  1.00  0.00     0.030 A 
ATOM     90  C   UNL     1      11.936   5.586  -2.522  1.00  0.00     0.032 A 
ATOM     91  C   UNL     1      13.711   4.043  -3.050  1.00  0.00     0.024 A 
ATOM     92  C   UNL     1      13.293   5.251  -2.495  1.00  0.00     0.083 A 
BRANCH  92  93
ATOM     93  S   UNL     1      14.402   6.450  -1.775  1.00  0.00     0.243 S 
ATOM     94  O   UNL     1      14.286   7.638  -2.605  1.00  0.00    -0.207 OA
ATOM     95  O   UNL     1      14.104   6.490  -0.366  1.00  0.00    -0.207 OA
BRANCH  93  96
ATOM     96  N   UNL     1      15.995   5.856  -1.966  1.00  0.00    -0.198 NA
ATOM     97  C   UNL     1      16.370   4.733  -1.068  1.00  0.00     0.102 C 
ATOM     98  C   UNL     1      16.527   5.874  -3.349  1.00  0.00     0.102 C 
ATOM     99  C   UNL     1      17.828   4.324  -1.221  1.00  0.00     0.017 C 
ATOM    100  C   UNL     1      17.984   5.443  -3.419  1.00  0.00     0.017 C 
ATOM    101  C   UNL     1      18.206   4.134  -2.680  1.00  0.00     0.003 C 
ENDBRANCH  93  96
ENDBRANCH  92  93
ENDBRANCH  81  83
ENDBRANCH  74  77
ENDBRANCH  72  73
ENDBRANCH   1  72
TORSDOF 16
