REMARK SMILES O=C(COc1ccccc1[C@@H]1C2=C(CCCC2=O)Nc2nc(SCc3ccccn3)nn21)NCCCNC(=O)c1ccc(-c2c3nc(c(-c4cc(S(=O)(=O)[O-])ccc4F)c4ccc([nH]4)c(-c4cc(S(=O)(=O)[O-])ccc4F)c4nc(c(-c5cc(S(=O)(=O)[O-])ccc5F)c5ccc2[nH]5)C=C4)C=C3)cc1
REMARK SMILES IDX 1 1 2 2 33 3 3 5 4 6 5 7 6 8 10 9 7 10 9 11 8 12 11 13 12 14
REMARK SMILES IDX 32 15 13 16 17 17 20 18 31 19 14 20 19 21 16 22 18 23 21 24
REMARK SMILES IDX 22 25 15 26 23 28 24 29 25 30 26 31 30 32 27 33 29 34 28 35
REMARK SMILES IDX 34 36 35 37 36 38 37 39 38 40 39 42 40 43 41 44 102 45 42 46
REMARK SMILES IDX 101 47 43 48 44 49 45 50 95 51 46 52 100 53 94 54 96 55
REMARK SMILES IDX 47 56 99 57 93 58 92 59 48 61 80 62 60 63 79 64 61 65 64 66
REMARK SMILES IDX 78 67 97 68 62 69 63 70 77 72 98 73 65 74 49 75 50 76 58 77
REMARK SMILES IDX 51 78 57 79 59 80 56 81 52 82 53 83 54 84 55 85 81 86 82 87
REMARK SMILES IDX 90 88 83 89 89 90 91 91 88 92 84 93 85 94 86 95 87 96 66 97
REMARK SMILES IDX 67 98 75 99 68 100 74 101 76 102 73 103 69 104 70 105 71 106
REMARK SMILES IDX 72 107
REMARK H PARENT 33 4 19 27 37 41 96 60 64 71
REMARK Flexibility Score: inf
ROOT
ATOM      1  O   UNL     1       0.422   1.165   0.010  1.00  0.00    -0.271 OA
ATOM      2  C   UNL     1       1.653   0.925  -0.166  1.00  0.00     0.257 C 
ATOM      3  N   UNL     1       2.187   2.292  -0.086  1.00  0.00    -0.353 N 
ATOM      4  H   UNL     1       3.164   2.399  -0.129  1.00  0.00     0.163 HD
ENDROOT
BRANCH   2   5
ATOM      5  C   UNL     1       2.600  -1.018  -0.613  1.00  0.00     0.329 C 
BRANCH   5   6
ATOM      6  O   UNL     1       3.523  -1.604  -1.666  1.00  0.00    -0.483 OA
BRANCH   6   7
ATOM      7  C   UNL     1       3.017  -1.645  -2.933  1.00  0.00     0.125 A 
ATOM      8  C   UNL     1       3.625  -2.404  -3.919  1.00  0.00     0.047 A 
ATOM      9  C   UNL     1       2.016  -0.747  -3.241  1.00  0.00     0.024 A 
ATOM     10  C   UNL     1       3.214  -2.241  -5.244  1.00  0.00     0.004 A 
ATOM     11  C   UNL     1       1.594  -0.576  -4.555  1.00  0.00     0.010 A 
ATOM     12  C   UNL     1       2.204  -1.326  -5.561  1.00  0.00     0.001 A 
BRANCH   9  13
ATOM     13  C   UNL     1       1.683   0.147  -2.103  1.00  0.00     0.181 C 
ATOM     14  C   UNL     1       3.401   0.727  -1.316  1.00  0.00     0.044 C 
ATOM     15  N   UNL     1       0.559  -0.717  -0.892  1.00  0.00    -0.218 N 
ATOM     16  C   UNL     1       3.739   0.509   0.230  1.00  0.00     0.027 C 
ATOM     17  C   UNL     1       4.317   1.492  -2.176  1.00  0.00     0.163 C 
ATOM     18  C   UNL     1       1.036  -0.852   0.806  1.00  0.00     0.227 A 
ATOM     19  N   UNL     1      -0.446  -1.602  -1.040  1.00  0.00    -0.141 NA
ATOM     20  C   UNL     1       5.064   0.901   0.792  1.00  0.00     0.055 C 
ATOM     21  N   UNL     1       2.509  -0.181   1.328  1.00  0.00    -0.328 N 
ATOM     22  C   UNL     1       5.560   2.046  -1.519  1.00  0.00     0.081 C 
ATOM     23  O   UNL     1       3.957   1.816  -3.303  1.00  0.00    -0.294 OA
ATOM     24  N   UNL     1       0.071  -1.562   1.317  1.00  0.00    -0.185 NA
ATOM     25  C   UNL     1      -0.720  -1.980   0.230  1.00  0.00     0.210 A 
ATOM     26  C   UNL     1       6.074   1.233  -0.321  1.00  0.00     0.014 C 
ATOM     27  H   UNL     1       2.696  -0.172   2.294  1.00  0.00     0.169 HD
BRANCH  25  28
ATOM     28  S   UNL     1      -2.036  -3.117   0.501  1.00  0.00    -0.078 SA
BRANCH  28  29
ATOM     29  C   UNL     1      -1.877  -3.478   2.280  1.00  0.00     0.134 C 
BRANCH  29  30
ATOM     30  C   UNL     1      -0.632  -4.251   2.662  1.00  0.00     0.051 A 
ATOM     31  C   UNL     1       0.460  -3.593   3.232  1.00  0.00     0.025 A 
ATOM     32  N   UNL     1      -0.609  -5.583   2.406  1.00  0.00    -0.260 NA
ATOM     33  C   UNL     1       1.646  -4.286   3.440  1.00  0.00     0.003 A 
ATOM     34  C   UNL     1       0.547  -6.241   2.658  1.00  0.00     0.111 A 
ATOM     35  C   UNL     1       1.695  -5.639   3.146  1.00  0.00     0.020 A 
ENDBRANCH  29  30
ENDBRANCH  28  29
ENDBRANCH  25  28
ENDBRANCH   9  13
ENDBRANCH   6   7
ENDBRANCH   5   6
ENDBRANCH   2   5
BRANCH   3  36
ATOM     36  C   UNL     1       1.378   3.516   0.053  1.00  0.00     0.117 C 
BRANCH  36  37
ATOM     37  C   UNL     1       1.722   4.316   1.311  1.00  0.00     0.042 C 
BRANCH  37  38
ATOM     38  C   UNL     1       3.184   4.735   1.419  1.00  0.00     0.118 C 
BRANCH  38  39
ATOM     39  N   UNL     1       3.691   5.559   0.309  1.00  0.00    -0.352 N 
ATOM     40  C   UNL     1       4.927   6.200   0.172  1.00  0.00     0.251 C 
ATOM     41  H   UNL     1       3.071   5.676  -0.447  1.00  0.00     0.163 HD
ATOM     42  O   UNL     1       5.051   7.124  -0.625  1.00  0.00    -0.269 OA
BRANCH  40  43
ATOM     43  C   UNL     1       6.103   5.703   0.928  1.00  0.00     0.039 A 
ATOM     44  C   UNL     1       7.209   6.449   1.345  1.00  0.00     0.014 A 
ATOM     45  C   UNL     1       6.081   4.358   1.214  1.00  0.00     0.014 A 
ATOM     46  C   UNL     1       8.279   5.786   1.987  1.00  0.00     0.010 A 
ATOM     47  C   UNL     1       6.952   3.804   2.097  1.00  0.00     0.010 A 
ATOM     48  C   UNL     1       8.159   4.427   2.307  1.00  0.00    -0.014 A 
BRANCH  48  49
ATOM     49  C   UNL     1       9.098   3.613   3.080  1.00  0.00     0.031 A 
ATOM     50  C   UNL     1       9.011   3.972   4.523  1.00  0.00     0.074 A 
ATOM     51  C   UNL     1       9.665   2.466   2.611  1.00  0.00     0.049 A 
ATOM     52  N   UNL     1       9.797   4.774   5.164  1.00  0.00    -0.248 NA
ATOM     53  C   UNL     1       7.753   3.691   5.254  1.00  0.00     0.031 C 
ATOM     54  C   UNL     1       9.575   1.860   1.276  1.00  0.00     0.029 A 
ATOM     55  N   UNL     1      10.416   1.535   3.280  1.00  0.00    -0.354 N 
ATOM     56  C   UNL     1       9.294   4.794   6.459  1.00  0.00     0.074 A 
ATOM     57  C   UNL     1       7.908   4.464   6.331  1.00  0.00     0.031 C 
ATOM     58  C   UNL     1      10.061   0.590   1.297  1.00  0.00     0.029 A 
ATOM     59  C   UNL     1      10.620   0.311   2.609  1.00  0.00     0.049 A 
ATOM     60  H   UNL     1      10.790   1.710   4.173  1.00  0.00     0.167 HD
ATOM     61  C   UNL     1      10.122   4.652   7.532  1.00  0.00     0.034 A 
ATOM     62  C   UNL     1      11.202  -0.828   3.116  1.00  0.00     0.034 A 
ATOM     63  C   UNL     1      11.500   4.834   7.121  1.00  0.00     0.049 A 
ATOM     64  C   UNL     1      12.011  -0.378   4.284  1.00  0.00     0.074 A 
ATOM     65  C   UNL     1      12.190   5.844   6.478  1.00  0.00     0.029 A 
ATOM     66  N   UNL     1      12.263   3.697   6.954  1.00  0.00    -0.354 N 
ATOM     67  N   UNL     1      13.044   0.412   4.157  1.00  0.00    -0.248 NA
ATOM     68  C   UNL     1      11.331  -0.311   5.571  1.00  0.00     0.031 C 
ATOM     69  C   UNL     1      13.027   5.170   5.539  1.00  0.00     0.029 A 
ATOM     70  C   UNL     1      12.923   3.794   5.753  1.00  0.00     0.049 A 
ATOM     71  H   UNL     1      12.325   2.945   7.587  1.00  0.00     0.167 HD
ATOM     72  C   UNL     1      12.880   1.377   5.140  1.00  0.00     0.074 A 
ATOM     73  C   UNL     1      11.823   0.853   6.011  1.00  0.00     0.031 C 
ATOM     74  C   UNL     1      13.360   2.647   4.975  1.00  0.00     0.034 A 
BRANCH  61  75
ATOM     75  C   UNL     1       9.764   3.925   8.819  1.00  0.00     0.023 A 
ATOM     76  C   UNL     1      10.772   3.864   9.799  1.00  0.00     0.031 A 
ATOM     77  C   UNL     1       8.650   3.080   9.043  1.00  0.00     0.131 A 
ATOM     78  C   UNL     1      10.711   2.927  10.845  1.00  0.00     0.055 A 
ATOM     79  C   UNL     1       8.566   2.195  10.122  1.00  0.00     0.041 A 
ATOM     80  F   UNL     1       7.612   2.984   8.207  1.00  0.00    -0.206 F 
ATOM     81  C   UNL     1       9.616   2.089  11.013  1.00  0.00     0.022 A 
BRANCH  78  82
ATOM     82  S   UNL     1      12.181   2.703  11.874  1.00  0.00     0.124 S 
ATOM     83  O   UNL     1      13.195   2.406  10.869  1.00  0.00    -0.237 OA
ATOM     84  O   UNL     1      12.284   4.001  12.533  1.00  0.00    -0.237 OA
ATOM     85  O   UNL     1      11.815   1.588  12.744  1.00  0.00    -0.744 OA
ENDBRANCH  78  82
ENDBRANCH  61  75
BRANCH  62  86
ATOM     86  C   UNL     1      10.790  -2.272   2.926  1.00  0.00     0.023 A 
ATOM     87  C   UNL     1      11.590  -3.411   3.242  1.00  0.00     0.031 A 
ATOM     88  C   UNL     1       9.430  -2.540   2.656  1.00  0.00     0.131 A 
ATOM     89  C   UNL     1      11.019  -4.720   3.265  1.00  0.00     0.055 A 
ATOM     90  C   UNL     1       8.874  -3.824   2.698  1.00  0.00     0.041 A 
ATOM     91  F   UNL     1       8.562  -1.542   2.425  1.00  0.00    -0.206 F 
ATOM     92  C   UNL     1       9.662  -4.918   3.009  1.00  0.00     0.022 A 
BRANCH  89  93
ATOM     93  S   UNL     1      12.001  -6.218   3.681  1.00  0.00     0.124 S 
ATOM     94  O   UNL     1      12.947  -6.291   2.574  1.00  0.00    -0.237 OA
ATOM     95  O   UNL     1      12.553  -5.885   4.989  1.00  0.00    -0.237 OA
ATOM     96  O   UNL     1      11.003  -7.290   3.699  1.00  0.00    -0.744 OA
ENDBRANCH  89  93
ENDBRANCH  62  86
BRANCH  74  97
ATOM     97  C   UNL     1      14.305   2.929   3.819  1.00  0.00     0.023 A 
ATOM     98  C   UNL     1      14.012   2.774   2.441  1.00  0.00     0.031 A 
ATOM     99  C   UNL     1      15.536   3.517   4.158  1.00  0.00     0.131 A 
ATOM    100  C   UNL     1      14.948   3.200   1.471  1.00  0.00     0.055 A 
ATOM    101  C   UNL     1      16.441   3.963   3.198  1.00  0.00     0.041 A 
ATOM    102  F   UNL     1      15.862   3.710   5.447  1.00  0.00    -0.206 F 
ATOM    103  C   UNL     1      16.153   3.801   1.850  1.00  0.00     0.022 A 
BRANCH 100 104
ATOM    104  S   UNL     1      14.639   2.954  -0.312  1.00  0.00     0.124 S 
ATOM    105  O   UNL     1      14.225   1.558  -0.394  1.00  0.00    -0.237 OA
ATOM    106  O   UNL     1      13.603   3.944  -0.595  1.00  0.00    -0.237 OA
ATOM    107  O   UNL     1      15.938   3.242  -0.926  1.00  0.00    -0.744 OA
ENDBRANCH 100 104
ENDBRANCH  74  97
ENDBRANCH  48  49
ENDBRANCH  40  43
ENDBRANCH  38  39
ENDBRANCH  37  38
ENDBRANCH  36  37
ENDBRANCH   3  36
TORSDOF 19
