REMARK SMILES CC[C@H](C(=O)NCCCNC(=O)c1ccc(-c2c3nc(c(-c4cc(S(=O)(=O)[O-])ccc4F)c4ccc([nH]4)c(-c4cc(S(=O)(=O)[O-])ccc4F)c4nc(c(-c5cc(S(=O)(=O)[O-])ccc5F)c5ccc2[nH]5)C=C4)C=C3)cc1)N1C(=O)/C(=C/c2ccc(-c3ccc(C)cc3Br)o2)SC1=S
REMARK SMILES IDX 8 1 7 2 6 3 4 4 5 5 3 7 2 8 1 9 76 10 77 11 95 12 78 13
REMARK SMILES IDX 79 14 94 15 96 16 80 17 81 18 82 19 93 20 83 21 84 22 85 23
REMARK SMILES IDX 86 24 91 25 87 26 90 27 92 28 88 29 89 30 9 31 10 32 11 33
REMARK SMILES IDX 12 35 13 36 14 37 75 38 15 39 74 40 16 41 17 42 18 43 68 44
REMARK SMILES IDX 19 45 73 46 67 47 69 48 20 49 72 50 66 51 65 52 21 54 53 55
REMARK SMILES IDX 33 56 52 57 34 58 37 59 51 60 70 61 35 62 36 63 50 65 71 66
REMARK SMILES IDX 38 67 22 68 23 69 31 70 24 71 30 72 32 73 29 74 25 75 26 76
REMARK SMILES IDX 27 77 28 78 54 79 55 80 63 81 56 82 62 83 64 84 61 85 57 86
REMARK SMILES IDX 58 87 59 88 60 89 39 90 40 91 48 92 41 93 47 94 49 95 46 96
REMARK SMILES IDX 42 97 43 98 44 99 45 100
REMARK H PARENT 6 6 10 34 69 53 37 64
REMARK Flexibility Score: inf
ROOT
ATOM      1  C   UNL     1      -0.903  -1.060  -1.870  1.00  0.00     0.042 C 
ENDROOT
BRANCH   1   2
ATOM      2  C   UNL     1      -1.300   0.266  -1.232  1.00  0.00     0.117 C 
BRANCH   2   3
ATOM      3  N   UNL     1      -0.463   0.586  -0.088  1.00  0.00    -0.354 N 
ATOM      4  C   UNL     1       0.494   1.522   0.134  1.00  0.00     0.243 C 
ATOM      5  O   UNL     1       0.893   1.615   1.304  1.00  0.00    -0.273 OA
ATOM      6  H   UNL     1      -0.624   0.003   0.688  1.00  0.00     0.163 HD
BRANCH   4   7
ATOM      7  C   UNL     1       1.039   2.525  -0.916  1.00  0.00     0.181 C 
BRANCH   7   8
ATOM      8  C   UNL     1       0.955   2.268  -2.423  1.00  0.00     0.032 C 
ATOM      9  C   UNL     1       1.712   1.019  -2.854  1.00  0.00     0.006 C 
ENDBRANCH   7   8
BRANCH   7  10
ATOM     10  N   UNL     1       0.622   3.902  -0.561  1.00  0.00    -0.280 N 
ATOM     11  C   UNL     1      -0.703   4.172  -0.263  1.00  0.00     0.267 C 
ATOM     12  C   UNL     1       1.456   5.001  -0.658  1.00  0.00     0.149 C 
ATOM     13  O   UNL     1      -1.640   3.381  -0.313  1.00  0.00    -0.268 OA
ATOM     14  C   UNL     1      -0.887   5.614   0.048  1.00  0.00     0.084 C 
ATOM     15  S   UNL     1       0.557   6.471  -0.314  1.00  0.00    -0.054 SA
ATOM     16  S   UNL     1       3.070   5.061  -1.083  1.00  0.00    -0.052 S 
ATOM     17  C   UNL     1      -2.039   6.108   0.526  1.00  0.00     0.068 C 
BRANCH  17  18
ATOM     18  C   UNL     1      -2.275   7.507   0.629  1.00  0.00     0.128 A 
ATOM     19  C   UNL     1      -2.370   8.425  -0.410  1.00  0.00     0.051 A 
ATOM     20  O   UNL     1      -2.471   8.190   1.812  1.00  0.00    -0.457 OA
ATOM     21  C   UNL     1      -2.581   9.698   0.152  1.00  0.00     0.051 A 
ATOM     22  C   UNL     1      -2.607   9.516   1.516  1.00  0.00     0.135 A 
BRANCH  22  23
ATOM     23  C   UNL     1      -2.759  10.462   2.615  1.00  0.00     0.031 A 
ATOM     24  C   UNL     1      -3.816  11.389   2.535  1.00  0.00     0.013 A 
ATOM     25  C   UNL     1      -1.844  10.594   3.670  1.00  0.00     0.029 A 
ATOM     26  C   UNL     1      -3.936  12.437   3.451  1.00  0.00     0.004 A 
ATOM     27  C   UNL     1      -1.966  11.649   4.590  1.00  0.00     0.019 A 
ATOM     28  Br  UNL     1      -0.338   9.450   3.881  1.00  0.00    -0.050 Br
ATOM     29  C   UNL     1      -2.999  12.588   4.475  1.00  0.00    -0.050 A 
ATOM     30  C   UNL     1      -3.089  13.762   5.404  1.00  0.00     0.044 C 
ENDBRANCH  22  23
ENDBRANCH  17  18
ENDBRANCH   7  10
ENDBRANCH   4   7
ENDBRANCH   2   3
ENDBRANCH   1   2
BRANCH   1  31
ATOM     31  C   UNL     1      -1.359  -2.265  -1.058  1.00  0.00     0.118 C 
BRANCH  31  32
ATOM     32  N   UNL     1      -2.797  -2.462  -1.157  1.00  0.00    -0.352 N 
ATOM     33  C   UNL     1      -3.501  -3.490  -1.736  1.00  0.00     0.251 C 
ATOM     34  H   UNL     1      -3.347  -1.754  -0.750  1.00  0.00     0.163 HD
ATOM     35  O   UNL     1      -4.695  -3.335  -1.978  1.00  0.00    -0.269 OA
BRANCH  33  36
ATOM     36  C   UNL     1      -2.828  -4.765  -2.074  1.00  0.00     0.039 A 
ATOM     37  C   UNL     1      -3.207  -5.447  -3.233  1.00  0.00     0.014 A 
ATOM     38  C   UNL     1      -1.857  -5.313  -1.231  1.00  0.00     0.014 A 
ATOM     39  C   UNL     1      -2.586  -6.655  -3.562  1.00  0.00     0.010 A 
ATOM     40  C   UNL     1      -1.170  -6.462  -1.612  1.00  0.00     0.010 A 
ATOM     41  C   UNL     1      -1.545  -7.161  -2.768  1.00  0.00    -0.014 A 
BRANCH  41  42
ATOM     42  C   UNL     1      -0.875  -8.448  -3.094  1.00  0.00     0.031 A 
ATOM     43  C   UNL     1      -0.953  -9.598  -2.122  1.00  0.00     0.074 A 
ATOM     44  C   UNL     1      -0.160  -8.566  -4.230  1.00  0.00     0.049 A 
ATOM     45  N   UNL     1      -0.375 -10.770  -2.176  1.00  0.00    -0.248 NA
ATOM     46  C   UNL     1      -1.763  -9.385  -0.912  1.00  0.00     0.031 C 
ATOM     47  C   UNL     1       0.016  -7.511  -5.231  1.00  0.00     0.029 A 
ATOM     48  N   UNL     1       0.556  -9.622  -4.734  1.00  0.00    -0.354 N 
ATOM     49  C   UNL     1      -0.737 -11.425  -1.002  1.00  0.00     0.074 A 
ATOM     50  C   UNL     1      -1.522 -10.491  -0.226  1.00  0.00     0.031 C 
ATOM     51  C   UNL     1       0.763  -7.984  -6.242  1.00  0.00     0.029 A 
ATOM     52  C   UNL     1       1.164  -9.354  -5.940  1.00  0.00     0.049 A 
ATOM     53  H   UNL     1       0.629 -10.491  -4.276  1.00  0.00     0.167 HD
ATOM     54  C   UNL     1      -0.463 -12.697  -0.620  1.00  0.00     0.034 A 
ATOM     55  C   UNL     1       1.964 -10.122  -6.707  1.00  0.00     0.034 A 
ATOM     56  C   UNL     1       0.308 -13.620  -1.417  1.00  0.00     0.049 A 
ATOM     57  C   UNL     1       2.279 -11.525  -6.249  1.00  0.00     0.074 A 
ATOM     58  C   UNL     1       0.607 -14.945  -1.154  1.00  0.00     0.029 A 
ATOM     59  N   UNL     1       0.908 -13.312  -2.632  1.00  0.00    -0.354 N 
ATOM     60  N   UNL     1       1.893 -12.144  -5.156  1.00  0.00    -0.248 NA
ATOM     61  C   UNL     1       3.125 -12.336  -7.133  1.00  0.00     0.031 C 
ATOM     62  C   UNL     1       1.448 -15.414  -2.168  1.00  0.00     0.029 A 
ATOM     63  C   UNL     1       1.600 -14.412  -3.114  1.00  0.00     0.049 A 
ATOM     64  H   UNL     1       0.849 -12.439  -3.085  1.00  0.00     0.167 HD
ATOM     65  C   UNL     1       2.420 -13.430  -5.243  1.00  0.00     0.074 A 
ATOM     66  C   UNL     1       3.137 -13.499  -6.500  1.00  0.00     0.031 C 
ATOM     67  C   UNL     1       2.316 -14.463  -4.368  1.00  0.00     0.034 A 
BRANCH  54  68
ATOM     68  C   UNL     1      -0.981 -13.148   0.727  1.00  0.00     0.023 A 
ATOM     69  C   UNL     1      -2.356 -13.183   1.019  1.00  0.00     0.031 A 
ATOM     70  C   UNL     1      -0.086 -13.521   1.746  1.00  0.00     0.131 A 
ATOM     71  C   UNL     1      -2.792 -13.498   2.315  1.00  0.00     0.055 A 
ATOM     72  C   UNL     1      -0.531 -13.923   3.008  1.00  0.00     0.041 A 
ATOM     73  F   UNL     1       1.240 -13.487   1.539  1.00  0.00    -0.206 F 
ATOM     74  C   UNL     1      -1.891 -13.897   3.304  1.00  0.00     0.022 A 
BRANCH  71  75
ATOM     75  S   UNL     1      -4.537 -13.228   2.731  1.00  0.00     0.124 S 
ATOM     76  O   UNL     1      -4.688 -11.802   2.451  1.00  0.00    -0.237 OA
ATOM     77  O   UNL     1      -5.223 -14.135   1.818  1.00  0.00    -0.237 OA
ATOM     78  O   UNL     1      -4.612 -13.589   4.145  1.00  0.00    -0.744 OA
ENDBRANCH  71  75
ENDBRANCH  54  68
BRANCH  55  79
ATOM     79  C   UNL     1       2.531  -9.589  -7.980  1.00  0.00     0.023 A 
ATOM     80  C   UNL     1       2.205 -10.169  -9.217  1.00  0.00     0.031 A 
ATOM     81  C   UNL     1       3.445  -8.520  -7.976  1.00  0.00     0.131 A 
ATOM     82  C   UNL     1       2.827  -9.713 -10.390  1.00  0.00     0.055 A 
ATOM     83  C   UNL     1       4.014  -8.030  -9.153  1.00  0.00     0.041 A 
ATOM     84  F   UNL     1       3.791  -7.925  -6.823  1.00  0.00    -0.206 F 
ATOM     85  C   UNL     1       3.717  -8.637 -10.369  1.00  0.00     0.022 A 
BRANCH  82  86
ATOM     86  S   UNL     1       2.528 -10.612 -11.937  1.00  0.00     0.124 S 
ATOM     87  O   UNL     1       2.960 -11.960 -11.584  1.00  0.00    -0.237 OA
ATOM     88  O   UNL     1       1.093 -10.425 -12.123  1.00  0.00    -0.237 OA
ATOM     89  O   UNL     1       3.376  -9.917 -12.903  1.00  0.00    -0.744 OA
ENDBRANCH  82  86
ENDBRANCH  55  79
BRANCH  67  90
ATOM     90  C   UNL     1       2.946 -15.775  -4.772  1.00  0.00     0.023 A 
ATOM     91  C   UNL     1       4.336 -15.918  -4.919  1.00  0.00     0.031 A 
ATOM     92  C   UNL     1       2.136 -16.898  -5.018  1.00  0.00     0.131 A 
ATOM     93  C   UNL     1       4.869 -17.139  -5.361  1.00  0.00     0.055 A 
ATOM     94  C   UNL     1       2.677 -18.129  -5.390  1.00  0.00     0.041 A 
ATOM     95  F   UNL     1       0.801 -16.818  -4.897  1.00  0.00    -0.206 F 
ATOM     96  C   UNL     1       4.051 -18.251  -5.577  1.00  0.00     0.022 A 
BRANCH  93  97
ATOM     97  S   UNL     1       6.639 -17.227  -5.750  1.00  0.00     0.124 S 
ATOM     98  O   UNL     1       6.778 -16.184  -6.762  1.00  0.00    -0.237 OA
ATOM     99  O   UNL     1       7.257 -16.947  -4.458  1.00  0.00    -0.237 OA
ATOM    100  O   UNL     1       6.815 -18.593  -6.239  1.00  0.00    -0.744 OA
ENDBRANCH  93  97
ENDBRANCH  67  90
ENDBRANCH  41  42
ENDBRANCH  33  36
ENDBRANCH  31  32
ENDBRANCH   1  31
TORSDOF 17
