REMARK SMILES Cc1ccc(NC(=O)c2cnn3c2NC2=C(C(=O)CCC2)[C@H]3c2ccc(C(=O)NCCCNC(=O)c3ccc(-c4c5nc(c(-c6cc(S(=O)(=O)[O-])ccc6F)c6ccc([nH]6)c(-c6cc(S(=O)(=O)[O-])ccc6F)c6nc(c(-c7cc(S(=O)(=O)[O-])ccc7F)c7ccc4[nH]7)C=C6)C=C5)cc3)cc2)cc1
REMARK SMILES IDX 31 1 30 2 29 3 27 4 28 5 26 7 23 8 24 9 100 10 25 11 99 12
REMARK SMILES IDX 22 13 9 14 10 15 13 16 11 17 12 18 14 19 15 20 16 22 21 23
REMARK SMILES IDX 17 24 20 25 18 26 19 27 7 28 6 29 8 31 5 32 1 33 2 34 3 35
REMARK SMILES IDX 102 36 4 37 101 38 32 39 33 40 34 41 35 43 36 44 37 45 98 46
REMARK SMILES IDX 38 47 97 48 39 49 40 50 41 51 91 52 42 53 96 54 90 55 92 56
REMARK SMILES IDX 43 57 95 58 89 59 88 60 44 62 76 63 56 64 75 65 57 66 60 67
REMARK SMILES IDX 74 68 93 69 58 70 59 71 73 73 94 74 61 75 45 76 46 77 54 78
REMARK SMILES IDX 47 79 53 80 55 81 52 82 48 83 49 84 50 85 51 86 77 87 78 88
REMARK SMILES IDX 86 89 79 90 85 91 87 92 84 93 80 94 81 95 82 96 83 97 62 98
REMARK SMILES IDX 63 99 71 100 64 101 70 102 72 103 69 104 65 105 66 106
REMARK SMILES IDX 67 107 68 108
REMARK H PARENT 29 6 14 21 6 30 33 42 92 61 60 72
REMARK Flexibility Score: inf
ROOT
ATOM      1  C   UNL     1      -0.881  -2.019  -6.054  1.00  0.00     0.042 C 
ENDROOT
BRANCH   1   2
ATOM      2  C   UNL     1      -2.059  -2.947  -6.350  1.00  0.00     0.118 C 
BRANCH   2   3
ATOM      3  N   UNL     1      -1.629  -4.218  -6.927  1.00  0.00    -0.352 N 
ATOM      4  C   UNL     1      -1.380  -5.453  -6.371  1.00  0.00     0.251 C 
ATOM      5  O   UNL     1      -1.163  -6.409  -7.117  1.00  0.00    -0.269 OA
ATOM      6  H   UNL     1      -1.490  -4.186  -7.901  1.00  0.00     0.163 HD
BRANCH   4   7
ATOM      7  C   UNL     1      -1.413  -5.713  -4.901  1.00  0.00     0.039 A 
ATOM      8  C   UNL     1      -1.817  -6.251  -2.138  1.00  0.00    -0.019 A 
ATOM      9  C   UNL     1      -2.029  -7.252  -3.101  1.00  0.00     0.007 A 
ATOM     10  C   UNL     1      -1.180  -5.075  -2.573  1.00  0.00     0.007 A 
ATOM     11  C   UNL     1      -1.839  -6.978  -4.465  1.00  0.00     0.014 A 
ATOM     12  C   UNL     1      -1.008  -4.798  -3.935  1.00  0.00     0.014 A 
BRANCH   8  13
ATOM     13  C   UNL     1      -2.452  -6.355  -0.715  1.00  0.00     0.175 C 
ATOM     14  C   UNL     1      -3.465  -2.957  -0.212  1.00  0.00     0.102 A 
ATOM     15  C   UNL     1      -2.537  -3.202   0.845  1.00  0.00     0.151 A 
ATOM     16  C   UNL     1      -3.717  -4.218  -0.704  1.00  0.00     0.142 A 
ATOM     17  N   UNL     1      -2.051  -4.450   0.851  1.00  0.00    -0.178 NA
ATOM     18  N   UNL     1      -2.702  -5.006  -0.185  1.00  0.00    -0.237 N 
ATOM     19  N   UNL     1      -4.629  -4.822  -1.526  1.00  0.00    -0.343 N 
ATOM     20  C   UNL     1      -4.818  -6.210  -1.420  1.00  0.00     0.026 C 
ATOM     21  H   UNL     1      -5.144  -4.294  -2.179  1.00  0.00     0.168 HD
ATOM     22  C   UNL     1      -3.850  -6.934  -0.804  1.00  0.00     0.044 C 
ATOM     23  C   UNL     1      -6.173  -6.809  -1.671  1.00  0.00     0.055 C 
ATOM     24  C   UNL     1      -4.354  -7.783   0.304  1.00  0.00     0.163 C 
ATOM     25  C   UNL     1      -6.717  -7.562  -0.452  1.00  0.00     0.014 C 
ATOM     26  O   UNL     1      -3.604  -8.533   0.920  1.00  0.00    -0.294 OA
ATOM     27  C   UNL     1      -5.781  -7.500   0.749  1.00  0.00     0.081 C 
BRANCH  14  28
ATOM     28  C   UNL     1      -4.075  -1.712  -0.618  1.00  0.00     0.261 C 
ATOM     29  N   UNL     1      -3.326  -0.549  -0.602  1.00  0.00    -0.322 N 
ATOM     30  H   UNL     1      -3.863   0.275  -0.641  1.00  0.00     0.170 HD
ATOM     31  O   UNL     1      -5.268  -1.653  -0.919  1.00  0.00    -0.269 OA
BRANCH  29  32
ATOM     32  C   UNL     1      -1.934  -0.327  -0.538  1.00  0.00     0.041 A 
ATOM     33  C   UNL     1       2.288   0.427   0.024  1.00  0.00     0.044 C 
ATOM     34  C   UNL     1       0.826   0.196  -0.218  1.00  0.00    -0.051 A 
ATOM     35  C   UNL     1       0.388  -1.043  -0.684  1.00  0.00     0.005 A 
ATOM     36  C   UNL     1      -0.123   1.189   0.041  1.00  0.00     0.005 A 
ATOM     37  C   UNL     1      -0.975  -1.282  -0.876  1.00  0.00     0.026 A 
ATOM     38  C   UNL     1      -1.491   0.933  -0.129  1.00  0.00     0.026 A 
ENDBRANCH  29  32
ENDBRANCH  14  28
ENDBRANCH   8  13
ENDBRANCH   4   7
ENDBRANCH   2   3
ENDBRANCH   1   2
BRANCH   1  39
ATOM     39  C   UNL     1      -0.482  -1.110  -7.216  1.00  0.00     0.118 C 
BRANCH  39  40
ATOM     40  N   UNL     1      -0.805   0.297  -6.965  1.00  0.00    -0.352 N 
ATOM     41  C   UNL     1      -0.278   1.437  -7.554  1.00  0.00     0.251 C 
ATOM     42  H   UNL     1      -1.495   0.457  -6.281  1.00  0.00     0.163 HD
ATOM     43  O   UNL     1      -0.639   2.558  -7.254  1.00  0.00    -0.269 OA
BRANCH  41  44
ATOM     44  C   UNL     1       0.672   1.243  -8.671  1.00  0.00     0.039 A 
ATOM     45  C   UNL     1       0.219   1.583  -9.950  1.00  0.00     0.014 A 
ATOM     46  C   UNL     1       1.814   0.470  -8.488  1.00  0.00     0.014 A 
ATOM     47  C   UNL     1       0.766   0.935 -11.051  1.00  0.00     0.010 A 
ATOM     48  C   UNL     1       2.301  -0.236  -9.574  1.00  0.00     0.010 A 
ATOM     49  C   UNL     1       1.722  -0.061 -10.839  1.00  0.00    -0.014 A 
BRANCH  49  50
ATOM     50  C   UNL     1       2.000  -1.089 -11.839  1.00  0.00     0.031 A 
ATOM     51  C   UNL     1       3.277  -1.124 -12.576  1.00  0.00     0.074 A 
ATOM     52  C   UNL     1       1.075  -2.040 -12.099  1.00  0.00     0.049 A 
ATOM     53  N   UNL     1       3.408  -1.601 -13.769  1.00  0.00    -0.248 NA
ATOM     54  C   UNL     1       4.513  -0.579 -12.032  1.00  0.00     0.031 C 
ATOM     55  C   UNL     1       1.255  -3.260 -12.880  1.00  0.00     0.029 A 
ATOM     56  N   UNL     1      -0.302  -1.953 -11.903  1.00  0.00    -0.354 N 
ATOM     57  C   UNL     1       4.753  -1.704 -14.029  1.00  0.00     0.074 A 
ATOM     58  C   UNL     1       5.396  -0.985 -12.950  1.00  0.00     0.031 C 
ATOM     59  C   UNL     1       0.058  -3.672 -13.322  1.00  0.00     0.029 A 
ATOM     60  C   UNL     1      -0.916  -2.664 -12.947  1.00  0.00     0.049 A 
ATOM     61  H   UNL     1      -0.759  -1.481 -11.170  1.00  0.00     0.167 HD
ATOM     62  C   UNL     1       5.190  -2.508 -15.041  1.00  0.00     0.034 A 
ATOM     63  C   UNL     1      -1.800  -2.064 -13.794  1.00  0.00     0.034 A 
ATOM     64  C   UNL     1       4.084  -3.146 -15.756  1.00  0.00     0.049 A 
ATOM     65  C   UNL     1      -1.386  -2.119 -15.245  1.00  0.00     0.074 A 
ATOM     66  C   UNL     1       3.549  -4.423 -15.713  1.00  0.00     0.029 A 
ATOM     67  N   UNL     1       3.190  -2.373 -16.488  1.00  0.00    -0.354 N 
ATOM     68  N   UNL     1      -0.184  -2.413 -15.657  1.00  0.00    -0.248 NA
ATOM     69  C   UNL     1      -2.292  -1.820 -16.347  1.00  0.00     0.031 C 
ATOM     70  C   UNL     1       2.313  -4.409 -16.410  1.00  0.00     0.029 A 
ATOM     71  C   UNL     1       2.106  -3.129 -16.894  1.00  0.00     0.049 A 
ATOM     72  H   UNL     1       3.312  -1.417 -16.691  1.00  0.00     0.167 HD
ATOM     73  C   UNL     1      -0.127  -2.327 -17.028  1.00  0.00     0.074 A 
ATOM     74  C   UNL     1      -1.484  -1.976 -17.410  1.00  0.00     0.031 C 
ATOM     75  C   UNL     1       1.044  -2.543 -17.707  1.00  0.00     0.034 A 
BRANCH  62  76
ATOM     76  C   UNL     1       6.629  -2.961 -15.171  1.00  0.00     0.023 A 
ATOM     77  C   UNL     1       6.912  -4.245 -15.684  1.00  0.00     0.031 A 
ATOM     78  C   UNL     1       7.751  -2.210 -14.776  1.00  0.00     0.131 A 
ATOM     79  C   UNL     1       8.217  -4.771 -15.670  1.00  0.00     0.055 A 
ATOM     80  C   UNL     1       9.040  -2.754 -14.699  1.00  0.00     0.041 A 
ATOM     81  F   UNL     1       7.653  -0.902 -14.495  1.00  0.00    -0.206 F 
ATOM     82  C   UNL     1       9.277  -4.050 -15.130  1.00  0.00     0.022 A 
BRANCH  79  83
ATOM     83  S   UNL     1       8.513  -6.415 -16.379  1.00  0.00     0.124 S 
ATOM     84  O   UNL     1       7.620  -7.260 -15.593  1.00  0.00    -0.237 OA
ATOM     85  O   UNL     1       8.150  -6.216 -17.778  1.00  0.00    -0.237 OA
ATOM     86  O   UNL     1       9.939  -6.636 -16.139  1.00  0.00    -0.744 OA
ENDBRANCH  79  83
ENDBRANCH  62  76
BRANCH  63  87
ATOM     87  C   UNL     1      -2.591  -0.978 -13.152  1.00  0.00     0.023 A 
ATOM     88  C   UNL     1      -3.374  -1.331 -12.032  1.00  0.00     0.031 A 
ATOM     89  C   UNL     1      -2.295   0.377 -13.345  1.00  0.00     0.131 A 
ATOM     90  C   UNL     1      -3.688  -0.376 -11.057  1.00  0.00     0.055 A 
ATOM     91  C   UNL     1      -2.674   1.343 -12.403  1.00  0.00     0.041 A 
ATOM     92  F   UNL     1      -1.529   0.770 -14.374  1.00  0.00    -0.206 F 
ATOM     93  C   UNL     1      -3.332   0.963 -11.232  1.00  0.00     0.022 A 
BRANCH  90  94
ATOM     94  S   UNL     1      -4.309  -0.938  -9.443  1.00  0.00     0.124 S 
ATOM     95  O   UNL     1      -5.745  -0.724  -9.574  1.00  0.00    -0.237 OA
ATOM     96  O   UNL     1      -3.873  -2.332  -9.388  1.00  0.00    -0.237 OA
ATOM     97  O   UNL     1      -3.622  -0.068  -8.491  1.00  0.00    -0.744 OA
ENDBRANCH  90  94
ENDBRANCH  63  87
BRANCH  75  98
ATOM     98  C   UNL     1       1.305  -2.317 -19.192  1.00  0.00     0.023 A 
ATOM     99  C   UNL     1       0.388  -1.730 -20.075  1.00  0.00     0.031 A 
ATOM    100  C   UNL     1       2.556  -2.659 -19.773  1.00  0.00     0.131 A 
ATOM    101  C   UNL     1       0.682  -1.560 -21.444  1.00  0.00     0.055 A 
ATOM    102  C   UNL     1       2.869  -2.438 -21.119  1.00  0.00     0.041 A 
ATOM    103  F   UNL     1       3.545  -3.213 -19.058  1.00  0.00    -0.206 F 
ATOM    104  C   UNL     1       1.924  -1.895 -21.970  1.00  0.00     0.022 A 
BRANCH 101 105
ATOM    105  S   UNL     1      -0.624  -0.923 -22.529  1.00  0.00     0.124 S 
ATOM    106  O   UNL     1      -1.641  -1.966 -22.422  1.00  0.00    -0.237 OA
ATOM    107  O   UNL     1      -0.957   0.351 -21.902  1.00  0.00    -0.237 OA
ATOM    108  O   UNL     1       0.028  -0.823 -23.834  1.00  0.00    -0.744 OA
ENDBRANCH 101 105
ENDBRANCH  75  98
ENDBRANCH  49  50
ENDBRANCH  41  44
ENDBRANCH  39  40
ENDBRANCH   1  39
TORSDOF 16
