REMARK SMILES O=C(NCCCNC(=O)[C@@H]1CC[C@@H](CNC(=O)c2ccc(O)nn2)O1)c1ccc(-c2c3nc(c(-c4cc(S(=O)(=O)[O-])ccc4F)c4ccc([nH]4)c(-c4cc(S(=O)(=O)[O-])ccc4F)c4nc(c(-c5cc(S(=O)(=O)[O-])ccc5F)c5ccc2[nH]5)C=C4)C=C3)cc1
REMARK SMILES IDX 5 1 4 2 3 3 1 4 2 5 26 7 27 8 88 9 28 10 87 11 29 12 30 13
REMARK SMILES IDX 31 14 81 15 32 16 86 17 80 18 82 19 33 20 85 21 79 22 78 23
REMARK SMILES IDX 34 25 66 26 46 27 65 28 47 29 50 30 64 31 83 32 48 33 49 34
REMARK SMILES IDX 63 36 84 37 51 38 35 39 36 40 44 41 37 42 43 43 45 44 42 45
REMARK SMILES IDX 38 46 39 47 40 48 41 49 67 50 68 51 76 52 69 53 75 54 77 55
REMARK SMILES IDX 74 56 70 57 71 58 72 59 73 60 52 61 53 62 61 63 54 64 60 65
REMARK SMILES IDX 62 66 59 67 55 68 56 69 57 70 58 71 6 72 7 73 8 74 9 76
REMARK SMILES IDX 10 77 11 78 25 79 12 80 13 81 14 82 15 83 16 84 17 86 18 87
REMARK SMILES IDX 19 88 24 89 20 90 23 91 21 92 22 93
REMARK H PARENT 3 6 82 24 50 35 7 75 15 85 22 94
REMARK Flexibility Score: inf
ROOT
ATOM      1  C   UNL     1       4.763  -1.042  -2.254  1.00  0.00     0.042 C 
ENDROOT
BRANCH   1   2
ATOM      2  C   UNL     1       4.438   0.163  -1.376  1.00  0.00     0.118 C 
BRANCH   2   3
ATOM      3  N   UNL     1       3.004   0.312  -1.159  1.00  0.00    -0.352 N 
ATOM      4  O   UNL     1       1.043   0.085  -0.085  1.00  0.00    -0.269 OA
ATOM      5  C   UNL     1       2.271   0.180  -0.009  1.00  0.00     0.251 C 
ATOM      6  H   UNL     1       2.482   0.542  -1.962  1.00  0.00     0.163 HD
BRANCH   5   7
ATOM      7  C   UNL     1       2.938   0.149   1.306  1.00  0.00     0.039 A 
ATOM      8  C   UNL     1       3.949   1.065   1.612  1.00  0.00     0.014 A 
ATOM      9  C   UNL     1       2.515  -0.776   2.266  1.00  0.00     0.014 A 
ATOM     10  C   UNL     1       4.613   0.984   2.832  1.00  0.00     0.010 A 
ATOM     11  C   UNL     1       3.147  -0.823   3.511  1.00  0.00     0.010 A 
ATOM     12  C   UNL     1       4.219   0.037   3.791  1.00  0.00    -0.014 A 
BRANCH  12  13
ATOM     13  C   UNL     1       4.918  -0.015   5.097  1.00  0.00     0.031 A 
ATOM     14  C   UNL     1       5.836  -1.156   5.428  1.00  0.00     0.074 A 
ATOM     15  C   UNL     1       4.741   0.993   5.972  1.00  0.00     0.049 A 
ATOM     16  N   UNL     1       6.569  -1.334   6.496  1.00  0.00    -0.248 NA
ATOM     17  C   UNL     1       5.949  -2.236   4.435  1.00  0.00     0.031 C 
ATOM     18  C   UNL     1       3.869   2.147   5.751  1.00  0.00     0.029 A 
ATOM     19  N   UNL     1       5.285   1.216   7.211  1.00  0.00    -0.354 N 
ATOM     20  C   UNL     1       7.234  -2.539   6.304  1.00  0.00     0.074 A 
ATOM     21  C   UNL     1       6.788  -3.070   5.035  1.00  0.00     0.031 C 
ATOM     22  C   UNL     1       3.958   2.970   6.806  1.00  0.00     0.029 A 
ATOM     23  C   UNL     1       4.859   2.385   7.796  1.00  0.00     0.049 A 
ATOM     24  H   UNL     1       5.919   0.597   7.641  1.00  0.00     0.167 HD
ATOM     25  C   UNL     1       8.145  -3.134   7.109  1.00  0.00     0.034 A 
ATOM     26  C   UNL     1       5.157   2.925   8.995  1.00  0.00     0.034 A 
ATOM     27  C   UNL     1       8.580  -2.593   8.371  1.00  0.00     0.049 A 
ATOM     28  C   UNL     1       6.144   2.222   9.888  1.00  0.00     0.074 A 
ATOM     29  C   UNL     1       9.521  -3.113   9.243  1.00  0.00     0.029 A 
ATOM     30  N   UNL     1       8.110  -1.420   8.942  1.00  0.00    -0.354 N 
ATOM     31  N   UNL     1       6.814   1.117   9.662  1.00  0.00    -0.248 NA
ATOM     32  C   UNL     1       6.424   2.836  11.193  1.00  0.00     0.031 C 
ATOM     33  C   UNL     1       9.584  -2.281  10.362  1.00  0.00     0.029 A 
ATOM     34  C   UNL     1       8.725  -1.212  10.165  1.00  0.00     0.049 A 
ATOM     35  H   UNL     1       7.439  -0.824   8.538  1.00  0.00     0.167 HD
ATOM     36  C   UNL     1       7.612   0.917  10.784  1.00  0.00     0.074 A 
ATOM     37  C   UNL     1       7.354   2.024  11.681  1.00  0.00     0.031 C 
ATOM     38  C   UNL     1       8.477  -0.095  11.045  1.00  0.00     0.034 A 
BRANCH  25  39
ATOM     39  C   UNL     1       8.765  -4.431   6.660  1.00  0.00     0.023 A 
ATOM     40  C   UNL     1       8.523  -5.616   7.379  1.00  0.00     0.031 A 
ATOM     41  C   UNL     1       9.701  -4.463   5.612  1.00  0.00     0.131 A 
ATOM     42  C   UNL     1       9.237  -6.777   7.061  1.00  0.00     0.055 A 
ATOM     43  C   UNL     1      10.388  -5.631   5.280  1.00  0.00     0.041 A 
ATOM     44  F   UNL     1       9.960  -3.357   4.896  1.00  0.00    -0.206 F 
ATOM     45  C   UNL     1      10.165  -6.793   6.014  1.00  0.00     0.022 A 
BRANCH  42  46
ATOM     46  S   UNL     1       9.019  -8.302   8.018  1.00  0.00     0.124 S 
ATOM     47  O   UNL     1       8.723  -9.277   6.970  1.00  0.00    -0.237 OA
ATOM     48  O   UNL     1      10.323  -8.449   8.657  1.00  0.00    -0.237 OA
ATOM     49  O   UNL     1       7.906  -7.999   8.910  1.00  0.00    -0.744 OA
ENDBRANCH  42  46
ENDBRANCH  25  39
BRANCH  26  50
ATOM     50  C   UNL     1       4.547   4.230   9.373  1.00  0.00     0.023 A 
ATOM     51  C   UNL     1       3.157   4.354   9.549  1.00  0.00     0.031 A 
ATOM     52  C   UNL     1       5.334   5.390   9.462  1.00  0.00     0.131 A 
ATOM     53  C   UNL     1       2.592   5.620   9.747  1.00  0.00     0.055 A 
ATOM     54  C   UNL     1       4.773   6.641   9.720  1.00  0.00     0.041 A 
ATOM     55  F   UNL     1       6.663   5.319   9.289  1.00  0.00    -0.206 F 
ATOM     56  C   UNL     1       3.393   6.763   9.850  1.00  0.00     0.022 A 
BRANCH  53  57
ATOM     57  S   UNL     1       0.792   5.841   9.780  1.00  0.00     0.124 S 
ATOM     58  O   UNL     1       0.590   6.523  11.055  1.00  0.00    -0.237 OA
ATOM     59  O   UNL     1       0.573   6.655   8.587  1.00  0.00    -0.237 OA
ATOM     60  O   UNL     1       0.276   4.478   9.707  1.00  0.00    -0.744 OA
ENDBRANCH  53  57
ENDBRANCH  26  50
BRANCH  38  61
ATOM     61  C   UNL     1       9.239  -0.076  12.346  1.00  0.00     0.023 A 
ATOM     62  C   UNL     1      10.640   0.057  12.336  1.00  0.00     0.031 A 
ATOM     63  C   UNL     1       8.601  -0.347  13.568  1.00  0.00     0.131 A 
ATOM     64  C   UNL     1      11.364  -0.125  13.521  1.00  0.00     0.055 A 
ATOM     65  C   UNL     1       9.323  -0.485  14.754  1.00  0.00     0.041 A 
ATOM     66  F   UNL     1       7.267  -0.491  13.623  1.00  0.00    -0.206 F 
ATOM     67  C   UNL     1      10.712  -0.388  14.731  1.00  0.00     0.022 A 
BRANCH  64  68
ATOM     68  S   UNL     1      13.177  -0.096  13.523  1.00  0.00     0.124 S 
ATOM     69  O   UNL     1      13.464   0.926  14.527  1.00  0.00    -0.237 OA
ATOM     70  O   UNL     1      13.504  -1.464  13.915  1.00  0.00    -0.237 OA
ATOM     71  O   UNL     1      13.525   0.267  12.153  1.00  0.00    -0.744 OA
ENDBRANCH  64  68
ENDBRANCH  38  61
ENDBRANCH  12  13
ENDBRANCH   5   7
ENDBRANCH   2   3
ENDBRANCH   1   2
BRANCH   1  72
ATOM     72  C   UNL     1       4.163  -0.957  -3.652  1.00  0.00     0.117 C 
BRANCH  72  73
ATOM     73  N   UNL     1       4.771   0.084  -4.459  1.00  0.00    -0.354 N 
ATOM     74  C   UNL     1       5.686  -0.023  -5.466  1.00  0.00     0.249 C 
ATOM     75  H   UNL     1       4.481   1.001  -4.250  1.00  0.00     0.163 HD
ATOM     76  O   UNL     1       6.059   1.014  -6.021  1.00  0.00    -0.272 OA
BRANCH  74  77
ATOM     77  C   UNL     1       6.181  -1.398  -5.944  1.00  0.00     0.207 C 
ATOM     78  C   UNL     1       5.118  -2.149  -6.731  1.00  0.00     0.045 C 
ATOM     79  O   UNL     1       6.636  -2.273  -4.907  1.00  0.00    -0.363 OA
ATOM     80  C   UNL     1       5.550  -3.586  -6.579  1.00  0.00     0.037 C 
ATOM     81  C   UNL     1       6.202  -3.615  -5.202  1.00  0.00     0.138 C 
BRANCH  81  82
ATOM     82  C   UNL     1       7.363  -4.614  -5.078  1.00  0.00     0.148 C 
BRANCH  82  83
ATOM     83  N   UNL     1       8.463  -4.311  -5.988  1.00  0.00    -0.348 N 
ATOM     84  C   UNL     1       9.509  -3.439  -5.785  1.00  0.00     0.271 C 
ATOM     85  H   UNL     1       8.455  -4.785  -6.851  1.00  0.00     0.163 HD
ATOM     86  O   UNL     1      10.158  -3.045  -6.753  1.00  0.00    -0.267 OA
BRANCH  84  87
ATOM     87  C   UNL     1       9.847  -2.962  -4.420  1.00  0.00     0.151 A 
ATOM     88  C   UNL     1      10.169  -1.631  -4.206  1.00  0.00     0.042 A 
ATOM     89  N   UNL     1       9.896  -3.894  -3.434  1.00  0.00    -0.142 NA
ATOM     90  C   UNL     1      10.514  -1.245  -2.917  1.00  0.00     0.072 A 
ATOM     91  N   UNL     1      10.238  -3.513  -2.171  1.00  0.00    -0.112 NA
ATOM     92  C   UNL     1      10.532  -2.219  -1.943  1.00  0.00     0.230 A 
BRANCH  92  93
ATOM     93  O   UNL     1      10.863  -1.901  -0.664  1.00  0.00    -0.492 OA
ATOM     94  H   UNL     1      11.078  -1.017  -0.442  1.00  0.00     0.295 HD
ENDBRANCH  92  93
ENDBRANCH  84  87
ENDBRANCH  82  83
ENDBRANCH  81  82
ENDBRANCH  74  77
ENDBRANCH  72  73
ENDBRANCH   1  72
TORSDOF 17
