REMARK SMILES N#CCC1(C[N@@H+]2CCO[C@H](CC(=O)NCCCNC(=O)c3ccc(-c4c5nc(c(-c6cc(S(=O)(=O)[O-])ccc6F)c6ccc([nH]6)c(-c6cc(S(=O)(=O)[O-])ccc6F)c6nc(c(-c7cc(S(=O)(=O)[O-])ccc7F)c7ccc4[nH]7)C=C6)C=C5)cc3)C2)CC1
REMARK SMILES IDX 15 1 14 2 12 3 13 4 11 6 10 7 6 8 7 9 84 10 8 12 9 13 5 14
REMARK SMILES IDX 4 15 85 16 86 17 3 18 2 19 1 20 16 21 17 22 18 23 19 24
REMARK SMILES IDX 20 26 21 27 22 28 83 29 23 30 82 31 24 32 25 33 26 34 76 35
REMARK SMILES IDX 27 36 81 37 75 38 77 39 28 40 80 41 74 42 73 43 29 45 61 46
REMARK SMILES IDX 41 47 60 48 42 49 45 50 59 51 78 52 43 53 44 54 58 56 79 57
REMARK SMILES IDX 46 58 30 59 31 60 39 61 32 62 38 63 40 64 37 65 33 66 34 67
REMARK SMILES IDX 35 68 36 69 62 70 63 71 71 72 64 73 70 74 72 75 69 76 65 77
REMARK SMILES IDX 66 78 67 79 68 80 47 81 48 82 56 83 49 84 55 85 57 86 54 87
REMARK SMILES IDX 50 88 51 89 52 90 53 91
REMARK H PARENT 14 5 6 11 18 25 77 44 45 55
REMARK Flexibility Score: inf
ROOT
ATOM      1  C   UNL     1       2.113   4.010   3.293  1.00  0.00     0.117 C 
ENDROOT
BRANCH   1   2
ATOM      2  N   UNL     1       3.338   3.533   2.663  1.00  0.00    -0.356 N 
ATOM      3  C   UNL     1       3.728   3.582   1.356  1.00  0.00     0.222 C 
ATOM      4  O   UNL     1       4.901   3.916   1.155  1.00  0.00    -0.275 OA
ATOM      5  H   UNL     1       3.984   3.109   3.275  1.00  0.00     0.163 HD
BRANCH   3   6
ATOM      6  C   UNL     1       2.817   3.279   0.171  1.00  0.00     0.138 C 
BRANCH   6   7
ATOM      7  C   UNL     1       2.135   1.901   0.088  1.00  0.00     0.182 C 
ATOM      8  N   UNL     1       2.505  -1.092   1.699  1.00  0.00    -0.330 N 
ATOM      9  C   UNL     1       2.413  -1.979  -0.014  1.00  0.00     0.291 C 
ATOM     10  C   UNL     1       2.180   0.789   1.748  1.00  0.00     0.295 C 
ATOM     11  H   UNL     1       1.803  -1.601   2.235  1.00  0.00     0.348 HD
ATOM     12  C   UNL     1       2.318  -0.904  -1.748  1.00  0.00     0.222 C 
ATOM     13  O   UNL     1       2.377   1.013  -1.587  1.00  0.00    -0.366 OA
BRANCH   8  14
ATOM     14  C   UNL     1       3.931  -1.079   2.148  1.00  0.00     0.270 C 
BRANCH  14  15
ATOM     15  C   UNL     1       4.563  -0.165   1.173  1.00  0.00     0.032 C 
ATOM     16  C   UNL     1       6.080  -0.317   0.976  1.00  0.00     0.015 C 
ATOM     17  C   UNL     1       5.544   0.992   1.421  1.00  0.00     0.015 C 
BRANCH  15  18
ATOM     18  C   UNL     1       3.708  -0.058  -0.038  1.00  0.00     0.133 C 
BRANCH  18  19
ATOM     19  C   UNL     1       2.188  -0.058  -0.038  1.00  0.00     0.063 C 
ATOM     20  N   UNL     1       0.927  -0.058  -0.038  1.00  0.00    -0.198 NA
ENDBRANCH  18  19
ENDBRANCH  15  18
ENDBRANCH  14  15
ENDBRANCH   8  14
ENDBRANCH   6   7
ENDBRANCH   3   6
ENDBRANCH   1   2
BRANCH   1  21
ATOM     21  C   UNL     1       1.396   3.036   4.238  1.00  0.00     0.042 C 
BRANCH  21  22
ATOM     22  C   UNL     1       2.250   2.220   5.212  1.00  0.00     0.118 C 
BRANCH  22  23
ATOM     23  N   UNL     1       2.850   3.009   6.274  1.00  0.00    -0.352 N 
ATOM     24  C   UNL     1       2.439   3.260   7.563  1.00  0.00     0.251 C 
ATOM     25  H   UNL     1       3.701   3.439   6.029  1.00  0.00     0.163 HD
ATOM     26  O   UNL     1       3.050   4.104   8.217  1.00  0.00    -0.269 OA
BRANCH  24  27
ATOM     27  C   UNL     1       1.270   2.574   8.166  1.00  0.00     0.039 A 
ATOM     28  C   UNL     1       0.372   3.334   8.923  1.00  0.00     0.014 A 
ATOM     29  C   UNL     1       1.083   1.193   8.066  1.00  0.00     0.014 A 
ATOM     30  C   UNL     1      -0.741   2.726   9.516  1.00  0.00     0.010 A 
ATOM     31  C   UNL     1      -0.067   0.599   8.597  1.00  0.00     0.010 A 
ATOM     32  C   UNL     1      -0.994   1.357   9.329  1.00  0.00    -0.014 A 
BRANCH  32  33
ATOM     33  C   UNL     1      -2.227   0.728   9.884  1.00  0.00     0.031 A 
ATOM     34  C   UNL     1      -2.143  -0.363  10.919  1.00  0.00     0.074 A 
ATOM     35  C   UNL     1      -3.432   1.108   9.414  1.00  0.00     0.049 A 
ATOM     36  N   UNL     1      -3.107  -1.032  11.501  1.00  0.00    -0.248 NA
ATOM     37  C   UNL     1      -0.795  -0.778  11.328  1.00  0.00     0.031 C 
ATOM     38  C   UNL     1      -3.648   2.103   8.361  1.00  0.00     0.029 A 
ATOM     39  N   UNL     1      -4.701   0.702   9.748  1.00  0.00    -0.354 N 
ATOM     40  C   UNL     1      -2.483  -1.957  12.334  1.00  0.00     0.074 A 
ATOM     41  C   UNL     1      -1.058  -1.803  12.125  1.00  0.00     0.031 C 
ATOM     42  C   UNL     1      -4.965   2.245   8.152  1.00  0.00     0.029 A 
ATOM     43  C   UNL     1      -5.690   1.325   9.023  1.00  0.00     0.049 A 
ATOM     44  H   UNL     1      -4.885   0.028  10.442  1.00  0.00     0.167 HD
ATOM     45  C   UNL     1      -3.044  -2.834  13.208  1.00  0.00     0.034 A 
ATOM     46  C   UNL     1      -7.029   1.170   9.044  1.00  0.00     0.034 A 
ATOM     47  C   UNL     1      -4.469  -2.973  13.402  1.00  0.00     0.049 A 
ATOM     48  C   UNL     1      -7.634   0.199  10.022  1.00  0.00     0.074 A 
ATOM     49  C   UNL     1      -5.145  -3.770  14.311  1.00  0.00     0.029 A 
ATOM     50  N   UNL     1      -5.444  -2.313  12.660  1.00  0.00    -0.354 N 
ATOM     51  N   UNL     1      -7.032  -0.604  10.870  1.00  0.00    -0.248 NA
ATOM     52  C   UNL     1      -9.099   0.129  10.061  1.00  0.00     0.031 C 
ATOM     53  C   UNL     1      -6.519  -3.653  14.065  1.00  0.00     0.029 A 
ATOM     54  C   UNL     1      -6.710  -2.717  13.061  1.00  0.00     0.049 A 
ATOM     55  H   UNL     1      -5.261  -1.655  11.951  1.00  0.00     0.167 HD
ATOM     56  C   UNL     1      -8.048  -1.266  11.553  1.00  0.00     0.074 A 
ATOM     57  C   UNL     1      -9.299  -0.743  11.038  1.00  0.00     0.031 C 
ATOM     58  C   UNL     1      -7.955  -2.219  12.517  1.00  0.00     0.034 A 
BRANCH  45  59
ATOM     59  C   UNL     1      -2.104  -3.730  13.988  1.00  0.00     0.023 A 
ATOM     60  C   UNL     1      -1.116  -3.205  14.842  1.00  0.00     0.031 A 
ATOM     61  C   UNL     1      -2.158  -5.128  13.838  1.00  0.00     0.131 A 
ATOM     62  C   UNL     1      -0.161  -4.055  15.422  1.00  0.00     0.055 A 
ATOM     63  C   UNL     1      -1.264  -5.977  14.497  1.00  0.00     0.041 A 
ATOM     64  F   UNL     1      -3.065  -5.695  13.028  1.00  0.00    -0.206 F 
ATOM     65  C   UNL     1      -0.244  -5.440  15.276  1.00  0.00     0.022 A 
BRANCH  62  66
ATOM     66  S   UNL     1       1.295  -3.308  16.207  1.00  0.00     0.124 S 
ATOM     67  O   UNL     1       1.824  -2.483  15.125  1.00  0.00    -0.237 OA
ATOM     68  O   UNL     1       0.713  -2.592  17.334  1.00  0.00    -0.237 OA
ATOM     69  O   UNL     1       2.123  -4.463  16.559  1.00  0.00    -0.744 OA
ENDBRANCH  62  66
ENDBRANCH  45  59
BRANCH  46  70
ATOM     70  C   UNL     1      -7.881   1.943   8.095  1.00  0.00     0.023 A 
ATOM     71  C   UNL     1      -8.770   2.932   8.544  1.00  0.00     0.031 A 
ATOM     72  C   UNL     1      -7.814   1.696   6.711  1.00  0.00     0.131 A 
ATOM     73  C   UNL     1      -9.576   3.619   7.622  1.00  0.00     0.055 A 
ATOM     74  C   UNL     1      -8.582   2.414   5.794  1.00  0.00     0.041 A 
ATOM     75  F   UNL     1      -6.974   0.765   6.229  1.00  0.00    -0.206 F 
ATOM     76  C   UNL     1      -9.476   3.377   6.249  1.00  0.00     0.022 A 
BRANCH  73  77
ATOM     77  S   UNL     1     -10.798   4.806   8.244  1.00  0.00     0.124 S 
ATOM     78  O   UNL     1     -11.638   3.958   9.083  1.00  0.00    -0.237 OA
ATOM     79  O   UNL     1      -9.956   5.769   8.946  1.00  0.00    -0.237 OA
ATOM     80  O   UNL     1     -11.434   5.309   7.029  1.00  0.00    -0.744 OA
ENDBRANCH  73  77
ENDBRANCH  46  70
BRANCH  58  81
ATOM     81  C   UNL     1      -9.255  -2.742  13.085  1.00  0.00     0.023 A 
ATOM     82  C   UNL     1     -10.178  -3.447  12.290  1.00  0.00     0.031 A 
ATOM     83  C   UNL     1      -9.595  -2.499  14.428  1.00  0.00     0.131 A 
ATOM     84  C   UNL     1     -11.422  -3.818  12.823  1.00  0.00     0.055 A 
ATOM     85  C   UNL     1     -10.805  -2.934  14.972  1.00  0.00     0.041 A 
ATOM     86  F   UNL     1      -8.759  -1.826  15.235  1.00  0.00    -0.206 F 
ATOM     87  C   UNL     1     -11.734  -3.582  14.164  1.00  0.00     0.022 A 
BRANCH  84  88
ATOM     88  S   UNL     1     -12.679  -4.497  11.705  1.00  0.00     0.124 S 
ATOM     89  O   UNL     1     -12.792  -3.445  10.700  1.00  0.00    -0.237 OA
ATOM     90  O   UNL     1     -12.061  -5.741  11.259  1.00  0.00    -0.237 OA
ATOM     91  O   UNL     1     -13.850  -4.661  12.565  1.00  0.00    -0.744 OA
ENDBRANCH  84  88
ENDBRANCH  58  81
ENDBRANCH  32  33
ENDBRANCH  24  27
ENDBRANCH  22  23
ENDBRANCH  21  22
ENDBRANCH   1  21
TORSDOF 18
