REMARK SMILES Cc1cc(Br)cc2c1O[C@H](C(F)(F)F)C(C(=O)NCCCNC(=O)c1ccc(-c3c4nc(c(-c5cc(S(=O)(=O)[O-])ccc5F)c5ccc([nH]5)c(-c5cc(S(=O)(=O)[O-])ccc5F)c5nc(c(-c6cc(S(=O)(=O)[O-])ccc6F)c6ccc3[nH]6)C=C5)C=C4)cc1)=C2
REMARK SMILES IDX 21 1 20 2 19 3 18 4 16 5 17 6 15 8 1 9 2 10 3 11 8 12 4 13
REMARK SMILES IDX 7 14 9 15 5 16 6 17 88 18 10 19 11 20 12 21 13 22 14 23
REMARK SMILES IDX 22 24 23 25 24 27 25 28 26 29 87 30 27 31 86 32 28 33 29 34
REMARK SMILES IDX 30 35 80 36 31 37 85 38 79 39 81 40 32 41 84 42 78 43 77 44
REMARK SMILES IDX 33 46 65 47 45 48 64 49 46 50 49 51 63 52 82 53 47 54 48 55
REMARK SMILES IDX 62 57 83 58 50 59 34 60 35 61 43 62 36 63 42 64 44 65 41 66
REMARK SMILES IDX 37 67 38 68 39 69 40 70 66 71 67 72 75 73 68 74 74 75 76 76
REMARK SMILES IDX 73 77 69 78 70 79 71 80 72 81 51 82 52 83 60 84 53 85 59 86
REMARK SMILES IDX 61 87 58 88 54 89 55 90 56 91 57 92
REMARK H PARENT 18 7 22 26 81 45 49 56
REMARK Flexibility Score: inf
ROOT
ATOM      1  C   UNL     1       3.719  -6.784   5.102  1.00  0.00     0.118 C 
ENDROOT
BRANCH   1   2
ATOM      2  C   UNL     1       3.296  -5.531   4.346  1.00  0.00     0.042 C 
BRANCH   2   3
ATOM      3  C   UNL     1       3.910  -5.468   2.956  1.00  0.00     0.118 C 
BRANCH   3   4
ATOM      4  N   UNL     1       3.207  -6.321   2.009  1.00  0.00    -0.352 N 
ATOM      5  C   UNL     1       2.380  -6.157   0.950  1.00  0.00     0.251 C 
ATOM      6  O   UNL     1       2.015  -7.200   0.398  1.00  0.00    -0.270 OA
ATOM      7  H   UNL     1       3.381  -7.274   2.186  1.00  0.00     0.163 HD
BRANCH   5   8
ATOM      8  C   UNL     1       1.909  -4.842   0.429  1.00  0.00     0.067 C 
ATOM      9  C   UNL     1       0.725   0.078  -0.312  1.00  0.00     0.048 C 
ATOM     10  C   UNL     1       0.379  -1.205  -1.012  1.00  0.00    -0.007 A 
ATOM     11  C   UNL     1      -0.385  -1.202  -2.184  1.00  0.00     0.023 A 
ATOM     12  C   UNL     1       0.830  -2.431  -0.505  1.00  0.00     0.130 A 
ATOM     13  C   UNL     1      -0.689  -2.405  -2.823  1.00  0.00     0.019 A 
ATOM     14  C   UNL     1       0.530  -3.638  -1.146  1.00  0.00     0.019 A 
ATOM     15  O   UNL     1       1.533  -2.393   0.665  1.00  0.00    -0.475 OA
ATOM     16  Br  UNL     1      -1.731  -2.383  -4.402  1.00  0.00    -0.051 Br
ATOM     17  C   UNL     1      -0.238  -3.623  -2.312  1.00  0.00     0.027 A 
ATOM     18  C   UNL     1       1.005  -4.891  -0.568  1.00  0.00     0.025 C 
ATOM     19  C   UNL     1       2.409  -3.518   0.927  1.00  0.00     0.314 C 
BRANCH  19  20
ATOM     20  C   UNL     1       3.824  -3.185   0.417  1.00  0.00     0.429 C 
ATOM     21  F   UNL     1       4.381  -2.202   1.168  1.00  0.00    -0.167 F 
ATOM     22  F   UNL     1       4.668  -4.242   0.483  1.00  0.00    -0.167 F 
ATOM     23  F   UNL     1       3.830  -2.764  -0.868  1.00  0.00    -0.167 F 
ENDBRANCH  19  20
ENDBRANCH   5   8
ENDBRANCH   3   4
ENDBRANCH   2   3
ENDBRANCH   1   2
BRANCH   1  24
ATOM     24  N   UNL     1       5.160  -6.808   5.340  1.00  0.00    -0.352 N 
ATOM     25  C   UNL     1       5.869  -6.578   6.492  1.00  0.00     0.251 C 
ATOM     26  H   UNL     1       5.708  -7.022   4.551  1.00  0.00     0.163 HD
ATOM     27  O   UNL     1       7.074  -6.340   6.422  1.00  0.00    -0.269 OA
BRANCH  25  28
ATOM     28  C   UNL     1       5.186  -6.613   7.799  1.00  0.00     0.039 A 
ATOM     29  C   UNL     1       5.539  -5.691   8.786  1.00  0.00     0.014 A 
ATOM     30  C   UNL     1       4.211  -7.580   8.056  1.00  0.00     0.014 A 
ATOM     31  C   UNL     1       4.864  -5.700  10.008  1.00  0.00     0.010 A 
ATOM     32  C   UNL     1       3.472  -7.523   9.229  1.00  0.00     0.010 A 
ATOM     33  C   UNL     1       3.802  -6.593  10.223  1.00  0.00    -0.014 A 
BRANCH  33  34
ATOM     34  C   UNL     1       3.044  -6.603  11.498  1.00  0.00     0.031 A 
ATOM     35  C   UNL     1       3.070  -7.831  12.367  1.00  0.00     0.074 A 
ATOM     36  C   UNL     1       2.298  -5.535  11.838  1.00  0.00     0.049 A 
ATOM     37  N   UNL     1       2.411  -8.074  13.469  1.00  0.00    -0.248 NA
ATOM     38  C   UNL     1       3.926  -8.944  11.924  1.00  0.00     0.031 C 
ATOM     39  C   UNL     1       2.174  -4.304  11.052  1.00  0.00     0.029 A 
ATOM     40  N   UNL     1       1.503  -5.308  12.933  1.00  0.00    -0.354 N 
ATOM     41  C   UNL     1       2.764  -9.365  13.843  1.00  0.00     0.074 A 
ATOM     42  C   UNL     1       3.644  -9.880  12.818  1.00  0.00     0.031 C 
ATOM     43  C   UNL     1       1.387  -3.438  11.711  1.00  0.00     0.029 A 
ATOM     44  C   UNL     1       0.910  -4.067  12.939  1.00  0.00     0.049 A 
ATOM     45  H   UNL     1       1.370  -5.972  13.648  1.00  0.00     0.167 HD
ATOM     46  C   UNL     1       2.412 -10.047  14.958  1.00  0.00     0.034 A 
ATOM     47  C   UNL     1       0.072  -3.503  13.830  1.00  0.00     0.034 A 
ATOM     48  C   UNL     1       1.563  -9.508  15.987  1.00  0.00     0.049 A 
ATOM     49  C   UNL     1      -0.327  -4.293  15.049  1.00  0.00     0.074 A 
ATOM     50  C   UNL     1       1.184 -10.094  17.181  1.00  0.00     0.029 A 
ATOM     51  N   UNL     1       0.965  -8.256  15.946  1.00  0.00    -0.354 N 
ATOM     52  N   UNL     1       0.032  -5.507  15.396  1.00  0.00    -0.248 NA
ATOM     53  C   UNL     1      -1.241  -3.640  15.995  1.00  0.00     0.031 C 
ATOM     54  C   UNL     1       0.308  -9.222  17.834  1.00  0.00     0.029 A 
ATOM     55  C   UNL     1       0.196  -8.063  17.081  1.00  0.00     0.049 A 
ATOM     56  H   UNL     1       1.071  -7.602  15.218  1.00  0.00     0.167 HD
ATOM     57  C   UNL     1      -0.599  -5.757  16.610  1.00  0.00     0.074 A 
ATOM     58  C   UNL     1      -1.352  -4.564  16.941  1.00  0.00     0.031 C 
ATOM     59  C   UNL     1      -0.557  -6.870  17.383  1.00  0.00     0.034 A 
BRANCH  46  60
ATOM     60  C   UNL     1       2.942 -11.447  15.121  1.00  0.00     0.023 A 
ATOM     61  C   UNL     1       4.311 -11.694  15.323  1.00  0.00     0.031 A 
ATOM     62  C   UNL     1       2.066 -12.547  15.100  1.00  0.00     0.131 A 
ATOM     63  C   UNL     1       4.771 -13.012  15.453  1.00  0.00     0.055 A 
ATOM     64  C   UNL     1       2.522 -13.851  15.295  1.00  0.00     0.041 A 
ATOM     65  F   UNL     1       0.752 -12.369  14.890  1.00  0.00    -0.206 F 
ATOM     66  C   UNL     1       3.882 -14.091  15.466  1.00  0.00     0.022 A 
BRANCH  63  67
ATOM     67  S   UNL     1       6.558 -13.305  15.529  1.00  0.00     0.124 S 
ATOM     68  O   UNL     1       6.984 -12.861  14.204  1.00  0.00    -0.237 OA
ATOM     69  O   UNL     1       6.971 -12.465  16.647  1.00  0.00    -0.237 OA
ATOM     70  O   UNL     1       6.659 -14.745  15.761  1.00  0.00    -0.744 OA
ENDBRANCH  63  67
ENDBRANCH  46  60
BRANCH  47  71
ATOM     71  C   UNL     1      -0.443  -2.124  13.603  1.00  0.00     0.023 A 
ATOM     72  C   UNL     1      -0.051  -1.063  14.433  1.00  0.00     0.031 A 
ATOM     73  C   UNL     1      -1.331  -1.847  12.548  1.00  0.00     0.131 A 
ATOM     74  C   UNL     1      -0.564   0.225  14.209  1.00  0.00     0.055 A 
ATOM     75  C   UNL     1      -1.807  -0.557  12.305  1.00  0.00     0.041 A 
ATOM     76  F   UNL     1      -1.728  -2.826  11.720  1.00  0.00    -0.206 F 
ATOM     77  C   UNL     1      -1.428   0.487  13.143  1.00  0.00     0.022 A 
BRANCH  74  78
ATOM     78  S   UNL     1      -0.108   1.555  15.355  1.00  0.00     0.124 S 
ATOM     79  O   UNL     1      -0.684   1.077  16.607  1.00  0.00    -0.237 OA
ATOM     80  O   UNL     1       1.348   1.543  15.271  1.00  0.00    -0.237 OA
ATOM     81  O   UNL     1      -0.752   2.734  14.780  1.00  0.00    -0.744 OA
ENDBRANCH  74  78
ENDBRANCH  47  71
BRANCH  59  82
ATOM     82  C   UNL     1      -1.331  -6.848  18.673  1.00  0.00     0.023 A 
ATOM     83  C   UNL     1      -2.735  -6.896  18.683  1.00  0.00     0.031 A 
ATOM     84  C   UNL     1      -0.654  -6.840  19.905  1.00  0.00     0.131 A 
ATOM     85  C   UNL     1      -3.421  -6.907  19.905  1.00  0.00     0.055 A 
ATOM     86  C   UNL     1      -1.340  -6.901  21.117  1.00  0.00     0.041 A 
ATOM     87  F   UNL     1       0.687  -6.800  19.946  1.00  0.00    -0.206 F 
ATOM     88  C   UNL     1      -2.732  -6.930  21.122  1.00  0.00     0.022 A 
BRANCH  85  89
ATOM     89  S   UNL     1      -5.232  -6.858  19.886  1.00  0.00     0.124 S 
ATOM     90  O   UNL     1      -5.492  -5.555  19.281  1.00  0.00    -0.237 OA
ATOM     91  O   UNL     1      -5.571  -8.019  19.070  1.00  0.00    -0.237 OA
ATOM     92  O   UNL     1      -5.593  -6.968  21.298  1.00  0.00    -0.744 OA
ENDBRANCH  85  89
ENDBRANCH  59  82
ENDBRANCH  33  34
ENDBRANCH  25  28
ENDBRANCH   1  24
TORSDOF 14
