REMARK SMILES O=C(NCCCNC(=O)C(Cl)(c1ccccc1)c1ccccc1)c1ccc(-c2c3nc(c(-c4cc(S(=O)(=O)[O-])ccc4F)c4ccc([nH]4)c(-c4cc(S(=O)(=O)[O-])ccc4F)c4nc(c(-c5cc(S(=O)(=O)[O-])ccc5F)c5ccc2[nH]5)C=C4)C=C3)cc1
REMARK SMILES IDX 4 1 3 2 1 3 2 4 24 6 25 7 86 8 26 9 85 10 27 11 28 12 29 13
REMARK SMILES IDX 79 14 30 15 84 16 78 17 80 18 31 19 83 20 77 21 76 22 32 24
REMARK SMILES IDX 64 25 44 26 63 27 45 28 48 29 62 30 81 31 46 32 47 33 61 35
REMARK SMILES IDX 82 36 49 37 33 38 34 39 42 40 35 41 41 42 43 43 40 44 36 45
REMARK SMILES IDX 37 46 38 47 39 48 65 49 66 50 74 51 67 52 73 53 75 54 72 55
REMARK SMILES IDX 68 56 69 57 70 58 71 59 50 60 51 61 59 62 52 63 58 64 60 65
REMARK SMILES IDX 57 66 53 67 54 68 55 69 56 70 5 71 6 72 7 73 8 74 9 76 10 77
REMARK SMILES IDX 11 78 12 79 13 80 17 81 14 82 16 83 15 84 18 85 19 86 23 87
REMARK SMILES IDX 20 88 22 89 21 90
REMARK H PARENT 3 5 80 23 48 34 7 75
REMARK Flexibility Score: inf
ROOT
ATOM      1  C   UNL     1       4.581  -0.731  -0.921  1.00  0.00     0.118 C 
ENDROOT
BRANCH   1   2
ATOM      2  N   UNL     1       3.150  -0.450  -0.900  1.00  0.00    -0.352 N 
ATOM      3  O   UNL     1       1.172   0.230  -0.061  1.00  0.00    -0.269 OA
ATOM      4  C   UNL     1       2.393   0.227   0.032  1.00  0.00     0.251 C 
ATOM      5  H   UNL     1       2.646  -0.797  -1.671  1.00  0.00     0.163 HD
BRANCH   4   6
ATOM      6  C   UNL     1       3.059   0.923   1.155  1.00  0.00     0.039 A 
ATOM      7  C   UNL     1       4.208   1.681   0.936  1.00  0.00     0.014 A 
ATOM      8  C   UNL     1       2.540   0.798   2.447  1.00  0.00     0.014 A 
ATOM      9  C   UNL     1       4.947   2.136   2.019  1.00  0.00     0.010 A 
ATOM     10  C   UNL     1       3.227   1.359   3.529  1.00  0.00     0.010 A 
ATOM     11  C   UNL     1       4.466   1.988   3.330  1.00  0.00    -0.014 A 
BRANCH  11  12
ATOM     12  C   UNL     1       5.279   2.520   4.457  1.00  0.00     0.031 A 
ATOM     13  C   UNL     1       5.833   1.605   5.519  1.00  0.00     0.074 A 
ATOM     14  C   UNL     1       5.573   3.835   4.477  1.00  0.00     0.049 A 
ATOM     15  N   UNL     1       6.604   1.895   6.537  1.00  0.00    -0.248 NA
ATOM     16  C   UNL     1       5.461   0.186   5.437  1.00  0.00     0.031 C 
ATOM     17  C   UNL     1       5.087   4.819   3.505  1.00  0.00     0.029 A 
ATOM     18  N   UNL     1       6.375   4.568   5.312  1.00  0.00    -0.354 N 
ATOM     19  C   UNL     1       6.785   0.704   7.234  1.00  0.00     0.074 A 
ATOM     20  C   UNL     1       6.018  -0.305   6.536  1.00  0.00     0.031 C 
ATOM     21  C   UNL     1       5.661   6.004   3.752  1.00  0.00     0.029 A 
ATOM     22  C   UNL     1       6.493   5.888   4.942  1.00  0.00     0.049 A 
ATOM     23  H   UNL     1       6.824   4.187   6.101  1.00  0.00     0.167 HD
ATOM     24  C   UNL     1       7.527   0.476   8.348  1.00  0.00     0.034 A 
ATOM     25  C   UNL     1       7.184   6.899   5.503  1.00  0.00     0.034 A 
ATOM     26  C   UNL     1       8.306   1.493   9.017  1.00  0.00     0.049 A 
ATOM     27  C   UNL     1       7.994   6.620   6.738  1.00  0.00     0.074 A 
ATOM     28  C   UNL     1       9.124   1.363  10.127  1.00  0.00     0.029 A 
ATOM     29  N   UNL     1       8.362   2.830   8.642  1.00  0.00    -0.354 N 
ATOM     30  N   UNL     1       8.160   5.485   7.378  1.00  0.00    -0.248 NA
ATOM     31  C   UNL     1       8.708   7.758   7.326  1.00  0.00     0.031 C 
ATOM     32  C   UNL     1       9.623   2.629  10.458  1.00  0.00     0.029 A 
ATOM     33  C   UNL     1       9.176   3.539   9.514  1.00  0.00     0.049 A 
ATOM     34  H   UNL     1       7.893   3.218   7.869  1.00  0.00     0.167 HD
ATOM     35  C   UNL     1       9.012   5.772   8.438  1.00  0.00     0.074 A 
ATOM     36  C   UNL     1       9.344   7.179   8.334  1.00  0.00     0.031 C 
ATOM     37  C   UNL     1       9.479   4.948   9.410  1.00  0.00     0.034 A 
BRANCH  24  38
ATOM     38  C   UNL     1       7.484  -0.913   8.942  1.00  0.00     0.023 A 
ATOM     39  C   UNL     1       7.979  -2.036   8.255  1.00  0.00     0.031 A 
ATOM     40  C   UNL     1       6.913  -1.121  10.211  1.00  0.00     0.131 A 
ATOM     41  C   UNL     1       7.828  -3.319   8.807  1.00  0.00     0.055 A 
ATOM     42  C   UNL     1       6.835  -2.390  10.789  1.00  0.00     0.041 A 
ATOM     43  F   UNL     1       6.406  -0.091  10.908  1.00  0.00    -0.206 F 
ATOM     44  C   UNL     1       7.281  -3.501  10.079  1.00  0.00     0.022 A 
BRANCH  41  45
ATOM     45  S   UNL     1       8.224  -4.760   7.778  1.00  0.00     0.124 S 
ATOM     46  O   UNL     1       7.357  -4.546   6.622  1.00  0.00    -0.237 OA
ATOM     47  O   UNL     1       9.654  -4.596   7.544  1.00  0.00    -0.237 OA
ATOM     48  O   UNL     1       7.855  -5.896   8.620  1.00  0.00    -0.744 OA
ENDBRANCH  41  45
ENDBRANCH  24  38
BRANCH  25  49
ATOM     49  C   UNL     1       7.124   8.265   4.914  1.00  0.00     0.023 A 
ATOM     50  C   UNL     1       8.266   8.871   4.370  1.00  0.00     0.031 A 
ATOM     51  C   UNL     1       5.920   8.993   4.902  1.00  0.00     0.131 A 
ATOM     52  C   UNL     1       8.190  10.179   3.866  1.00  0.00     0.055 A 
ATOM     53  C   UNL     1       5.837  10.273   4.353  1.00  0.00     0.041 A 
ATOM     54  F   UNL     1       4.797   8.456   5.404  1.00  0.00    -0.206 F 
ATOM     55  C   UNL     1       6.980  10.878   3.841  1.00  0.00     0.022 A 
BRANCH  52  56
ATOM     56  S   UNL     1       9.714  10.984   3.304  1.00  0.00     0.124 S 
ATOM     57  O   UNL     1      10.541  10.929   4.504  1.00  0.00    -0.237 OA
ATOM     58  O   UNL     1      10.124  10.120   2.202  1.00  0.00    -0.237 OA
ATOM     59  O   UNL     1       9.269  12.320   2.913  1.00  0.00    -0.744 OA
ENDBRANCH  52  56
ENDBRANCH  25  49
BRANCH  37  60
ATOM     60  C   UNL     1      10.425   5.559  10.413  1.00  0.00     0.023 A 
ATOM     61  C   UNL     1       9.997   6.537  11.328  1.00  0.00     0.031 A 
ATOM     62  C   UNL     1      11.782   5.191  10.421  1.00  0.00     0.131 A 
ATOM     63  C   UNL     1      10.931   7.162  12.168  1.00  0.00     0.055 A 
ATOM     64  C   UNL     1      12.694   5.774  11.301  1.00  0.00     0.041 A 
ATOM     65  F   UNL     1      12.243   4.264   9.566  1.00  0.00    -0.206 F 
ATOM     66  C   UNL     1      12.274   6.777  12.170  1.00  0.00     0.022 A 
BRANCH  63  67
ATOM     67  S   UNL     1      10.386   8.563  13.184  1.00  0.00     0.124 S 
ATOM     68  O   UNL     1       9.859   9.480  12.178  1.00  0.00    -0.237 OA
ATOM     69  O   UNL     1       9.399   7.946  14.063  1.00  0.00    -0.237 OA
ATOM     70  O   UNL     1      11.613   9.006  13.844  1.00  0.00    -0.744 OA
ENDBRANCH  63  67
ENDBRANCH  37  60
ENDBRANCH  11  12
ENDBRANCH   4   6
ENDBRANCH   1   2
BRANCH   1  71
ATOM     71  C   UNL     1       4.905  -2.216  -0.846  1.00  0.00     0.042 C 
BRANCH  71  72
ATOM     72  C   UNL     1       4.400  -3.021  -2.032  1.00  0.00     0.117 C 
BRANCH  72  73
ATOM     73  N   UNL     1       4.963  -2.566  -3.296  1.00  0.00    -0.354 N 
ATOM     74  C   UNL     1       5.620  -3.255  -4.284  1.00  0.00     0.250 C 
ATOM     75  H   UNL     1       4.854  -1.603  -3.470  1.00  0.00     0.163 HD
ATOM     76  O   UNL     1       5.790  -2.613  -5.330  1.00  0.00    -0.272 OA
BRANCH  74  77
ATOM     77  C   UNL     1       6.051  -4.770  -4.120  1.00  0.00     0.173 C 
ATOM     78  Cl  UNL     1       7.144  -4.779  -2.629  1.00  0.00    -0.098 Cl
BRANCH  77  79
ATOM     79  C   UNL     1       4.811  -5.667  -3.868  1.00  0.00    -0.013 A 
ATOM     80  C   UNL     1       3.534  -5.290  -4.339  1.00  0.00     0.006 A 
ATOM     81  C   UNL     1       4.903  -6.876  -3.149  1.00  0.00     0.006 A 
ATOM     82  C   UNL     1       2.395  -6.035  -4.022  1.00  0.00     0.000 A 
ATOM     83  C   UNL     1       3.767  -7.636  -2.862  1.00  0.00     0.000 A 
ATOM     84  C   UNL     1       2.512  -7.205  -3.281  1.00  0.00     0.000 A 
ENDBRANCH  77  79
BRANCH  77  85
ATOM     85  C   UNL     1       6.977  -5.252  -5.271  1.00  0.00    -0.013 A 
ATOM     86  C   UNL     1       6.863  -6.526  -5.860  1.00  0.00     0.006 A 
ATOM     87  C   UNL     1       8.052  -4.443  -5.703  1.00  0.00     0.006 A 
ATOM     88  C   UNL     1       7.778  -6.967  -6.823  1.00  0.00     0.000 A 
ATOM     89  C   UNL     1       8.956  -4.877  -6.676  1.00  0.00     0.000 A 
ATOM     90  C   UNL     1       8.823  -6.144  -7.231  1.00  0.00     0.000 A 
ENDBRANCH  77  85
ENDBRANCH  74  77
ENDBRANCH  72  73
ENDBRANCH  71  72
ENDBRANCH   1  71
TORSDOF 15
