REMARK SMILES O=C(NCCCNC(=O)c1ccc(-n2cnc3ccccc32)nc1)c1ccc(-c2c3nc(c(-c4cc(S(=O)(=O)[O-])ccc4F)c4ccc([nH]4)c(-c4cc(S(=O)(=O)[O-])ccc4F)c4nc(c(-c5cc(S(=O)(=O)[O-])ccc5F)c5ccc2[nH]5)C=C4)C=C3)cc1
REMARK SMILES IDX 4 1 3 2 1 3 2 4 25 6 26 7 87 8 27 9 86 10 28 11 29 12 30 13
REMARK SMILES IDX 80 14 31 15 85 16 79 17 81 18 32 19 84 20 78 21 77 22 33 24
REMARK SMILES IDX 65 25 45 26 64 27 46 28 49 29 63 30 82 31 47 32 48 33 62 35
REMARK SMILES IDX 83 36 50 37 34 38 35 39 43 40 36 41 42 42 44 43 41 44 37 45
REMARK SMILES IDX 38 46 39 47 40 48 66 49 67 50 75 51 68 52 74 53 76 54 73 55
REMARK SMILES IDX 69 56 70 57 71 58 72 59 51 60 52 61 60 62 53 63 59 64 61 65
REMARK SMILES IDX 58 66 54 67 55 68 56 69 57 70 5 71 6 72 7 73 8 74 9 76 10 77
REMARK SMILES IDX 11 78 24 79 12 80 23 81 13 82 14 83 15 84 22 85 16 86 17 87
REMARK SMILES IDX 21 88 18 89 20 90 19 91
REMARK H PARENT 3 5 81 23 49 34 7 75
REMARK Flexibility Score: inf
ROOT
ATOM      1  C   UNL     1       4.348   0.048  -1.438  1.00  0.00     0.118 C 
ENDROOT
BRANCH   1   2
ATOM      2  N   UNL     1       2.911  -0.199  -1.214  1.00  0.00    -0.352 N 
ATOM      3  O   UNL     1       1.095  -0.517   0.131  1.00  0.00    -0.269 OA
ATOM      4  C   UNL     1       2.186  -0.024  -0.032  1.00  0.00     0.251 C 
ATOM      5  H   UNL     1       2.401  -0.527  -1.990  1.00  0.00     0.163 HD
BRANCH   4   6
ATOM      6  C   UNL     1       2.817   0.821   1.002  1.00  0.00     0.039 A 
ATOM      7  C   UNL     1       2.998   0.409   2.324  1.00  0.00     0.014 A 
ATOM      8  C   UNL     1       3.422   1.964   0.519  1.00  0.00     0.014 A 
ATOM      9  C   UNL     1       3.909   1.115   3.114  1.00  0.00     0.010 A 
ATOM     10  C   UNL     1       4.526   2.414   1.179  1.00  0.00     0.010 A 
ATOM     11  C   UNL     1       4.709   2.102   2.516  1.00  0.00    -0.014 A 
BRANCH  11  12
ATOM     12  C   UNL     1       5.777   2.808   3.221  1.00  0.00     0.031 A 
ATOM     13  C   UNL     1       6.672   1.968   4.060  1.00  0.00     0.074 A 
ATOM     14  C   UNL     1       6.065   4.112   2.991  1.00  0.00     0.049 A 
ATOM     15  N   UNL     1       6.703   1.911   5.350  1.00  0.00    -0.248 NA
ATOM     16  C   UNL     1       7.528   0.972   3.402  1.00  0.00     0.031 C 
ATOM     17  C   UNL     1       5.502   5.030   1.984  1.00  0.00     0.029 A 
ATOM     18  N   UNL     1       7.032   4.878   3.558  1.00  0.00    -0.354 N 
ATOM     19  C   UNL     1       7.735   1.035   5.677  1.00  0.00     0.074 A 
ATOM     20  C   UNL     1       8.066   0.348   4.453  1.00  0.00     0.031 C 
ATOM     21  C   UNL     1       6.311   6.098   1.828  1.00  0.00     0.029 A 
ATOM     22  C   UNL     1       7.295   6.063   2.886  1.00  0.00     0.049 A 
ATOM     23  H   UNL     1       7.507   4.614   4.379  1.00  0.00     0.167 HD
ATOM     24  C   UNL     1       8.375   1.108   6.882  1.00  0.00     0.034 A 
ATOM     25  C   UNL     1       8.246   6.980   3.176  1.00  0.00     0.034 A 
ATOM     26  C   UNL     1       7.672   1.988   7.782  1.00  0.00     0.049 A 
ATOM     27  C   UNL     1       8.651   6.768   4.584  1.00  0.00     0.074 A 
ATOM     28  C   UNL     1       6.417   1.988   8.355  1.00  0.00     0.029 A 
ATOM     29  N   UNL     1       8.137   3.279   7.889  1.00  0.00    -0.354 N 
ATOM     30  N   UNL     1       7.873   7.005   5.604  1.00  0.00    -0.248 NA
ATOM     31  C   UNL     1       9.746   5.845   4.834  1.00  0.00     0.031 C 
ATOM     32  C   UNL     1       6.007   3.352   8.340  1.00  0.00     0.029 A 
ATOM     33  C   UNL     1       7.057   4.124   7.836  1.00  0.00     0.049 A 
ATOM     34  H   UNL     1       9.079   3.549   7.988  1.00  0.00     0.167 HD
ATOM     35  C   UNL     1       8.082   5.930   6.455  1.00  0.00     0.074 A 
ATOM     36  C   UNL     1       9.325   5.316   5.986  1.00  0.00     0.031 C 
ATOM     37  C   UNL     1       7.087   5.461   7.268  1.00  0.00     0.034 A 
BRANCH  24  38
ATOM     38  C   UNL     1       9.798   0.668   7.140  1.00  0.00     0.023 A 
ATOM     39  C   UNL     1      10.698   0.331   6.114  1.00  0.00     0.031 A 
ATOM     40  C   UNL     1      10.360   0.784   8.430  1.00  0.00     0.131 A 
ATOM     41  C   UNL     1      12.061   0.122   6.365  1.00  0.00     0.055 A 
ATOM     42  C   UNL     1      11.733   0.641   8.672  1.00  0.00     0.041 A 
ATOM     43  F   UNL     1       9.599   1.097   9.491  1.00  0.00    -0.206 F 
ATOM     44  C   UNL     1      12.594   0.310   7.635  1.00  0.00     0.022 A 
BRANCH  41  45
ATOM     45  S   UNL     1      13.171  -0.385   5.021  1.00  0.00     0.124 S 
ATOM     46  O   UNL     1      14.120   0.721   4.983  1.00  0.00    -0.237 OA
ATOM     47  O   UNL     1      13.691  -1.651   5.531  1.00  0.00    -0.237 OA
ATOM     48  O   UNL     1      12.280  -0.502   3.870  1.00  0.00    -0.744 OA
ENDBRANCH  41  45
ENDBRANCH  24  38
BRANCH  25  49
ATOM     49  C   UNL     1       9.095   7.688   2.195  1.00  0.00     0.023 A 
ATOM     50  C   UNL     1       9.397   7.075   0.963  1.00  0.00     0.031 A 
ATOM     51  C   UNL     1       9.862   8.800   2.573  1.00  0.00     0.131 A 
ATOM     52  C   UNL     1      10.477   7.524   0.194  1.00  0.00     0.055 A 
ATOM     53  C   UNL     1      10.925   9.264   1.790  1.00  0.00     0.041 A 
ATOM     54  F   UNL     1       9.639   9.412   3.746  1.00  0.00    -0.206 F 
ATOM     55  C   UNL     1      11.250   8.613   0.603  1.00  0.00     0.022 A 
BRANCH  52  56
ATOM     56  S   UNL     1      10.974   6.629  -1.304  1.00  0.00     0.124 S 
ATOM     57  O   UNL     1      11.120   7.710  -2.276  1.00  0.00    -0.237 OA
ATOM     58  O   UNL     1      12.217   5.999  -0.873  1.00  0.00    -0.237 OA
ATOM     59  O   UNL     1       9.856   5.722  -1.547  1.00  0.00    -0.744 OA
ENDBRANCH  52  56
ENDBRANCH  25  49
BRANCH  37  60
ATOM     60  C   UNL     1       5.809   6.270   7.410  1.00  0.00     0.023 A 
ATOM     61  C   UNL     1       5.324   6.483   8.712  1.00  0.00     0.031 A 
ATOM     62  C   UNL     1       4.959   6.625   6.343  1.00  0.00     0.131 A 
ATOM     63  C   UNL     1       4.031   6.981   8.918  1.00  0.00     0.055 A 
ATOM     64  C   UNL     1       3.695   7.188   6.553  1.00  0.00     0.041 A 
ATOM     65  F   UNL     1       5.281   6.368   5.072  1.00  0.00    -0.206 F 
ATOM     66  C   UNL     1       3.217   7.351   7.846  1.00  0.00     0.022 A 
BRANCH  63  67
ATOM     67  S   UNL     1       3.316   7.004  10.582  1.00  0.00     0.124 S 
ATOM     68  O   UNL     1       3.148   8.434  10.825  1.00  0.00    -0.237 OA
ATOM     69  O   UNL     1       2.077   6.251  10.400  1.00  0.00    -0.237 OA
ATOM     70  O   UNL     1       4.322   6.344  11.409  1.00  0.00    -0.744 OA
ENDBRANCH  63  67
ENDBRANCH  37  60
ENDBRANCH  11  12
ENDBRANCH   4   6
ENDBRANCH   1   2
BRANCH   1  71
ATOM     71  C   UNL     1       4.785  -0.150  -2.876  1.00  0.00     0.042 C 
BRANCH  71  72
ATOM     72  C   UNL     1       4.162   0.886  -3.810  1.00  0.00     0.118 C 
BRANCH  72  73
ATOM     73  N   UNL     1       4.752   2.219  -3.708  1.00  0.00    -0.352 N 
ATOM     74  C   UNL     1       5.665   2.836  -4.530  1.00  0.00     0.252 C 
ATOM     75  H   UNL     1       4.451   2.753  -2.938  1.00  0.00     0.163 HD
ATOM     76  O   UNL     1       6.040   3.982  -4.328  1.00  0.00    -0.269 OA
BRANCH  74  77
ATOM     77  C   UNL     1       6.159   2.109  -5.698  1.00  0.00     0.058 A 
ATOM     78  C   UNL     1       5.266   1.697  -6.682  1.00  0.00     0.019 A 
ATOM     79  C   UNL     1       7.495   1.763  -5.806  1.00  0.00     0.127 A 
ATOM     80  C   UNL     1       5.726   0.883  -7.701  1.00  0.00     0.048 A 
ATOM     81  N   UNL     1       7.970   0.968  -6.801  1.00  0.00    -0.238 NA
ATOM     82  C   UNL     1       7.083   0.569  -7.749  1.00  0.00     0.138 A 
BRANCH  82  83
ATOM     83  N   UNL     1       7.571  -0.184  -8.844  1.00  0.00    -0.283 N 
ATOM     84  C   UNL     1       8.664  -1.017  -8.813  1.00  0.00     0.206 A 
ATOM     85  C   UNL     1       7.091  -0.196 -10.146  1.00  0.00     0.074 A 
ATOM     86  N   UNL     1       8.851  -1.640  -9.958  1.00  0.00    -0.236 NA
ATOM     87  C   UNL     1       7.907  -1.115 -10.803  1.00  0.00     0.089 A 
ATOM     88  C   UNL     1       6.108   0.545 -10.827  1.00  0.00     0.029 A 
ATOM     89  C   UNL     1       7.709  -1.352 -12.172  1.00  0.00     0.030 A 
ATOM     90  C   UNL     1       5.932   0.302 -12.189  1.00  0.00     0.002 A 
ATOM     91  C   UNL     1       6.717  -0.636 -12.854  1.00  0.00     0.002 A 
ENDBRANCH  82  83
ENDBRANCH  74  77
ENDBRANCH  72  73
ENDBRANCH  71  72
ENDBRANCH   1  71
TORSDOF 14
