REMARK SMILES CCC[NH2+][C@@H]1COC[C@@H]1C(=O)N[C@@](C)(CC)C(=O)NCCCNC(=O)c1ccc(-c2c3nc(c(-c4cc(S(=O)(=O)[O-])ccc4F)c4ccc([nH]4)c(-c4cc(S(=O)(=O)[O-])ccc4F)c4nc(c(-c5cc(S(=O)(=O)[O-])ccc5F)c5ccc2[nH]5)C=C4)C=C3)cc1
REMARK SMILES IDX 20 1 19 2 17 3 18 4 13 6 14 7 12 8 10 9 11 10 9 12 5 13 6 14
REMARK SMILES IDX 7 15 8 16 4 17 3 20 2 21 1 22 15 23 16 24 21 25 22 26 23 27
REMARK SMILES IDX 24 28 25 30 26 31 27 32 88 33 28 34 87 35 29 36 30 37 31 38
REMARK SMILES IDX 81 39 32 40 86 41 80 42 82 43 33 44 85 45 79 46 78 47 34 49
REMARK SMILES IDX 66 50 46 51 65 52 47 53 50 54 64 55 83 56 48 57 49 58 63 60
REMARK SMILES IDX 84 61 51 62 35 63 36 64 44 65 37 66 43 67 45 68 42 69 38 70
REMARK SMILES IDX 39 71 40 72 41 73 67 74 68 75 76 76 69 77 75 78 77 79 74 80
REMARK SMILES IDX 70 81 71 82 72 83 73 84 52 85 53 86 61 87 54 88 60 89 62 90
REMARK SMILES IDX 59 91 55 92 56 93 57 94 58 95
REMARK H PARENT 19 5 12 11 4 18 4 19 23 29 82 48 50 59
REMARK Flexibility Score: inf
ROOT
ATOM      1  C   UNL     1       0.075   1.613   6.399  1.00  0.00     0.117 C 
ENDROOT
BRANCH   1   2
ATOM      2  N   UNL     1       0.544   0.386   5.784  1.00  0.00    -0.354 N 
ATOM      3  C   UNL     1       0.024  -0.317   4.747  1.00  0.00     0.245 C 
ATOM      4  O   UNL     1       0.871  -0.709   3.936  1.00  0.00    -0.272 OA
ATOM      5  H   UNL     1       1.363   0.007   6.178  1.00  0.00     0.163 HD
BRANCH   3   6
ATOM      6  C   UNL     1      -1.510  -0.530   4.515  1.00  0.00     0.116 C 
ATOM      7  C   UNL     1      -1.908   0.670   3.619  1.00  0.00     0.045 C 
BRANCH   6   8
ATOM      8  N   UNL     1      -1.871  -1.744   3.714  1.00  0.00    -0.341 N 
ATOM      9  C   UNL     1      -1.508  -3.063   3.788  1.00  0.00     0.232 C 
ATOM     10  O   UNL     1      -2.357  -3.895   3.460  1.00  0.00    -0.274 OA
ATOM     11  H   UNL     1      -2.502  -1.555   2.982  1.00  0.00     0.164 HD
BRANCH   9  12
ATOM     12  C   UNL     1      -0.081  -3.455   4.142  1.00  0.00     0.164 C 
ATOM     13  C   UNL     1       0.833  -3.454   2.903  1.00  0.00     0.223 C 
ATOM     14  C   UNL     1       0.763  -4.907   2.449  1.00  0.00     0.225 C 
ATOM     15  O   UNL     1       0.666  -5.695   3.638  1.00  0.00    -0.374 OA
ATOM     16  C   UNL     1       0.025  -4.894   4.643  1.00  0.00     0.180 C 
BRANCH  13  17
ATOM     17  N   UNL     1       0.483  -2.444   1.899  1.00  0.00    -0.341 N 
ATOM     18  H   UNL     1      -0.515  -2.529   1.706  1.00  0.00     0.346 HD
ATOM     19  H   UNL     1       0.758  -1.549   2.306  1.00  0.00     0.346 HD
BRANCH  17  20
ATOM     20  C   UNL     1       1.188  -2.526   0.632  1.00  0.00     0.260 C 
BRANCH  20  21
ATOM     21  C   UNL     1       0.663  -1.448  -0.327  1.00  0.00     0.058 C 
ATOM     22  C   UNL     1       1.079  -0.033   0.052  1.00  0.00     0.010 C 
ENDBRANCH  20  21
ENDBRANCH  17  20
ENDBRANCH  13  17
ENDBRANCH   9  12
ENDBRANCH   6   8
BRANCH   6  23
ATOM     23  C   UNL     1      -2.399  -0.519   5.784  1.00  0.00     0.035 C 
ATOM     24  C   UNL     1      -2.235  -1.709   6.720  1.00  0.00     0.007 C 
ENDBRANCH   6  23
ENDBRANCH   3   6
ENDBRANCH   1   2
BRANCH   1  25
ATOM     25  C   UNL     1       0.143   1.573   7.917  1.00  0.00     0.042 C 
BRANCH  25  26
ATOM     26  C   UNL     1       1.521   1.225   8.472  1.00  0.00     0.118 C 
BRANCH  26  27
ATOM     27  N   UNL     1       2.560   2.147   8.029  1.00  0.00    -0.352 N 
ATOM     28  C   UNL     1       3.313   3.039   8.752  1.00  0.00     0.251 C 
ATOM     29  H   UNL     1       2.751   2.127   7.063  1.00  0.00     0.163 HD
ATOM     30  O   UNL     1       3.989   3.878   8.159  1.00  0.00    -0.269 OA
BRANCH  28  31
ATOM     31  C   UNL     1       3.286   3.006  10.228  1.00  0.00     0.039 A 
ATOM     32  C   UNL     1       3.188   4.207  10.934  1.00  0.00     0.014 A 
ATOM     33  C   UNL     1       3.348   1.792  10.915  1.00  0.00     0.014 A 
ATOM     34  C   UNL     1       3.072   4.182  12.325  1.00  0.00     0.010 A 
ATOM     35  C   UNL     1       3.139   1.764  12.290  1.00  0.00     0.010 A 
ATOM     36  C   UNL     1       3.001   2.958  13.012  1.00  0.00    -0.014 A 
BRANCH  36  37
ATOM     37  C   UNL     1       2.785   2.910  14.483  1.00  0.00     0.031 A 
ATOM     38  C   UNL     1       3.824   2.283  15.376  1.00  0.00     0.074 A 
ATOM     39  C   UNL     1       1.629   3.371  15.003  1.00  0.00     0.049 A 
ATOM     40  N   UNL     1       3.788   2.080  16.667  1.00  0.00    -0.248 NA
ATOM     41  C   UNL     1       5.053   1.794  14.728  1.00  0.00     0.031 C 
ATOM     42  C   UNL     1       0.528   3.955  14.230  1.00  0.00     0.029 A 
ATOM     43  N   UNL     1       1.177   3.415  16.299  1.00  0.00    -0.354 N 
ATOM     44  C   UNL     1       4.974   1.426  16.983  1.00  0.00     0.074 A 
ATOM     45  C   UNL     1       5.684   1.217  15.740  1.00  0.00     0.031 C 
ATOM     46  C   UNL     1      -0.455   4.321  15.068  1.00  0.00     0.029 A 
ATOM     47  C   UNL     1      -0.086   3.950  16.430  1.00  0.00     0.049 A 
ATOM     48  H   UNL     1       1.707   3.094  17.064  1.00  0.00     0.167 HD
ATOM     49  C   UNL     1       5.436   1.051  18.201  1.00  0.00     0.034 A 
ATOM     50  C   UNL     1      -0.865   4.107  17.520  1.00  0.00     0.034 A 
ATOM     51  C   UNL     1       4.728   1.292  19.433  1.00  0.00     0.049 A 
ATOM     52  C   UNL     1      -0.326   3.672  18.862  1.00  0.00     0.074 A 
ATOM     53  C   UNL     1       5.140   1.023  20.726  1.00  0.00     0.029 A 
ATOM     54  N   UNL     1       3.459   1.849  19.528  1.00  0.00    -0.354 N 
ATOM     55  N   UNL     1       0.832   3.119  19.148  1.00  0.00    -0.248 NA
ATOM     56  C   UNL     1      -1.189   3.894  20.029  1.00  0.00     0.031 C 
ATOM     57  C   UNL     1       4.092   1.339  21.595  1.00  0.00     0.029 A 
ATOM     58  C   UNL     1       3.060   1.894  20.855  1.00  0.00     0.049 A 
ATOM     59  H   UNL     1       2.922   2.164  18.766  1.00  0.00     0.167 HD
ATOM     60  C   UNL     1       0.846   2.966  20.532  1.00  0.00     0.074 A 
ATOM     61  C   UNL     1      -0.406   3.501  21.022  1.00  0.00     0.031 C 
ATOM     62  C   UNL     1       1.808   2.433  21.328  1.00  0.00     0.034 A 
BRANCH  49  63
ATOM     63  C   UNL     1       6.756   0.322  18.265  1.00  0.00     0.023 A 
ATOM     64  C   UNL     1       7.964   0.934  17.890  1.00  0.00     0.031 A 
ATOM     65  C   UNL     1       6.806  -1.003  18.735  1.00  0.00     0.131 A 
ATOM     66  C   UNL     1       9.163   0.207  17.945  1.00  0.00     0.055 A 
ATOM     67  C   UNL     1       8.012  -1.695  18.859  1.00  0.00     0.041 A 
ATOM     68  F   UNL     1       5.682  -1.647  19.084  1.00  0.00    -0.206 F 
ATOM     69  C   UNL     1       9.200  -1.093  18.455  1.00  0.00     0.022 A 
BRANCH  66  70
ATOM     70  S   UNL     1      10.662   0.949  17.243  1.00  0.00     0.124 S 
ATOM     71  O   UNL     1      10.269   1.141  15.849  1.00  0.00    -0.237 OA
ATOM     72  O   UNL     1      10.816   2.163  18.036  1.00  0.00    -0.237 OA
ATOM     73  O   UNL     1      11.684  -0.073  17.460  1.00  0.00    -0.744 OA
ENDBRANCH  66  70
ENDBRANCH  49  63
BRANCH  50  74
ATOM     74  C   UNL     1      -2.242   4.673  17.404  1.00  0.00     0.023 A 
ATOM     75  C   UNL     1      -2.603   5.851  18.078  1.00  0.00     0.031 A 
ATOM     76  C   UNL     1      -3.244   3.999  16.681  1.00  0.00     0.131 A 
ATOM     77  C   UNL     1      -3.941   6.277  18.079  1.00  0.00     0.055 A 
ATOM     78  C   UNL     1      -4.559   4.466  16.627  1.00  0.00     0.041 A 
ATOM     79  F   UNL     1      -2.959   2.869  16.014  1.00  0.00    -0.206 F 
ATOM     80  C   UNL     1      -4.918   5.601  17.346  1.00  0.00     0.022 A 
BRANCH  77  81
ATOM     81  S   UNL     1      -4.412   7.651  19.167  1.00  0.00     0.124 S 
ATOM     82  O   UNL     1      -3.937   7.178  20.462  1.00  0.00    -0.237 OA
ATOM     83  O   UNL     1      -3.675   8.765  18.581  1.00  0.00    -0.237 OA
ATOM     84  O   UNL     1      -5.864   7.718  19.019  1.00  0.00    -0.744 OA
ENDBRANCH  77  81
ENDBRANCH  50  74
BRANCH  62  85
ATOM     85  C   UNL     1       1.564   2.460  22.818  1.00  0.00     0.023 A 
ATOM     86  C   UNL     1       0.529   1.722  23.416  1.00  0.00     0.031 A 
ATOM     87  C   UNL     1       2.383   3.244  23.651  1.00  0.00     0.131 A 
ATOM     88  C   UNL     1       0.301   1.830  24.796  1.00  0.00     0.055 A 
ATOM     89  C   UNL     1       2.196   3.292  25.032  1.00  0.00     0.041 A 
ATOM     90  F   UNL     1       3.386   3.973  23.134  1.00  0.00    -0.206 F 
ATOM     91  C   UNL     1       1.141   2.594  25.610  1.00  0.00     0.022 A 
BRANCH  88  92
ATOM     92  S   UNL     1      -1.170   1.037  25.500  1.00  0.00     0.124 S 
ATOM     93  O   UNL     1      -2.245   1.661  24.735  1.00  0.00    -0.237 OA
ATOM     94  O   UNL     1      -0.927  -0.375  25.222  1.00  0.00    -0.237 OA
ATOM     95  O   UNL     1      -1.117   1.408  26.913  1.00  0.00    -0.744 OA
ENDBRANCH  88  92
ENDBRANCH  62  85
ENDBRANCH  36  37
ENDBRANCH  28  31
ENDBRANCH  26  27
ENDBRANCH  25  26
ENDBRANCH   1  25
TORSDOF 19
