REMARK SMILES C[C@@]12CC[C@@H]3c4ccc(O)cc4/C(=N/OCC(=O)NCCCNC(=O)c4ccc(-c5c6nc(c(-c7cc(S(=O)(=O)[O-])ccc7F)c7ccc([nH]7)c(-c7cc(S(=O)(=O)[O-])ccc7F)c7nc(c(-c8cc(S(=O)(=O)[O-])ccc8F)c8ccc5[nH]8)C=C7)C=C6)cc4)C[C@H]3[C@@H]1C[C@@H](O)[C@@H]2O
REMARK SMILES IDX 21 1 20 2 19 3 17 4 18 5 16 7 15 8 14 9 1 10 2 11 3 12 91 13
REMARK SMILES IDX 95 14 4 15 90 16 92 17 93 18 5 19 89 20 6 21 13 22 7 23
REMARK SMILES IDX 12 24 8 25 11 26 9 27 96 28 94 30 10 32 22 34 23 35 24 36
REMARK SMILES IDX 25 38 26 39 27 40 88 41 28 42 87 43 29 44 30 45 31 46 81 47
REMARK SMILES IDX 32 48 86 49 80 50 82 51 33 52 85 53 79 54 78 55 34 57 66 58
REMARK SMILES IDX 46 59 65 60 47 61 50 62 64 63 83 64 48 65 49 66 63 68 84 69
REMARK SMILES IDX 51 70 35 71 36 72 44 73 37 74 43 75 45 76 42 77 38 78 39 79
REMARK SMILES IDX 40 80 41 81 67 82 68 83 76 84 69 85 75 86 77 87 74 88 70 89
REMARK SMILES IDX 71 90 72 91 73 92 52 93 53 94 61 95 54 96 60 97 62 98 59 99
REMARK SMILES IDX 55 100 56 101 57 102 58 103
REMARK H PARENT 19 6 96 29 94 31 10 33 23 37 82 56 50 67
REMARK Flexibility Score: inf
ROOT
ATOM      1  C   UNL     1      -4.123  -6.041   5.576  1.00  0.00     0.042 C 
ENDROOT
BRANCH   1   2
ATOM      2  C   UNL     1      -3.753  -5.426   6.921  1.00  0.00     0.117 C 
BRANCH   2   3
ATOM      3  N   UNL     1      -2.575  -6.024   7.517  1.00  0.00    -0.353 N 
ATOM      4  C   UNL     1      -1.352  -5.458   7.754  1.00  0.00     0.260 C 
ATOM      5  O   UNL     1      -0.503  -6.150   8.325  1.00  0.00    -0.271 OA
ATOM      6  H   UNL     1      -2.666  -6.966   7.787  1.00  0.00     0.163 HD
BRANCH   4   7
ATOM      7  C   UNL     1      -1.086  -3.969   7.410  1.00  0.00     0.363 C 
BRANCH   7   8
ATOM      8  O   UNL     1      -1.048  -3.499   6.062  1.00  0.00    -0.385 OA
BRANCH   8   9
ATOM      9  N   UNL     1      -0.829  -4.593   5.244  1.00  0.00    -0.090 NA
ATOM     10  C   UNL     1       1.594  -0.581  -0.817  1.00  0.00     0.014 C 
ATOM     11  C   UNL     1       0.904  -1.889  -0.333  1.00  0.00    -0.001 C 
ATOM     12  C   UNL     1       2.017  -2.923  -0.366  1.00  0.00     0.010 C 
ATOM     13  C   UNL     1       0.251  -1.691   1.066  1.00  0.00     0.004 C 
ATOM     14  C   UNL     1      -0.344  -2.251  -1.205  1.00  0.00     0.149 C 
ATOM     15  C   UNL     1       1.601  -4.258   0.154  1.00  0.00     0.009 C 
ATOM     16  C   UNL     1      -0.037  -3.062   1.828  1.00  0.00     0.006 C 
ATOM     17  C   UNL     1      -1.023  -0.848   0.647  1.00  0.00     0.039 C 
ATOM     18  C   UNL     1      -1.319  -1.130  -0.861  1.00  0.00     0.144 C 
ATOM     19  C   UNL     1       1.049  -4.165   1.573  1.00  0.00     0.024 C 
ATOM     20  C   UNL     1      -0.181  -2.974   3.387  1.00  0.00     0.065 C 
ATOM     21  C   UNL     1       0.528  -5.515   2.028  1.00  0.00    -0.035 A 
ATOM     22  C   UNL     1      -0.449  -4.360   4.025  1.00  0.00     0.088 C 
ATOM     23  C   UNL     1       0.773  -6.709   1.317  1.00  0.00     0.008 A 
ATOM     24  C   UNL     1      -0.198  -5.594   3.214  1.00  0.00     0.006 A 
ATOM     25  C   UNL     1       0.282  -7.937   1.753  1.00  0.00     0.046 A 
ATOM     26  C   UNL     1      -0.665  -6.840   3.671  1.00  0.00     0.056 A 
ATOM     27  C   UNL     1      -0.441  -7.992   2.929  1.00  0.00     0.116 A 
BRANCH  14  28
ATOM     28  O   UNL     1      -0.951  -3.496  -0.858  1.00  0.00    -0.390 OA
ATOM     29  H   UNL     1      -1.220  -3.476   0.074  1.00  0.00     0.211 HD
ENDBRANCH  14  28
BRANCH  18  30
ATOM     30  O   UNL     1      -1.065  -0.001  -1.696  1.00  0.00    -0.390 OA
ATOM     31  H   UNL     1      -0.139   0.271  -1.599  1.00  0.00     0.211 HD
ENDBRANCH  18  30
BRANCH  27  32
ATOM     32  O   UNL     1      -0.952  -9.169   3.386  1.00  0.00    -0.508 OA
ATOM     33  H   UNL     1      -0.814  -9.960   2.901  1.00  0.00     0.293 HD
ENDBRANCH  27  32
ENDBRANCH   8   9
ENDBRANCH   7   8
ENDBRANCH   4   7
ENDBRANCH   2   3
ENDBRANCH   1   2
BRANCH   1  34
ATOM     34  C   UNL     1      -4.458  -7.530   5.620  1.00  0.00     0.118 C 
BRANCH  34  35
ATOM     35  N   UNL     1      -5.724  -7.819   6.290  1.00  0.00    -0.352 N 
ATOM     36  C   UNL     1      -6.879  -8.382   5.796  1.00  0.00     0.251 C 
ATOM     37  H   UNL     1      -5.756  -7.572   7.242  1.00  0.00     0.163 HD
ATOM     38  O   UNL     1      -7.892  -8.403   6.498  1.00  0.00    -0.269 OA
BRANCH  36  39
ATOM     39  C   UNL     1      -6.921  -8.916   4.417  1.00  0.00     0.039 A 
ATOM     40  C   UNL     1      -5.875  -9.694   3.922  1.00  0.00     0.014 A 
ATOM     41  C   UNL     1      -8.007  -8.604   3.593  1.00  0.00     0.014 A 
ATOM     42  C   UNL     1      -5.804  -9.965   2.559  1.00  0.00     0.010 A 
ATOM     43  C   UNL     1      -7.981  -8.969   2.242  1.00  0.00     0.010 A 
ATOM     44  C   UNL     1      -6.847  -9.590   1.697  1.00  0.00    -0.014 A 
BRANCH  44  45
ATOM     45  C   UNL     1      -6.719  -9.840   0.235  1.00  0.00     0.031 A 
ATOM     46  C   UNL     1      -6.699  -8.697  -0.748  1.00  0.00     0.074 A 
ATOM     47  C   UNL     1      -6.575 -11.104  -0.211  1.00  0.00     0.049 A 
ATOM     48  N   UNL     1      -6.564  -8.734  -2.049  1.00  0.00    -0.248 NA
ATOM     49  C   UNL     1      -6.857  -7.339  -0.205  1.00  0.00     0.031 C 
ATOM     50  C   UNL     1      -6.580 -12.291   0.643  1.00  0.00     0.029 A 
ATOM     51  N   UNL     1      -6.384 -11.602  -1.476  1.00  0.00    -0.354 N 
ATOM     52  C   UNL     1      -6.651  -7.415  -2.482  1.00  0.00     0.074 A 
ATOM     53  C   UNL     1      -6.880  -6.604  -1.308  1.00  0.00     0.031 C 
ATOM     54  C   UNL     1      -6.357 -13.374  -0.113  1.00  0.00     0.029 A 
ATOM     55  C   UNL     1      -6.272 -12.972  -1.516  1.00  0.00     0.049 A 
ATOM     56  H   UNL     1      -6.331 -11.033  -2.278  1.00  0.00     0.167 HD
ATOM     57  C   UNL     1      -6.537  -6.929  -3.742  1.00  0.00     0.034 A 
ATOM     58  C   UNL     1      -6.139 -13.821  -2.556  1.00  0.00     0.034 A 
ATOM     59  C   UNL     1      -6.274  -7.750  -4.898  1.00  0.00     0.049 A 
ATOM     60  C   UNL     1      -6.029 -13.261  -3.949  1.00  0.00     0.074 A 
ATOM     61  C   UNL     1      -6.069  -7.338  -6.203  1.00  0.00     0.029 A 
ATOM     62  N   UNL     1      -6.191  -9.136  -4.901  1.00  0.00    -0.354 N 
ATOM     63  N   UNL     1      -6.032 -12.005  -4.331  1.00  0.00    -0.248 NA
ATOM     64  C   UNL     1      -5.888 -14.221  -5.051  1.00  0.00     0.031 C 
ATOM     65  C   UNL     1      -5.954  -8.472  -7.006  1.00  0.00     0.029 A 
ATOM     66  C   UNL     1      -5.984  -9.594  -6.193  1.00  0.00     0.049 A 
ATOM     67  H   UNL     1      -6.267  -9.708  -4.104  1.00  0.00     0.167 HD
ATOM     68  C   UNL     1      -5.880 -12.024  -5.714  1.00  0.00     0.074 A 
ATOM     69  C   UNL     1      -5.757 -13.414  -6.098  1.00  0.00     0.031 C 
ATOM     70  C   UNL     1      -5.852 -10.980  -6.581  1.00  0.00     0.034 A 
BRANCH  57  71
ATOM     71  C   UNL     1      -6.691  -5.443  -3.973  1.00  0.00     0.023 A 
ATOM     72  C   UNL     1      -7.714  -4.976  -4.822  1.00  0.00     0.031 A 
ATOM     73  C   UNL     1      -5.754  -4.512  -3.491  1.00  0.00     0.131 A 
ATOM     74  C   UNL     1      -7.748  -3.628  -5.199  1.00  0.00     0.055 A 
ATOM     75  C   UNL     1      -5.824  -3.159  -3.829  1.00  0.00     0.041 A 
ATOM     76  F   UNL     1      -4.755  -4.901  -2.682  1.00  0.00    -0.206 F 
ATOM     77  C   UNL     1      -6.815  -2.715  -4.700  1.00  0.00     0.022 A 
BRANCH  74  78
ATOM     78  S   UNL     1      -8.946  -3.025  -6.420  1.00  0.00     0.124 S 
ATOM     79  O   UNL     1      -9.669  -2.013  -5.654  1.00  0.00    -0.237 OA
ATOM     80  O   UNL     1      -8.074  -2.507  -7.470  1.00  0.00    -0.237 OA
ATOM     81  O   UNL     1      -9.720  -4.211  -6.769  1.00  0.00    -0.744 OA
ENDBRANCH  74  78
ENDBRANCH  57  71
BRANCH  58  82
ATOM     82  C   UNL     1      -6.072 -15.285  -2.276  1.00  0.00     0.023 A 
ATOM     83  C   UNL     1      -7.141 -15.938  -1.633  1.00  0.00     0.031 A 
ATOM     84  C   UNL     1      -4.891 -16.012  -2.498  1.00  0.00     0.131 A 
ATOM     85  C   UNL     1      -6.970 -17.239  -1.144  1.00  0.00     0.055 A 
ATOM     86  C   UNL     1      -4.757 -17.339  -2.086  1.00  0.00     0.041 A 
ATOM     87  F   UNL     1      -3.841 -15.430  -3.096  1.00  0.00    -0.206 F 
ATOM     88  C   UNL     1      -5.791 -17.951  -1.382  1.00  0.00     0.022 A 
BRANCH  85  89
ATOM     89  S   UNL     1      -8.204 -17.981  -0.039  1.00  0.00     0.124 S 
ATOM     90  O   UNL     1      -8.548 -19.209  -0.747  1.00  0.00    -0.237 OA
ATOM     91  O   UNL     1      -7.431 -18.155   1.189  1.00  0.00    -0.237 OA
ATOM     92  O   UNL     1      -9.257 -16.974   0.028  1.00  0.00    -0.744 OA
ENDBRANCH  85  89
ENDBRANCH  58  82
BRANCH  70  93
ATOM     93  C   UNL     1      -5.679 -11.259  -8.057  1.00  0.00     0.023 A 
ATOM     94  C   UNL     1      -4.573 -10.724  -8.747  1.00  0.00     0.031 A 
ATOM     95  C   UNL     1      -6.685 -11.892  -8.808  1.00  0.00     0.131 A 
ATOM     96  C   UNL     1      -4.529 -10.777 -10.146  1.00  0.00     0.055 A 
ATOM     97  C   UNL     1      -6.606 -11.995 -10.198  1.00  0.00     0.041 A 
ATOM     98  F   UNL     1      -7.765 -12.409  -8.202  1.00  0.00    -0.206 F 
ATOM     99  C   UNL     1      -5.534 -11.419 -10.874  1.00  0.00     0.022 A 
BRANCH  96 100
ATOM    100  S   UNL     1      -3.224  -9.922 -11.073  1.00  0.00     0.124 S 
ATOM    101  O   UNL     1      -2.601 -11.024 -11.804  1.00  0.00    -0.237 OA
ATOM    102  O   UNL     1      -3.990  -8.986 -11.890  1.00  0.00    -0.237 OA
ATOM    103  O   UNL     1      -2.393  -9.317 -10.037  1.00  0.00    -0.744 OA
ENDBRANCH  96 100
ENDBRANCH  70  93
ENDBRANCH  44  45
ENDBRANCH  36  39
ENDBRANCH  34  35
ENDBRANCH   1  34
TORSDOF 18
