REMARK SMILES CCOC[C@@H](O)C[C@]1(C(=O)NCCCNC(=O)c2ccc(-c3c4nc(c(-c5cc(S(=O)(=O)[O-])ccc5F)c5ccc([nH]5)c(-c5cc(S(=O)(=O)[O-])ccc5F)c5nc(c(-c6cc(S(=O)(=O)[O-])ccc6F)c6ccc3[nH]6)C=C5)C=C4)cc2)CCc2ccccc21
REMARK SMILES IDX 12 1 11 2 9 3 10 4 8 6 81 7 88 8 82 9 83 10 87 11 84 12
REMARK SMILES IDX 86 13 85 14 7 15 5 16 4 17 3 18 2 19 1 20 6 21 13 23 14 24
REMARK SMILES IDX 15 25 16 26 17 28 18 29 19 30 80 31 20 32 79 33 21 34 22 35
REMARK SMILES IDX 23 36 73 37 24 38 78 39 72 40 74 41 25 42 77 43 71 44 70 45
REMARK SMILES IDX 26 47 58 48 38 49 57 50 39 51 42 52 56 53 75 54 40 55 41 56
REMARK SMILES IDX 55 58 76 59 43 60 27 61 28 62 36 63 29 64 35 65 37 66 34 67
REMARK SMILES IDX 30 68 31 69 32 70 33 71 59 72 60 73 68 74 61 75 67 76 69 77
REMARK SMILES IDX 66 78 62 79 63 80 64 81 65 82 44 83 45 84 53 85 46 86 52 87
REMARK SMILES IDX 54 88 51 89 47 90 48 91 49 92 50 93
REMARK H PARENT 11 5 6 22 15 27 74 46 42 57
REMARK Flexibility Score: inf
ROOT
ATOM      1  C   UNL     1       7.176   1.444  -5.529  1.00  0.00     0.117 C 
ENDROOT
BRANCH   1   2
ATOM      2  N   UNL     1       7.236   2.177  -4.278  1.00  0.00    -0.355 N 
ATOM      3  C   UNL     1       6.353   2.345  -3.257  1.00  0.00     0.230 C 
ATOM      4  O   UNL     1       6.807   2.964  -2.284  1.00  0.00    -0.274 OA
ATOM      5  H   UNL     1       8.089   2.649  -4.141  1.00  0.00     0.163 HD
BRANCH   3   6
ATOM      6  C   UNL     1       4.875   1.839  -3.271  1.00  0.00     0.077 C 
ATOM      7  C   UNL     1       4.078   2.451  -4.454  1.00  0.00     0.026 C 
ATOM      8  C   UNL     1       4.798   0.354  -3.540  1.00  0.00    -0.029 A 
ATOM      9  C   UNL     1       3.679   1.328  -5.428  1.00  0.00     0.037 C 
ATOM     10  C   UNL     1       4.122   0.081  -4.734  1.00  0.00    -0.044 A 
ATOM     11  C   UNL     1       5.329  -0.678  -2.775  1.00  0.00     0.005 A 
ATOM     12  C   UNL     1       3.971  -1.220  -5.187  1.00  0.00     0.004 A 
ATOM     13  C   UNL     1       5.174  -1.991  -3.221  1.00  0.00     0.000 A 
ATOM     14  C   UNL     1       4.501  -2.260  -4.421  1.00  0.00     0.000 A 
BRANCH   6  15
ATOM     15  C   UNL     1       4.242   2.203  -1.888  1.00  0.00     0.056 C 
BRANCH  15  16
ATOM     16  C   UNL     1       2.721   2.132  -1.650  1.00  0.00     0.141 C 
BRANCH  16  17
ATOM     17  C   UNL     1       2.051   0.788  -1.969  1.00  0.00     0.191 C 
BRANCH  17  18
ATOM     18  O   UNL     1       0.622   0.801  -1.848  1.00  0.00    -0.379 OA
BRANCH  18  19
ATOM     19  C   UNL     1       0.085   0.899  -0.533  1.00  0.00     0.157 C 
ATOM     20  C   UNL     1       0.595  -0.163   0.425  1.00  0.00     0.035 C 
ENDBRANCH  18  19
ENDBRANCH  17  18
ENDBRANCH  16  17
BRANCH  16  21
ATOM     21  O   UNL     1       2.540   2.429  -0.251  1.00  0.00    -0.391 OA
ATOM     22  H   UNL     1       2.996   1.759   0.282  1.00  0.00     0.211 HD
ENDBRANCH  16  21
ENDBRANCH  15  16
ENDBRANCH   6  15
ENDBRANCH   3   6
ENDBRANCH   1   2
BRANCH   1  23
ATOM     23  C   UNL     1       7.003   2.358  -6.735  1.00  0.00     0.042 C 
BRANCH  23  24
ATOM     24  C   UNL     1       8.269   3.129  -7.088  1.00  0.00     0.118 C 
BRANCH  24  25
ATOM     25  N   UNL     1       9.332   2.244  -7.550  1.00  0.00    -0.352 N 
ATOM     26  C   UNL     1       9.875   2.095  -8.803  1.00  0.00     0.251 C 
ATOM     27  H   UNL     1       9.721   1.664  -6.856  1.00  0.00     0.163 HD
ATOM     28  O   UNL     1      10.560   1.107  -9.048  1.00  0.00    -0.269 OA
BRANCH  26  29
ATOM     29  C   UNL     1       9.624   3.110  -9.849  1.00  0.00     0.039 A 
ATOM     30  C   UNL     1       9.372   2.691 -11.158  1.00  0.00     0.014 A 
ATOM     31  C   UNL     1       9.661   4.473  -9.544  1.00  0.00     0.014 A 
ATOM     32  C   UNL     1       9.079   3.637 -12.143  1.00  0.00     0.010 A 
ATOM     33  C   UNL     1       9.294   5.407 -10.506  1.00  0.00     0.010 A 
ATOM     34  C   UNL     1       8.993   4.999 -11.814  1.00  0.00    -0.014 A 
BRANCH  34  35
ATOM     35  C   UNL     1       8.572   6.019 -12.808  1.00  0.00     0.031 A 
ATOM     36  C   UNL     1       9.520   7.116 -13.205  1.00  0.00     0.074 A 
ATOM     37  C   UNL     1       7.307   6.008 -13.272  1.00  0.00     0.049 A 
ATOM     38  N   UNL     1       9.299   8.177 -13.937  1.00  0.00    -0.248 NA
ATOM     39  C   UNL     1      10.892   7.020 -12.683  1.00  0.00     0.031 C 
ATOM     40  C   UNL     1       6.292   5.008 -12.933  1.00  0.00     0.029 A 
ATOM     41  N   UNL     1       6.650   6.873 -14.111  1.00  0.00    -0.354 N 
ATOM     42  C   UNL     1      10.497   8.883 -13.953  1.00  0.00     0.074 A 
ATOM     43  C   UNL     1      11.423   8.155 -13.111  1.00  0.00     0.031 C 
ATOM     44  C   UNL     1       5.147   5.310 -13.566  1.00  0.00     0.029 A 
ATOM     45  C   UNL     1       5.326   6.554 -14.307  1.00  0.00     0.049 A 
ATOM     46  H   UNL     1       7.085   7.650 -14.532  1.00  0.00     0.167 HD
ATOM     47  C   UNL     1      10.798  10.022 -14.624  1.00  0.00     0.034 A 
ATOM     48  C   UNL     1       4.358   7.206 -14.981  1.00  0.00     0.034 A 
ATOM     49  C   UNL     1       9.860  10.725 -15.465  1.00  0.00     0.049 A 
ATOM     50  C   UNL     1       4.701   8.503 -15.668  1.00  0.00     0.074 A 
ATOM     51  C   UNL     1      10.076  11.847 -16.247  1.00  0.00     0.029 A 
ATOM     52  N   UNL     1       8.523  10.384 -15.623  1.00  0.00    -0.354 N 
ATOM     53  N   UNL     1       5.854   9.130 -15.718  1.00  0.00    -0.248 NA
ATOM     54  C   UNL     1       3.614   9.181 -16.385  1.00  0.00     0.031 C 
ATOM     55  C   UNL     1       8.855  12.226 -16.815  1.00  0.00     0.029 A 
ATOM     56  C   UNL     1       7.891  11.300 -16.450  1.00  0.00     0.049 A 
ATOM     57  H   UNL     1       8.087   9.605 -15.208  1.00  0.00     0.167 HD
ATOM     58  C   UNL     1       5.632  10.269 -16.487  1.00  0.00     0.074 A 
ATOM     59  C   UNL     1       4.243  10.230 -16.896  1.00  0.00     0.031 C 
ATOM     60  C   UNL     1       6.497  11.258 -16.826  1.00  0.00     0.034 A 
BRANCH  47  61
ATOM     61  C   UNL     1      12.187  10.588 -14.449  1.00  0.00     0.023 A 
ATOM     62  C   UNL     1      13.330   9.881 -14.858  1.00  0.00     0.031 A 
ATOM     63  C   UNL     1      12.373  11.845 -13.846  1.00  0.00     0.131 A 
ATOM     64  C   UNL     1      14.607  10.398 -14.593  1.00  0.00     0.055 A 
ATOM     65  C   UNL     1      13.644  12.392 -13.659  1.00  0.00     0.041 A 
ATOM     66  F   UNL     1      11.321  12.560 -13.416  1.00  0.00    -0.206 F 
ATOM     67  C   UNL     1      14.772  11.660 -14.019  1.00  0.00     0.022 A 
BRANCH  64  68
ATOM     68  S   UNL     1      16.048   9.334 -14.881  1.00  0.00     0.124 S 
ATOM     69  O   UNL     1      15.748   8.192 -14.021  1.00  0.00    -0.237 OA
ATOM     70  O   UNL     1      15.977   9.089 -16.317  1.00  0.00    -0.237 OA
ATOM     71  O   UNL     1      17.174  10.156 -14.442  1.00  0.00    -0.744 OA
ENDBRANCH  64  68
ENDBRANCH  47  61
BRANCH  48  72
ATOM     72  C   UNL     1       2.967   6.670 -15.012  1.00  0.00     0.023 A 
ATOM     73  C   UNL     1       2.378   6.262 -16.219  1.00  0.00     0.031 A 
ATOM     74  C   UNL     1       2.190   6.595 -13.841  1.00  0.00     0.131 A 
ATOM     75  C   UNL     1       1.040   5.837 -16.236  1.00  0.00     0.055 A 
ATOM     76  C   UNL     1       0.878   6.120 -13.855  1.00  0.00     0.041 A 
ATOM     77  F   UNL     1       2.705   6.971 -12.659  1.00  0.00    -0.206 F 
ATOM     78  C   UNL     1       0.291   5.750 -15.061  1.00  0.00     0.022 A 
BRANCH  75  79
ATOM     79  S   UNL     1       0.265   5.478 -17.836  1.00  0.00     0.124 S 
ATOM     80  O   UNL     1       0.429   6.747 -18.536  1.00  0.00    -0.237 OA
ATOM     81  O   UNL     1       1.076   4.367 -18.323  1.00  0.00    -0.237 OA
ATOM     82  O   UNL     1      -1.109   5.134 -17.478  1.00  0.00    -0.744 OA
ENDBRANCH  75  79
ENDBRANCH  48  72
BRANCH  60  83
ATOM     83  C   UNL     1       5.960  12.368 -17.694  1.00  0.00     0.023 A 
ATOM     84  C   UNL     1       5.012  13.284 -17.209  1.00  0.00     0.031 A 
ATOM     85  C   UNL     1       6.405  12.511 -19.020  1.00  0.00     0.131 A 
ATOM     86  C   UNL     1       4.504  14.278 -18.058  1.00  0.00     0.055 A 
ATOM     87  C   UNL     1       5.940  13.538 -19.843  1.00  0.00     0.041 A 
ATOM     88  F   UNL     1       7.308  11.661 -19.534  1.00  0.00    -0.206 F 
ATOM     89  C   UNL     1       4.976  14.423 -19.366  1.00  0.00     0.022 A 
BRANCH  86  90
ATOM     90  S   UNL     1       3.165  15.341 -17.453  1.00  0.00     0.124 S 
ATOM     91  O   UNL     1       2.105  14.372 -17.194  1.00  0.00    -0.237 OA
ATOM     92  O   UNL     1       3.764  15.960 -16.275  1.00  0.00    -0.237 OA
ATOM     93  O   UNL     1       2.916  16.250 -18.571  1.00  0.00    -0.744 OA
ENDBRANCH  86  90
ENDBRANCH  60  83
ENDBRANCH  34  35
ENDBRANCH  26  29
ENDBRANCH  24  25
ENDBRANCH  23  24
ENDBRANCH   1  23
TORSDOF 19
