REMARK SMILES CCCC[C@H](C(=O)NCCCNC(=O)c1ccc(-c2c3nc(c(-c4cc(S(=O)(=O)[O-])ccc4F)c4ccc([nH]4)c(-c4cc(S(=O)(=O)[O-])ccc4F)c4nc(c(-c5cc(S(=O)(=O)[O-])ccc5F)c5ccc2[nH]5)C=C4)C=C3)cc1)[C@H](O)c1ccc(C(F)(F)F)cc1
REMARK SMILES IDX 10 1 9 2 8 3 6 4 7 5 5 7 4 8 3 9 2 10 1 11 78 12 80 13 81 14
REMARK SMILES IDX 89 15 82 16 88 17 83 18 84 19 85 20 86 21 87 22 79 23 11 25
REMARK SMILES IDX 12 26 13 27 14 29 15 30 16 31 77 32 17 33 76 34 18 35 19 36
REMARK SMILES IDX 20 37 70 38 21 39 75 40 69 41 71 42 22 43 74 44 68 45 67 46
REMARK SMILES IDX 23 48 55 49 35 50 54 51 36 52 39 53 53 54 72 55 37 56 38 57
REMARK SMILES IDX 52 59 73 60 40 61 24 62 25 63 33 64 26 65 32 66 34 67 31 68
REMARK SMILES IDX 27 69 28 70 29 71 30 72 56 73 57 74 65 75 58 76 64 77 66 78
REMARK SMILES IDX 63 79 59 80 60 81 61 82 62 83 41 84 42 85 50 86 43 87 49 88
REMARK SMILES IDX 51 89 48 90 44 91 45 92 46 93 47 94
REMARK H PARENT 8 6 79 24 12 28 71 47 39 58
REMARK Flexibility Score: inf
ROOT
ATOM      1  C   UNL     1      -3.640   2.865  -6.106  1.00  0.00     0.042 C 
ENDROOT
BRANCH   1   2
ATOM      2  C   UNL     1      -3.518   2.483  -4.648  1.00  0.00     0.117 C 
BRANCH   2   3
ATOM      3  N   UNL     1      -2.781   1.260  -4.454  1.00  0.00    -0.356 N 
ATOM      4  C   UNL     1      -1.700   1.015  -3.673  1.00  0.00     0.226 C 
ATOM      5  O   UNL     1      -1.367  -0.170  -3.552  1.00  0.00    -0.275 OA
ATOM      6  H   UNL     1      -3.111   0.486  -4.965  1.00  0.00     0.163 HD
BRANCH   4   7
ATOM      7  C   UNL     1      -0.878   2.110  -2.983  1.00  0.00     0.111 C 
BRANCH   7   8
ATOM      8  C   UNL     1       0.021   2.939  -3.946  1.00  0.00     0.016 C 
BRANCH   8   9
ATOM      9  C   UNL     1      -0.526   3.988  -4.920  1.00  0.00     0.001 C 
BRANCH   9  10
ATOM     10  C   UNL     1      -1.213   5.221  -4.340  1.00  0.00    -0.003 C 
ATOM     11  C   UNL     1      -0.259   6.210  -3.697  1.00  0.00     0.004 C 
ENDBRANCH   9  10
ENDBRANCH   8   9
ENDBRANCH   7   8
BRANCH   7  12
ATOM     12  C   UNL     1      -1.481   2.863  -1.757  1.00  0.00     0.157 C 
BRANCH  12  13
ATOM     13  C   UNL     1      -2.982   2.902  -1.557  1.00  0.00    -0.019 A 
ATOM     14  C   UNL     1      -3.667   4.129  -1.586  1.00  0.00     0.007 A 
ATOM     15  C   UNL     1      -3.734   1.730  -1.380  1.00  0.00     0.007 A 
ATOM     16  C   UNL     1      -5.064   4.171  -1.597  1.00  0.00     0.013 A 
ATOM     17  C   UNL     1      -5.132   1.769  -1.388  1.00  0.00     0.013 A 
ATOM     18  C   UNL     1      -5.810   2.986  -1.542  1.00  0.00     0.056 A 
BRANCH  18  19
ATOM     19  C   UNL     1      -7.311   3.038  -1.695  1.00  0.00     0.416 C 
ATOM     20  F   UNL     1      -7.920   3.724  -0.691  1.00  0.00    -0.166 F 
ATOM     21  F   UNL     1      -7.678   3.651  -2.853  1.00  0.00    -0.166 F 
ATOM     22  F   UNL     1      -7.897   1.809  -1.724  1.00  0.00    -0.166 F 
ENDBRANCH  18  19
ENDBRANCH  12  13
BRANCH  12  23
ATOM     23  O   UNL     1      -0.951   2.310  -0.539  1.00  0.00    -0.388 OA
ATOM     24  H   UNL     1      -1.270   1.400  -0.431  1.00  0.00     0.211 HD
ENDBRANCH  12  23
ENDBRANCH   7  12
ENDBRANCH   4   7
ENDBRANCH   2   3
ENDBRANCH   1   2
BRANCH   1  25
ATOM     25  C   UNL     1      -4.989   2.475  -6.669  1.00  0.00     0.118 C 
BRANCH  25  26
ATOM     26  N   UNL     1      -6.065   3.305  -6.132  1.00  0.00    -0.352 N 
ATOM     27  C   UNL     1      -6.912   4.166  -6.787  1.00  0.00     0.251 C 
ATOM     28  H   UNL     1      -6.203   3.237  -5.160  1.00  0.00     0.163 HD
ATOM     29  O   UNL     1      -7.594   4.958  -6.141  1.00  0.00    -0.269 OA
BRANCH  27  30
ATOM     30  C   UNL     1      -6.963   4.159  -8.263  1.00  0.00     0.039 A 
ATOM     31  C   UNL     1      -7.094   5.365  -8.953  1.00  0.00     0.014 A 
ATOM     32  C   UNL     1      -6.844   2.959  -8.966  1.00  0.00     0.014 A 
ATOM     33  C   UNL     1      -7.029   5.367 -10.347  1.00  0.00     0.010 A 
ATOM     34  C   UNL     1      -6.628   2.982 -10.334  1.00  0.00     0.010 A 
ATOM     35  C   UNL     1      -6.750   4.181 -11.045  1.00  0.00    -0.014 A 
BRANCH  35  36
ATOM     36  C   UNL     1      -6.643   4.149 -12.525  1.00  0.00     0.031 A 
ATOM     37  C   UNL     1      -7.576   3.268 -13.314  1.00  0.00     0.074 A 
ATOM     38  C   UNL     1      -5.679   4.856 -13.145  1.00  0.00     0.049 A 
ATOM     39  N   UNL     1      -7.599   3.024 -14.599  1.00  0.00    -0.248 NA
ATOM     40  C   UNL     1      -8.586   2.523 -12.545  1.00  0.00     0.031 C 
ATOM     41  C   UNL     1      -4.693   5.710 -12.479  1.00  0.00     0.029 A 
ATOM     42  N   UNL     1      -5.373   4.973 -14.476  1.00  0.00    -0.354 N 
ATOM     43  C   UNL     1      -8.613   2.088 -14.784  1.00  0.00     0.074 A 
ATOM     44  C   UNL     1      -9.101   1.732 -13.471  1.00  0.00     0.031 C 
ATOM     45  C   UNL     1      -3.930   6.306 -13.409  1.00  0.00     0.029 A 
ATOM     46  C   UNL     1      -4.332   5.835 -14.729  1.00  0.00     0.049 A 
ATOM     47  H   UNL     1      -5.853   4.485 -15.184  1.00  0.00     0.167 HD
ATOM     48  C   UNL     1      -9.122   1.604 -15.943  1.00  0.00     0.034 A 
ATOM     49  C   UNL     1      -3.770   6.202 -15.897  1.00  0.00     0.034 A 
ATOM     50  C   UNL     1      -8.626   1.984 -17.242  1.00  0.00     0.049 A 
ATOM     51  C   UNL     1      -4.316   5.615 -17.175  1.00  0.00     0.074 A 
ATOM     52  C   UNL     1      -9.077   1.593 -18.489  1.00  0.00     0.029 A 
ATOM     53  N   UNL     1      -7.556   2.845 -17.459  1.00  0.00    -0.354 N 
ATOM     54  N   UNL     1      -5.303   4.764 -17.340  1.00  0.00    -0.248 NA
ATOM     55  C   UNL     1      -3.676   6.047 -18.422  1.00  0.00     0.031 C 
ATOM     56  C   UNL     1      -8.236   2.155 -19.454  1.00  0.00     0.029 A 
ATOM     57  C   UNL     1      -7.313   2.971 -18.818  1.00  0.00     0.049 A 
ATOM     58  H   UNL     1      -7.045   3.300 -16.751  1.00  0.00     0.167 HD
ATOM     59  C   UNL     1      -5.426   4.589 -18.716  1.00  0.00     0.074 A 
ATOM     60  C   UNL     1      -4.420   5.433 -19.330  1.00  0.00     0.031 C 
ATOM     61  C   UNL     1      -6.296   3.810 -19.410  1.00  0.00     0.034 A 
BRANCH  48  62
ATOM     62  C   UNL     1     -10.252   0.604 -15.834  1.00  0.00     0.023 A 
ATOM     63  C   UNL     1     -11.457   0.924 -15.180  1.00  0.00     0.031 A 
ATOM     64  C   UNL     1     -10.100  -0.707 -16.317  1.00  0.00     0.131 A 
ATOM     65  C   UNL     1     -12.405  -0.078 -14.923  1.00  0.00     0.055 A 
ATOM     66  C   UNL     1     -11.096  -1.673 -16.152  1.00  0.00     0.041 A 
ATOM     67  F   UNL     1      -8.967  -1.085 -16.930  1.00  0.00    -0.206 F 
ATOM     68  C   UNL     1     -12.247  -1.368 -15.431  1.00  0.00     0.022 A 
BRANCH  65  69
ATOM     69  S   UNL     1     -13.738   0.281 -13.746  1.00  0.00     0.124 S 
ATOM     70  O   UNL     1     -12.983   0.656 -12.552  1.00  0.00    -0.237 OA
ATOM     71  O   UNL     1     -14.463   1.359 -14.409  1.00  0.00    -0.237 OA
ATOM     72  O   UNL     1     -14.457  -0.988 -13.645  1.00  0.00    -0.744 OA
ENDBRANCH  65  69
ENDBRANCH  48  62
BRANCH  49  73
ATOM     73  C   UNL     1      -2.650   7.185 -15.922  1.00  0.00     0.023 A 
ATOM     74  C   UNL     1      -2.808   8.435 -16.541  1.00  0.00     0.031 A 
ATOM     75  C   UNL     1      -1.399   6.885 -15.354  1.00  0.00     0.131 A 
ATOM     76  C   UNL     1      -1.723   9.321 -16.619  1.00  0.00     0.055 A 
ATOM     77  C   UNL     1      -0.338   7.793 -15.386  1.00  0.00     0.041 A 
ATOM     78  F   UNL     1      -1.194   5.707 -14.745  1.00  0.00    -0.206 F 
ATOM     79  C   UNL     1      -0.493   9.015 -16.033  1.00  0.00     0.022 A 
BRANCH  76  80
ATOM     80  S   UNL     1      -1.919  10.851 -17.573  1.00  0.00     0.124 S 
ATOM     81  O   UNL     1      -2.260  10.335 -18.893  1.00  0.00    -0.237 OA
ATOM     82  O   UNL     1      -2.992  11.524 -16.849  1.00  0.00    -0.237 OA
ATOM     83  O   UNL     1      -0.607  11.486 -17.470  1.00  0.00    -0.744 OA
ENDBRANCH  76  80
ENDBRANCH  49  73
BRANCH  61  84
ATOM     84  C   UNL     1      -6.226   3.881 -20.916  1.00  0.00     0.023 A 
ATOM     85  C   UNL     1      -5.102   3.430 -21.629  1.00  0.00     0.031 A 
ATOM     86  C   UNL     1      -7.302   4.416 -21.647  1.00  0.00     0.131 A 
ATOM     87  C   UNL     1      -5.053   3.581 -23.023  1.00  0.00     0.055 A 
ATOM     88  C   UNL     1      -7.277   4.498 -23.039  1.00  0.00     0.041 A 
ATOM     89  F   UNL     1      -8.400   4.865 -21.018  1.00  0.00    -0.206 F 
ATOM     90  C   UNL     1      -6.141   4.092 -23.734  1.00  0.00     0.022 A 
BRANCH  87  91
ATOM     91  S   UNL     1      -3.504   3.198 -23.885  1.00  0.00     0.124 S 
ATOM     92  O   UNL     1      -2.559   4.089 -23.220  1.00  0.00    -0.237 OA
ATOM     93  O   UNL     1      -3.338   1.774 -23.610  1.00  0.00    -0.237 OA
ATOM     94  O   UNL     1      -3.795   3.530 -25.278  1.00  0.00    -0.744 OA
ENDBRANCH  87  91
ENDBRANCH  61  84
ENDBRANCH  35  36
ENDBRANCH  27  30
ENDBRANCH  25  26
ENDBRANCH   1  25
TORSDOF 20
