REMARK SMILES Cc1nc(-c2ccccc2Cl)nc2sc(C(=O)NCCCNC(=O)c3ccc(-c4c5nc(c(-c6cc(S(=O)(=O)[O-])ccc6F)c6ccc([nH]6)c(-c6cc(S(=O)(=O)[O-])ccc6F)c6nc(c(-c7cc(S(=O)(=O)[O-])ccc7F)c7ccc4[nH]7)C=C6)C=C5)cc3)c(N)c12
REMARK SMILES IDX 21 1 20 2 19 3 18 4 16 5 17 6 15 8 1 9 2 10 3 11 90 12 4 13
REMARK SMILES IDX 13 14 88 15 12 16 14 17 5 18 6 19 10 20 7 21 9 22 11 23 8 24
REMARK SMILES IDX 89 25 22 28 23 29 24 31 25 32 26 33 87 34 27 35 86 36 28 37
REMARK SMILES IDX 29 38 30 39 80 40 31 41 85 42 79 43 81 44 32 45 84 46 78 47
REMARK SMILES IDX 77 48 33 50 65 51 45 52 64 53 46 54 49 55 63 56 82 57 47 58
REMARK SMILES IDX 48 59 62 61 83 62 50 63 34 64 35 65 43 66 36 67 42 68 44 69
REMARK SMILES IDX 41 70 37 71 38 72 39 73 40 74 66 75 67 76 75 77 68 78 74 79
REMARK SMILES IDX 76 80 73 81 69 82 70 83 71 84 72 85 51 86 52 87 60 88 53 89
REMARK SMILES IDX 59 90 61 91 58 92 54 93 55 94 56 95 57 96
REMARK H PARENT 18 7 89 26 89 27 22 30 81 49 49 60
REMARK Flexibility Score: inf
ROOT
ATOM      1  C   UNL     1      -5.958  -5.904   3.495  1.00  0.00     0.118 C 
ENDROOT
BRANCH   1   2
ATOM      2  C   UNL     1      -4.779  -5.269   2.787  1.00  0.00     0.042 C 
BRANCH   2   3
ATOM      3  C   UNL     1      -5.206  -4.335   1.643  1.00  0.00     0.118 C 
BRANCH   3   4
ATOM      4  N   UNL     1      -5.274  -2.933   2.044  1.00  0.00    -0.351 N 
ATOM      5  C   UNL     1      -4.341  -1.912   1.973  1.00  0.00     0.263 C 
ATOM      6  O   UNL     1      -4.774  -0.774   2.182  1.00  0.00    -0.268 OA
ATOM      7  H   UNL     1      -6.137  -2.665   2.434  1.00  0.00     0.163 HD
BRANCH   5   8
ATOM      8  C   UNL     1      -2.944  -2.148   1.620  1.00  0.00     0.118 A 
ATOM      9  C   UNL     1       0.836  -0.032  -0.110  1.00  0.00     0.067 C 
ATOM     10  C   UNL     1       0.459  -1.454   0.161  1.00  0.00     0.052 A 
ATOM     11  N   UNL     1       1.376  -2.409  -0.196  1.00  0.00    -0.233 NA
ATOM     12  C   UNL     1      -0.760  -1.868   0.741  1.00  0.00     0.056 A 
ATOM     13  C   UNL     1       1.124  -3.699   0.092  1.00  0.00     0.162 A 
ATOM     14  C   UNL     1      -0.826  -3.216   1.033  1.00  0.00     0.130 A 
ATOM     15  C   UNL     1      -2.009  -1.242   1.120  1.00  0.00     0.067 A 
ATOM     16  N   UNL     1       0.057  -4.164   0.731  1.00  0.00    -0.217 NA
ATOM     17  S   UNL     1      -2.175  -3.634   1.930  1.00  0.00    -0.108 S 
BRANCH  13  18
ATOM     18  C   UNL     1       2.058  -4.744  -0.310  1.00  0.00     0.038 A 
ATOM     19  C   UNL     1       1.646  -5.693  -1.273  1.00  0.00     0.013 A 
ATOM     20  C   UNL     1       3.272  -4.962   0.354  1.00  0.00     0.052 A 
ATOM     21  C   UNL     1       2.409  -6.829  -1.546  1.00  0.00     0.001 A 
ATOM     22  C   UNL     1       4.036  -6.104   0.080  1.00  0.00     0.021 A 
ATOM     23  Cl  UNL     1       3.848  -3.897   1.591  1.00  0.00    -0.084 Cl
ATOM     24  C   UNL     1       3.601  -7.038  -0.861  1.00  0.00     0.002 A 
ENDBRANCH  13  18
BRANCH  15  25
ATOM     25  N   UNL     1      -2.293   0.070   0.956  1.00  0.00    -0.397 N 
ATOM     26  H   UNL     1      -3.167   0.423   1.239  1.00  0.00     0.156 HD
ATOM     27  H   UNL     1      -1.627   0.671   0.552  1.00  0.00     0.156 HD
ENDBRANCH  15  25
ENDBRANCH   5   8
ENDBRANCH   3   4
ENDBRANCH   2   3
ENDBRANCH   1   2
BRANCH   1  28
ATOM     28  N   UNL     1      -6.602  -6.931   2.680  1.00  0.00    -0.352 N 
ATOM     29  C   UNL     1      -7.721  -7.681   2.994  1.00  0.00     0.251 C 
ATOM     30  H   UNL     1      -6.191  -7.110   1.804  1.00  0.00     0.163 HD
ATOM     31  O   UNL     1      -7.956  -8.719   2.402  1.00  0.00    -0.269 OA
BRANCH  29  32
ATOM     32  C   UNL     1      -8.598  -7.200   4.080  1.00  0.00     0.039 A 
ATOM     33  C   UNL     1      -9.062  -8.075   5.065  1.00  0.00     0.014 A 
ATOM     34  C   UNL     1      -8.892  -5.841   4.135  1.00  0.00     0.014 A 
ATOM     35  C   UNL     1      -9.743  -7.554   6.164  1.00  0.00     0.010 A 
ATOM     36  C   UNL     1      -9.441  -5.315   5.279  1.00  0.00     0.010 A 
ATOM     37  C   UNL     1      -9.905  -6.166   6.283  1.00  0.00    -0.014 A 
BRANCH  37  38
ATOM     38  C   UNL     1     -10.458  -5.573   7.502  1.00  0.00     0.031 A 
ATOM     39  C   UNL     1      -9.747  -5.897   8.777  1.00  0.00     0.074 A 
ATOM     40  C   UNL     1     -11.370  -4.577   7.461  1.00  0.00     0.049 A 
ATOM     41  N   UNL     1     -10.233  -6.432   9.849  1.00  0.00    -0.248 NA
ATOM     42  C   UNL     1      -8.295  -5.660   8.847  1.00  0.00     0.031 C 
ATOM     43  C   UNL     1     -11.951  -3.933   6.278  1.00  0.00     0.029 A 
ATOM     44  N   UNL     1     -11.856  -3.820   8.482  1.00  0.00    -0.354 N 
ATOM     45  C   UNL     1      -9.207  -6.442  10.792  1.00  0.00     0.074 A 
ATOM     46  C   UNL     1      -8.007  -6.085  10.079  1.00  0.00     0.031 C 
ATOM     47  C   UNL     1     -12.486  -2.744   6.630  1.00  0.00     0.029 A 
ATOM     48  C   UNL     1     -12.442  -2.625   8.075  1.00  0.00     0.049 A 
ATOM     49  H   UNL     1     -11.798  -4.094   9.426  1.00  0.00     0.167 HD
ATOM     50  C   UNL     1      -9.446  -6.574  12.128  1.00  0.00     0.034 A 
ATOM     51  C   UNL     1     -12.831  -1.593   8.866  1.00  0.00     0.034 A 
ATOM     52  C   UNL     1     -10.788  -7.027  12.386  1.00  0.00     0.049 A 
ATOM     53  C   UNL     1     -13.039  -2.160  10.220  1.00  0.00     0.074 A 
ATOM     54  C   UNL     1     -11.505  -8.160  12.056  1.00  0.00     0.029 A 
ATOM     55  N   UNL     1     -11.728  -6.087  12.742  1.00  0.00    -0.354 N 
ATOM     56  N   UNL     1     -13.946  -3.059  10.490  1.00  0.00    -0.248 NA
ATOM     57  C   UNL     1     -11.945  -2.080  11.176  1.00  0.00     0.031 C 
ATOM     58  C   UNL     1     -12.809  -7.683  11.729  1.00  0.00     0.029 A 
ATOM     59  C   UNL     1     -12.828  -6.303  11.948  1.00  0.00     0.049 A 
ATOM     60  H   UNL     1     -11.630  -5.393  13.433  1.00  0.00     0.167 HD
ATOM     61  C   UNL     1     -13.331  -3.934  11.371  1.00  0.00     0.074 A 
ATOM     62  C   UNL     1     -12.146  -3.221  11.843  1.00  0.00     0.031 C 
ATOM     63  C   UNL     1     -13.681  -5.253  11.423  1.00  0.00     0.034 A 
BRANCH  50  64
ATOM     64  C   UNL     1      -8.563  -6.040  13.227  1.00  0.00     0.023 A 
ATOM     65  C   UNL     1      -8.786  -6.466  14.553  1.00  0.00     0.031 A 
ATOM     66  C   UNL     1      -7.687  -4.944  13.067  1.00  0.00     0.131 A 
ATOM     67  C   UNL     1      -8.182  -5.798  15.635  1.00  0.00     0.055 A 
ATOM     68  C   UNL     1      -7.041  -4.324  14.139  1.00  0.00     0.041 A 
ATOM     69  F   UNL     1      -7.492  -4.359  11.877  1.00  0.00    -0.206 F 
ATOM     70  C   UNL     1      -7.300  -4.737  15.435  1.00  0.00     0.022 A 
BRANCH  67  71
ATOM     71  S   UNL     1      -8.668  -6.247  17.325  1.00  0.00     0.124 S 
ATOM     72  O   UNL     1     -10.107  -6.014  17.296  1.00  0.00    -0.237 OA
ATOM     73  O   UNL     1      -8.241  -7.639  17.405  1.00  0.00    -0.237 OA
ATOM     74  O   UNL     1      -7.905  -5.317  18.157  1.00  0.00    -0.744 OA
ENDBRANCH  67  71
ENDBRANCH  50  64
BRANCH  51  75
ATOM     75  C   UNL     1     -12.773  -0.135   8.573  1.00  0.00     0.023 A 
ATOM     76  C   UNL     1     -13.452   0.811   9.367  1.00  0.00     0.031 A 
ATOM     77  C   UNL     1     -11.838   0.377   7.643  1.00  0.00     0.131 A 
ATOM     78  C   UNL     1     -13.184   2.192   9.223  1.00  0.00     0.055 A 
ATOM     79  C   UNL     1     -11.585   1.744   7.495  1.00  0.00     0.041 A 
ATOM     80  F   UNL     1     -11.069  -0.438   6.905  1.00  0.00    -0.206 F 
ATOM     81  C   UNL     1     -12.249   2.658   8.296  1.00  0.00     0.022 A 
BRANCH  78  82
ATOM     82  S   UNL     1     -13.952   3.401  10.347  1.00  0.00     0.124 S 
ATOM     83  O   UNL     1     -15.278   3.561   9.761  1.00  0.00    -0.237 OA
ATOM     84  O   UNL     1     -13.891   2.721  11.636  1.00  0.00    -0.237 OA
ATOM     85  O   UNL     1     -13.079   4.569  10.231  1.00  0.00    -0.744 OA
ENDBRANCH  78  82
ENDBRANCH  51  75
BRANCH  63  86
ATOM     86  C   UNL     1     -14.927  -5.702  10.684  1.00  0.00     0.023 A 
ATOM     87  C   UNL     1     -15.099  -5.630   9.282  1.00  0.00     0.031 A 
ATOM     88  C   UNL     1     -15.907  -6.379  11.428  1.00  0.00     0.131 A 
ATOM     89  C   UNL     1     -16.227  -6.224   8.678  1.00  0.00     0.055 A 
ATOM     90  C   UNL     1     -17.010  -6.983  10.826  1.00  0.00     0.041 A 
ATOM     91  F   UNL     1     -15.779  -6.510  12.759  1.00  0.00    -0.206 F 
ATOM     92  C   UNL     1     -17.175  -6.906   9.447  1.00  0.00     0.022 A 
BRANCH  89  93
ATOM     93  S   UNL     1     -16.463  -6.144   6.872  1.00  0.00     0.124 S 
ATOM     94  O   UNL     1     -16.469  -4.712   6.597  1.00  0.00    -0.237 OA
ATOM     95  O   UNL     1     -15.317  -6.891   6.362  1.00  0.00    -0.237 OA
ATOM     96  O   UNL     1     -17.754  -6.806   6.666  1.00  0.00    -0.744 OA
ENDBRANCH  89  93
ENDBRANCH  63  86
ENDBRANCH  37  38
ENDBRANCH  29  32
ENDBRANCH   1  28
TORSDOF 15
