REMARK SMILES CC(C)[C@H]1CC[C@@H](C)C/C1=C(\F)C(=O)NCCCNC(=O)c1ccc(-c2c3nc(c(-c4cc(S(=O)(=O)[O-])ccc4F)c4ccc([nH]4)c(-c4cc(S(=O)(=O)[O-])ccc4F)c4nc(c(-c5cc(S(=O)(=O)[O-])ccc5F)c5ccc2[nH]5)C=C4)C=C3)cc1
REMARK SMILES IDX 18 1 17 2 16 3 15 4 13 5 14 6 11 8 4 9 5 10 10 11 6 12 9 13
REMARK SMILES IDX 7 14 12 15 8 16 2 17 1 18 3 19 19 20 20 21 21 23 22 24 23 25
REMARK SMILES IDX 84 26 24 27 83 28 25 29 26 30 27 31 77 32 28 33 82 34 76 35
REMARK SMILES IDX 78 36 29 37 81 38 75 39 74 40 30 42 62 43 42 44 61 45 43 46
REMARK SMILES IDX 46 47 60 48 79 49 44 50 45 51 59 53 80 54 47 55 31 56 32 57
REMARK SMILES IDX 40 58 33 59 39 60 41 61 38 62 34 63 35 64 36 65 37 66 63 67
REMARK SMILES IDX 64 68 72 69 65 70 71 71 73 72 70 73 66 74 67 75 68 76 69 77
REMARK SMILES IDX 48 78 49 79 57 80 50 81 56 82 58 83 55 84 51 85 52 86 53 87
REMARK SMILES IDX 54 88
REMARK H PARENT 15 7 19 22 78 41 46 52
REMARK Flexibility Score: inf
ROOT
ATOM      1  C   UNL     1      -5.994  -1.758   4.904  1.00  0.00     0.118 C 
ENDROOT
BRANCH   1   2
ATOM      2  C   UNL     1      -5.250  -0.503   4.449  1.00  0.00     0.042 C 
BRANCH   2   3
ATOM      3  C   UNL     1      -3.753  -0.735   4.250  1.00  0.00     0.118 C 
BRANCH   3   4
ATOM      4  N   UNL     1      -3.555  -1.714   3.199  1.00  0.00    -0.350 N 
ATOM      5  C   UNL     1      -3.407  -1.490   1.863  1.00  0.00     0.279 C 
ATOM      6  O   UNL     1      -3.836  -2.320   1.067  1.00  0.00    -0.267 OA
ATOM      7  H   UNL     1      -3.524  -2.656   3.485  1.00  0.00     0.163 HD
BRANCH   5   8
ATOM      8  C   UNL     1      -2.681  -0.272   1.428  1.00  0.00     0.187 C 
ATOM      9  C   UNL     1      -0.937  -1.331  -0.225  1.00  0.00     0.021 C 
ATOM     10  C   UNL     1      -1.393  -1.169  -1.697  1.00  0.00     0.009 C 
ATOM     11  C   UNL     1      -1.664  -0.213   0.545  1.00  0.00    -0.025 C 
ATOM     12  C   UNL     1      -1.083   0.229  -2.256  1.00  0.00     0.004 C 
ATOM     13  C   UNL     1      -1.190   1.159   0.091  1.00  0.00     0.038 C 
ATOM     14  C   UNL     1      -1.587   1.385  -1.377  1.00  0.00    -0.010 C 
ATOM     15  F   UNL     1      -3.184   0.877   1.934  1.00  0.00    -0.201 F 
ATOM     16  C   UNL     1      -3.100   1.589  -1.528  1.00  0.00     0.008 C 
BRANCH   9  17
ATOM     17  C   UNL     1      -1.007  -2.814   0.259  1.00  0.00    -0.010 C 
ATOM     18  C   UNL     1      -0.155  -3.769  -0.595  1.00  0.00     0.008 C 
ATOM     19  C   UNL     1      -0.554  -2.992   1.716  1.00  0.00     0.008 C 
ENDBRANCH   9  17
ENDBRANCH   5   8
ENDBRANCH   3   4
ENDBRANCH   2   3
ENDBRANCH   1   2
BRANCH   1  20
ATOM     20  N   UNL     1      -5.594  -2.178   6.239  1.00  0.00    -0.352 N 
ATOM     21  C   UNL     1      -6.371  -2.369   7.355  1.00  0.00     0.251 C 
ATOM     22  H   UNL     1      -4.632  -2.350   6.358  1.00  0.00     0.163 HD
ATOM     23  O   UNL     1      -5.838  -2.503   8.450  1.00  0.00    -0.269 OA
BRANCH  21  24
ATOM     24  C   UNL     1      -7.844  -2.387   7.225  1.00  0.00     0.039 A 
ATOM     25  C   UNL     1      -8.612  -1.670   8.144  1.00  0.00     0.014 A 
ATOM     26  C   UNL     1      -8.463  -3.103   6.196  1.00  0.00     0.014 A 
ATOM     27  C   UNL     1      -9.999  -1.621   7.994  1.00  0.00     0.010 A 
ATOM     28  C   UNL     1      -9.837  -2.988   6.003  1.00  0.00     0.010 A 
ATOM     29  C   UNL     1     -10.621  -2.249   6.901  1.00  0.00    -0.014 A 
BRANCH  29  30
ATOM     30  C   UNL     1     -12.088  -2.141   6.685  1.00  0.00     0.031 A 
ATOM     31  C   UNL     1     -12.949  -3.374   6.721  1.00  0.00     0.074 A 
ATOM     32  C   UNL     1     -12.634  -0.941   6.402  1.00  0.00     0.049 A 
ATOM     33  N   UNL     1     -14.232  -3.495   6.492  1.00  0.00    -0.248 NA
ATOM     34  C   UNL     1     -12.272  -4.642   7.029  1.00  0.00     0.031 C 
ATOM     35  C   UNL     1     -11.895   0.320   6.301  1.00  0.00     0.029 A 
ATOM     36  N   UNL     1     -13.933  -0.584   6.139  1.00  0.00    -0.354 N 
ATOM     37  C   UNL     1     -14.514  -4.851   6.618  1.00  0.00     0.074 A 
ATOM     38  C   UNL     1     -13.254  -5.517   6.876  1.00  0.00     0.031 C 
ATOM     39  C   UNL     1     -12.755   1.313   6.026  1.00  0.00     0.029 A 
ATOM     40  C   UNL     1     -14.096   0.757   5.876  1.00  0.00     0.049 A 
ATOM     41  H   UNL     1     -14.678  -1.227   6.139  1.00  0.00     0.167 HD
ATOM     42  C   UNL     1     -15.714  -5.479   6.548  1.00  0.00     0.034 A 
ATOM     43  C   UNL     1     -15.196   1.458   5.536  1.00  0.00     0.034 A 
ATOM     44  C   UNL     1     -16.960  -4.798   6.291  1.00  0.00     0.049 A 
ATOM     45  C   UNL     1     -16.514   0.732   5.424  1.00  0.00     0.074 A 
ATOM     46  C   UNL     1     -18.238  -5.327   6.247  1.00  0.00     0.029 A 
ATOM     47  N   UNL     1     -17.085  -3.440   6.020  1.00  0.00    -0.354 N 
ATOM     48  N   UNL     1     -16.772  -0.544   5.599  1.00  0.00    -0.248 NA
ATOM     49  C   UNL     1     -17.689   1.542   5.080  1.00  0.00     0.031 C 
ATOM     50  C   UNL     1     -19.122  -4.310   5.873  1.00  0.00     0.029 A 
ATOM     51  C   UNL     1     -18.413  -3.123   5.773  1.00  0.00     0.049 A 
ATOM     52  H   UNL     1     -16.340  -2.797   6.006  1.00  0.00     0.167 HD
ATOM     53  C   UNL     1     -18.146  -0.681   5.418  1.00  0.00     0.074 A 
ATOM     54  C   UNL     1     -18.660   0.644   5.137  1.00  0.00     0.031 C 
ATOM     55  C   UNL     1     -18.914  -1.799   5.482  1.00  0.00     0.034 A 
BRANCH  42  56
ATOM     56  C   UNL     1     -15.725  -6.981   6.726  1.00  0.00     0.023 A 
ATOM     57  C   UNL     1     -15.291  -7.587   7.919  1.00  0.00     0.031 A 
ATOM     58  C   UNL     1     -16.148  -7.821   5.681  1.00  0.00     0.131 A 
ATOM     59  C   UNL     1     -15.211  -8.985   8.007  1.00  0.00     0.055 A 
ATOM     60  C   UNL     1     -16.151  -9.212   5.807  1.00  0.00     0.041 A 
ATOM     61  F   UNL     1     -16.553  -7.305   4.510  1.00  0.00    -0.206 F 
ATOM     62  C   UNL     1     -15.665  -9.802   6.970  1.00  0.00     0.022 A 
BRANCH  59  63
ATOM     63  S   UNL     1     -14.359  -9.715   9.432  1.00  0.00     0.124 S 
ATOM     64  O   UNL     1     -13.038  -9.098   9.333  1.00  0.00    -0.237 OA
ATOM     65  O   UNL     1     -15.185  -9.278  10.552  1.00  0.00    -0.237 OA
ATOM     66  O   UNL     1     -14.391 -11.149   9.154  1.00  0.00    -0.744 OA
ENDBRANCH  59  63
ENDBRANCH  42  56
BRANCH  43  67
ATOM     67  C   UNL     1     -15.105   2.921   5.259  1.00  0.00     0.023 A 
ATOM     68  C   UNL     1     -15.787   3.855   6.056  1.00  0.00     0.031 A 
ATOM     69  C   UNL     1     -14.368   3.406   4.163  1.00  0.00     0.131 A 
ATOM     70  C   UNL     1     -15.760   5.217   5.717  1.00  0.00     0.055 A 
ATOM     71  C   UNL     1     -14.296   4.768   3.865  1.00  0.00     0.041 A 
ATOM     72  F   UNL     1     -13.696   2.558   3.369  1.00  0.00    -0.206 F 
ATOM     73  C   UNL     1     -15.007   5.681   4.637  1.00  0.00     0.022 A 
BRANCH  70  74
ATOM     74  S   UNL     1     -16.805   6.366   6.654  1.00  0.00     0.124 S 
ATOM     75  O   UNL     1     -18.130   5.790   6.457  1.00  0.00    -0.237 OA
ATOM     76  O   UNL     1     -16.249   6.254   7.998  1.00  0.00    -0.237 OA
ATOM     77  O   UNL     1     -16.577   7.649   5.993  1.00  0.00    -0.744 OA
ENDBRANCH  70  74
ENDBRANCH  43  67
BRANCH  55  78
ATOM     78  C   UNL     1     -20.402  -1.625   5.293  1.00  0.00     0.023 A 
ATOM     79  C   UNL     1     -20.953  -1.201   4.071  1.00  0.00     0.031 A 
ATOM     80  C   UNL     1     -21.283  -1.877   6.361  1.00  0.00     0.131 A 
ATOM     81  C   UNL     1     -22.336  -0.987   3.964  1.00  0.00     0.055 A 
ATOM     82  C   UNL     1     -22.664  -1.728   6.228  1.00  0.00     0.041 A 
ATOM     83  F   UNL     1     -20.814  -2.279   7.554  1.00  0.00    -0.206 F 
ATOM     84  C   UNL     1     -23.196  -1.267   5.028  1.00  0.00     0.022 A 
BRANCH  81  85
ATOM     85  S   UNL     1     -22.986  -0.238   2.445  1.00  0.00     0.124 S 
ATOM     86  O   UNL     1     -22.251   1.021   2.389  1.00  0.00    -0.237 OA
ATOM     87  O   UNL     1     -22.634  -1.229   1.433  1.00  0.00    -0.237 OA
ATOM     88  O   UNL     1     -24.418  -0.109   2.712  1.00  0.00    -0.744 OA
ENDBRANCH  81  85
ENDBRANCH  55  78
ENDBRANCH  29  30
ENDBRANCH  21  24
ENDBRANCH   1  20
TORSDOF 14
