REMARK SMILES C[C@@](NC(=O)CCOC1CC[NH2+]CC1)(C(=O)NCCCNC(=O)c1ccc(-c2c3nc(c(-c4cc(S(=O)(=O)[O-])ccc4F)c4ccc([nH]4)c(-c4cc(S(=O)(=O)[O-])ccc4F)c4nc(c(-c5cc(S(=O)(=O)[O-])ccc5F)c5ccc2[nH]5)C=C4)C=C3)cc1)C(F)(F)F
REMARK SMILES IDX 18 1 17 2 15 3 16 4 2 6 1 7 3 8 4 9 5 11 6 12 7 13 8 14 9 15
REMARK SMILES IDX 10 16 14 17 11 18 13 19 12 20 87 23 88 24 89 25 90 26 19 27
REMARK SMILES IDX 20 28 21 29 22 30 23 32 24 33 25 34 86 35 26 36 85 37 27 38
REMARK SMILES IDX 28 39 29 40 79 41 30 42 84 43 78 44 80 45 31 46 83 47 77 48
REMARK SMILES IDX 76 49 32 51 64 52 44 53 63 54 45 55 48 56 62 57 81 58 46 59
REMARK SMILES IDX 47 60 61 62 82 63 49 64 33 65 34 66 42 67 35 68 41 69 43 70
REMARK SMILES IDX 40 71 36 72 37 73 38 74 39 75 65 76 66 77 74 78 67 79 73 80
REMARK SMILES IDX 75 81 72 82 68 83 69 84 70 85 71 86 50 87 51 88 59 89 52 90
REMARK SMILES IDX 58 91 60 92 57 93 53 94 54 95 55 96 56 97
REMARK H PARENT 17 5 3 10 12 21 12 22 21 31 80 50 48 61
REMARK Flexibility Score: inf
ROOT
ATOM      1  C   UNL     1      -1.590  -1.021   1.635  1.00  0.00     0.117 C 
ENDROOT
BRANCH   1   2
ATOM      2  N   UNL     1      -1.472  -0.324   0.312  1.00  0.00    -0.354 N 
ATOM      3  C   UNL     1      -0.601  -0.058  -0.800  1.00  0.00     0.254 C 
ATOM      4  O   UNL     1      -1.379   0.885  -1.193  1.00  0.00    -0.272 OA
ATOM      5  H   UNL     1      -2.328   0.130   0.137  1.00  0.00     0.163 HD
BRANCH   3   6
ATOM      6  C   UNL     1       1.241  -0.813  -1.601  1.00  0.00     0.212 C 
ATOM      7  C   UNL     1       2.798  -0.748  -0.767  1.00  0.00     0.056 C 
BRANCH   6   8
ATOM      8  N   UNL     1       1.510  -2.526  -2.104  1.00  0.00    -0.334 N 
ATOM      9  C   UNL     1       1.515  -3.806  -1.579  1.00  0.00     0.223 C 
ATOM     10  H   UNL     1       1.722  -2.561  -3.065  1.00  0.00     0.164 HD
ATOM     11  O   UNL     1       2.552  -4.457  -1.762  1.00  0.00    -0.275 OA
BRANCH   9  12
ATOM     12  C   UNL     1       0.279  -4.548  -1.018  1.00  0.00     0.128 C 
BRANCH  12  13
ATOM     13  C   UNL     1      -0.625  -4.027   0.105  1.00  0.00     0.170 C 
BRANCH  13  14
ATOM     14  O   UNL     1      -0.153  -2.911   0.848  1.00  0.00    -0.377 OA
BRANCH  14  15
ATOM     15  C   UNL     1       0.265  -1.858  -0.018  1.00  0.00     0.129 C 
ATOM     16  C   UNL     1       0.924  -0.104   0.598  1.00  0.00     0.093 C 
ATOM     17  C   UNL     1      -0.762  -1.887  -1.701  1.00  0.00     0.093 C 
ATOM     18  C   UNL     1       0.982   1.304  -0.717  1.00  0.00     0.263 C 
ATOM     19  C   UNL     1      -0.607  -0.431  -2.887  1.00  0.00     0.263 C 
ATOM     20  N   UNL     1       0.374   1.055  -2.427  1.00  0.00    -0.346 N 
ATOM     21  H   UNL     1       1.197   1.055  -3.029  1.00  0.00     0.346 HD
ATOM     22  H   UNL     1      -0.306   1.808  -2.531  1.00  0.00     0.346 HD
ENDBRANCH  14  15
ENDBRANCH  13  14
ENDBRANCH  12  13
ENDBRANCH   9  12
ENDBRANCH   6   8
BRANCH   6  23
ATOM     23  C   UNL     1       2.120  -0.210  -3.073  1.00  0.00     0.420 C 
ATOM     24  F   UNL     1       2.793   0.955  -2.910  1.00  0.00    -0.168 F 
ATOM     25  F   UNL     1       3.132  -1.134  -3.322  1.00  0.00    -0.168 F 
ATOM     26  F   UNL     1       1.489  -0.208  -4.267  1.00  0.00    -0.168 F 
ENDBRANCH   6  23
ENDBRANCH   3   6
ENDBRANCH   1   2
BRANCH   1  27
ATOM     27  C   UNL     1      -2.342  -0.225   2.680  1.00  0.00     0.042 C 
BRANCH  27  28
ATOM     28  C   UNL     1      -3.811  -0.594   2.670  1.00  0.00     0.118 C 
BRANCH  28  29
ATOM     29  N   UNL     1      -4.041  -2.010   2.997  1.00  0.00    -0.352 N 
ATOM     30  C   UNL     1      -4.374  -2.640   4.175  1.00  0.00     0.251 C 
ATOM     31  H   UNL     1      -3.937  -2.620   2.231  1.00  0.00     0.163 HD
ATOM     32  O   UNL     1      -4.267  -3.860   4.264  1.00  0.00    -0.269 OA
BRANCH  30  33
ATOM     33  C   UNL     1      -4.831  -1.839   5.323  1.00  0.00     0.039 A 
ATOM     34  C   UNL     1      -4.475  -2.184   6.627  1.00  0.00     0.014 A 
ATOM     35  C   UNL     1      -5.586  -0.698   5.087  1.00  0.00     0.014 A 
ATOM     36  C   UNL     1      -4.798  -1.314   7.670  1.00  0.00     0.010 A 
ATOM     37  C   UNL     1      -5.704   0.256   6.076  1.00  0.00     0.010 A 
ATOM     38  C   UNL     1      -5.359  -0.055   7.393  1.00  0.00    -0.014 A 
BRANCH  38  39
ATOM     39  C   UNL     1      -5.649   0.940   8.456  1.00  0.00     0.031 A 
ATOM     40  C   UNL     1      -7.039   1.520   8.577  1.00  0.00     0.074 A 
ATOM     41  C   UNL     1      -4.648   1.379   9.245  1.00  0.00     0.049 A 
ATOM     42  N   UNL     1      -7.479   2.459   9.374  1.00  0.00    -0.248 NA
ATOM     43  C   UNL     1      -8.054   1.034   7.625  1.00  0.00     0.031 C 
ATOM     44  C   UNL     1      -3.243   0.971   9.144  1.00  0.00     0.029 A 
ATOM     45  N   UNL     1      -4.658   2.258  10.295  1.00  0.00    -0.354 N 
ATOM     46  C   UNL     1      -8.796   2.694   8.987  1.00  0.00     0.074 A 
ATOM     47  C   UNL     1      -9.041   1.893   7.813  1.00  0.00     0.031 C 
ATOM     48  C   UNL     1      -2.545   1.537  10.141  1.00  0.00     0.029 A 
ATOM     49  C   UNL     1      -3.439   2.384  10.921  1.00  0.00     0.049 A 
ATOM     50  H   UNL     1      -5.461   2.752  10.576  1.00  0.00     0.167 HD
ATOM     51  C   UNL     1      -9.736   3.462   9.591  1.00  0.00     0.034 A 
ATOM     52  C   UNL     1      -3.093   3.090  12.014  1.00  0.00     0.034 A 
ATOM     53  C   UNL     1      -9.481   4.200  10.800  1.00  0.00     0.049 A 
ATOM     54  C   UNL     1      -4.170   3.878  12.715  1.00  0.00     0.074 A 
ATOM     55  C   UNL     1     -10.357   4.957  11.555  1.00  0.00     0.029 A 
ATOM     56  N   UNL     1      -8.248   4.257  11.442  1.00  0.00    -0.354 N 
ATOM     57  N   UNL     1      -5.432   4.034  12.382  1.00  0.00    -0.248 NA
ATOM     58  C   UNL     1      -3.781   4.562  13.952  1.00  0.00     0.031 C 
ATOM     59  C   UNL     1      -9.642   5.517  12.620  1.00  0.00     0.029 A 
ATOM     60  C   UNL     1      -8.338   5.048  12.575  1.00  0.00     0.049 A 
ATOM     61  H   UNL     1      -7.431   3.801  11.135  1.00  0.00     0.167 HD
ATOM     62  C   UNL     1      -5.995   4.813  13.388  1.00  0.00     0.074 A 
ATOM     63  C   UNL     1      -4.940   5.062  14.351  1.00  0.00     0.031 C 
ATOM     64  C   UNL     1      -7.263   5.287  13.509  1.00  0.00     0.034 A 
BRANCH  51  65
ATOM     65  C   UNL     1     -11.104   3.522   8.947  1.00  0.00     0.023 A 
ATOM     66  C   UNL     1     -11.883   2.365   8.753  1.00  0.00     0.031 A 
ATOM     67  C   UNL     1     -11.614   4.739   8.464  1.00  0.00     0.131 A 
ATOM     68  C   UNL     1     -13.071   2.432   8.009  1.00  0.00     0.055 A 
ATOM     69  C   UNL     1     -12.847   4.814   7.809  1.00  0.00     0.041 A 
ATOM     70  F   UNL     1     -10.912   5.876   8.596  1.00  0.00    -0.206 F 
ATOM     71  C   UNL     1     -13.573   3.654   7.560  1.00  0.00     0.022 A 
BRANCH  68  72
ATOM     72  S   UNL     1     -13.854   0.879   7.490  1.00  0.00     0.124 S 
ATOM     73  O   UNL     1     -12.794   0.268   6.691  1.00  0.00    -0.237 OA
ATOM     74  O   UNL     1     -14.148   0.232   8.763  1.00  0.00    -0.237 OA
ATOM     75  O   UNL     1     -15.021   1.322   6.729  1.00  0.00    -0.744 OA
ENDBRANCH  68  72
ENDBRANCH  51  65
BRANCH  52  76
ATOM     76  C   UNL     1      -1.697   3.051  12.537  1.00  0.00     0.023 A 
ATOM     77  C   UNL     1      -1.414   2.498  13.797  1.00  0.00     0.031 A 
ATOM     78  C   UNL     1      -0.627   3.591  11.802  1.00  0.00     0.131 A 
ATOM     79  C   UNL     1      -0.107   2.546  14.308  1.00  0.00     0.055 A 
ATOM     80  C   UNL     1       0.681   3.587  12.291  1.00  0.00     0.041 A 
ATOM     81  F   UNL     1      -0.837   4.118  10.585  1.00  0.00    -0.206 F 
ATOM     82  C   UNL     1       0.944   3.077  13.559  1.00  0.00     0.022 A 
BRANCH  79  83
ATOM     83  S   UNL     1       0.182   1.984  16.009  1.00  0.00     0.124 S 
ATOM     84  O   UNL     1      -0.739   2.828  16.762  1.00  0.00    -0.237 OA
ATOM     85  O   UNL     1      -0.167   0.570  15.923  1.00  0.00    -0.237 OA
ATOM     86  O   UNL     1       1.601   2.262  16.222  1.00  0.00    -0.744 OA
ENDBRANCH  79  83
ENDBRANCH  52  76
BRANCH  64  87
ATOM     87  C   UNL     1      -7.566   6.088  14.750  1.00  0.00     0.023 A 
ATOM     88  C   UNL     1      -6.934   7.317  15.003  1.00  0.00     0.031 A 
ATOM     89  C   UNL     1      -8.464   5.593  15.712  1.00  0.00     0.131 A 
ATOM     90  C   UNL     1      -7.137   7.966  16.227  1.00  0.00     0.055 A 
ATOM     91  C   UNL     1      -8.723   6.284  16.895  1.00  0.00     0.041 A 
ATOM     92  F   UNL     1      -9.097   4.424  15.521  1.00  0.00    -0.206 F 
ATOM     93  C   UNL     1      -8.042   7.467  17.168  1.00  0.00     0.022 A 
BRANCH  90  94
ATOM     94  S   UNL     1      -6.093   9.392  16.632  1.00  0.00     0.124 S 
ATOM     95  O   UNL     1      -4.752   8.841  16.469  1.00  0.00    -0.237 OA
ATOM     96  O   UNL     1      -6.505  10.371  15.632  1.00  0.00    -0.237 OA
ATOM     97  O   UNL     1      -6.470   9.712  18.007  1.00  0.00    -0.744 OA
ENDBRANCH  90  94
ENDBRANCH  64  87
ENDBRANCH  38  39
ENDBRANCH  30  33
ENDBRANCH  28  29
ENDBRANCH  27  28
ENDBRANCH   1  27
TORSDOF 19
