REMARK SMILES O=C(Cc1csc(NC(=O)Cc2cc[nH]n2)n1)NCCCNC(=O)c1ccc(-c2c3nc(c(-c4cc(S(=O)(=O)[O-])ccc4F)c4ccc([nH]4)c(-c4cc(S(=O)(=O)[O-])ccc4F)c4nc(c(-c5cc(S(=O)(=O)[O-])ccc5F)c5ccc2[nH]5)C=C4)C=C3)cc1
REMARK SMILES IDX 19 1 18 2 1 3 2 4 3 6 4 7 5 8 17 9 6 10 7 11 8 12 9 13 10 15
REMARK SMILES IDX 11 16 12 17 13 18 16 19 14 20 15 21 20 23 21 24 22 25 23 26
REMARK SMILES IDX 24 28 25 29 26 30 87 31 27 32 86 33 28 34 29 35 30 36 80 37
REMARK SMILES IDX 31 38 85 39 79 40 81 41 32 42 84 43 78 44 77 45 33 47 65 48
REMARK SMILES IDX 45 49 64 50 46 51 49 52 63 53 82 54 47 55 48 56 62 58 83 59
REMARK SMILES IDX 50 60 34 61 35 62 43 63 36 64 42 65 44 66 41 67 37 68 38 69
REMARK SMILES IDX 39 70 40 71 66 72 67 73 75 74 68 75 74 76 76 77 73 78 69 79
REMARK SMILES IDX 70 80 71 81 72 82 51 83 52 84 60 85 53 86 59 87 61 88 58 89
REMARK SMILES IDX 54 90 55 91 56 92 57 93
REMARK H PARENT 18 5 8 14 15 22 22 27 81 46 49 57
REMARK Flexibility Score: inf
ROOT
ATOM      1  C   UNL     1       2.035   2.411  -0.502  1.00  0.00     0.117 C 
ENDROOT
BRANCH   1   2
ATOM      2  N   UNL     1       2.728   1.164  -0.270  1.00  0.00    -0.356 N 
ATOM      3  O   UNL     1       0.957   0.001   0.625  1.00  0.00    -0.275 OA
ATOM      4  C   UNL     1       2.130   0.043   0.263  1.00  0.00     0.226 C 
ATOM      5  H   UNL     1       3.682   1.112  -0.507  1.00  0.00     0.163 HD
BRANCH   4   6
ATOM      6  C   UNL     1       3.068  -1.140   0.424  1.00  0.00     0.157 C 
BRANCH   6   7
ATOM      7  C   UNL     1       3.621  -1.586  -0.890  1.00  0.00     0.063 A 
ATOM      8  C   UNL     1       3.425  -2.812  -1.497  1.00  0.00     0.093 A 
ATOM      9  N   UNL     1       4.432  -0.713  -1.610  1.00  0.00    -0.224 NA
ATOM     10  S   UNL     1       4.222  -2.841  -3.009  1.00  0.00    -0.105 S 
ATOM     11  C   UNL     1       4.857  -1.293  -2.709  1.00  0.00     0.189 A 
BRANCH  11  12
ATOM     12  N   UNL     1       5.652  -0.621  -3.594  1.00  0.00    -0.302 N 
ATOM     13  C   UNL     1       6.472  -1.038  -4.596  1.00  0.00     0.232 C 
ATOM     14  H   UNL     1       5.626   0.357  -3.486  1.00  0.00     0.172 HD
ATOM     15  O   UNL     1       6.950  -0.160  -5.328  1.00  0.00    -0.274 OA
BRANCH  13  16
ATOM     16  C   UNL     1       6.857  -2.484  -4.830  1.00  0.00     0.158 C 
BRANCH  16  17
ATOM     17  C   UNL     1       7.477  -3.137  -3.638  1.00  0.00     0.071 A 
ATOM     18  C   UNL     1       8.231  -2.553  -2.590  1.00  0.00     0.045 A 
ATOM     19  N   UNL     1       7.320  -4.456  -3.446  1.00  0.00    -0.180 NA
ATOM     20  C   UNL     1       8.476  -3.580  -1.712  1.00  0.00     0.105 A 
ATOM     21  N   UNL     1       7.923  -4.691  -2.270  1.00  0.00    -0.285 N 
ATOM     22  H   UNL     1       7.963  -5.582  -1.853  1.00  0.00     0.189 HD
ENDBRANCH  16  17
ENDBRANCH  13  16
ENDBRANCH  11  12
ENDBRANCH   6   7
ENDBRANCH   4   6
ENDBRANCH   1   2
BRANCH   1  23
ATOM     23  C   UNL     1       2.349   3.461   0.557  1.00  0.00     0.042 C 
BRANCH  23  24
ATOM     24  C   UNL     1       3.828   3.820   0.688  1.00  0.00     0.118 C 
BRANCH  24  25
ATOM     25  N   UNL     1       4.391   4.384  -0.529  1.00  0.00    -0.352 N 
ATOM     26  C   UNL     1       5.092   5.545  -0.738  1.00  0.00     0.251 C 
ATOM     27  H   UNL     1       4.245   3.843  -1.338  1.00  0.00     0.163 HD
ATOM     28  O   UNL     1       5.341   5.875  -1.900  1.00  0.00    -0.269 OA
BRANCH  26  29
ATOM     29  C   UNL     1       5.529   6.411   0.383  1.00  0.00     0.039 A 
ATOM     30  C   UNL     1       5.507   7.798   0.197  1.00  0.00     0.014 A 
ATOM     31  C   UNL     1       6.012   5.888   1.586  1.00  0.00     0.014 A 
ATOM     32  C   UNL     1       5.925   8.652   1.223  1.00  0.00     0.010 A 
ATOM     33  C   UNL     1       6.356   6.743   2.636  1.00  0.00     0.010 A 
ATOM     34  C   UNL     1       6.332   8.135   2.463  1.00  0.00    -0.014 A 
BRANCH  34  35
ATOM     35  C   UNL     1       6.760   9.044   3.562  1.00  0.00     0.031 A 
ATOM     36  C   UNL     1       8.180   9.013   4.068  1.00  0.00     0.074 A 
ATOM     37  C   UNL     1       5.867   9.884   4.123  1.00  0.00     0.049 A 
ATOM     38  N   UNL     1       8.738   9.721   5.018  1.00  0.00    -0.248 NA
ATOM     39  C   UNL     1       9.082   8.037   3.441  1.00  0.00     0.031 C 
ATOM     40  C   UNL     1       4.452   9.979   3.757  1.00  0.00     0.029 A 
ATOM     41  N   UNL     1       6.014  10.820   5.117  1.00  0.00    -0.354 N 
ATOM     42  C   UNL     1      10.052   9.270   5.109  1.00  0.00     0.074 A 
ATOM     43  C   UNL     1      10.182   8.181   4.164  1.00  0.00     0.031 C 
ATOM     44  C   UNL     1       3.871  10.942   4.491  1.00  0.00     0.029 A 
ATOM     45  C   UNL     1       4.858  11.509   5.405  1.00  0.00     0.049 A 
ATOM     46  H   UNL     1       6.867  10.983   5.580  1.00  0.00     0.167 HD
ATOM     47  C   UNL     1      11.063   9.736   5.886  1.00  0.00     0.034 A 
ATOM     48  C   UNL     1       4.619  12.488   6.300  1.00  0.00     0.034 A 
ATOM     49  C   UNL     1      10.922  10.831   6.817  1.00  0.00     0.049 A 
ATOM     50  C   UNL     1       5.758  12.994   7.150  1.00  0.00     0.074 A 
ATOM     51  C   UNL     1      11.887  11.408   7.625  1.00  0.00     0.029 A 
ATOM     52  N   UNL     1       9.739  11.516   7.069  1.00  0.00    -0.354 N 
ATOM     53  N   UNL     1       7.007  12.590   7.187  1.00  0.00    -0.248 NA
ATOM     54  C   UNL     1       5.457  14.106   8.060  1.00  0.00     0.031 C 
ATOM     55  C   UNL     1      11.277  12.395   8.407  1.00  0.00     0.029 A 
ATOM     56  C   UNL     1       9.947  12.493   8.032  1.00  0.00     0.049 A 
ATOM     57  H   UNL     1       8.878  11.334   6.627  1.00  0.00     0.167 HD
ATOM     58  C   UNL     1       7.649  13.427   8.097  1.00  0.00     0.074 A 
ATOM     59  C   UNL     1       6.652  14.366   8.568  1.00  0.00     0.031 C 
ATOM     60  C   UNL     1       8.945  13.422   8.502  1.00  0.00     0.034 A 
BRANCH  47  61
ATOM     61  C   UNL     1      12.401   9.041   5.773  1.00  0.00     0.023 A 
ATOM     62  C   UNL     1      13.124   9.019   4.566  1.00  0.00     0.031 A 
ATOM     63  C   UNL     1      12.949   8.361   6.876  1.00  0.00     0.131 A 
ATOM     64  C   UNL     1      14.304   8.265   4.467  1.00  0.00     0.055 A 
ATOM     65  C   UNL     1      14.170   7.687   6.795  1.00  0.00     0.041 A 
ATOM     66  F   UNL     1      12.299   8.327   8.050  1.00  0.00    -0.206 F 
ATOM     67  C   UNL     1      14.847   7.621   5.581  1.00  0.00     0.022 A 
BRANCH  64  68
ATOM     68  S   UNL     1      15.034   8.010   2.826  1.00  0.00     0.124 S 
ATOM     69  O   UNL     1      13.934   7.364   2.113  1.00  0.00    -0.237 OA
ATOM     70  O   UNL     1      15.356   9.369   2.408  1.00  0.00    -0.237 OA
ATOM     71  O   UNL     1      16.184   7.149   3.093  1.00  0.00    -0.744 OA
ENDBRANCH  64  68
ENDBRANCH  47  61
BRANCH  48  72
ATOM     72  C   UNL     1       3.252  13.068   6.441  1.00  0.00     0.023 A 
ATOM     73  C   UNL     1       2.999  14.414   6.128  1.00  0.00     0.031 A 
ATOM     74  C   UNL     1       2.186  12.296   6.937  1.00  0.00     0.131 A 
ATOM     75  C   UNL     1       1.729  14.961   6.366  1.00  0.00     0.055 A 
ATOM     76  C   UNL     1       0.910  12.831   7.119  1.00  0.00     0.041 A 
ATOM     77  F   UNL     1       2.371  11.002   7.244  1.00  0.00    -0.206 F 
ATOM     78  C   UNL     1       0.679  14.176   6.847  1.00  0.00     0.022 A 
BRANCH  75  79
ATOM     79  S   UNL     1       1.491  16.743   6.121  1.00  0.00     0.124 S 
ATOM     80  O   UNL     1       2.489  17.303   7.024  1.00  0.00    -0.237 OA
ATOM     81  O   UNL     1       1.761  16.891   4.694  1.00  0.00    -0.237 OA
ATOM     82  O   UNL     1       0.100  16.958   6.515  1.00  0.00    -0.744 OA
ENDBRANCH  75  79
ENDBRANCH  48  72
BRANCH  60  83
ATOM     83  C   UNL     1       9.364  14.510   9.464  1.00  0.00     0.023 A 
ATOM     84  C   UNL     1       8.830  14.602  10.762  1.00  0.00     0.031 A 
ATOM     85  C   UNL     1      10.282  15.495   9.058  1.00  0.00     0.131 A 
ATOM     86  C   UNL     1       9.155  15.699  11.576  1.00  0.00     0.055 A 
ATOM     87  C   UNL     1      10.656  16.545   9.899  1.00  0.00     0.041 A 
ATOM     88  F   UNL     1      10.825  15.460   7.830  1.00  0.00    -0.206 F 
ATOM     89  C   UNL     1      10.076  16.662  11.158  1.00  0.00     0.022 A 
BRANCH  86  90
ATOM     90  S   UNL     1       8.256  15.920  13.136  1.00  0.00     0.124 S 
ATOM     91  O   UNL     1       6.866  15.901  12.692  1.00  0.00    -0.237 OA
ATOM     92  O   UNL     1       8.693  14.765  13.914  1.00  0.00    -0.237 OA
ATOM     93  O   UNL     1       8.732  17.213  13.626  1.00  0.00    -0.744 OA
ENDBRANCH  86  90
ENDBRANCH  60  83
ENDBRANCH  34  35
ENDBRANCH  26  29
ENDBRANCH  24  25
ENDBRANCH  23  24
ENDBRANCH   1  23
TORSDOF 17
