REMARK SMILES Cc1cccc(O[C@H](C)C(=O)N2CCC[C@@H](C(=O)NCCCNC(=O)c3ccc(-c4c5nc(c(-c6cc(S(=O)(=O)[O-])ccc6F)c6ccc([nH]6)c(-c6cc(S(=O)(=O)[O-])ccc6F)c6nc(c(-c7cc(S(=O)(=O)[O-])ccc7F)c7ccc4[nH]7)C=C6)C=C5)cc3)C2)c1
REMARK SMILES IDX 20 1 19 2 17 3 18 4 16 6 12 7 13 8 89 9 14 10 15 11 10 12
REMARK SMILES IDX 11 13 8 14 9 15 7 16 6 17 1 18 2 19 3 20 90 21 4 22 5 23
REMARK SMILES IDX 21 24 22 25 23 26 24 27 25 29 26 30 27 31 88 32 28 33 87 34
REMARK SMILES IDX 29 35 30 36 31 37 81 38 32 39 86 40 80 41 82 42 33 43 85 44
REMARK SMILES IDX 79 45 78 46 34 48 66 49 46 50 65 51 47 52 50 53 64 54 83 55
REMARK SMILES IDX 48 56 49 57 63 59 84 60 51 61 35 62 36 63 44 64 37 65 43 66
REMARK SMILES IDX 45 67 42 68 38 69 39 70 40 71 41 72 67 73 68 74 76 75 69 76
REMARK SMILES IDX 75 77 77 78 74 79 70 80 71 81 72 82 73 83 52 84 53 85 61 86
REMARK SMILES IDX 54 87 60 88 62 89 59 90 55 91 56 92 57 93 58 94
REMARK H PARENT 19 5 23 28 82 47 50 58
REMARK Flexibility Score: inf
ROOT
ATOM      1  C   UNL     1       1.876  -1.265  -0.377  1.00  0.00     0.117 C 
ENDROOT
BRANCH   1   2
ATOM      2  N   UNL     1       0.944  -1.602  -1.442  1.00  0.00    -0.356 N 
ATOM      3  C   UNL     1       0.276  -0.830  -2.341  1.00  0.00     0.224 C 
ATOM      4  O   UNL     1      -0.586  -1.348  -3.056  1.00  0.00    -0.275 OA
ATOM      5  H   UNL     1       0.764  -2.566  -1.529  1.00  0.00     0.163 HD
BRANCH   3   6
ATOM      6  C   UNL     1       0.610   0.647  -2.544  1.00  0.00     0.098 C 
ATOM      7  N   UNL     1       0.806   2.930  -1.554  1.00  0.00    -0.339 N 
ATOM      8  C   UNL     1       2.153   3.062  -2.113  1.00  0.00     0.119 C 
ATOM      9  C   UNL     1       0.366   1.547  -1.323  1.00  0.00     0.133 C 
ATOM     10  C   UNL     1       2.325   2.274  -3.401  1.00  0.00     0.022 C 
ATOM     11  C   UNL     1       1.998   0.805  -3.175  1.00  0.00     0.017 C 
BRANCH   7  12
ATOM     12  C   UNL     1       0.172   4.097  -1.160  1.00  0.00     0.263 C 
ATOM     13  O   UNL     1       0.530   5.185  -1.642  1.00  0.00    -0.271 OA
BRANCH  12  14
ATOM     14  C   UNL     1      -0.914   4.137  -0.052  1.00  0.00     0.259 C 
ATOM     15  C   UNL     1      -2.261   3.478  -0.312  1.00  0.00     0.064 C 
BRANCH  14  16
ATOM     16  O   UNL     1      -0.381   4.148   1.274  1.00  0.00    -0.481 OA
BRANCH  16  17
ATOM     17  C   UNL     1      -0.130   3.042   2.015  1.00  0.00     0.120 A 
ATOM     18  C   UNL     1       2.509   2.195   4.656  1.00  0.00     0.044 C 
ATOM     19  C   UNL     1       1.294   2.121   3.780  1.00  0.00    -0.047 A 
ATOM     20  C   UNL     1       0.440   1.024   3.874  1.00  0.00     0.003 A 
ATOM     21  C   UNL     1       1.005   3.119   2.838  1.00  0.00     0.049 A 
ATOM     22  C   UNL     1      -0.698   0.953   3.071  1.00  0.00     0.004 A 
ATOM     23  C   UNL     1      -0.985   1.960   2.151  1.00  0.00     0.046 A 
ENDBRANCH  16  17
ENDBRANCH  14  16
ENDBRANCH  12  14
ENDBRANCH   7  12
ENDBRANCH   3   6
ENDBRANCH   1   2
BRANCH   1  24
ATOM     24  C   UNL     1       1.165  -1.137   0.968  1.00  0.00     0.042 C 
BRANCH  24  25
ATOM     25  C   UNL     1       0.895  -2.467   1.673  1.00  0.00     0.118 C 
BRANCH  25  26
ATOM     26  N   UNL     1       1.777  -2.656   2.831  1.00  0.00    -0.352 N 
ATOM     27  C   UNL     1       1.487  -3.124   4.099  1.00  0.00     0.251 C 
ATOM     28  H   UNL     1       2.720  -2.413   2.682  1.00  0.00     0.163 HD
ATOM     29  O   UNL     1       2.333  -3.253   4.968  1.00  0.00    -0.269 OA
BRANCH  27  30
ATOM     30  C   UNL     1       0.096  -3.538   4.362  1.00  0.00     0.039 A 
ATOM     31  C   UNL     1      -0.195  -4.899   4.333  1.00  0.00     0.014 A 
ATOM     32  C   UNL     1      -0.915  -2.582   4.316  1.00  0.00     0.014 A 
ATOM     33  C   UNL     1      -1.485  -5.298   4.002  1.00  0.00     0.010 A 
ATOM     34  C   UNL     1      -2.186  -2.972   3.932  1.00  0.00     0.010 A 
ATOM     35  C   UNL     1      -2.440  -4.324   3.685  1.00  0.00    -0.014 A 
BRANCH  35  36
ATOM     36  C   UNL     1      -3.598  -4.647   2.855  1.00  0.00     0.031 A 
ATOM     37  C   UNL     1      -4.943  -4.819   3.431  1.00  0.00     0.074 A 
ATOM     38  C   UNL     1      -3.422  -4.890   1.535  1.00  0.00     0.049 A 
ATOM     39  N   UNL     1      -5.771  -5.734   3.049  1.00  0.00    -0.248 NA
ATOM     40  C   UNL     1      -5.450  -3.982   4.510  1.00  0.00     0.031 C 
ATOM     41  C   UNL     1      -4.460  -5.136   0.539  1.00  0.00     0.029 A 
ATOM     42  N   UNL     1      -2.226  -5.219   0.890  1.00  0.00    -0.354 N 
ATOM     43  C   UNL     1      -6.985  -5.462   3.631  1.00  0.00     0.074 A 
ATOM     44  C   UNL     1      -6.719  -4.404   4.583  1.00  0.00     0.031 C 
ATOM     45  C   UNL     1      -3.920  -5.826  -0.478  1.00  0.00     0.029 A 
ATOM     46  C   UNL     1      -2.546  -6.138  -0.124  1.00  0.00     0.049 A 
ATOM     47  H   UNL     1      -1.330  -4.873   1.105  1.00  0.00     0.167 HD
ATOM     48  C   UNL     1      -8.122  -6.049   3.162  1.00  0.00     0.034 A 
ATOM     49  C   UNL     1      -1.970  -7.370  -0.187  1.00  0.00     0.034 A 
ATOM     50  C   UNL     1      -7.871  -6.891   1.997  1.00  0.00     0.049 A 
ATOM     51  C   UNL     1      -2.956  -8.510  -0.137  1.00  0.00     0.074 A 
ATOM     52  C   UNL     1      -8.017  -6.660   0.639  1.00  0.00     0.029 A 
ATOM     53  N   UNL     1      -7.157  -8.076   2.122  1.00  0.00    -0.354 N 
ATOM     54  N   UNL     1      -4.197  -8.390   0.243  1.00  0.00    -0.248 NA
ATOM     55  C   UNL     1      -2.600  -9.885  -0.468  1.00  0.00     0.031 C 
ATOM     56  C   UNL     1      -7.352  -7.698  -0.057  1.00  0.00     0.029 A 
ATOM     57  C   UNL     1      -6.821  -8.571   0.876  1.00  0.00     0.049 A 
ATOM     58  H   UNL     1      -6.922  -8.502   2.978  1.00  0.00     0.167 HD
ATOM     59  C   UNL     1      -4.786  -9.631   0.274  1.00  0.00     0.074 A 
ATOM     60  C   UNL     1      -3.756 -10.525  -0.223  1.00  0.00     0.031 C 
ATOM     61  C   UNL     1      -6.062  -9.806   0.734  1.00  0.00     0.034 A 
BRANCH  48  62
ATOM     62  C   UNL     1      -9.506  -5.602   3.566  1.00  0.00     0.023 A 
ATOM     63  C   UNL     1     -10.549  -5.609   2.616  1.00  0.00     0.031 A 
ATOM     64  C   UNL     1      -9.853  -5.144   4.850  1.00  0.00     0.131 A 
ATOM     65  C   UNL     1     -11.816  -5.080   2.915  1.00  0.00     0.055 A 
ATOM     66  C   UNL     1     -11.098  -4.567   5.135  1.00  0.00     0.041 A 
ATOM     67  F   UNL     1      -9.005  -5.263   5.884  1.00  0.00    -0.206 F 
ATOM     68  C   UNL     1     -12.084  -4.518   4.159  1.00  0.00     0.022 A 
BRANCH  65  69
ATOM     69  S   UNL     1     -13.112  -5.137   1.646  1.00  0.00     0.124 S 
ATOM     70  O   UNL     1     -12.488  -4.432   0.531  1.00  0.00    -0.237 OA
ATOM     71  O   UNL     1     -13.311  -6.571   1.472  1.00  0.00    -0.237 OA
ATOM     72  O   UNL     1     -14.229  -4.430   2.272  1.00  0.00    -0.744 OA
ENDBRANCH  65  69
ENDBRANCH  48  62
BRANCH  49  73
ATOM     73  C   UNL     1      -0.583  -7.433   0.341  1.00  0.00     0.023 A 
ATOM     74  C   UNL     1       0.414  -6.696  -0.327  1.00  0.00     0.031 A 
ATOM     75  C   UNL     1      -0.294  -7.920   1.621  1.00  0.00     0.131 A 
ATOM     76  C   UNL     1       1.610  -6.365   0.325  1.00  0.00     0.055 A 
ATOM     77  C   UNL     1       0.916  -7.617   2.258  1.00  0.00     0.041 A 
ATOM     78  F   UNL     1      -1.216  -8.598   2.320  1.00  0.00    -0.206 F 
ATOM     79  C   UNL     1       1.858  -6.803   1.627  1.00  0.00     0.022 A 
BRANCH  76  80
ATOM     80  S   UNL     1       2.732  -5.172  -0.458  1.00  0.00     0.124 S 
ATOM     81  O   UNL     1       3.639  -6.035  -1.202  1.00  0.00    -0.237 OA
ATOM     82  O   UNL     1       1.819  -4.355  -1.260  1.00  0.00    -0.237 OA
ATOM     83  O   UNL     1       3.322  -4.459   0.674  1.00  0.00    -0.744 OA
ENDBRANCH  76  80
ENDBRANCH  49  73
BRANCH  61  84
ATOM     84  C   UNL     1      -6.743 -11.135   1.002  1.00  0.00     0.023 A 
ATOM     85  C   UNL     1      -6.060 -12.357   1.084  1.00  0.00     0.031 A 
ATOM     86  C   UNL     1      -8.137 -11.203   1.253  1.00  0.00     0.131 A 
ATOM     87  C   UNL     1      -6.744 -13.568   1.302  1.00  0.00     0.055 A 
ATOM     88  C   UNL     1      -8.805 -12.397   1.547  1.00  0.00     0.041 A 
ATOM     89  F   UNL     1      -8.914 -10.110   1.234  1.00  0.00    -0.206 F 
ATOM     90  C   UNL     1      -8.111 -13.596   1.554  1.00  0.00     0.022 A 
BRANCH  87  91
ATOM     91  S   UNL     1      -5.806 -15.115   1.183  1.00  0.00     0.124 S 
ATOM     92  O   UNL     1      -5.353 -15.085  -0.205  1.00  0.00    -0.237 OA
ATOM     93  O   UNL     1      -4.768 -14.931   2.191  1.00  0.00    -0.237 OA
ATOM     94  O   UNL     1      -6.796 -16.145   1.490  1.00  0.00    -0.744 OA
ENDBRANCH  87  91
ENDBRANCH  61  84
ENDBRANCH  35  36
ENDBRANCH  27  30
ENDBRANCH  25  26
ENDBRANCH  24  25
ENDBRANCH   1  24
TORSDOF 17
