REMARK SMILES Cn1ccc(S(=O)(=O)N2CCO[C@H](CC(=O)NCCCNC(=O)c3ccc(-c4c5nc(c(-c6cc(S(=O)(=O)[O-])ccc6F)c6ccc([nH]6)c(-c6cc(S(=O)(=O)[O-])ccc6F)c6nc(c(-c7cc(S(=O)(=O)[O-])ccc7F)c7ccc4[nH]7)C=C6)C=C5)cc3)C2)c1
REMARK SMILES IDX 19 1 18 2 17 3 15 4 16 5 14 7 13 8 9 9 10 10 87 11 11 12
REMARK SMILES IDX 12 13 6 14 7 15 8 16 5 17 1 18 2 19 3 20 88 21 4 22 20 23
REMARK SMILES IDX 21 24 22 25 23 27 24 28 25 29 86 30 26 31 85 32 27 33 28 34
REMARK SMILES IDX 29 35 79 36 30 37 84 38 78 39 80 40 31 41 83 42 77 43 76 44
REMARK SMILES IDX 32 46 64 47 44 48 63 49 45 50 48 51 62 52 81 53 46 54 47 55
REMARK SMILES IDX 61 57 82 58 49 59 33 60 34 61 42 62 35 63 41 64 43 65 40 66
REMARK SMILES IDX 36 67 37 68 38 69 39 70 65 71 66 72 74 73 67 74 73 75 75 76
REMARK SMILES IDX 72 77 68 78 69 79 70 80 71 81 50 82 51 83 59 84 52 85 58 86
REMARK SMILES IDX 60 87 57 88 53 89 54 90 55 91 56 92
REMARK H PARENT 17 6 21 26 80 45 48 56
REMARK Flexibility Score: inf
ROOT
ATOM      1  C   UNL     1       0.516  -8.562  -1.788  1.00  0.00     0.042 C 
ENDROOT
BRANCH   1   2
ATOM      2  C   UNL     1       1.253  -7.301  -2.227  1.00  0.00     0.117 C 
BRANCH   2   3
ATOM      3  N   UNL     1       0.442  -6.456  -3.086  1.00  0.00    -0.356 N 
ATOM      4  C   UNL     1      -0.186  -5.283  -2.804  1.00  0.00     0.222 C 
ATOM      5  O   UNL     1      -0.876  -4.752  -3.672  1.00  0.00    -0.275 OA
ATOM      6  H   UNL     1       0.330  -6.780  -4.009  1.00  0.00     0.163 HD
BRANCH   4   7
ATOM      7  C   UNL     1      -0.038  -4.668  -1.437  1.00  0.00     0.133 C 
BRANCH   7   8
ATOM      8  C   UNL     1      -1.072  -5.252  -0.469  1.00  0.00     0.142 C 
ATOM      9  N   UNL     1      -1.983  -3.136   0.323  1.00  0.00    -0.193 NA
ATOM     10  C   UNL     1      -1.486  -3.385   1.688  1.00  0.00     0.131 C 
ATOM     11  C   UNL     1      -2.344  -4.377  -0.383  1.00  0.00     0.135 C 
ATOM     12  C   UNL     1      -0.233  -4.258   1.567  1.00  0.00     0.177 C 
ATOM     13  O   UNL     1      -0.488  -5.473   0.839  1.00  0.00    -0.375 OA
BRANCH   9  14
ATOM     14  S   UNL     1      -2.696  -1.678  -0.055  1.00  0.00     0.244 S 
ATOM     15  O   UNL     1      -3.536  -1.264   1.046  1.00  0.00    -0.207 OA
ATOM     16  O   UNL     1      -3.150  -1.694  -1.427  1.00  0.00    -0.207 OA
BRANCH  14  17
ATOM     17  C   UNL     1      -1.406  -0.519  -0.072  1.00  0.00     0.100 A 
ATOM     18  C   UNL     1       2.058   0.520  -0.197  1.00  0.00     0.149 C 
ATOM     19  N   UNL     1       0.621   0.387  -0.137  1.00  0.00    -0.356 N 
ATOM     20  C   UNL     1      -0.265   1.415   0.055  1.00  0.00     0.086 A 
ATOM     21  C   UNL     1      -0.061  -0.792  -0.240  1.00  0.00     0.106 A 
ATOM     22  C   UNL     1      -1.538   0.881   0.097  1.00  0.00     0.041 A 
ENDBRANCH  14  17
ENDBRANCH   9  14
ENDBRANCH   7   8
ENDBRANCH   4   7
ENDBRANCH   2   3
ENDBRANCH   1   2
BRANCH   1  23
ATOM     23  C   UNL     1       0.045  -9.450  -2.936  1.00  0.00     0.118 C 
BRANCH  23  24
ATOM     24  N   UNL     1       1.145  -9.959  -3.741  1.00  0.00    -0.352 N 
ATOM     25  C   UNL     1       1.542 -11.252  -3.983  1.00  0.00     0.251 C 
ATOM     26  H   UNL     1       1.691  -9.269  -4.182  1.00  0.00     0.163 HD
ATOM     27  O   UNL     1       2.615 -11.452  -4.546  1.00  0.00    -0.269 OA
BRANCH  25  28
ATOM     28  C   UNL     1       0.707 -12.394  -3.547  1.00  0.00     0.039 A 
ATOM     29  C   UNL     1       1.331 -13.490  -2.944  1.00  0.00     0.014 A 
ATOM     30  C   UNL     1      -0.677 -12.400  -3.743  1.00  0.00     0.014 A 
ATOM     31  C   UNL     1       0.560 -14.553  -2.464  1.00  0.00     0.010 A 
ATOM     32  C   UNL     1      -1.450 -13.430  -3.208  1.00  0.00     0.010 A 
ATOM     33  C   UNL     1      -0.840 -14.511  -2.553  1.00  0.00    -0.014 A 
BRANCH  33  34
ATOM     34  C   UNL     1      -1.685 -15.569  -1.938  1.00  0.00     0.031 A 
ATOM     35  C   UNL     1      -2.538 -16.458  -2.799  1.00  0.00     0.074 A 
ATOM     36  C   UNL     1      -1.739 -15.673  -0.595  1.00  0.00     0.049 A 
ATOM     37  N   UNL     1      -3.416 -17.361  -2.441  1.00  0.00    -0.248 NA
ATOM     38  C   UNL     1      -2.404 -16.293  -4.254  1.00  0.00     0.031 C 
ATOM     39  C   UNL     1      -0.986 -14.842   0.349  1.00  0.00     0.029 A 
ATOM     40  N   UNL     1      -2.473 -16.505   0.213  1.00  0.00    -0.354 N 
ATOM     41  C   UNL     1      -3.951 -17.861  -3.623  1.00  0.00     0.074 A 
ATOM     42  C   UNL     1      -3.327 -17.130  -4.706  1.00  0.00     0.031 C 
ATOM     43  C   UNL     1      -1.290 -15.212   1.603  1.00  0.00     0.029 A 
ATOM     44  C   UNL     1      -2.292 -16.272   1.558  1.00  0.00     0.049 A 
ATOM     45  H   UNL     1      -3.072 -17.204  -0.136  1.00  0.00     0.167 HD
ATOM     46  C   UNL     1      -4.866 -18.849  -3.788  1.00  0.00     0.034 A 
ATOM     47  C   UNL     1      -2.882 -16.831   2.633  1.00  0.00     0.034 A 
ATOM     48  C   UNL     1      -5.467 -19.581  -2.699  1.00  0.00     0.049 A 
ATOM     49  C   UNL     1      -3.912 -17.911   2.421  1.00  0.00     0.074 A 
ATOM     50  C   UNL     1      -6.349 -20.647  -2.761  1.00  0.00     0.029 A 
ATOM     51  N   UNL     1      -5.258 -19.320  -1.352  1.00  0.00    -0.354 N 
ATOM     52  N   UNL     1      -4.368 -18.407   1.295  1.00  0.00    -0.248 NA
ATOM     53  C   UNL     1      -4.500 -18.510   3.627  1.00  0.00     0.031 C 
ATOM     54  C   UNL     1      -6.719 -20.989  -1.455  1.00  0.00     0.029 A 
ATOM     55  C   UNL     1      -6.019 -20.180  -0.575  1.00  0.00     0.049 A 
ATOM     56  H   UNL     1      -4.657 -18.624  -0.999  1.00  0.00     0.167 HD
ATOM     57  C   UNL     1      -5.281 -19.392   1.659  1.00  0.00     0.074 A 
ATOM     58  C   UNL     1      -5.297 -19.431   3.107  1.00  0.00     0.031 C 
ATOM     59  C   UNL     1      -6.038 -20.195   0.868  1.00  0.00     0.034 A 
BRANCH  46  60
ATOM     60  C   UNL     1      -5.291 -19.175  -5.198  1.00  0.00     0.023 A 
ATOM     61  C   UNL     1      -4.395 -19.722  -6.132  1.00  0.00     0.031 A 
ATOM     62  C   UNL     1      -6.611 -18.928  -5.615  1.00  0.00     0.131 A 
ATOM     63  C   UNL     1      -4.813 -19.949  -7.452  1.00  0.00     0.055 A 
ATOM     64  C   UNL     1      -7.040 -19.221  -6.912  1.00  0.00     0.041 A 
ATOM     65  F   UNL     1      -7.505 -18.390  -4.771  1.00  0.00    -0.206 F 
ATOM     66  C   UNL     1      -6.135 -19.724  -7.842  1.00  0.00     0.022 A 
BRANCH  63  67
ATOM     67  S   UNL     1      -3.572 -20.435  -8.683  1.00  0.00     0.124 S 
ATOM     68  O   UNL     1      -2.663 -19.292  -8.652  1.00  0.00    -0.237 OA
ATOM     69  O   UNL     1      -3.052 -21.681  -8.132  1.00  0.00    -0.237 OA
ATOM     70  O   UNL     1      -4.347 -20.573  -9.915  1.00  0.00    -0.744 OA
ENDBRANCH  63  67
ENDBRANCH  46  60
BRANCH  47  71
ATOM     71  C   UNL     1      -2.544 -16.366   4.008  1.00  0.00     0.023 A 
ATOM     72  C   UNL     1      -1.909 -17.220   4.923  1.00  0.00     0.031 A 
ATOM     73  C   UNL     1      -2.899 -15.077   4.441  1.00  0.00     0.131 A 
ATOM     74  C   UNL     1      -1.690 -16.791   6.241  1.00  0.00     0.055 A 
ATOM     75  C   UNL     1      -2.635 -14.638   5.740  1.00  0.00     0.041 A 
ATOM     76  F   UNL     1      -3.502 -14.220   3.602  1.00  0.00    -0.206 F 
ATOM     77  C   UNL     1      -2.039 -15.503   6.653  1.00  0.00     0.022 A 
BRANCH  74  78
ATOM     78  S   UNL     1      -1.020 -17.977   7.439  1.00  0.00     0.124 S 
ATOM     79  O   UNL     1      -1.990 -19.062   7.360  1.00  0.00    -0.237 OA
ATOM     80  O   UNL     1       0.300 -18.254   6.881  1.00  0.00    -0.237 OA
ATOM     81  O   UNL     1      -1.019 -17.229   8.694  1.00  0.00    -0.744 OA
ENDBRANCH  74  78
ENDBRANCH  47  71
BRANCH  59  82
ATOM     82  C   UNL     1      -6.917 -21.201   1.566  1.00  0.00     0.023 A 
ATOM     83  C   UNL     1      -8.032 -20.804   2.324  1.00  0.00     0.031 A 
ATOM     84  C   UNL     1      -6.619 -22.573   1.491  1.00  0.00     0.131 A 
ATOM     85  C   UNL     1      -8.779 -21.765   3.022  1.00  0.00     0.055 A 
ATOM     86  C   UNL     1      -7.398 -23.529   2.144  1.00  0.00     0.041 A 
ATOM     87  F   UNL     1      -5.563 -23.005   0.783  1.00  0.00    -0.206 F 
ATOM     88  C   UNL     1      -8.477 -23.126   2.925  1.00  0.00     0.022 A 
BRANCH  85  89
ATOM     89  S   UNL     1     -10.102 -21.204   4.129  1.00  0.00     0.124 S 
ATOM     90  O   UNL     1      -9.373 -20.363   5.072  1.00  0.00    -0.237 OA
ATOM     91  O   UNL     1     -11.000 -20.506   3.214  1.00  0.00    -0.237 OA
ATOM     92  O   UNL     1     -10.632 -22.447   4.688  1.00  0.00    -0.744 OA
ENDBRANCH  85  89
ENDBRANCH  59  82
ENDBRANCH  33  34
ENDBRANCH  25  28
ENDBRANCH  23  24
ENDBRANCH   1  23
TORSDOF 16
