REMARK SMILES O=C(NCCCNC(=O)[C@@H]1C[N@@H+](C2CCN(C(=O)c3ccccc3)CC2)C[C@H]1C1CC1)c1ccc(-c2c3nc(c(-c4cc(S(=O)(=O)[O-])ccc4F)c4ccc([nH]4)c(-c4cc(S(=O)(=O)[O-])ccc4F)c4nc(c(-c5cc(S(=O)(=O)[O-])ccc5F)c5ccc2[nH]5)C=C4)C=C3)cc1
REMARK SMILES IDX 4 1 3 2 1 3 2 4 32 6 33 7 94 8 34 9 93 10 35 11 36 12 37 13
REMARK SMILES IDX 87 14 38 15 92 16 86 17 88 18 39 19 91 20 85 21 84 22 40 24
REMARK SMILES IDX 72 25 52 26 71 27 53 28 56 29 70 30 89 31 54 32 55 33 69 35
REMARK SMILES IDX 90 36 57 37 41 38 42 39 50 40 43 41 49 42 51 43 48 44 44 45
REMARK SMILES IDX 45 46 46 47 47 48 73 49 74 50 82 51 75 52 81 53 83 54 80 55
REMARK SMILES IDX 76 56 77 57 78 58 79 59 58 60 59 61 67 62 60 63 66 64 68 65
REMARK SMILES IDX 65 66 61 67 62 68 63 69 64 70 5 71 6 72 7 73 8 74 9 76 10 77
REMARK SMILES IDX 11 78 28 79 12 80 27 81 29 83 30 84 31 85 13 86 14 87 26 88
REMARK SMILES IDX 15 89 25 90 16 91 17 92 18 93 19 94 20 95 24 96 21 97 23 98
REMARK SMILES IDX 22 99
REMARK H PARENT 3 5 88 23 56 34 7 75 12 82
REMARK Flexibility Score: inf
ROOT
ATOM      1  C   UNL     1       4.371  -0.908   0.844  1.00  0.00     0.118 C 
ENDROOT
BRANCH   1   2
ATOM      2  N   UNL     1       2.956  -1.014   0.510  1.00  0.00    -0.352 N 
ATOM      3  O   UNL     1       0.982  -0.237  -0.229  1.00  0.00    -0.269 OA
ATOM      4  C   UNL     1       2.205  -0.223  -0.321  1.00  0.00     0.251 C 
ATOM      5  H   UNL     1       2.473  -1.756   0.941  1.00  0.00     0.163 HD
BRANCH   4   6
ATOM      6  C   UNL     1       2.878   0.624  -1.325  1.00  0.00     0.039 A 
ATOM      7  C   UNL     1       3.975   0.132  -2.039  1.00  0.00     0.014 A 
ATOM      8  C   UNL     1       2.377   1.900  -1.590  1.00  0.00     0.014 A 
ATOM      9  C   UNL     1       4.641   0.952  -2.938  1.00  0.00     0.010 A 
ATOM     10  C   UNL     1       2.994   2.691  -2.559  1.00  0.00     0.010 A 
ATOM     11  C   UNL     1       4.137   2.226  -3.231  1.00  0.00    -0.014 A 
BRANCH  11  12
ATOM     12  C   UNL     1       4.769   3.038  -4.297  1.00  0.00     0.031 A 
ATOM     13  C   UNL     1       5.403   4.357  -3.976  1.00  0.00     0.074 A 
ATOM     14  C   UNL     1       4.731   2.583  -5.564  1.00  0.00     0.049 A 
ATOM     15  N   UNL     1       5.898   5.255  -4.787  1.00  0.00    -0.248 NA
ATOM     16  C   UNL     1       5.474   4.720  -2.554  1.00  0.00     0.031 C 
ATOM     17  C   UNL     1       4.141   1.307  -5.980  1.00  0.00     0.029 A 
ATOM     18  N   UNL     1       5.179   3.138  -6.733  1.00  0.00    -0.354 N 
ATOM     19  C   UNL     1       6.318   6.305  -3.979  1.00  0.00     0.074 A 
ATOM     20  C   UNL     1       5.983   5.941  -2.617  1.00  0.00     0.031 C 
ATOM     21  C   UNL     1       4.271   1.175  -7.307  1.00  0.00     0.029 A 
ATOM     22  C   UNL     1       4.874   2.388  -7.844  1.00  0.00     0.049 A 
ATOM     23  H   UNL     1       5.672   3.990  -6.774  1.00  0.00     0.167 HD
ATOM     24  C   UNL     1       6.928   7.460  -4.348  1.00  0.00     0.034 A 
ATOM     25  C   UNL     1       5.009   2.666  -9.154  1.00  0.00     0.034 A 
ATOM     26  C   UNL     1       7.233   7.792  -5.721  1.00  0.00     0.049 A 
ATOM     27  C   UNL     1       5.623   3.979  -9.550  1.00  0.00     0.074 A 
ATOM     28  C   UNL     1       7.879   8.912  -6.215  1.00  0.00     0.029 A 
ATOM     29  N   UNL     1       6.892   7.015  -6.824  1.00  0.00    -0.354 N 
ATOM     30  N   UNL     1       6.034   4.959  -8.779  1.00  0.00    -0.248 NA
ATOM     31  C   UNL     1       5.796   4.225 -10.986  1.00  0.00     0.031 C 
ATOM     32  C   UNL     1       7.851   8.853  -7.612  1.00  0.00     0.029 A 
ATOM     33  C   UNL     1       7.275   7.651  -7.995  1.00  0.00     0.049 A 
ATOM     34  H   UNL     1       6.443   6.140  -6.779  1.00  0.00     0.167 HD
ATOM     35  C   UNL     1       6.541   5.930  -9.636  1.00  0.00     0.074 A 
ATOM     36  C   UNL     1       6.383   5.415 -10.982  1.00  0.00     0.031 C 
ATOM     37  C   UNL     1       7.100   7.129  -9.332  1.00  0.00     0.034 A 
BRANCH  24  38
ATOM     38  C   UNL     1       7.234   8.461  -3.257  1.00  0.00     0.023 A 
ATOM     39  C   UNL     1       8.075   8.148  -2.175  1.00  0.00     0.031 A 
ATOM     40  C   UNL     1       6.622   9.728  -3.263  1.00  0.00     0.131 A 
ATOM     41  C   UNL     1       8.195   9.040  -1.098  1.00  0.00     0.055 A 
ATOM     42  C   UNL     1       6.826  10.652  -2.236  1.00  0.00     0.041 A 
ATOM     43  F   UNL     1       5.791  10.082  -4.256  1.00  0.00    -0.206 F 
ATOM     44  C   UNL     1       7.598  10.302  -1.133  1.00  0.00     0.022 A 
BRANCH  41  45
ATOM     45  S   UNL     1       8.974   8.447   0.430  1.00  0.00     0.124 S 
ATOM     46  O   UNL     1       8.188   7.248   0.717  1.00  0.00    -0.237 OA
ATOM     47  O   UNL     1      10.353   8.222   0.015  1.00  0.00    -0.237 OA
ATOM     48  O   UNL     1       8.774   9.550   1.368  1.00  0.00    -0.744 OA
ENDBRANCH  41  45
ENDBRANCH  24  38
BRANCH  25  49
ATOM     49  C   UNL     1       4.496   1.699 -10.163  1.00  0.00     0.023 A 
ATOM     50  C   UNL     1       5.364   0.995 -11.009  1.00  0.00     0.031 A 
ATOM     51  C   UNL     1       3.116   1.436 -10.262  1.00  0.00     0.131 A 
ATOM     52  C   UNL     1       4.841   0.074 -11.931  1.00  0.00     0.055 A 
ATOM     53  C   UNL     1       2.606   0.484 -11.144  1.00  0.00     0.041 A 
ATOM     54  F   UNL     1       2.245   2.077  -9.465  1.00  0.00    -0.206 F 
ATOM     55  C   UNL     1       3.471  -0.199 -11.991  1.00  0.00     0.022 A 
BRANCH  52  56
ATOM     56  S   UNL     1       5.977  -0.739 -13.087  1.00  0.00     0.124 S 
ATOM     57  O   UNL     1       6.539   0.402 -13.801  1.00  0.00    -0.237 OA
ATOM     58  O   UNL     1       6.882  -1.440 -12.182  1.00  0.00    -0.237 OA
ATOM     59  O   UNL     1       5.100  -1.600 -13.877  1.00  0.00    -0.744 OA
ENDBRANCH  52  56
ENDBRANCH  25  49
BRANCH  37  60
ATOM     60  C   UNL     1       7.641   7.947 -10.478  1.00  0.00     0.023 A 
ATOM     61  C   UNL     1       6.801   8.559 -11.423  1.00  0.00     0.031 A 
ATOM     62  C   UNL     1       9.030   8.141 -10.599  1.00  0.00     0.131 A 
ATOM     63  C   UNL     1       7.360   9.316 -12.464  1.00  0.00     0.055 A 
ATOM     64  C   UNL     1       9.576   8.940 -11.603  1.00  0.00     0.041 A 
ATOM     65  F   UNL     1       9.877   7.572  -9.726  1.00  0.00    -0.206 F 
ATOM     66  C   UNL     1       8.740   9.527 -12.547  1.00  0.00     0.022 A 
BRANCH  63  67
ATOM     67  S   UNL     1       6.266   9.981 -13.749  1.00  0.00     0.124 S 
ATOM     68  O   UNL     1       5.697   8.765 -14.321  1.00  0.00    -0.237 OA
ATOM     69  O   UNL     1       5.349  10.815 -12.980  1.00  0.00    -0.237 OA
ATOM     70  O   UNL     1       7.176  10.713 -14.629  1.00  0.00    -0.744 OA
ENDBRANCH  63  67
ENDBRANCH  37  60
ENDBRANCH  11  12
ENDBRANCH   4   6
ENDBRANCH   1   2
BRANCH   1  71
ATOM     71  C   UNL     1       4.553  -0.535   2.312  1.00  0.00     0.042 C 
BRANCH  71  72
ATOM     72  C   UNL     1       4.162  -1.696   3.227  1.00  0.00     0.117 C 
BRANCH  72  73
ATOM     73  N   UNL     1       5.216  -2.696   3.232  1.00  0.00    -0.356 N 
ATOM     74  C   UNL     1       6.403  -2.740   3.906  1.00  0.00     0.229 C 
ATOM     75  H   UNL     1       5.046  -3.472   2.652  1.00  0.00     0.163 HD
ATOM     76  O   UNL     1       7.290  -3.426   3.396  1.00  0.00    -0.275 OA
BRANCH  74  77
ATOM     77  C   UNL     1       6.539  -2.142   5.300  1.00  0.00     0.142 C 
ATOM     78  C   UNL     1       6.150  -0.679   5.434  1.00  0.00     0.276 C 
ATOM     79  C   UNL     1       7.953  -2.141   5.904  1.00  0.00     0.065 C 
ATOM     80  N   UNL     1       6.633  -0.249   6.736  1.00  0.00    -0.331 N 
ATOM     81  C   UNL     1       7.926  -0.936   6.889  1.00  0.00     0.267 C 
ATOM     82  H   UNL     1       6.719   0.767   6.744  1.00  0.00     0.348 HD
BRANCH  79  83
ATOM     83  C   UNL     1       8.457  -3.371   6.630  1.00  0.00    -0.001 C 
ATOM     84  C   UNL     1       7.580  -4.442   7.236  1.00  0.00     0.004 C 
ATOM     85  C   UNL     1       8.435  -4.761   6.043  1.00  0.00     0.004 C 
ENDBRANCH  79  83
BRANCH  80  86
ATOM     86  C   UNL     1       5.720  -0.344   7.899  1.00  0.00     0.187 C 
ATOM     87  C   UNL     1       5.336  -1.721   8.459  1.00  0.00     0.086 C 
ATOM     88  C   UNL     1       4.447   0.530   7.807  1.00  0.00     0.086 C 
ATOM     89  C   UNL     1       4.122  -2.374   7.820  1.00  0.00     0.126 C 
ATOM     90  C   UNL     1       3.185  -0.140   7.252  1.00  0.00     0.126 C 
ATOM     91  N   UNL     1       2.964  -1.511   7.713  1.00  0.00    -0.338 N 
ATOM     92  C   UNL     1       1.728  -2.167   7.697  1.00  0.00     0.253 C 
ATOM     93  O   UNL     1       1.588  -3.365   7.941  1.00  0.00    -0.269 OA
BRANCH  92  94
ATOM     94  C   UNL     1       0.501  -1.417   7.388  1.00  0.00     0.040 A 
ATOM     95  C   UNL     1      -0.438  -1.257   8.410  1.00  0.00     0.014 A 
ATOM     96  C   UNL     1       0.221  -0.997   6.085  1.00  0.00     0.014 A 
ATOM     97  C   UNL     1      -1.652  -0.633   8.138  1.00  0.00     0.001 A 
ATOM     98  C   UNL     1      -0.998  -0.372   5.819  1.00  0.00     0.001 A 
ATOM     99  C   UNL     1      -1.929  -0.187   6.844  1.00  0.00     0.000 A 
ENDBRANCH  92  94
ENDBRANCH  80  86
ENDBRANCH  74  77
ENDBRANCH  72  73
ENDBRANCH  71  72
ENDBRANCH   1  71
TORSDOF 16
