REMARK SMILES CCC(CC)(NC(=O)NCCc1nccs1)C(=O)NCCCNC(=O)c1ccc(-c2c3nc(c(-c4cc(S(=O)(=O)[O-])ccc4F)c4ccc([nH]4)c(-c4cc(S(=O)(=O)[O-])ccc4F)c4nc(c(-c5cc(S(=O)(=O)[O-])ccc5F)c5ccc2[nH]5)C=C4)C=C3)cc1
REMARK SMILES IDX 20 1 19 2 17 3 18 4 3 6 2 7 1 8 4 9 5 10 6 11 7 12 8 14 9 15
REMARK SMILES IDX 10 17 11 18 12 19 13 20 16 21 14 22 15 23 21 24 22 25 23 26
REMARK SMILES IDX 24 27 25 29 26 30 27 31 88 32 28 33 87 34 29 35 30 36 31 37
REMARK SMILES IDX 81 38 32 39 86 40 80 41 82 42 33 43 85 44 79 45 78 46 34 48
REMARK SMILES IDX 66 49 46 50 65 51 47 52 50 53 64 54 83 55 48 56 49 57 63 59
REMARK SMILES IDX 84 60 51 61 35 62 36 63 44 64 37 65 43 66 45 67 42 68 38 69
REMARK SMILES IDX 39 70 40 71 41 72 67 73 68 74 76 75 69 76 75 77 77 78 74 79
REMARK SMILES IDX 70 80 71 81 72 82 73 83 52 84 53 85 61 86 54 87 60 88 62 89
REMARK SMILES IDX 59 90 55 91 56 92 57 93 58 94
REMARK H PARENT 19 5 6 13 9 16 23 28 82 47 50 58
REMARK Flexibility Score: inf
ROOT
ATOM      1  C   UNL     1       2.021  -0.283  -5.416  1.00  0.00     0.117 C 
ENDROOT
BRANCH   1   2
ATOM      2  N   UNL     1       2.707  -0.449  -4.135  1.00  0.00    -0.354 N 
ATOM      3  C   UNL     1       2.359  -0.176  -2.830  1.00  0.00     0.245 C 
ATOM      4  O   UNL     1       3.091  -0.649  -1.953  1.00  0.00    -0.272 OA
ATOM      5  H   UNL     1       3.607  -0.839  -4.224  1.00  0.00     0.163 HD
BRANCH   3   6
ATOM      6  C   UNL     1       1.044   0.566  -2.463  1.00  0.00     0.120 C 
BRANCH   6   7
ATOM      7  C   UNL     1       0.892   1.078  -1.001  1.00  0.00     0.035 C 
ATOM      8  C   UNL     1       0.987   0.064   0.131  1.00  0.00     0.007 C 
ENDBRANCH   6   7
BRANCH   6   9
ATOM      9  C   UNL     1      -0.073  -0.504  -2.749  1.00  0.00     0.035 C 
ATOM     10  C   UNL     1      -1.524  -0.059  -2.638  1.00  0.00     0.007 C 
ENDBRANCH   6   9
BRANCH   6  11
ATOM     11  N   UNL     1       0.942   1.743  -3.349  1.00  0.00    -0.324 N 
ATOM     12  C   UNL     1       1.693   2.819  -3.613  1.00  0.00     0.315 C 
ATOM     13  H   UNL     1       0.113   1.734  -3.880  1.00  0.00     0.166 HD
ATOM     14  O   UNL     1       1.151   3.697  -4.291  1.00  0.00    -0.249 OA
ATOM     15  N   UNL     1       2.980   3.011  -3.302  1.00  0.00    -0.338 N 
ATOM     16  H   UNL     1       3.377   3.706  -3.875  1.00  0.00     0.165 HD
BRANCH  15  17
ATOM     17  C   UNL     1       3.970   2.489  -2.357  1.00  0.00     0.125 C 
BRANCH  17  18
ATOM     18  C   UNL     1       5.072   1.586  -2.912  1.00  0.00     0.089 C 
BRANCH  18  19
ATOM     19  C   UNL     1       6.211   2.142  -3.715  1.00  0.00     0.094 A 
ATOM     20  N   UNL     1       7.083   1.329  -4.284  1.00  0.00    -0.250 NA
ATOM     21  S   UNL     1       6.500   3.808  -3.986  1.00  0.00    -0.127 S 
ATOM     22  C   UNL     1       8.047   2.047  -4.957  1.00  0.00     0.123 A 
ATOM     23  C   UNL     1       7.893   3.414  -4.911  1.00  0.00     0.087 A 
ENDBRANCH  18  19
ENDBRANCH  17  18
ENDBRANCH  15  17
ENDBRANCH   6  11
ENDBRANCH   3   6
ENDBRANCH   1   2
BRANCH   1  24
ATOM     24  C   UNL     1       2.405   0.900  -6.301  1.00  0.00     0.042 C 
BRANCH  24  25
ATOM     25  C   UNL     1       3.874   1.130  -6.601  1.00  0.00     0.118 C 
BRANCH  25  26
ATOM     26  N   UNL     1       4.528   0.005  -7.240  1.00  0.00    -0.352 N 
ATOM     27  C   UNL     1       5.335  -0.009  -8.357  1.00  0.00     0.251 C 
ATOM     28  H   UNL     1       4.375  -0.870  -6.817  1.00  0.00     0.163 HD
ATOM     29  O   UNL     1       5.720  -1.076  -8.813  1.00  0.00    -0.269 OA
BRANCH  27  30
ATOM     30  C   UNL     1       5.704   1.265  -9.021  1.00  0.00     0.039 A 
ATOM     31  C   UNL     1       5.554   1.378 -10.405  1.00  0.00     0.014 A 
ATOM     32  C   UNL     1       6.198   2.344  -8.284  1.00  0.00     0.014 A 
ATOM     33  C   UNL     1       5.830   2.595 -11.038  1.00  0.00     0.010 A 
ATOM     34  C   UNL     1       6.428   3.570  -8.907  1.00  0.00     0.010 A 
ATOM     35  C   UNL     1       6.237   3.712 -10.290  1.00  0.00    -0.014 A 
BRANCH  35  36
ATOM     36  C   UNL     1       6.441   5.043 -10.922  1.00  0.00     0.031 A 
ATOM     37  C   UNL     1       7.813   5.656 -10.972  1.00  0.00     0.074 A 
ATOM     38  C   UNL     1       5.376   5.735 -11.374  1.00  0.00     0.049 A 
ATOM     39  N   UNL     1       8.175   6.846 -11.379  1.00  0.00    -0.248 NA
ATOM     40  C   UNL     1       8.920   4.826 -10.475  1.00  0.00     0.031 C 
ATOM     41  C   UNL     1       3.992   5.259 -11.355  1.00  0.00     0.029 A 
ATOM     42  N   UNL     1       5.286   6.993 -11.919  1.00  0.00    -0.354 N 
ATOM     43  C   UNL     1       9.550   6.914 -11.182  1.00  0.00     0.074 A 
ATOM     44  C   UNL     1       9.944   5.662 -10.568  1.00  0.00     0.031 C 
ATOM     45  C   UNL     1       3.193   6.208 -11.869  1.00  0.00     0.029 A 
ATOM     46  C   UNL     1       3.997   7.379 -12.210  1.00  0.00     0.049 A 
ATOM     47  H   UNL     1       6.069   7.565 -12.085  1.00  0.00     0.167 HD
ATOM     48  C   UNL     1      10.403   7.920 -11.500  1.00  0.00     0.034 A 
ATOM     49  C   UNL     1       3.513   8.548 -12.676  1.00  0.00     0.034 A 
ATOM     50  C   UNL     1       9.991   9.163 -12.108  1.00  0.00     0.049 A 
ATOM     51  C   UNL     1       4.475   9.672 -12.976  1.00  0.00     0.074 A 
ATOM     52  C   UNL     1      10.779  10.228 -12.510  1.00  0.00     0.029 A 
ATOM     53  N   UNL     1       8.677   9.516 -12.391  1.00  0.00    -0.354 N 
ATOM     54  N   UNL     1       5.779   9.705 -12.823  1.00  0.00    -0.248 NA
ATOM     55  C   UNL     1       3.903  10.911 -13.520  1.00  0.00     0.031 C 
ATOM     56  C   UNL     1       9.940  11.252 -12.962  1.00  0.00     0.029 A 
ATOM     57  C   UNL     1       8.633  10.793 -12.931  1.00  0.00     0.049 A 
ATOM     58  H   UNL     1       7.892   8.943 -12.232  1.00  0.00     0.167 HD
ATOM     59  C   UNL     1       6.184  10.950 -13.297  1.00  0.00     0.074 A 
ATOM     60  C   UNL     1       4.989  11.637 -13.739  1.00  0.00     0.031 C 
ATOM     61  C   UNL     1       7.436  11.471 -13.373  1.00  0.00     0.034 A 
BRANCH  48  62
ATOM     62  C   UNL     1      11.864   7.727 -11.165  1.00  0.00     0.023 A 
ATOM     63  C   UNL     1      12.626   6.697 -11.743  1.00  0.00     0.031 A 
ATOM     64  C   UNL     1      12.504   8.577 -10.244  1.00  0.00     0.131 A 
ATOM     65  C   UNL     1      13.954   6.495 -11.340  1.00  0.00     0.055 A 
ATOM     66  C   UNL     1      13.852   8.425  -9.913  1.00  0.00     0.041 A 
ATOM     67  F   UNL     1      11.826   9.566  -9.641  1.00  0.00    -0.206 F 
ATOM     68  C   UNL     1      14.582   7.369 -10.450  1.00  0.00     0.022 A 
BRANCH  65  69
ATOM     69  S   UNL     1      14.802   4.985 -11.881  1.00  0.00     0.124 S 
ATOM     70  O   UNL     1      13.913   3.948 -11.361  1.00  0.00    -0.237 OA
ATOM     71  O   UNL     1      14.826   5.138 -13.330  1.00  0.00    -0.237 OA
ATOM     72  O   UNL     1      16.103   5.067 -11.220  1.00  0.00    -0.744 OA
ENDBRANCH  65  69
ENDBRANCH  48  62
BRANCH  49  73
ATOM     73  C   UNL     1       2.046   8.730 -12.878  1.00  0.00     0.023 A 
ATOM     74  C   UNL     1       1.514   8.953 -14.158  1.00  0.00     0.031 A 
ATOM     75  C   UNL     1       1.158   8.727 -11.787  1.00  0.00     0.131 A 
ATOM     76  C   UNL     1       0.143   9.213 -14.311  1.00  0.00     0.055 A 
ATOM     77  C   UNL     1      -0.214   8.927 -11.952  1.00  0.00     0.041 A 
ATOM     78  F   UNL     1       1.612   8.517 -10.542  1.00  0.00    -0.206 F 
ATOM     79  C   UNL     1      -0.727   9.187 -13.219  1.00  0.00     0.022 A 
BRANCH  76  80
ATOM     80  S   UNL     1      -0.472   9.683 -15.951  1.00  0.00     0.124 S 
ATOM     81  O   UNL     1       0.333  10.864 -16.242  1.00  0.00    -0.237 OA
ATOM     82  O   UNL     1      -0.174   8.492 -16.739  1.00  0.00    -0.237 OA
ATOM     83  O   UNL     1      -1.893   9.936 -15.721  1.00  0.00    -0.744 OA
ENDBRANCH  76  80
ENDBRANCH  49  73
BRANCH  61  84
ATOM     84  C   UNL     1       7.590  12.822 -14.029  1.00  0.00     0.023 A 
ATOM     85  C   UNL     1       7.087  14.000 -13.451  1.00  0.00     0.031 A 
ATOM     86  C   UNL     1       8.274  12.928 -15.255  1.00  0.00     0.131 A 
ATOM     87  C   UNL     1       7.239  15.226 -14.119  1.00  0.00     0.055 A 
ATOM     88  C   UNL     1       8.474  14.156 -15.884  1.00  0.00     0.041 A 
ATOM     89  F   UNL     1       8.772  11.835 -15.855  1.00  0.00    -0.206 F 
ATOM     90  C   UNL     1       7.946  15.314 -15.321  1.00  0.00     0.022 A 
BRANCH  87  91
ATOM     91  S   UNL     1       6.439  16.703 -13.432  1.00  0.00     0.124 S 
ATOM     92  O   UNL     1       5.033  16.312 -13.427  1.00  0.00    -0.237 OA
ATOM     93  O   UNL     1       7.073  16.823 -12.123  1.00  0.00    -0.237 OA
ATOM     94  O   UNL     1       6.785  17.756 -14.386  1.00  0.00    -0.744 OA
ENDBRANCH  87  91
ENDBRANCH  61  84
ENDBRANCH  35  36
ENDBRANCH  27  30
ENDBRANCH  25  26
ENDBRANCH  24  25
ENDBRANCH   1  24
TORSDOF 19
