REMARK SMILES O=C(C[C@@H]1C(=O)NCCN1C(=O)OCC1c2ccccc2-c2ccccc21)NCCCNC(=O)c1ccc(-c2c3nc(c(-c4cc(S(=O)(=O)[O-])ccc4F)c4ccc([nH]4)c(-c4cc(S(=O)(=O)[O-])ccc4F)c4nc(c(-c5cc(S(=O)(=O)[O-])ccc5F)c5ccc2[nH]5)C=C4)C=C3)cc1
REMARK SMILES IDX 29 1 28 2 1 3 2 4 3 6 4 7 5 8 10 9 6 10 7 11 9 12 8 13 11 15
REMARK SMILES IDX 12 16 13 17 14 18 15 19 16 20 27 21 17 22 21 23 22 24 26 25
REMARK SMILES IDX 18 26 20 27 23 28 25 29 19 30 24 31 30 32 31 33 32 34 33 35
REMARK SMILES IDX 34 37 35 38 36 39 97 40 37 41 96 42 38 43 39 44 40 45 90 46
REMARK SMILES IDX 41 47 95 48 89 49 91 50 42 51 94 52 88 53 87 54 43 56 75 57
REMARK SMILES IDX 55 58 74 59 56 60 59 61 73 62 92 63 57 64 58 65 72 67 93 68
REMARK SMILES IDX 60 69 44 70 45 71 53 72 46 73 52 74 54 75 51 76 47 77 48 78
REMARK SMILES IDX 49 79 50 80 76 81 77 82 85 83 78 84 84 85 86 86 83 87 79 88
REMARK SMILES IDX 80 89 81 90 82 91 61 92 62 93 70 94 63 95 69 96 71 97 68 98
REMARK SMILES IDX 64 99 65 100 66 101 67 102
REMARK H PARENT 28 5 7 14 32 36 91 55 59 66
REMARK Flexibility Score: inf
ROOT
ATOM      1  C   UNL     1       2.399   0.902   2.400  1.00  0.00     0.117 C 
ENDROOT
BRANCH   1   2
ATOM      2  N   UNL     1       3.011   0.182   1.299  1.00  0.00    -0.356 N 
ATOM      3  O   UNL     1       1.136  -1.051   0.871  1.00  0.00    -0.275 OA
ATOM      4  C   UNL     1       2.248  -0.654   0.522  1.00  0.00     0.222 C 
ATOM      5  H   UNL     1       3.970   0.293   1.109  1.00  0.00     0.163 HD
BRANCH   4   6
ATOM      6  C   UNL     1       2.835  -1.121  -0.787  1.00  0.00     0.135 C 
BRANCH   6   7
ATOM      7  C   UNL     1       3.627  -0.146  -1.674  1.00  0.00     0.187 C 
ATOM      8  C   UNL     1       5.134  -0.539  -1.570  1.00  0.00     0.243 C 
ATOM      9  N   UNL     1       3.343   1.312  -1.640  1.00  0.00    -0.294 N 
ATOM     10  O   UNL     1       5.530  -1.694  -1.724  1.00  0.00    -0.273 OA
ATOM     11  N   UNL     1       6.047   0.439  -1.291  1.00  0.00    -0.353 N 
ATOM     12  C   UNL     1       4.478   2.195  -1.927  1.00  0.00     0.145 C 
ATOM     13  C   UNL     1       5.691   1.820  -1.087  1.00  0.00     0.137 C 
ATOM     14  H   UNL     1       6.997   0.187  -1.226  1.00  0.00     0.163 HD
BRANCH   9  15
ATOM     15  C   UNL     1       2.083   1.871  -1.830  1.00  0.00     0.410 C 
ATOM     16  O   UNL     1       1.916   2.954  -2.387  1.00  0.00    -0.224 OA
BRANCH  15  17
ATOM     17  O   UNL     1       1.091   1.201  -1.200  1.00  0.00    -0.448 OA
BRANCH  17  18
ATOM     18  C   UNL     1      -0.112   1.959  -0.865  1.00  0.00     0.248 C 
BRANCH  18  19
ATOM     19  C   UNL     1      -0.015   2.528   0.565  1.00  0.00     0.088 C 
ATOM     20  C   UNL     1       0.688   3.877   0.722  1.00  0.00    -0.029 A 
ATOM     21  C   UNL     1      -1.323   2.783   1.312  1.00  0.00    -0.029 A 
ATOM     22  C   UNL     1       1.999   4.223   0.435  1.00  0.00     0.005 A 
ATOM     23  C   UNL     1      -0.152   4.795   1.385  1.00  0.00    -0.014 A 
ATOM     24  C   UNL     1      -1.363   4.114   1.785  1.00  0.00    -0.014 A 
ATOM     25  C   UNL     1      -2.270   1.855   1.722  1.00  0.00     0.005 A 
ATOM     26  C   UNL     1       2.440   5.518   0.710  1.00  0.00     0.000 A 
ATOM     27  C   UNL     1       0.280   6.085   1.661  1.00  0.00     0.009 A 
ATOM     28  C   UNL     1      -2.369   4.535   2.642  1.00  0.00     0.009 A 
ATOM     29  C   UNL     1      -3.275   2.277   2.600  1.00  0.00     0.000 A 
ATOM     30  C   UNL     1       1.579   6.449   1.302  1.00  0.00     0.001 A 
ATOM     31  C   UNL     1      -3.327   3.606   3.051  1.00  0.00     0.001 A 
ENDBRANCH  18  19
ENDBRANCH  17  18
ENDBRANCH  15  17
ENDBRANCH   9  15
ENDBRANCH   6   7
ENDBRANCH   4   6
ENDBRANCH   1   2
BRANCH   1  32
ATOM     32  C   UNL     1       2.990   0.664   3.761  1.00  0.00     0.042 C 
BRANCH  32  33
ATOM     33  C   UNL     1       4.437   1.080   3.873  1.00  0.00     0.118 C 
BRANCH  33  34
ATOM     34  N   UNL     1       4.671   2.509   3.683  1.00  0.00    -0.352 N 
ATOM     35  C   UNL     1       5.280   3.422   4.516  1.00  0.00     0.251 C 
ATOM     36  H   UNL     1       4.344   2.875   2.830  1.00  0.00     0.163 HD
ATOM     37  O   UNL     1       5.322   4.605   4.191  1.00  0.00    -0.269 OA
BRANCH  35  38
ATOM     38  C   UNL     1       5.825   2.979   5.819  1.00  0.00     0.039 A 
ATOM     39  C   UNL     1       5.596   3.754   6.956  1.00  0.00     0.014 A 
ATOM     40  C   UNL     1       6.492   1.760   5.933  1.00  0.00     0.014 A 
ATOM     41  C   UNL     1       5.953   3.255   8.211  1.00  0.00     0.010 A 
ATOM     42  C   UNL     1       6.688   1.197   7.185  1.00  0.00     0.010 A 
ATOM     43  C   UNL     1       6.450   1.947   8.343  1.00  0.00    -0.014 A 
BRANCH  43  44
ATOM     44  C   UNL     1       6.764   1.365   9.676  1.00  0.00     0.031 A 
ATOM     45  C   UNL     1       8.157   0.866   9.969  1.00  0.00     0.074 A 
ATOM     46  C   UNL     1       5.791   1.250  10.603  1.00  0.00     0.049 A 
ATOM     47  N   UNL     1       8.628   0.321  11.061  1.00  0.00    -0.248 NA
ATOM     48  C   UNL     1       9.142   0.951   8.877  1.00  0.00     0.031 C 
ATOM     49  C   UNL     1       4.388   1.626  10.410  1.00  0.00     0.029 A 
ATOM     50  N   UNL     1       5.832   0.795  11.897  1.00  0.00    -0.354 N 
ATOM     51  C   UNL     1       9.951  -0.009  10.780  1.00  0.00     0.074 A 
ATOM     52  C   UNL     1      10.176   0.305   9.388  1.00  0.00     0.031 C 
ATOM     53  C   UNL     1       3.720   1.447  11.561  1.00  0.00     0.029 A 
ATOM     54  C   UNL     1       4.629   0.895  12.559  1.00  0.00     0.049 A 
ATOM     55  H   UNL     1       6.647   0.431  12.313  1.00  0.00     0.167 HD
ATOM     56  C   UNL     1      10.905  -0.488  11.614  1.00  0.00     0.034 A 
ATOM     57  C   UNL     1       4.299   0.582  13.828  1.00  0.00     0.034 A 
ATOM     58  C   UNL     1      10.667  -0.777  13.006  1.00  0.00     0.049 A 
ATOM     59  C   UNL     1       5.376   0.045  14.738  1.00  0.00     0.074 A 
ATOM     60  C   UNL     1      11.566  -1.215  13.961  1.00  0.00     0.029 A 
ATOM     61  N   UNL     1       9.436  -0.663  13.641  1.00  0.00    -0.354 N 
ATOM     62  N   UNL     1       6.641  -0.193  14.475  1.00  0.00    -0.248 NA
ATOM     63  C   UNL     1       4.983  -0.246  16.122  1.00  0.00     0.031 C 
ATOM     64  C   UNL     1      10.865  -1.440  15.150  1.00  0.00     0.029 A 
ATOM     65  C   UNL     1       9.547  -1.053  14.967  1.00  0.00     0.049 A 
ATOM     66  H   UNL     1       8.607  -0.351  13.212  1.00  0.00     0.167 HD
ATOM     67  C   UNL     1       7.202  -0.631  15.672  1.00  0.00     0.074 A 
ATOM     68  C   UNL     1       6.142  -0.595  16.659  1.00  0.00     0.031 C 
ATOM     69  C   UNL     1       8.475  -1.026  15.934  1.00  0.00     0.034 A 
BRANCH  56  70
ATOM     70  C   UNL     1      12.278  -0.738  11.033  1.00  0.00     0.023 A 
ATOM     71  C   UNL     1      13.043   0.299  10.465  1.00  0.00     0.031 A 
ATOM     72  C   UNL     1      12.819  -2.035  11.011  1.00  0.00     0.131 A 
ATOM     73  C   UNL     1      14.259   0.009   9.829  1.00  0.00     0.055 A 
ATOM     74  C   UNL     1      14.074  -2.302  10.459  1.00  0.00     0.041 A 
ATOM     75  F   UNL     1      12.129  -3.072  11.511  1.00  0.00    -0.206 F 
ATOM     76  C   UNL     1      14.795  -1.280   9.848  1.00  0.00     0.022 A 
BRANCH  73  77
ATOM     77  S   UNL     1      15.049   1.307   8.838  1.00  0.00     0.124 S 
ATOM     78  O   UNL     1      14.003   1.612   7.864  1.00  0.00    -0.237 OA
ATOM     79  O   UNL     1      15.321   2.341   9.829  1.00  0.00    -0.237 OA
ATOM     80  O   UNL     1      16.230   0.645   8.285  1.00  0.00    -0.744 OA
ENDBRANCH  73  77
ENDBRANCH  56  70
BRANCH  57  81
ATOM     81  C   UNL     1       2.903   0.772  14.322  1.00  0.00     0.023 A 
ATOM     82  C   UNL     1       2.618   1.663  15.371  1.00  0.00     0.031 A 
ATOM     83  C   UNL     1       1.836   0.029  13.786  1.00  0.00     0.131 A 
ATOM     84  C   UNL     1       1.315   1.746  15.887  1.00  0.00     0.055 A 
ATOM     85  C   UNL     1       0.530   0.162  14.261  1.00  0.00     0.041 A 
ATOM     86  F   UNL     1       2.049  -0.835  12.781  1.00  0.00    -0.206 F 
ATOM     87  C   UNL     1       0.266   1.014  15.328  1.00  0.00     0.022 A 
BRANCH  84  88
ATOM     88  S   UNL     1       1.029   2.752  17.370  1.00  0.00     0.124 S 
ATOM     89  O   UNL     1       1.957   2.149  18.321  1.00  0.00    -0.237 OA
ATOM     90  O   UNL     1       1.371   4.090  16.900  1.00  0.00    -0.237 OA
ATOM     91  O   UNL     1      -0.388   2.538  17.658  1.00  0.00    -0.744 OA
ENDBRANCH  84  88
ENDBRANCH  57  81
BRANCH  69  92
ATOM     92  C   UNL     1       8.790  -1.406  17.362  1.00  0.00     0.023 A 
ATOM     93  C   UNL     1       8.170  -2.499  17.991  1.00  0.00     0.031 A 
ATOM     94  C   UNL     1       9.699  -0.641  18.114  1.00  0.00     0.131 A 
ATOM     95  C   UNL     1       8.399  -2.744  19.352  1.00  0.00     0.055 A 
ATOM     96  C   UNL     1       9.986  -0.940  19.447  1.00  0.00     0.041 A 
ATOM     97  F   UNL     1      10.321   0.416  17.568  1.00  0.00    -0.206 F 
ATOM     98  C   UNL     1       9.319  -1.984  20.079  1.00  0.00     0.022 A 
BRANCH  95  99
ATOM     99  S   UNL     1       7.372  -3.978  20.195  1.00  0.00     0.124 S 
ATOM    100  O   UNL     1       6.025  -3.490  19.918  1.00  0.00    -0.237 OA
ATOM    101  O   UNL     1       7.753  -5.214  19.520  1.00  0.00    -0.237 OA
ATOM    102  O   UNL     1       7.793  -3.878  21.591  1.00  0.00    -0.744 OA
ENDBRANCH  95  99
ENDBRANCH  69  92
ENDBRANCH  43  44
ENDBRANCH  35  38
ENDBRANCH  33  34
ENDBRANCH  32  33
ENDBRANCH   1  32
TORSDOF 18
