REMARK SMILES Cc1cccc(-n2ncc(C(=O)Nc3cccc(C(=O)NCCCNC(=O)c4ccc(-c5c6nc(c(-c7cc(S(=O)(=O)[O-])ccc7F)c7ccc([nH]7)c(-c7cc(S(=O)(=O)[O-])ccc7F)c7nc(c(-c8cc(S(=O)(=O)[O-])ccc8F)c8ccc5[nH]8)C=C7)C=C6)cc4)c3C)c2C)c1
REMARK SMILES IDX 23 1 22 2 21 3 19 4 20 5 18 7 14 8 15 9 91 10 16 11 92 12
REMARK SMILES IDX 17 13 13 14 11 15 12 16 10 18 7 19 8 20 93 21 9 22 94 23
REMARK SMILES IDX 6 24 1 25 2 26 3 27 95 28 4 29 5 30 24 31 25 32 26 33 27 35
REMARK SMILES IDX 28 36 29 37 90 38 30 39 89 40 31 41 32 42 33 43 83 44 34 45
REMARK SMILES IDX 88 46 82 47 84 48 35 49 87 50 81 51 80 52 36 54 68 55 48 56
REMARK SMILES IDX 67 57 49 58 52 59 66 60 85 61 50 62 51 63 65 65 86 66 53 67
REMARK SMILES IDX 37 68 38 69 46 70 39 71 45 72 47 73 44 74 40 75 41 76 42 77
REMARK SMILES IDX 43 78 69 79 70 80 78 81 71 82 77 83 79 84 76 85 72 86 73 87
REMARK SMILES IDX 74 88 75 89 54 90 55 91 63 92 56 93 62 94 64 95 61 96 57 97
REMARK SMILES IDX 58 98 59 99 60 100
REMARK H PARENT 21 6 13 17 25 34 84 53 52 64
REMARK Flexibility Score: inf
ROOT
ATOM      1  C   UNL     1      -1.686   9.272  -5.033  1.00  0.00     0.042 C 
ENDROOT
BRANCH   1   2
ATOM      2  C   UNL     1      -0.883   9.054  -3.748  1.00  0.00     0.118 C 
BRANCH   2   3
ATOM      3  N   UNL     1      -1.415   9.848  -2.646  1.00  0.00    -0.352 N 
ATOM      4  C   UNL     1      -2.365   9.635  -1.675  1.00  0.00     0.251 C 
ATOM      5  O   UNL     1      -2.549  10.563  -0.888  1.00  0.00    -0.269 OA
ATOM      6  H   UNL     1      -0.999  10.738  -2.583  1.00  0.00     0.163 HD
BRANCH   4   7
ATOM      7  C   UNL     1      -3.145   8.350  -1.516  1.00  0.00     0.044 A 
ATOM      8  C   UNL     1      -4.158   6.605  -0.143  1.00  0.00     0.045 A 
ATOM      9  C   UNL     1      -4.369   5.814  -1.278  1.00  0.00     0.026 A 
ATOM     10  C   UNL     1      -3.645   7.923  -0.251  1.00  0.00    -0.015 A 
ATOM     11  C   UNL     1      -4.014   6.290  -2.524  1.00  0.00     0.003 A 
ATOM     12  C   UNL     1      -3.525   8.764   1.000  1.00  0.00     0.047 C 
ATOM     13  C   UNL     1      -3.398   7.534  -2.630  1.00  0.00     0.014 A 
BRANCH   8  14
ATOM     14  N   UNL     1      -4.444   6.053   1.118  1.00  0.00    -0.322 N 
ATOM     15  C   UNL     1      -4.173   4.785   1.587  1.00  0.00     0.259 C 
ATOM     16  O   UNL     1      -4.810   4.377   2.559  1.00  0.00    -0.269 OA
ATOM     17  H   UNL     1      -4.901   6.653   1.752  1.00  0.00     0.170 HD
BRANCH  15  18
ATOM     18  C   UNL     1      -3.070   4.011   1.008  1.00  0.00     0.081 A 
ATOM     19  N   UNL     1      -1.655   2.356   0.502  1.00  0.00    -0.237 N 
ATOM     20  N   UNL     1      -1.109   3.467  -0.043  1.00  0.00    -0.175 NA
ATOM     21  C   UNL     1      -2.781   2.668   1.256  1.00  0.00     0.054 A 
ATOM     22  C   UNL     1      -1.968   4.440   0.236  1.00  0.00     0.149 A 
ATOM     23  C   UNL     1      -3.421   1.753   2.240  1.00  0.00     0.068 C 
BRANCH  19  24
ATOM     24  C   UNL     1      -1.017   1.103   0.287  1.00  0.00     0.065 A 
ATOM     25  C   UNL     1       2.543  -0.150  -0.239  1.00  0.00     0.044 C 
ATOM     26  C   UNL     1       1.051  -0.128  -0.088  1.00  0.00    -0.049 A 
ATOM     27  C   UNL     1       0.326  -1.324  -0.055  1.00  0.00     0.003 A 
ATOM     28  C   UNL     1       0.369   1.085   0.057  1.00  0.00     0.031 A 
ATOM     29  C   UNL     1      -1.060  -1.307   0.118  1.00  0.00     0.002 A 
ATOM     30  C   UNL     1      -1.734  -0.097   0.293  1.00  0.00     0.028 A 
ENDBRANCH  19  24
ENDBRANCH  15  18
ENDBRANCH   8  14
ENDBRANCH   4   7
ENDBRANCH   2   3
ENDBRANCH   1   2
BRANCH   1  31
ATOM     31  C   UNL     1      -1.200  10.439  -5.885  1.00  0.00     0.118 C 
BRANCH  31  32
ATOM     32  N   UNL     1      -0.699  10.003  -7.187  1.00  0.00    -0.352 N 
ATOM     33  C   UNL     1      -0.460  10.762  -8.328  1.00  0.00     0.251 C 
ATOM     34  H   UNL     1      -0.503   9.042  -7.267  1.00  0.00     0.163 HD
ATOM     35  O   UNL     1      -0.052  10.285  -9.356  1.00  0.00    -0.269 OA
BRANCH  33  36
ATOM     36  C   UNL     1      -0.628  12.227  -8.193  1.00  0.00     0.039 A 
ATOM     37  C   UNL     1       0.539  12.996  -8.198  1.00  0.00     0.014 A 
ATOM     38  C   UNL     1      -1.843  12.748  -7.761  1.00  0.00     0.014 A 
ATOM     39  C   UNL     1       0.537  14.224  -7.548  1.00  0.00     0.010 A 
ATOM     40  C   UNL     1      -1.822  13.928  -7.040  1.00  0.00     0.010 A 
ATOM     41  C   UNL     1      -0.616  14.624  -6.871  1.00  0.00    -0.014 A 
BRANCH  41  42
ATOM     42  C   UNL     1      -0.595  15.647  -5.827  1.00  0.00     0.031 A 
ATOM     43  C   UNL     1      -1.261  16.949  -6.023  1.00  0.00     0.074 A 
ATOM     44  C   UNL     1       0.008  15.386  -4.645  1.00  0.00     0.049 A 
ATOM     45  N   UNL     1      -0.997  18.016  -5.347  1.00  0.00    -0.248 NA
ATOM     46  C   UNL     1      -2.238  17.171  -7.079  1.00  0.00     0.031 C 
ATOM     47  C   UNL     1      -0.104  16.148  -3.405  1.00  0.00     0.029 A 
ATOM     48  N   UNL     1       1.076  14.518  -4.426  1.00  0.00    -0.354 N 
ATOM     49  C   UNL     1      -1.954  18.957  -5.650  1.00  0.00     0.074 A 
ATOM     50  C   UNL     1      -2.627  18.419  -6.807  1.00  0.00     0.031 C 
ATOM     51  C   UNL     1       0.988  15.926  -2.660  1.00  0.00     0.029 A 
ATOM     52  C   UNL     1       1.897  15.123  -3.456  1.00  0.00     0.049 A 
ATOM     53  H   UNL     1       1.227  13.650  -4.864  1.00  0.00     0.167 HD
ATOM     54  C   UNL     1      -2.147  20.003  -4.793  1.00  0.00     0.034 A 
ATOM     55  C   UNL     1       3.200  15.427  -3.716  1.00  0.00     0.034 A 
ATOM     56  C   UNL     1      -1.089  20.064  -3.776  1.00  0.00     0.049 A 
ATOM     57  C   UNL     1       3.528  16.892  -3.547  1.00  0.00     0.074 A 
ATOM     58  C   UNL     1      -1.037  19.743  -2.429  1.00  0.00     0.029 A 
ATOM     59  N   UNL     1       0.229  20.277  -4.173  1.00  0.00    -0.354 N 
ATOM     60  N   UNL     1       2.635  17.841  -3.484  1.00  0.00    -0.248 NA
ATOM     61  C   UNL     1       4.890  17.402  -3.450  1.00  0.00     0.031 C 
ATOM     62  C   UNL     1       0.329  19.719  -2.032  1.00  0.00     0.029 A 
ATOM     63  C   UNL     1       1.106  20.053  -3.128  1.00  0.00     0.049 A 
ATOM     64  H   UNL     1       0.501  20.552  -5.079  1.00  0.00     0.167 HD
ATOM     65  C   UNL     1       3.259  19.059  -3.358  1.00  0.00     0.074 A 
ATOM     66  C   UNL     1       4.672  18.722  -3.316  1.00  0.00     0.031 C 
ATOM     67  C   UNL     1       2.546  20.229  -3.311  1.00  0.00     0.034 A 
BRANCH  54  68
ATOM     68  C   UNL     1      -3.446  20.795  -4.685  1.00  0.00     0.023 A 
ATOM     69  C   UNL     1      -3.759  21.441  -3.466  1.00  0.00     0.031 A 
ATOM     70  C   UNL     1      -4.447  20.893  -5.672  1.00  0.00     0.131 A 
ATOM     71  C   UNL     1      -5.019  22.033  -3.240  1.00  0.00     0.055 A 
ATOM     72  C   UNL     1      -5.716  21.441  -5.436  1.00  0.00     0.041 A 
ATOM     73  F   UNL     1      -4.243  20.520  -6.938  1.00  0.00    -0.206 F 
ATOM     74  C   UNL     1      -6.015  22.003  -4.210  1.00  0.00     0.022 A 
BRANCH  71  75
ATOM     75  S   UNL     1      -5.356  22.839  -1.649  1.00  0.00     0.124 S 
ATOM     76  O   UNL     1      -5.185  21.742  -0.703  1.00  0.00    -0.237 OA
ATOM     77  O   UNL     1      -4.346  23.890  -1.615  1.00  0.00    -0.237 OA
ATOM     78  O   UNL     1      -6.732  23.316  -1.796  1.00  0.00    -0.744 OA
ENDBRANCH  71  75
ENDBRANCH  54  68
BRANCH  55  79
ATOM     79  C   UNL     1       3.848  14.483  -4.670  1.00  0.00     0.023 A 
ATOM     80  C   UNL     1       3.816  13.115  -4.323  1.00  0.00     0.031 A 
ATOM     81  C   UNL     1       4.099  14.814  -6.007  1.00  0.00     0.131 A 
ATOM     82  C   UNL     1       3.829  12.132  -5.320  1.00  0.00     0.055 A 
ATOM     83  C   UNL     1       4.205  13.821  -6.991  1.00  0.00     0.041 A 
ATOM     84  F   UNL     1       4.115  16.095  -6.404  1.00  0.00    -0.206 F 
ATOM     85  C   UNL     1       4.020  12.477  -6.658  1.00  0.00     0.022 A 
BRANCH  82  86
ATOM     86  S   UNL     1       3.272  10.456  -4.882  1.00  0.00     0.124 S 
ATOM     87  O   UNL     1       4.527   9.791  -4.554  1.00  0.00    -0.237 OA
ATOM     88  O   UNL     1       2.364  10.697  -3.761  1.00  0.00    -0.237 OA
ATOM     89  O   UNL     1       2.602   9.988  -6.093  1.00  0.00    -0.744 OA
ENDBRANCH  82  86
ENDBRANCH  55  79
BRANCH  67  90
ATOM     90  C   UNL     1       3.110  21.643  -3.356  1.00  0.00     0.023 A 
ATOM     91  C   UNL     1       4.450  21.950  -3.635  1.00  0.00     0.031 A 
ATOM     92  C   UNL     1       2.266  22.769  -3.168  1.00  0.00     0.131 A 
ATOM     93  C   UNL     1       4.917  23.280  -3.649  1.00  0.00     0.055 A 
ATOM     94  C   UNL     1       2.716  24.092  -3.247  1.00  0.00     0.041 A 
ATOM     95  F   UNL     1       0.956  22.640  -2.911  1.00  0.00    -0.206 F 
ATOM     96  C   UNL     1       4.055  24.357  -3.475  1.00  0.00     0.022 A 
BRANCH  93  97
ATOM     97  S   UNL     1       6.696  23.566  -3.858  1.00  0.00     0.124 S 
ATOM     98  O   UNL     1       7.246  22.927  -2.666  1.00  0.00    -0.237 OA
ATOM     99  O   UNL     1       6.975  22.893  -5.122  1.00  0.00    -0.237 OA
ATOM    100  O   UNL     1       6.812  25.023  -3.891  1.00  0.00    -0.744 OA
ENDBRANCH  93  97
ENDBRANCH  67  90
ENDBRANCH  41  42
ENDBRANCH  33  36
ENDBRANCH  31  32
ENDBRANCH   1  31
TORSDOF 16
