REMARK SMILES C[C@@H]1CCC[C@H]1NC(=O)c1csc(/C=C/C(=O)NCCCNC(=O)c2ccc(-c3c4nc(c(-c5cc(S(=O)(=O)[O-])ccc5F)c5ccc([nH]5)c(-c5cc(S(=O)(=O)[O-])ccc5F)c5nc(c(-c6cc(S(=O)(=O)[O-])ccc6F)c6ccc3[nH]6)C=C5)C=C4)cc2)c1
REMARK SMILES IDX 20 1 19 2 18 3 16 4 17 5 15 7 14 8 13 9 10 10 11 11 88 12
REMARK SMILES IDX 12 13 8 14 7 15 9 17 6 18 1 19 2 20 3 21 4 22 5 23 21 24
REMARK SMILES IDX 22 25 23 26 24 28 25 29 26 30 87 31 27 32 86 33 28 34 29 35
REMARK SMILES IDX 30 36 80 37 31 38 85 39 79 40 81 41 32 42 84 43 78 44 77 45
REMARK SMILES IDX 33 47 65 48 45 49 64 50 46 51 49 52 63 53 82 54 47 55 48 56
REMARK SMILES IDX 62 58 83 59 50 60 34 61 35 62 43 63 36 64 42 65 44 66 41 67
REMARK SMILES IDX 37 68 38 69 39 70 40 71 66 72 67 73 75 74 68 75 74 76 76 77
REMARK SMILES IDX 73 78 69 79 70 80 71 81 72 82 51 83 52 84 60 85 53 86 59 87
REMARK SMILES IDX 61 88 58 89 54 90 55 91 56 92 57 93
REMARK H PARENT 18 6 7 16 22 27 81 46 49 57
REMARK Flexibility Score: inf
ROOT
ATOM      1  C   UNL     1       4.919   7.132   4.860  1.00  0.00     0.042 C 
ENDROOT
BRANCH   1   2
ATOM      2  C   UNL     1       3.899   8.130   4.314  1.00  0.00     0.118 C 
BRANCH   2   3
ATOM      3  N   UNL     1       4.374   8.762   3.093  1.00  0.00    -0.352 N 
ATOM      4  C   UNL     1       3.950   8.642   1.806  1.00  0.00     0.244 C 
ATOM      5  O   UNL     1       4.422   9.370   0.936  1.00  0.00    -0.270 OA
ATOM      6  H   UNL     1       5.129   9.382   3.219  1.00  0.00     0.163 HD
BRANCH   4   7
ATOM      7  C   UNL     1       2.852   7.717   1.457  1.00  0.00     0.072 C 
ATOM      8  C   UNL     1       2.810   6.437   1.851  1.00  0.00     0.024 C 
BRANCH   8   9
ATOM      9  C   UNL     1       1.720   5.565   1.563  1.00  0.00     0.028 A 
ATOM     10  C   UNL     1       0.188   3.780   1.784  1.00  0.00     0.051 A 
ATOM     11  C   UNL     1      -0.193   4.335   0.578  1.00  0.00     0.079 A 
ATOM     12  C   UNL     1       1.264   4.530   2.362  1.00  0.00     0.033 A 
ATOM     13  S   UNL     1       0.795   5.649   0.117  1.00  0.00    -0.144 S 
BRANCH  10  14
ATOM     14  C   UNL     1      -0.449   2.639   2.425  1.00  0.00     0.252 C 
ATOM     15  N   UNL     1      -0.587   1.469   1.723  1.00  0.00    -0.349 N 
ATOM     16  H   UNL     1      -1.099   0.764   2.183  1.00  0.00     0.164 HD
ATOM     17  O   UNL     1      -0.830   2.686   3.591  1.00  0.00    -0.269 OA
BRANCH  15  18
ATOM     18  C   UNL     1      -0.090   1.110   0.398  1.00  0.00     0.085 C 
ATOM     19  C   UNL     1       1.786  -0.159  -0.739  1.00  0.00     0.010 C 
ATOM     20  C   UNL     1       0.840  -0.110   0.463  1.00  0.00     0.008 C 
ATOM     21  C   UNL     1      -0.131  -1.291   0.467  1.00  0.00     0.005 C 
ATOM     22  C   UNL     1      -1.298  -0.861  -0.416  1.00  0.00     0.002 C 
ATOM     23  C   UNL     1      -1.251   0.666  -0.494  1.00  0.00     0.025 C 
ENDBRANCH  15  18
ENDBRANCH  10  14
ENDBRANCH   8   9
ENDBRANCH   4   7
ENDBRANCH   2   3
ENDBRANCH   1   2
BRANCH   1  24
ATOM     24  C   UNL     1       6.128   7.795   5.517  1.00  0.00     0.118 C 
BRANCH  24  25
ATOM     25  N   UNL     1       5.768   8.484   6.748  1.00  0.00    -0.352 N 
ATOM     26  C   UNL     1       6.225   8.303   8.030  1.00  0.00     0.251 C 
ATOM     27  H   UNL     1       5.091   9.191   6.645  1.00  0.00     0.163 HD
ATOM     28  O   UNL     1       5.614   8.829   8.957  1.00  0.00    -0.269 OA
BRANCH  26  29
ATOM     29  C   UNL     1       7.425   7.481   8.302  1.00  0.00     0.039 A 
ATOM     30  C   UNL     1       7.435   6.659   9.433  1.00  0.00     0.014 A 
ATOM     31  C   UNL     1       8.556   7.550   7.483  1.00  0.00     0.014 A 
ATOM     32  C   UNL     1       8.553   5.869   9.711  1.00  0.00     0.010 A 
ATOM     33  C   UNL     1       9.642   6.710   7.722  1.00  0.00     0.010 A 
ATOM     34  C   UNL     1       9.655   5.863   8.841  1.00  0.00    -0.014 A 
BRANCH  34  35
ATOM     35  C   UNL     1      10.827   4.982   9.087  1.00  0.00     0.031 A 
ATOM     36  C   UNL     1      12.181   5.580   9.364  1.00  0.00     0.074 A 
ATOM     37  C   UNL     1      10.683   3.644   9.000  1.00  0.00     0.049 A 
ATOM     38  N   UNL     1      13.334   4.983   9.521  1.00  0.00    -0.248 NA
ATOM     39  C   UNL     1      12.248   7.046   9.446  1.00  0.00     0.031 C 
ATOM     40  C   UNL     1       9.429   2.949   8.701  1.00  0.00     0.029 A 
ATOM     41  N   UNL     1      11.597   2.630   9.141  1.00  0.00    -0.354 N 
ATOM     42  C   UNL     1      14.267   5.999   9.705  1.00  0.00     0.074 A 
ATOM     43  C   UNL     1      13.549   7.250   9.581  1.00  0.00     0.031 C 
ATOM     44  C   UNL     1       9.649   1.625   8.703  1.00  0.00     0.029 A 
ATOM     45  C   UNL     1      11.064   1.375   8.953  1.00  0.00     0.049 A 
ATOM     46  H   UNL     1      12.545   2.786   9.357  1.00  0.00     0.167 HD
ATOM     47  C   UNL     1      15.593   5.896   9.973  1.00  0.00     0.034 A 
ATOM     48  C   UNL     1      11.652   0.162   8.964  1.00  0.00     0.034 A 
ATOM     49  C   UNL     1      16.289   4.638  10.104  1.00  0.00     0.049 A 
ATOM     50  C   UNL     1      13.131   0.074   9.240  1.00  0.00     0.074 A 
ATOM     51  C   UNL     1      17.616   4.415  10.429  1.00  0.00     0.029 A 
ATOM     52  N   UNL     1      15.716   3.386   9.909  1.00  0.00    -0.354 N 
ATOM     53  N   UNL     1      13.990   1.043   9.461  1.00  0.00    -0.248 NA
ATOM     54  C   UNL     1      13.717  -1.272   9.280  1.00  0.00     0.031 C 
ATOM     55  C   UNL     1      17.862   3.040  10.361  1.00  0.00     0.029 A 
ATOM     56  C   UNL     1      16.670   2.393  10.073  1.00  0.00     0.049 A 
ATOM     57  H   UNL     1      14.770   3.228   9.686  1.00  0.00     0.167 HD
ATOM     58  C   UNL     1      15.212   0.419   9.696  1.00  0.00     0.074 A 
ATOM     59  C   UNL     1      14.974  -1.007   9.606  1.00  0.00     0.031 C 
ATOM     60  C   UNL     1      16.421   0.974   9.967  1.00  0.00     0.034 A 
BRANCH  47  61
ATOM     61  C   UNL     1      16.378   7.181  10.111  1.00  0.00     0.023 A 
ATOM     62  C   UNL     1      16.095   8.116  11.122  1.00  0.00     0.031 A 
ATOM     63  C   UNL     1      17.408   7.488   9.204  1.00  0.00     0.131 A 
ATOM     64  C   UNL     1      16.775   9.343  11.154  1.00  0.00     0.055 A 
ATOM     65  C   UNL     1      18.139   8.675   9.293  1.00  0.00     0.041 A 
ATOM     66  F   UNL     1      17.713   6.646   8.204  1.00  0.00    -0.206 F 
ATOM     67  C   UNL     1      17.813   9.618  10.262  1.00  0.00     0.022 A 
BRANCH  64  68
ATOM     68  S   UNL     1      16.180  10.633  12.283  1.00  0.00     0.124 S 
ATOM     69  O   UNL     1      14.800  10.802  11.836  1.00  0.00    -0.237 OA
ATOM     70  O   UNL     1      16.358  10.013  13.591  1.00  0.00    -0.237 OA
ATOM     71  O   UNL     1      17.061  11.765  12.004  1.00  0.00    -0.744 OA
ENDBRANCH  64  68
ENDBRANCH  47  61
BRANCH  48  72
ATOM     72  C   UNL     1      10.851  -1.067   8.694  1.00  0.00     0.023 A 
ATOM     73  C   UNL     1      10.679  -2.050   9.681  1.00  0.00     0.031 A 
ATOM     74  C   UNL     1      10.277  -1.294   7.430  1.00  0.00     0.131 A 
ATOM     75  C   UNL     1       9.992  -3.235   9.376  1.00  0.00     0.055 A 
ATOM     76  C   UNL     1       9.548  -2.451   7.148  1.00  0.00     0.041 A 
ATOM     77  F   UNL     1      10.406  -0.384   6.452  1.00  0.00    -0.206 F 
ATOM     78  C   UNL     1       9.414  -3.436   8.121  1.00  0.00     0.022 A 
BRANCH  75  79
ATOM     79  S   UNL     1       9.939  -4.553  10.622  1.00  0.00     0.124 S 
ATOM     80  O   UNL     1      11.358  -4.801  10.852  1.00  0.00    -0.237 OA
ATOM     81  O   UNL     1       9.215  -3.909  11.712  1.00  0.00    -0.237 OA
ATOM     82  O   UNL     1       9.217  -5.629   9.947  1.00  0.00    -0.744 OA
ENDBRANCH  75  79
ENDBRANCH  48  72
BRANCH  60  83
ATOM     83  C   UNL     1      17.567   0.026  10.228  1.00  0.00     0.023 A 
ATOM     84  C   UNL     1      18.082  -0.809   9.221  1.00  0.00     0.031 A 
ATOM     85  C   UNL     1      18.140  -0.053  11.510  1.00  0.00     0.131 A 
ATOM     86  C   UNL     1      19.099  -1.727   9.527  1.00  0.00     0.055 A 
ATOM     87  C   UNL     1      19.193  -0.923  11.793  1.00  0.00     0.041 A 
ATOM     88  F   UNL     1      17.685   0.718  12.511  1.00  0.00    -0.206 F 
ATOM     89  C   UNL     1      19.669  -1.776  10.802  1.00  0.00     0.022 A 
BRANCH  86  90
ATOM     90  S   UNL     1      19.602  -2.923   8.260  1.00  0.00     0.124 S 
ATOM     91  O   UNL     1      18.347  -3.613   7.979  1.00  0.00    -0.237 OA
ATOM     92  O   UNL     1      20.108  -2.060   7.198  1.00  0.00    -0.237 OA
ATOM     93  O   UNL     1      20.616  -3.732   8.935  1.00  0.00    -0.744 OA
ENDBRANCH  86  90
ENDBRANCH  60  83
ENDBRANCH  34  35
ENDBRANCH  26  29
ENDBRANCH  24  25
ENDBRANCH   1  24
TORSDOF 16
