REMARK SMILES CN(C(=O)N[C@](C)(C(=O)NCCCNC(=O)c1ccc(-c2c3nc(c(-c4cc(S(=O)(=O)[O-])ccc4F)c4ccc([nH]4)c(-c4cc(S(=O)(=O)[O-])ccc4F)c4nc(c(-c5cc(S(=O)(=O)[O-])ccc5F)c5ccc2[nH]5)C=C4)C=C3)cc1)C(F)(F)F)[C@@H]1CCC[N@@H+](C)C1
REMARK SMILES IDX 12 1 11 2 10 3 8 4 9 5 6 7 7 8 5 9 3 10 4 11 2 13 1 14 84 15
REMARK SMILES IDX 89 16 88 17 87 18 90 19 86 21 85 22 80 23 81 24 82 25 83 26
REMARK SMILES IDX 13 27 14 28 15 29 16 31 17 32 18 33 79 34 19 35 78 36 20 37
REMARK SMILES IDX 21 38 22 39 72 40 23 41 77 42 71 43 73 44 24 45 76 46 70 47
REMARK SMILES IDX 69 48 25 50 57 51 37 52 56 53 38 54 41 55 55 56 74 57 39 58
REMARK SMILES IDX 40 59 54 61 75 62 42 63 26 64 27 65 35 66 28 67 34 68 36 69
REMARK SMILES IDX 33 70 29 71 30 72 31 73 32 74 58 75 59 76 67 77 60 78 66 79
REMARK SMILES IDX 68 80 65 81 61 82 62 83 63 84 64 85 43 86 44 87 52 88 45 89
REMARK SMILES IDX 51 90 53 91 50 92 46 93 47 94 48 95 49 96
REMARK H PARENT 10 6 5 12 88 20 14 30 73 49 41 60
REMARK Flexibility Score: inf
ROOT
ATOM      1  C   UNL     1      -0.921   1.040   6.870  1.00  0.00     0.042 C 
ENDROOT
BRANCH   1   2
ATOM      2  C   UNL     1       0.369   0.224   6.928  1.00  0.00     0.117 C 
BRANCH   2   3
ATOM      3  N   UNL     1       0.141  -1.200   6.716  1.00  0.00    -0.354 N 
ATOM      4  C   UNL     1       0.368  -2.066   5.686  1.00  0.00     0.255 C 
ATOM      5  O   UNL     1       0.088  -3.239   5.952  1.00  0.00    -0.272 OA
ATOM      6  H   UNL     1      -0.272  -1.637   7.496  1.00  0.00     0.163 HD
BRANCH   4   7
ATOM      7  C   UNL     1       1.049  -1.649   4.345  1.00  0.00     0.213 C 
ATOM      8  C   UNL     1       0.311  -0.485   3.675  1.00  0.00     0.056 C 
BRANCH   7   9
ATOM      9  N   UNL     1       2.413  -1.244   4.816  1.00  0.00    -0.316 N 
ATOM     10  C   UNL     1       3.666  -0.979   4.457  1.00  0.00     0.318 C 
ATOM     11  O   UNL     1       4.325  -0.615   5.432  1.00  0.00    -0.249 OA
ATOM     12  H   UNL     1       2.359  -1.125   5.792  1.00  0.00     0.166 HD
BRANCH  10  13
ATOM     13  N   UNL     1       4.188  -1.125   3.211  1.00  0.00    -0.319 N 
ATOM     14  C   UNL     1       3.434  -1.430   2.017  1.00  0.00     0.149 C 
BRANCH  13  15
ATOM     15  C   UNL     1       5.652  -0.949   2.971  1.00  0.00     0.141 C 
ATOM     16  C   UNL     1       6.821   2.418   4.333  1.00  0.00     0.332 C 
ATOM     17  N   UNL     1       6.451   1.009   4.347  1.00  0.00    -0.336 N 
ATOM     18  C   UNL     1       7.475   0.184   4.993  1.00  0.00     0.262 C 
ATOM     19  C   UNL     1       6.128   0.522   3.006  1.00  0.00     0.287 C 
ATOM     20  H   UNL     1       5.604   0.926   4.909  1.00  0.00     0.347 HD
ATOM     21  C   UNL     1       7.103  -1.299   5.080  1.00  0.00     0.064 C 
ATOM     22  C   UNL     1       6.580  -1.880   3.769  1.00  0.00     0.037 C 
ENDBRANCH  13  15
ENDBRANCH  10  13
ENDBRANCH   7   9
BRANCH   7  23
ATOM     23  C   UNL     1       0.928  -2.915   3.458  1.00  0.00     0.420 C 
ATOM     24  F   UNL     1      -0.322  -3.441   3.472  1.00  0.00    -0.168 F 
ATOM     25  F   UNL     1       1.147  -2.635   2.147  1.00  0.00    -0.168 F 
ATOM     26  F   UNL     1       1.801  -3.888   3.800  1.00  0.00    -0.168 F 
ENDBRANCH   7  23
ENDBRANCH   4   7
ENDBRANCH   2   3
ENDBRANCH   1   2
BRANCH   1  27
ATOM     27  C   UNL     1      -2.025   0.571   7.812  1.00  0.00     0.118 C 
BRANCH  27  28
ATOM     28  N   UNL     1      -1.677   0.712   9.215  1.00  0.00    -0.352 N 
ATOM     29  C   UNL     1      -2.268   1.469  10.201  1.00  0.00     0.251 C 
ATOM     30  H   UNL     1      -0.898   0.185   9.506  1.00  0.00     0.163 HD
ATOM     31  O   UNL     1      -1.706   1.578  11.286  1.00  0.00    -0.269 OA
BRANCH  29  32
ATOM     32  C   UNL     1      -3.547   2.173   9.950  1.00  0.00     0.039 A 
ATOM     33  C   UNL     1      -3.694   3.482  10.417  1.00  0.00     0.014 A 
ATOM     34  C   UNL     1      -4.601   1.554   9.274  1.00  0.00     0.014 A 
ATOM     35  C   UNL     1      -4.867   4.191  10.142  1.00  0.00     0.010 A 
ATOM     36  C   UNL     1      -5.733   2.290   8.926  1.00  0.00     0.010 A 
ATOM     37  C   UNL     1      -5.880   3.618   9.356  1.00  0.00    -0.014 A 
BRANCH  37  38
ATOM     38  C   UNL     1      -7.087   4.398   8.968  1.00  0.00     0.031 A 
ATOM     39  C   UNL     1      -8.456   3.951   9.405  1.00  0.00     0.074 A 
ATOM     40  C   UNL     1      -6.954   5.474   8.167  1.00  0.00     0.049 A 
ATOM     41  N   UNL     1      -9.626   4.462   9.116  1.00  0.00    -0.248 NA
ATOM     42  C   UNL     1      -8.518   2.752  10.252  1.00  0.00     0.031 C 
ATOM     43  C   UNL     1      -5.685   5.978   7.637  1.00  0.00     0.029 A 
ATOM     44  N   UNL     1      -7.891   6.333   7.648  1.00  0.00    -0.354 N 
ATOM     45  C   UNL     1     -10.563   3.637   9.730  1.00  0.00     0.074 A 
ATOM     46  C   UNL     1      -9.824   2.560  10.353  1.00  0.00     0.031 C 
ATOM     47  C   UNL     1      -5.921   7.066   6.888  1.00  0.00     0.029 A 
ATOM     48  C   UNL     1      -7.359   7.310   6.838  1.00  0.00     0.049 A 
ATOM     49  H   UNL     1      -8.854   6.257   7.838  1.00  0.00     0.167 HD
ATOM     50  C   UNL     1     -11.912   3.777   9.783  1.00  0.00     0.034 A 
ATOM     51  C   UNL     1      -7.957   8.280   6.117  1.00  0.00     0.034 A 
ATOM     52  C   UNL     1     -12.629   4.864   9.158  1.00  0.00     0.049 A 
ATOM     53  C   UNL     1      -9.458   8.407   6.173  1.00  0.00     0.074 A 
ATOM     54  C   UNL     1     -13.982   5.147   9.214  1.00  0.00     0.029 A 
ATOM     55  N   UNL     1     -12.056   5.835   8.345  1.00  0.00    -0.354 N 
ATOM     56  N   UNL     1     -10.325   7.663   6.820  1.00  0.00    -0.248 NA
ATOM     57  C   UNL     1     -10.058   9.509   5.412  1.00  0.00     0.031 C 
ATOM     58  C   UNL     1     -14.240   6.229   8.366  1.00  0.00     0.029 A 
ATOM     59  C   UNL     1     -13.036   6.687   7.854  1.00  0.00     0.049 A 
ATOM     60  H   UNL     1     -11.095   5.909   8.146  1.00  0.00     0.167 HD
ATOM     61  C   UNL     1     -11.574   8.222   6.561  1.00  0.00     0.074 A 
ATOM     62  C   UNL     1     -11.341   9.376   5.715  1.00  0.00     0.031 C 
ATOM     63  C   UNL     1     -12.799   7.822   6.989  1.00  0.00     0.034 A 
BRANCH  50  64
ATOM     64  C   UNL     1     -12.697   2.704  10.507  1.00  0.00     0.023 A 
ATOM     65  C   UNL     1     -12.496   2.427  11.871  1.00  0.00     0.031 A 
ATOM     66  C   UNL     1     -13.636   1.920   9.812  1.00  0.00     0.131 A 
ATOM     67  C   UNL     1     -13.149   1.338  12.470  1.00  0.00     0.055 A 
ATOM     68  C   UNL     1     -14.353   0.899  10.439  1.00  0.00     0.041 A 
ATOM     69  F   UNL     1     -13.860   2.120   8.504  1.00  0.00    -0.206 F 
ATOM     70  C   UNL     1     -14.097   0.589  11.771  1.00  0.00     0.022 A 
BRANCH  67  71
ATOM     71  S   UNL     1     -12.609   0.807  14.119  1.00  0.00     0.124 S 
ATOM     72  O   UNL     1     -11.182   0.578  13.902  1.00  0.00    -0.237 OA
ATOM     73  O   UNL     1     -12.954   1.956  14.948  1.00  0.00    -0.237 OA
ATOM     74  O   UNL     1     -13.395  -0.400  14.364  1.00  0.00    -0.744 OA
ENDBRANCH  67  71
ENDBRANCH  50  64
BRANCH  51  75
ATOM     75  C   UNL     1      -7.138   9.186   5.261  1.00  0.00     0.023 A 
ATOM     76  C   UNL     1      -7.049  10.562   5.526  1.00  0.00     0.031 A 
ATOM     77  C   UNL     1      -6.438   8.682   4.149  1.00  0.00     0.131 A 
ATOM     78  C   UNL     1      -6.303  11.391   4.673  1.00  0.00     0.055 A 
ATOM     79  C   UNL     1      -5.655   9.502   3.335  1.00  0.00     0.041 A 
ATOM     80  F   UNL     1      -6.486   7.374   3.852  1.00  0.00    -0.206 F 
ATOM     81  C   UNL     1      -5.593  10.868   3.590  1.00  0.00     0.022 A 
BRANCH  78  82
ATOM     82  S   UNL     1      -6.329  13.183   4.956  1.00  0.00     0.124 S 
ATOM     83  O   UNL     1      -7.751  13.482   4.835  1.00  0.00    -0.237 OA
ATOM     84  O   UNL     1      -5.763  13.286   6.297  1.00  0.00    -0.237 OA
ATOM     85  O   UNL     1      -5.486  13.709   3.885  1.00  0.00    -0.744 OA
ENDBRANCH  78  82
ENDBRANCH  51  75
BRANCH  63  86
ATOM     86  C   UNL     1     -13.983   8.663   6.573  1.00  0.00     0.023 A 
ATOM     87  C   UNL     1     -14.377   8.777   5.228  1.00  0.00     0.031 A 
ATOM     88  C   UNL     1     -14.725   9.368   7.539  1.00  0.00     0.131 A 
ATOM     89  C   UNL     1     -15.443   9.622   4.880  1.00  0.00     0.055 A 
ATOM     90  C   UNL     1     -15.828  10.151   7.194  1.00  0.00     0.041 A 
ATOM     91  F   UNL     1     -14.392   9.304   8.838  1.00  0.00    -0.206 F 
ATOM     92  C   UNL     1     -16.184  10.292   5.856  1.00  0.00     0.022 A 
BRANCH  89  93
ATOM     93  S   UNL     1     -15.783   9.917   3.123  1.00  0.00     0.124 S 
ATOM     94  O   UNL     1     -14.508  10.451   2.654  1.00  0.00    -0.237 OA
ATOM     95  O   UNL     1     -16.131   8.584   2.643  1.00  0.00    -0.237 OA
ATOM     96  O   UNL     1     -16.887  10.875   3.143  1.00  0.00    -0.744 OA
ENDBRANCH  89  93
ENDBRANCH  63  86
ENDBRANCH  37  38
ENDBRANCH  29  32
ENDBRANCH  27  28
ENDBRANCH   1  27
TORSDOF 17
