REMARK SMILES O=C(NCCCNC(=O)[C@H](F)[C@H](O)C1CCOCC1)c1ccc(-c2c3nc(c(-c4cc(S(=O)(=O)[O-])ccc4F)c4ccc([nH]4)c(-c4cc(S(=O)(=O)[O-])ccc4F)c4nc(c(-c5cc(S(=O)(=O)[O-])ccc5F)c5ccc2[nH]5)C=C4)C=C3)cc1
REMARK SMILES IDX 4 1 3 2 1 3 2 4 20 6 21 7 82 8 22 9 81 10 23 11 24 12 25 13
REMARK SMILES IDX 75 14 26 15 80 16 74 17 76 18 27 19 79 20 73 21 72 22 28 24
REMARK SMILES IDX 60 25 40 26 59 27 41 28 44 29 58 30 77 31 42 32 43 33 57 35
REMARK SMILES IDX 78 36 45 37 29 38 30 39 38 40 31 41 37 42 39 43 36 44 32 45
REMARK SMILES IDX 33 46 34 47 35 48 61 49 62 50 70 51 63 52 69 53 71 54 68 55
REMARK SMILES IDX 64 56 65 57 66 58 67 59 46 60 47 61 55 62 48 63 54 64 56 65
REMARK SMILES IDX 53 66 49 67 50 68 51 69 52 70 5 71 6 72 7 73 8 74 9 76 10 77
REMARK SMILES IDX 11 78 12 79 14 80 15 81 19 82 16 83 18 84 17 85 13 86
REMARK H PARENT 3 5 76 23 44 34 7 75 13 87
REMARK Flexibility Score: inf
ROOT
ATOM      1  C   UNL     1       7.307  10.844  -2.551  1.00  0.00     0.118 C 
ENDROOT
BRANCH   1   2
ATOM      2  N   UNL     1       7.866  12.112  -2.132  1.00  0.00    -0.352 N 
ATOM      3  O   UNL     1       9.220  13.901  -2.156  1.00  0.00    -0.269 OA
ATOM      4  C   UNL     1       8.810  12.899  -2.745  1.00  0.00     0.251 C 
ATOM      5  H   UNL     1       7.518  12.463  -1.281  1.00  0.00     0.163 HD
BRANCH   4   6
ATOM      6  C   UNL     1       9.359  12.559  -4.082  1.00  0.00     0.039 A 
ATOM      7  C   UNL     1       8.538  12.207  -5.158  1.00  0.00     0.014 A 
ATOM      8  C   UNL     1      10.739  12.680  -4.281  1.00  0.00     0.014 A 
ATOM      9  C   UNL     1       9.103  11.898  -6.400  1.00  0.00     0.010 A 
ATOM     10  C   UNL     1      11.296  12.429  -5.540  1.00  0.00     0.010 A 
ATOM     11  C   UNL     1      10.486  12.026  -6.613  1.00  0.00    -0.014 A 
BRANCH  11  12
ATOM     12  C   UNL     1      11.068  11.825  -7.971  1.00  0.00     0.031 A 
ATOM     13  C   UNL     1      12.036  10.704  -8.248  1.00  0.00     0.074 A 
ATOM     14  C   UNL     1      10.740  12.684  -8.959  1.00  0.00     0.049 A 
ATOM     15  N   UNL     1      12.672  10.417  -9.356  1.00  0.00    -0.248 NA
ATOM     16  C   UNL     1      12.334   9.795  -7.133  1.00  0.00     0.031 C 
ATOM     17  C   UNL     1       9.827  13.821  -8.815  1.00  0.00     0.029 A 
ATOM     18  N   UNL     1      11.136  12.744 -10.273  1.00  0.00    -0.354 N 
ATOM     19  C   UNL     1      13.454   9.301  -9.073  1.00  0.00     0.074 A 
ATOM     20  C   UNL     1      13.235   8.986  -7.676  1.00  0.00     0.031 C 
ATOM     21  C   UNL     1       9.716  14.449  -9.995  1.00  0.00     0.029 A 
ATOM     22  C   UNL     1      10.594  13.804 -10.965  1.00  0.00     0.049 A 
ATOM     23  H   UNL     1      11.749  12.091 -10.681  1.00  0.00     0.167 HD
ATOM     24  C   UNL     1      14.271   8.603  -9.903  1.00  0.00     0.034 A 
ATOM     25  C   UNL     1      10.798  14.230 -12.228  1.00  0.00     0.034 A 
ATOM     26  C   UNL     1      14.483   8.929 -11.295  1.00  0.00     0.049 A 
ATOM     27  C   UNL     1      11.749  13.464 -13.112  1.00  0.00     0.074 A 
ATOM     28  C   UNL     1      15.256   8.258 -12.228  1.00  0.00     0.029 A 
ATOM     29  N   UNL     1      13.935  10.023 -11.953  1.00  0.00    -0.354 N 
ATOM     30  N   UNL     1      12.451  12.389 -12.836  1.00  0.00    -0.248 NA
ATOM     31  C   UNL     1      11.931  13.966 -14.481  1.00  0.00     0.031 C 
ATOM     32  C   UNL     1      15.235   8.983 -13.424  1.00  0.00     0.029 A 
ATOM     33  C   UNL     1      14.383  10.063 -13.267  1.00  0.00     0.049 A 
ATOM     34  H   UNL     1      13.320  10.675 -11.547  1.00  0.00     0.167 HD
ATOM     35  C   UNL     1      13.132  12.071 -14.007  1.00  0.00     0.074 A 
ATOM     36  C   UNL     1      12.743  13.055 -14.995  1.00  0.00     0.031 C 
ATOM     37  C   UNL     1      14.000  11.054 -14.245  1.00  0.00     0.034 A 
BRANCH  24  38
ATOM     38  C   UNL     1      15.032   7.434  -9.321  1.00  0.00     0.023 A 
ATOM     39  C   UNL     1      14.378   6.282  -8.851  1.00  0.00     0.031 A 
ATOM     40  C   UNL     1      16.437   7.466  -9.252  1.00  0.00     0.131 A 
ATOM     41  C   UNL     1      15.122   5.234  -8.286  1.00  0.00     0.055 A 
ATOM     42  C   UNL     1      17.176   6.391  -8.755  1.00  0.00     0.041 A 
ATOM     43  F   UNL     1      17.117   8.546  -9.669  1.00  0.00    -0.206 F 
ATOM     44  C   UNL     1      16.518   5.270  -8.258  1.00  0.00     0.022 A 
BRANCH  41  45
ATOM     45  S   UNL     1      14.234   3.872  -7.483  1.00  0.00     0.124 S 
ATOM     46  O   UNL     1      13.472   4.579  -6.456  1.00  0.00    -0.237 OA
ATOM     47  O   UNL     1      13.458   3.309  -8.580  1.00  0.00    -0.237 OA
ATOM     48  O   UNL     1      15.305   3.017  -6.973  1.00  0.00    -0.744 OA
ENDBRANCH  41  45
ENDBRANCH  24  38
BRANCH  25  49
ATOM     49  C   UNL     1      10.122  15.462 -12.730  1.00  0.00     0.023 A 
ATOM     50  C   UNL     1       9.227  15.410 -13.809  1.00  0.00     0.031 A 
ATOM     51  C   UNL     1      10.408  16.721 -12.171  1.00  0.00     0.131 A 
ATOM     52  C   UNL     1       8.691  16.597 -14.332  1.00  0.00     0.055 A 
ATOM     53  C   UNL     1       9.823  17.893 -12.654  1.00  0.00     0.041 A 
ATOM     54  F   UNL     1      11.258  16.830 -11.138  1.00  0.00    -0.206 F 
ATOM     55  C   UNL     1       8.971  17.836 -13.752  1.00  0.00     0.022 A 
BRANCH  52  56
ATOM     56  S   UNL     1       7.707  16.508 -15.852  1.00  0.00     0.124 S 
ATOM     57  O   UNL     1       8.634  15.854 -16.768  1.00  0.00    -0.237 OA
ATOM     58  O   UNL     1       6.560  15.714 -15.424  1.00  0.00    -0.237 OA
ATOM     59  O   UNL     1       7.416  17.909 -16.152  1.00  0.00    -0.744 OA
ENDBRANCH  52  56
ENDBRANCH  25  49
BRANCH  37  60
ATOM     60  C   UNL     1      14.545  10.932 -15.648  1.00  0.00     0.023 A 
ATOM     61  C   UNL     1      15.399  11.904 -16.200  1.00  0.00     0.031 A 
ATOM     62  C   UNL     1      14.183   9.837 -16.453  1.00  0.00     0.131 A 
ATOM     63  C   UNL     1      15.814  11.792 -17.536  1.00  0.00     0.055 A 
ATOM     64  C   UNL     1      14.650   9.699 -17.761  1.00  0.00     0.041 A 
ATOM     65  F   UNL     1      13.368   8.881 -15.980  1.00  0.00    -0.206 F 
ATOM     66  C   UNL     1      15.459  10.687 -18.314  1.00  0.00     0.022 A 
BRANCH  63  67
ATOM     67  S   UNL     1      16.748  13.159 -18.277  1.00  0.00     0.124 S 
ATOM     68  O   UNL     1      15.827  14.280 -18.114  1.00  0.00    -0.237 OA
ATOM     69  O   UNL     1      17.952  13.198 -17.453  1.00  0.00    -0.237 OA
ATOM     70  O   UNL     1      16.957  12.724 -19.657  1.00  0.00    -0.744 OA
ENDBRANCH  63  67
ENDBRANCH  37  60
ENDBRANCH  11  12
ENDBRANCH   4   6
ENDBRANCH   1   2
BRANCH   1  71
ATOM     71  C   UNL     1       7.559   9.700  -1.567  1.00  0.00     0.042 C 
BRANCH  71  72
ATOM     72  C   UNL     1       6.675   9.667  -0.317  1.00  0.00     0.117 C 
BRANCH  72  73
ATOM     73  N   UNL     1       5.258   9.862  -0.570  1.00  0.00    -0.353 N 
ATOM     74  C   UNL     1       4.218   8.987  -0.647  1.00  0.00     0.257 C 
ATOM     75  H   UNL     1       5.001  10.802  -0.712  1.00  0.00     0.163 HD
ATOM     76  O   UNL     1       3.093   9.484  -0.788  1.00  0.00    -0.272 OA
BRANCH  74  77
ATOM     77  C   UNL     1       4.369   7.468  -0.565  1.00  0.00     0.283 C 
ATOM     78  F   UNL     1       4.970   7.099   0.620  1.00  0.00    -0.234 F 
BRANCH  77  79
ATOM     79  C   UNL     1       5.071   6.680  -1.687  1.00  0.00     0.161 C 
BRANCH  79  80
ATOM     80  C   UNL     1       4.940   7.031  -3.192  1.00  0.00     0.026 C 
ATOM     81  C   UNL     1       4.671   8.493  -3.538  1.00  0.00     0.035 C 
ATOM     82  C   UNL     1       3.900   6.186  -3.947  1.00  0.00     0.035 C 
ATOM     83  C   UNL     1       4.725   8.714  -5.041  1.00  0.00     0.160 C 
ATOM     84  C   UNL     1       3.952   6.518  -5.443  1.00  0.00     0.160 C 
ATOM     85  O   UNL     1       3.732   7.910  -5.670  1.00  0.00    -0.381 OA
ENDBRANCH  79  80
BRANCH  79  86
ATOM     86  O   UNL     1       6.478   6.606  -1.383  1.00  0.00    -0.389 OA
ATOM     87  H   UNL     1       6.872   7.490  -1.458  1.00  0.00     0.211 HD
ENDBRANCH  79  86
ENDBRANCH  77  79
ENDBRANCH  74  77
ENDBRANCH  72  73
ENDBRANCH  71  72
ENDBRANCH   1  71
TORSDOF 16
