REMARK SMILES COc1cc(C[N@H+]2CCC[C@@](O)(CO)C2)cc(Cl)c1OCC(=O)NCCCNC(=O)c1ccc(-c2c3nc(c(-c4cc(S(=O)(=O)[O-])ccc4F)c4ccc([nH]4)c(-c4cc(S(=O)(=O)[O-])ccc4F)c4nc(c(-c5cc(S(=O)(=O)[O-])ccc5F)c5ccc2[nH]5)C=C4)C=C3)cc1
REMARK SMILES IDX 22 1 23 2 24 3 21 5 20 6 19 7 3 8 4 9 5 10 17 11 16 12 18 13
REMARK SMILES IDX 2 14 1 15 6 16 7 17 8 18 15 19 9 21 11 22 10 23 13 24 14 25
REMARK SMILES IDX 12 27 25 29 26 30 27 31 28 32 29 33 30 35 31 36 32 37 93 38
REMARK SMILES IDX 33 39 92 40 34 41 35 42 36 43 86 44 37 45 91 46 85 47 87 48
REMARK SMILES IDX 38 49 90 50 84 51 83 52 39 54 71 55 51 56 70 57 52 58 55 59
REMARK SMILES IDX 69 60 88 61 53 62 54 63 68 65 89 66 56 67 40 68 41 69 49 70
REMARK SMILES IDX 42 71 48 72 50 73 47 74 43 75 44 76 45 77 46 78 72 79 73 80
REMARK SMILES IDX 81 81 74 82 80 83 82 84 79 85 75 86 76 87 77 88 78 89 57 90
REMARK SMILES IDX 58 91 66 92 59 93 65 94 67 95 64 96 60 97 61 98 62 99 63 100
REMARK H PARENT 24 4 7 20 14 26 12 28 28 34 87 53 55 64
REMARK Flexibility Score: inf
ROOT
ATOM      1  C   UNL     1      -3.033   4.020  -2.363  1.00  0.00     0.257 C 
ATOM      2  O   UNL     1      -3.335   5.123  -2.828  1.00  0.00    -0.271 OA
ATOM      3  N   UNL     1      -3.276   3.836  -1.037  1.00  0.00    -0.353 N 
ATOM      4  H   UNL     1      -3.433   4.661  -0.524  1.00  0.00     0.163 HD
ENDROOT
BRANCH   1   5
ATOM      5  C   UNL     1      -2.511   2.879  -3.267  1.00  0.00     0.329 C 
BRANCH   5   6
ATOM      6  O   UNL     1      -1.339   2.139  -3.005  1.00  0.00    -0.478 OA
BRANCH   6   7
ATOM      7  C   UNL     1      -0.069   2.637  -3.107  1.00  0.00     0.180 A 
ATOM      8  C   UNL     1       0.935   1.663  -2.899  1.00  0.00     0.162 A 
ATOM      9  C   UNL     1       2.281   2.016  -2.700  1.00  0.00     0.060 A 
ATOM     10  C   UNL     1       2.643   3.364  -2.634  1.00  0.00     0.012 A 
ATOM     11  C   UNL     1       0.362   3.952  -3.303  1.00  0.00     0.087 A 
ATOM     12  C   UNL     1       1.692   4.311  -3.022  1.00  0.00     0.034 A 
ATOM     13  Cl  UNL     1      -0.579   5.224  -3.981  1.00  0.00    -0.080 Cl
BRANCH   8  14
ATOM     14  O   UNL     1       0.586   0.334  -3.010  1.00  0.00    -0.493 OA
ATOM     15  C   UNL     1       0.744  -0.399  -1.799  1.00  0.00     0.278 C 
ENDBRANCH   8  14
BRANCH  10  16
ATOM     16  C   UNL     1       4.000   3.812  -2.140  1.00  0.00     0.299 C 
BRANCH  16  17
ATOM     17  N   UNL     1       4.068   4.141  -0.723  1.00  0.00    -0.329 N 
ATOM     18  C   UNL     1       3.459   5.360  -0.219  1.00  0.00     0.262 C 
ATOM     19  C   UNL     1       4.247   3.081   0.261  1.00  0.00     0.300 C 
ATOM     20  H   UNL     1       5.027   4.459  -0.861  1.00  0.00     0.348 HD
ATOM     21  C   UNL     1       2.207   5.121   0.631  1.00  0.00     0.065 C 
ATOM     22  C   UNL     1       3.030   2.787   1.173  1.00  0.00     0.136 C 
ATOM     23  C   UNL     1       2.456   4.094   1.737  1.00  0.00     0.049 C 
BRANCH  22  24
ATOM     24  C   UNL     1       1.949   1.993   0.438  1.00  0.00     0.197 C 
BRANCH  24  25
ATOM     25  O   UNL     1       0.929   1.564   1.343  1.00  0.00    -0.393 OA
ATOM     26  H   UNL     1       1.319   0.991   2.021  1.00  0.00     0.210 HD
ENDBRANCH  24  25
ENDBRANCH  22  24
BRANCH  22  27
ATOM     27  O   UNL     1       3.469   1.968   2.266  1.00  0.00    -0.382 OA
ATOM     28  H   UNL     1       4.158   2.436   2.763  1.00  0.00     0.211 HD
ENDBRANCH  22  27
ENDBRANCH  16  17
ENDBRANCH  10  16
ENDBRANCH   6   7
ENDBRANCH   5   6
ENDBRANCH   1   5
BRANCH   3  29
ATOM     29  C   UNL     1      -3.339   2.614  -0.265  1.00  0.00     0.117 C 
BRANCH  29  30
ATOM     30  C   UNL     1      -2.375   2.621   0.912  1.00  0.00     0.042 C 
BRANCH  30  31
ATOM     31  C   UNL     1      -2.552   3.757   1.920  1.00  0.00     0.118 C 
BRANCH  31  32
ATOM     32  N   UNL     1      -3.847   3.762   2.583  1.00  0.00    -0.352 N 
ATOM     33  C   UNL     1      -4.169   3.688   3.921  1.00  0.00     0.251 C 
ATOM     34  H   UNL     1      -4.619   3.830   1.977  1.00  0.00     0.163 HD
ATOM     35  O   UNL     1      -5.349   3.586   4.240  1.00  0.00    -0.269 OA
BRANCH  33  36
ATOM     36  C   UNL     1      -3.116   3.691   4.965  1.00  0.00     0.039 A 
ATOM     37  C   UNL     1      -3.246   2.817   6.050  1.00  0.00     0.014 A 
ATOM     38  C   UNL     1      -2.019   4.553   4.902  1.00  0.00     0.014 A 
ATOM     39  C   UNL     1      -2.240   2.752   7.020  1.00  0.00     0.010 A 
ATOM     40  C   UNL     1      -0.978   4.426   5.823  1.00  0.00     0.010 A 
ATOM     41  C   UNL     1      -1.074   3.523   6.892  1.00  0.00    -0.014 A 
BRANCH  41  42
ATOM     42  C   UNL     1       0.050   3.391   7.860  1.00  0.00     0.031 A 
ATOM     43  C   UNL     1       0.470   4.564   8.705  1.00  0.00     0.074 A 
ATOM     44  C   UNL     1       0.730   2.229   7.940  1.00  0.00     0.049 A 
ATOM     45  N   UNL     1       1.458   4.660   9.559  1.00  0.00    -0.248 NA
ATOM     46  C   UNL     1      -0.308   5.800   8.547  1.00  0.00     0.031 C 
ATOM     47  C   UNL     1       0.442   1.026   7.155  1.00  0.00     0.029 A 
ATOM     48  N   UNL     1       1.804   1.865   8.715  1.00  0.00    -0.354 N 
ATOM     49  C   UNL     1       1.430   5.970  10.029  1.00  0.00     0.074 A 
ATOM     50  C   UNL     1       0.366   6.643   9.314  1.00  0.00     0.031 C 
ATOM     51  C   UNL     1       1.290   0.051   7.516  1.00  0.00     0.029 A 
ATOM     52  C   UNL     1       2.220   0.569   8.515  1.00  0.00     0.049 A 
ATOM     53  H   UNL     1       2.236   2.476   9.355  1.00  0.00     0.167 HD
ATOM     54  C   UNL     1       2.204   6.549  10.982  1.00  0.00     0.034 A 
ATOM     55  C   UNL     1       3.240  -0.122   9.062  1.00  0.00     0.034 A 
ATOM     56  C   UNL     1       3.259   5.861  11.687  1.00  0.00     0.049 A 
ATOM     57  C   UNL     1       4.122   0.561  10.077  1.00  0.00     0.074 A 
ATOM     58  C   UNL     1       4.063   6.335  12.710  1.00  0.00     0.029 A 
ATOM     59  N   UNL     1       3.672   4.558  11.434  1.00  0.00    -0.354 N 
ATOM     60  N   UNL     1       4.046   1.782  10.553  1.00  0.00    -0.248 NA
ATOM     61  C   UNL     1       5.226  -0.233  10.634  1.00  0.00     0.031 C 
ATOM     62  C   UNL     1       5.014   5.354  13.013  1.00  0.00     0.029 A 
ATOM     63  C   UNL     1       4.746   4.230  12.248  1.00  0.00     0.049 A 
ATOM     64  H   UNL     1       3.261   3.956  10.772  1.00  0.00     0.167 HD
ATOM     65  C   UNL     1       5.068   1.888  11.493  1.00  0.00     0.074 A 
ATOM     66  C   UNL     1       5.736   0.603  11.525  1.00  0.00     0.031 C 
ATOM     67  C   UNL     1       5.416   2.949  12.266  1.00  0.00     0.034 A 
BRANCH  54  68
ATOM     68  C   UNL     1       1.956   8.011  11.284  1.00  0.00     0.023 A 
ATOM     69  C   UNL     1       0.715   8.470  11.761  1.00  0.00     0.031 A 
ATOM     70  C   UNL     1       2.962   8.967  11.056  1.00  0.00     0.131 A 
ATOM     71  C   UNL     1       0.482   9.846  11.902  1.00  0.00     0.055 A 
ATOM     72  C   UNL     1       2.754  10.328  11.290  1.00  0.00     0.041 A 
ATOM     73  F   UNL     1       4.162   8.598  10.581  1.00  0.00    -0.206 F 
ATOM     74  C   UNL     1       1.502  10.777  11.697  1.00  0.00     0.022 A 
BRANCH  71  75
ATOM     75  S   UNL     1      -1.220  10.410  12.182  1.00  0.00     0.124 S 
ATOM     76  O   UNL     1      -1.916   9.826  11.037  1.00  0.00    -0.237 OA
ATOM     77  O   UNL     1      -1.534   9.831  13.483  1.00  0.00    -0.237 OA
ATOM     78  O   UNL     1      -1.107  11.867  12.155  1.00  0.00    -0.744 OA
ENDBRANCH  71  75
ENDBRANCH  54  68
BRANCH  55  79
ATOM     79  C   UNL     1       3.494  -1.539   8.669  1.00  0.00     0.023 A 
ATOM     80  C   UNL     1       3.393  -2.576   9.611  1.00  0.00     0.031 A 
ATOM     81  C   UNL     1       3.887  -1.875   7.362  1.00  0.00     0.131 A 
ATOM     82  C   UNL     1       3.729  -3.889   9.248  1.00  0.00     0.055 A 
ATOM     83  C   UNL     1       4.163  -3.192   6.989  1.00  0.00     0.041 A 
ATOM     84  F   UNL     1       3.998  -0.925   6.420  1.00  0.00    -0.206 F 
ATOM     85  C   UNL     1       4.098  -4.207   7.939  1.00  0.00     0.022 A 
BRANCH  82  86
ATOM     86  S   UNL     1       3.765  -5.164  10.537  1.00  0.00     0.124 S 
ATOM     87  O   UNL     1       4.744  -4.616  11.468  1.00  0.00    -0.237 OA
ATOM     88  O   UNL     1       2.379  -5.174  10.993  1.00  0.00    -0.237 OA
ATOM     89  O   UNL     1       4.190  -6.363   9.817  1.00  0.00    -0.744 OA
ENDBRANCH  82  86
ENDBRANCH  55  79
BRANCH  67  90
ATOM     90  C   UNL     1       6.543   2.743  13.253  1.00  0.00     0.023 A 
ATOM     91  C   UNL     1       7.861   2.484  12.837  1.00  0.00     0.031 A 
ATOM     92  C   UNL     1       6.287   2.793  14.635  1.00  0.00     0.131 A 
ATOM     93  C   UNL     1       8.858   2.226  13.790  1.00  0.00     0.055 A 
ATOM     94  C   UNL     1       7.297   2.605  15.580  1.00  0.00     0.041 A 
ATOM     95  F   UNL     1       5.047   3.030  15.093  1.00  0.00    -0.206 F 
ATOM     96  C   UNL     1       8.588   2.305  15.159  1.00  0.00     0.022 A 
BRANCH  93  97
ATOM     97  S   UNL     1      10.491   1.680  13.219  1.00  0.00     0.124 S 
ATOM     98  O   UNL     1      10.162   0.478  12.461  1.00  0.00    -0.237 OA
ATOM     99  O   UNL     1      10.947   2.824  12.435  1.00  0.00    -0.237 OA
ATOM    100  O   UNL     1      11.229   1.448  14.460  1.00  0.00    -0.744 OA
ENDBRANCH  93  97
ENDBRANCH  67  90
ENDBRANCH  41  42
ENDBRANCH  33  36
ENDBRANCH  31  32
ENDBRANCH  30  31
ENDBRANCH  29  30
ENDBRANCH   3  29
TORSDOF 21
