REMARK SMILES O=C(C[C@@H]1CN(C(=O)NCc2cccs2)CCO1)NCCCNC(=O)c1ccc(-c2c3nc(c(-c4cc(S(=O)(=O)[O-])ccc4F)c4ccc([nH]4)c(-c4cc(S(=O)(=O)[O-])ccc4F)c4nc(c(-c5cc(S(=O)(=O)[O-])ccc5F)c5ccc2[nH]5)C=C4)C=C3)cc1
REMARK SMILES IDX 20 1 19 2 1 3 2 4 3 6 4 7 5 8 18 9 6 10 17 11 16 12 7 13
REMARK SMILES IDX 8 14 9 15 10 17 11 18 12 19 15 20 13 21 14 22 21 23 22 24
REMARK SMILES IDX 23 25 24 26 25 28 26 29 27 30 88 31 28 32 87 33 29 34 30 35
REMARK SMILES IDX 31 36 81 37 32 38 86 39 80 40 82 41 33 42 85 43 79 44 78 45
REMARK SMILES IDX 34 47 66 48 46 49 65 50 47 51 50 52 64 53 83 54 48 55 49 56
REMARK SMILES IDX 63 58 84 59 51 60 35 61 36 62 44 63 37 64 43 65 45 66 42 67
REMARK SMILES IDX 38 68 39 69 40 70 41 71 67 72 68 73 76 74 69 75 75 76 77 77
REMARK SMILES IDX 74 78 70 79 71 80 72 81 73 82 52 83 53 84 61 85 54 86 60 87
REMARK SMILES IDX 62 88 59 89 55 90 56 91 57 92 58 93
REMARK H PARENT 19 5 9 16 23 27 82 46 50 57
REMARK Flexibility Score: inf
ROOT
ATOM      1  C   UNL     1       2.101   1.416  -1.932  1.00  0.00     0.117 C 
ENDROOT
BRANCH   1   2
ATOM      2  N   UNL     1       2.841   0.657  -0.946  1.00  0.00    -0.356 N 
ATOM      3  O   UNL     1       1.069   0.249   0.460  1.00  0.00    -0.275 OA
ATOM      4  C   UNL     1       2.252   0.112   0.171  1.00  0.00     0.222 C 
ATOM      5  H   UNL     1       3.807   0.526  -1.081  1.00  0.00     0.163 HD
BRANCH   4   6
ATOM      6  C   UNL     1       3.205  -0.664   1.050  1.00  0.00     0.133 C 
BRANCH   6   7
ATOM      7  C   UNL     1       3.865  -1.805   0.273  1.00  0.00     0.147 C 
ATOM      8  C   UNL     1       3.482  -3.178   0.856  1.00  0.00     0.154 C 
ATOM      9  O   UNL     1       5.295  -1.611   0.332  1.00  0.00    -0.374 OA
ATOM     10  N   UNL     1       4.178  -4.241   0.129  1.00  0.00    -0.320 N 
ATOM     11  C   UNL     1       5.986  -2.642  -0.394  1.00  0.00     0.182 C 
ATOM     12  C   UNL     1       5.637  -4.032   0.152  1.00  0.00     0.150 C 
BRANCH  10  13
ATOM     13  C   UNL     1       3.697  -5.244  -0.650  1.00  0.00     0.317 C 
ATOM     14  O   UNL     1       4.458  -5.977  -1.295  1.00  0.00    -0.249 OA
ATOM     15  N   UNL     1       2.403  -5.544  -0.804  1.00  0.00    -0.333 N 
ATOM     16  H   UNL     1       2.294  -6.259  -1.471  1.00  0.00     0.165 HD
BRANCH  15  17
ATOM     17  C   UNL     1       1.115  -5.136  -0.288  1.00  0.00     0.164 C 
BRANCH  17  18
ATOM     18  C   UNL     1       0.377  -4.396  -1.361  1.00  0.00     0.024 A 
ATOM     19  C   UNL     1      -0.504  -4.909  -2.296  1.00  0.00     0.017 A 
ATOM     20  S   UNL     1       0.559  -2.705  -1.550  1.00  0.00    -0.147 S 
ATOM     21  C   UNL     1      -1.025  -3.907  -3.165  1.00  0.00     0.012 A 
ATOM     22  C   UNL     1      -0.525  -2.659  -2.869  1.00  0.00     0.065 A 
ENDBRANCH  17  18
ENDBRANCH  15  17
ENDBRANCH  10  13
ENDBRANCH   6   7
ENDBRANCH   4   6
ENDBRANCH   1   2
BRANCH   1  23
ATOM     23  C   UNL     1       2.347   2.913  -1.803  1.00  0.00     0.042 C 
BRANCH  23  24
ATOM     24  C   UNL     1       3.809   3.323  -1.958  1.00  0.00     0.118 C 
BRANCH  24  25
ATOM     25  N   UNL     1       4.355   3.008  -3.268  1.00  0.00    -0.352 N 
ATOM     26  C   UNL     1       5.034   3.804  -4.159  1.00  0.00     0.251 C 
ATOM     27  H   UNL     1       4.217   2.079  -3.563  1.00  0.00     0.163 HD
ATOM     28  O   UNL     1       5.269   3.368  -5.283  1.00  0.00    -0.269 OA
BRANCH  26  29
ATOM     29  C   UNL     1       5.454   5.176  -3.790  1.00  0.00     0.039 A 
ATOM     30  C   UNL     1       5.355   6.186  -4.751  1.00  0.00     0.014 A 
ATOM     31  C   UNL     1       5.975   5.471  -2.527  1.00  0.00     0.014 A 
ATOM     32  C   UNL     1       5.731   7.494  -4.432  1.00  0.00     0.010 A 
ATOM     33  C   UNL     1       6.272   6.790  -2.185  1.00  0.00     0.010 A 
ATOM     34  C   UNL     1       6.168   7.815  -3.137  1.00  0.00    -0.014 A 
BRANCH  34  35
ATOM     35  C   UNL     1       6.552   9.208  -2.779  1.00  0.00     0.031 A 
ATOM     36  C   UNL     1       7.970   9.520  -2.376  1.00  0.00     0.074 A 
ATOM     37  C   UNL     1       5.623  10.185  -2.782  1.00  0.00     0.049 A 
ATOM     38  N   UNL     1       8.490  10.655  -1.982  1.00  0.00    -0.248 NA
ATOM     39  C   UNL     1       8.921   8.399  -2.389  1.00  0.00     0.031 C 
ATOM     40  C   UNL     1       4.210  10.005  -3.121  1.00  0.00     0.029 A 
ATOM     41  N   UNL     1       5.723  11.523  -2.488  1.00  0.00    -0.354 N 
ATOM     42  C   UNL     1       9.823  10.382  -1.691  1.00  0.00     0.074 A 
ATOM     43  C   UNL     1      10.010   8.960  -1.887  1.00  0.00     0.031 C 
ATOM     44  C   UNL     1       3.584  11.191  -3.046  1.00  0.00     0.029 A 
ATOM     45  C   UNL     1       4.536  12.208  -2.607  1.00  0.00     0.049 A 
ATOM     46  H   UNL     1       6.567  11.952  -2.217  1.00  0.00     0.167 HD
ATOM     47  C   UNL     1      10.807  11.240  -1.321  1.00  0.00     0.034 A 
ATOM     48  C   UNL     1       4.243  13.504  -2.380  1.00  0.00     0.034 A 
ATOM     49  C   UNL     1      10.608  12.658  -1.139  1.00  0.00     0.049 A 
ATOM     50  C   UNL     1       5.347  14.435  -1.940  1.00  0.00     0.074 A 
ATOM     51  C   UNL     1      11.543  13.624  -0.809  1.00  0.00     0.029 A 
ATOM     52  N   UNL     1       9.390  13.314  -1.265  1.00  0.00    -0.354 N 
ATOM     53  N   UNL     1       6.613  14.168  -1.714  1.00  0.00    -0.248 NA
ATOM     54  C   UNL     1       4.984  15.844  -1.741  1.00  0.00     0.031 C 
ATOM     55  C   UNL     1      10.879  14.847  -0.664  1.00  0.00     0.029 A 
ATOM     56  C   UNL     1       9.545  14.665  -0.990  1.00  0.00     0.049 A 
ATOM     57  H   UNL     1       8.540  12.883  -1.514  1.00  0.00     0.167 HD
ATOM     58  C   UNL     1       7.204  15.386  -1.384  1.00  0.00     0.074 A 
ATOM     59  C   UNL     1       6.158  16.386  -1.455  1.00  0.00     0.031 C 
ATOM     60  C   UNL     1       8.494  15.655  -1.059  1.00  0.00     0.034 A 
BRANCH  47  61
ATOM     61  C   UNL     1      12.178  10.656  -1.063  1.00  0.00     0.023 A 
ATOM     62  C   UNL     1      12.907  10.005  -2.074  1.00  0.00     0.031 A 
ATOM     63  C   UNL     1      12.754  10.725   0.218  1.00  0.00     0.131 A 
ATOM     64  C   UNL     1      14.125   9.378  -1.769  1.00  0.00     0.055 A 
ATOM     65  C   UNL     1      14.009  10.178   0.493  1.00  0.00     0.041 A 
ATOM     66  F   UNL     1      12.100  11.315   1.232  1.00  0.00    -0.206 F 
ATOM     67  C   UNL     1      14.695   9.484  -0.499  1.00  0.00     0.022 A 
BRANCH  64  68
ATOM     68  S   UNL     1      14.874   8.291  -3.014  1.00  0.00     0.124 S 
ATOM     69  O   UNL     1      13.809   7.314  -3.229  1.00  0.00    -0.237 OA
ATOM     70  O   UNL     1      15.133   9.208  -4.118  1.00  0.00    -0.237 OA
ATOM     71  O   UNL     1      16.062   7.769  -2.342  1.00  0.00    -0.744 OA
ENDBRANCH  64  68
ENDBRANCH  47  61
BRANCH  48  72
ATOM     72  C   UNL     1       2.850  14.009  -2.556  1.00  0.00     0.023 A 
ATOM     73  C   UNL     1       2.547  14.979  -3.525  1.00  0.00     0.031 A 
ATOM     74  C   UNL     1       1.808  13.565  -1.721  1.00  0.00     0.131 A 
ATOM     75  C   UNL     1       1.250  15.512  -3.601  1.00  0.00     0.055 A 
ATOM     76  C   UNL     1       0.507  14.056  -1.840  1.00  0.00     0.041 A 
ATOM     77  F   UNL     1       2.041  12.637  -0.779  1.00  0.00    -0.206 F 
ATOM     78  C   UNL     1       0.225  15.047  -2.775  1.00  0.00     0.022 A 
BRANCH  75  79
ATOM     79  S   UNL     1       0.946  16.897  -4.733  1.00  0.00     0.124 S 
ATOM     80  O   UNL     1       1.905  17.887  -4.256  1.00  0.00    -0.237 OA
ATOM     81  O   UNL     1       1.235  16.296  -6.031  1.00  0.00    -0.237 OA
ATOM     82  O   UNL     1      -0.459  17.224  -4.499  1.00  0.00    -0.744 OA
ENDBRANCH  75  79
ENDBRANCH  48  72
BRANCH  60  83
ATOM     83  C   UNL     1       8.858  17.101  -0.815  1.00  0.00     0.023 A 
ATOM     84  C   UNL     1       8.333  17.829   0.267  1.00  0.00     0.031 A 
ATOM     85  C   UNL     1       9.735  17.763  -1.693  1.00  0.00     0.131 A 
ATOM     86  C   UNL     1       8.641  19.192   0.407  1.00  0.00     0.055 A 
ATOM     87  C   UNL     1      10.091  19.100  -1.509  1.00  0.00     0.041 A 
ATOM     88  F   UNL     1      10.265  17.119  -2.745  1.00  0.00    -0.206 F 
ATOM     89  C   UNL     1       9.531  19.826  -0.463  1.00  0.00     0.022 A 
BRANCH  86  90
ATOM     90  S   UNL     1       7.779  20.153   1.682  1.00  0.00     0.124 S 
ATOM     91  O   UNL     1       6.380  19.946   1.324  1.00  0.00    -0.237 OA
ATOM     92  O   UNL     1       8.225  19.509   2.913  1.00  0.00    -0.237 OA
ATOM     93  O   UNL     1       8.276  21.513   1.480  1.00  0.00    -0.744 OA
ENDBRANCH  86  90
ENDBRANCH  60  83
ENDBRANCH  34  35
ENDBRANCH  26  29
ENDBRANCH  24  25
ENDBRANCH  23  24
ENDBRANCH   1  23
TORSDOF 17
