REMARK SMILES C[NH+]1CCC(NC(=O)N[C@H]2C=C[C@H](C(=O)NCCCNC(=O)c3ccc(-c4c5nc(c(-c6cc(S(=O)(=O)[O-])ccc6F)c6ccc([nH]6)c(-c6cc(S(=O)(=O)[O-])ccc6F)c6nc(c(-c7cc(S(=O)(=O)[O-])ccc7F)c7ccc4[nH]7)C=C6)C=C5)cc3)C2)CC1
REMARK SMILES IDX 18 1 17 2 16 3 14 4 15 5 13 7 10 8 11 9 86 10 12 11 9 12
REMARK SMILES IDX 6 13 7 14 8 16 5 18 1 19 2 20 3 21 88 22 4 24 87 25 19 26
REMARK SMILES IDX 20 27 21 28 22 30 23 31 24 32 85 33 25 34 84 35 26 36 27 37
REMARK SMILES IDX 28 38 78 39 29 40 83 41 77 42 79 43 30 44 82 45 76 46 75 47
REMARK SMILES IDX 31 49 63 50 43 51 62 52 44 53 47 54 61 55 80 56 45 57 46 58
REMARK SMILES IDX 60 60 81 61 48 62 32 63 33 64 41 65 34 66 40 67 42 68 39 69
REMARK SMILES IDX 35 70 36 71 37 72 38 73 64 74 65 75 73 76 66 77 72 78 74 79
REMARK SMILES IDX 71 80 67 81 68 82 69 83 70 84 49 85 50 86 58 87 51 88 57 89
REMARK SMILES IDX 59 90 56 91 52 92 53 93 54 94 55 95
REMARK H PARENT 16 6 6 15 9 17 2 23 20 29 79 48 47 59
REMARK Flexibility Score: inf
ROOT
ATOM      1  C   UNL     1      -2.659   2.283  -1.030  1.00  0.00     0.042 C 
ENDROOT
BRANCH   1   2
ATOM      2  C   UNL     1      -2.533   1.133  -2.032  1.00  0.00     0.117 C 
BRANCH   2   3
ATOM      3  N   UNL     1      -1.892   1.525  -3.279  1.00  0.00    -0.356 N 
ATOM      4  C   UNL     1      -0.594   1.326  -3.681  1.00  0.00     0.227 C 
ATOM      5  O   UNL     1      -0.279   1.603  -4.838  1.00  0.00    -0.274 OA
ATOM      6  H   UNL     1      -2.468   1.998  -3.922  1.00  0.00     0.163 HD
BRANCH   4   7
ATOM      7  C   UNL     1       0.394   0.743  -2.674  1.00  0.00     0.103 C 
ATOM      8  C   UNL     1       2.764   0.157  -2.971  1.00  0.00     0.107 C 
ATOM      9  C   UNL     1       1.902  -1.053  -2.982  1.00  0.00    -0.006 C 
ATOM     10  C   UNL     1       1.814   1.340  -2.760  1.00  0.00     0.047 C 
ATOM     11  C   UNL     1       0.605  -0.734  -2.883  1.00  0.00    -0.016 C 
BRANCH   8  12
ATOM     12  N   UNL     1       3.914   0.035  -2.088  1.00  0.00    -0.332 N 
ATOM     13  N   UNL     1       3.423  -0.077   0.240  1.00  0.00    -0.335 N 
ATOM     14  C   UNL     1       4.252  -0.035  -0.802  1.00  0.00     0.315 C 
ATOM     15  H   UNL     1       3.891  -0.037   1.105  1.00  0.00     0.165 HD
ATOM     16  O   UNL     1       5.462  -0.063  -0.553  1.00  0.00    -0.249 OA
ATOM     17  H   UNL     1       4.731  -0.011  -2.635  1.00  0.00     0.165 HD
BRANCH  13  18
ATOM     18  C   UNL     1       1.988  -0.167   0.381  1.00  0.00     0.095 C 
ATOM     19  C   UNL     1      -2.033  -0.606   1.666  1.00  0.00     0.332 C 
ATOM     20  N   UNL     1      -0.568  -0.555   1.721  1.00  0.00    -0.337 N 
ATOM     21  C   UNL     1      -0.087   0.792   1.390  1.00  0.00     0.264 C 
ATOM     22  C   UNL     1       0.005  -1.601   0.862  1.00  0.00     0.264 C 
ATOM     23  H   UNL     1      -0.252  -0.747   2.671  1.00  0.00     0.347 HD
ATOM     24  C   UNL     1       1.438   0.885   1.340  1.00  0.00     0.086 C 
ATOM     25  C   UNL     1       1.533  -1.551   0.833  1.00  0.00     0.086 C 
ENDBRANCH  13  18
ENDBRANCH   8  12
ENDBRANCH   4   7
ENDBRANCH   2   3
ENDBRANCH   1   2
BRANCH   1  26
ATOM     26  C   UNL     1      -4.030   2.954  -1.031  1.00  0.00     0.118 C 
BRANCH  26  27
ATOM     27  N   UNL     1      -5.087   2.066  -0.562  1.00  0.00    -0.352 N 
ATOM     28  C   UNL     1      -6.215   2.326   0.180  1.00  0.00     0.251 C 
ATOM     29  H   UNL     1      -4.974   1.122  -0.819  1.00  0.00     0.163 HD
ATOM     30  O   UNL     1      -6.905   1.373   0.539  1.00  0.00    -0.269 OA
BRANCH  28  31
ATOM     31  C   UNL     1      -6.582   3.705   0.586  1.00  0.00     0.039 A 
ATOM     32  C   UNL     1      -7.206   3.893   1.826  1.00  0.00     0.014 A 
ATOM     33  C   UNL     1      -6.345   4.810  -0.234  1.00  0.00     0.014 A 
ATOM     34  C   UNL     1      -7.522   5.181   2.268  1.00  0.00     0.010 A 
ATOM     35  C   UNL     1      -6.583   6.098   0.242  1.00  0.00     0.010 A 
ATOM     36  C   UNL     1      -7.175   6.300   1.497  1.00  0.00    -0.014 A 
BRANCH  36  37
ATOM     37  C   UNL     1      -7.421   7.687   1.974  1.00  0.00     0.031 A 
ATOM     38  C   UNL     1      -8.331   8.602   1.197  1.00  0.00     0.074 A 
ATOM     39  C   UNL     1      -6.759   8.152   3.052  1.00  0.00     0.049 A 
ATOM     40  N   UNL     1      -8.572   9.877   1.369  1.00  0.00    -0.248 NA
ATOM     41  C   UNL     1      -9.028   8.007   0.049  1.00  0.00     0.031 C 
ATOM     42  C   UNL     1      -5.819   7.377   3.865  1.00  0.00     0.029 A 
ATOM     43  N   UNL     1      -6.764   9.390   3.642  1.00  0.00    -0.354 N 
ATOM     44  C   UNL     1      -9.429  10.243   0.335  1.00  0.00     0.074 A 
ATOM     45  C   UNL     1      -9.606   9.068  -0.492  1.00  0.00     0.031 C 
ATOM     46  C   UNL     1      -5.359   8.150   4.862  1.00  0.00     0.029 A 
ATOM     47  C   UNL     1      -5.931   9.486   4.733  1.00  0.00     0.049 A 
ATOM     48  H   UNL     1      -7.312  10.140   3.316  1.00  0.00     0.167 HD
ATOM     49  C   UNL     1     -10.031  11.439   0.111  1.00  0.00     0.034 A 
ATOM     50  C   UNL     1      -5.650  10.534   5.531  1.00  0.00     0.034 A 
ATOM     51  C   UNL     1      -9.856  12.594   0.959  1.00  0.00     0.049 A 
ATOM     52  C   UNL     1      -6.317  11.857   5.260  1.00  0.00     0.074 A 
ATOM     53  C   UNL     1     -10.457  13.838   0.862  1.00  0.00     0.029 A 
ATOM     54  N   UNL     1      -9.012  12.649   2.063  1.00  0.00    -0.354 N 
ATOM     55  N   UNL     1      -7.154  12.179   4.301  1.00  0.00    -0.248 NA
ATOM     56  C   UNL     1      -6.007  12.954   6.185  1.00  0.00     0.031 C 
ATOM     57  C   UNL     1      -9.932  14.660   1.867  1.00  0.00     0.029 A 
ATOM     58  C   UNL     1      -9.057  13.911   2.637  1.00  0.00     0.049 A 
ATOM     59  H   UNL     1      -8.462  11.901   2.389  1.00  0.00     0.167 HD
ATOM     60  C   UNL     1      -7.493  13.510   4.525  1.00  0.00     0.074 A 
ATOM     61  C   UNL     1      -6.778  13.925   5.716  1.00  0.00     0.031 C 
ATOM     62  C   UNL     1      -8.326  14.315   3.816  1.00  0.00     0.034 A 
BRANCH  49  63
ATOM     63  C   UNL     1     -10.908  11.549  -1.116  1.00  0.00     0.023 A 
ATOM     64  C   UNL     1     -12.042  10.734  -1.287  1.00  0.00     0.031 A 
ATOM     65  C   UNL     1     -10.576  12.434  -2.158  1.00  0.00     0.131 A 
ATOM     66  C   UNL     1     -12.734  10.740  -2.507  1.00  0.00     0.055 A 
ATOM     67  C   UNL     1     -11.329  12.505  -3.333  1.00  0.00     0.041 A 
ATOM     68  F   UNL     1      -9.498  13.227  -2.064  1.00  0.00    -0.206 F 
ATOM     69  C   UNL     1     -12.402  11.638  -3.522  1.00  0.00     0.022 A 
BRANCH  66  70
ATOM     70  S   UNL     1     -13.949   9.428  -2.814  1.00  0.00     0.124 S 
ATOM     71  O   UNL     1     -13.134   8.227  -2.643  1.00  0.00    -0.237 OA
ATOM     72  O   UNL     1     -14.948   9.675  -1.780  1.00  0.00    -0.237 OA
ATOM     73  O   UNL     1     -14.389   9.682  -4.184  1.00  0.00    -0.744 OA
ENDBRANCH  66  70
ENDBRANCH  49  63
BRANCH  50  74
ATOM     74  C   UNL     1      -4.697  10.379   6.665  1.00  0.00     0.023 A 
ATOM     75  C   UNL     1      -5.142  10.462   7.993  1.00  0.00     0.031 A 
ATOM     76  C   UNL     1      -3.326  10.161   6.439  1.00  0.00     0.131 A 
ATOM     77  C   UNL     1      -4.221  10.364   9.047  1.00  0.00     0.055 A 
ATOM     78  C   UNL     1      -2.420  10.020   7.491  1.00  0.00     0.041 A 
ATOM     79  F   UNL     1      -2.852  10.064   5.186  1.00  0.00    -0.206 F 
ATOM     80  C   UNL     1      -2.865  10.131   8.805  1.00  0.00     0.022 A 
BRANCH  77  81
ATOM     81  S   UNL     1      -4.815  10.601  10.744  1.00  0.00     0.124 S 
ATOM     82  O   UNL     1      -5.346  11.958  10.686  1.00  0.00    -0.237 OA
ATOM     83  O   UNL     1      -5.799   9.531  10.872  1.00  0.00    -0.237 OA
ATOM     84  O   UNL     1      -3.609  10.435  11.552  1.00  0.00    -0.744 OA
ENDBRANCH  77  81
ENDBRANCH  50  74
BRANCH  62  85
ATOM     85  C   UNL     1      -8.536  15.712   4.344  1.00  0.00     0.023 A 
ATOM     86  C   UNL     1      -7.507  16.669   4.337  1.00  0.00     0.031 A 
ATOM     87  C   UNL     1      -9.783  16.084   4.876  1.00  0.00     0.131 A 
ATOM     88  C   UNL     1      -7.727  17.935   4.900  1.00  0.00     0.055 A 
ATOM     89  C   UNL     1     -10.013  17.363   5.384  1.00  0.00     0.041 A 
ATOM     90  F   UNL     1     -10.800  15.209   4.910  1.00  0.00    -0.206 F 
ATOM     91  C   UNL     1      -8.978  18.294   5.410  1.00  0.00     0.022 A 
BRANCH  88  92
ATOM     92  S   UNL     1      -6.328  19.083   5.039  1.00  0.00     0.124 S 
ATOM     93  O   UNL     1      -5.389  18.319   5.853  1.00  0.00    -0.237 OA
ATOM     94  O   UNL     1      -5.948  19.282   3.644  1.00  0.00    -0.237 OA
ATOM     95  O   UNL     1      -6.908  20.253   5.696  1.00  0.00    -0.744 OA
ENDBRANCH  88  92
ENDBRANCH  62  85
ENDBRANCH  36  37
ENDBRANCH  28  31
ENDBRANCH  26  27
ENDBRANCH   1  26
TORSDOF 15
