REMARK SMILES Cc1cccc(C(=O)Nc2cc(C(=O)NCCCNC(=O)c3ccc(-c4c5nc(c(-c6cc(S(=O)(=O)[O-])ccc6F)c6ccc([nH]6)c(-c6cc(S(=O)(=O)[O-])ccc6F)c6nc(c(-c7cc(S(=O)(=O)[O-])ccc7F)c7ccc4[nH]7)C=C6)C=C5)cc3)ccc2N2CC[NH+](CC(=O)NC(C)(C)C)CC2)c1
REMARK SMILES IDX 16 1 15 2 13 3 14 4 12 6 10 7 11 8 87 9 86 10 85 11 9 12
REMARK SMILES IDX 7 13 8 14 6 16 1 17 2 18 3 19 102 20 4 21 5 22 88 23 89 24
REMARK SMILES IDX 101 25 90 26 100 27 91 28 92 30 93 31 94 32 95 33 96 35
REMARK SMILES IDX 97 36 98 37 99 38 17 39 18 40 19 41 20 42 21 44 22 45 23 46
REMARK SMILES IDX 84 47 24 48 83 49 25 50 26 51 27 52 77 53 28 54 82 55 76 56
REMARK SMILES IDX 78 57 29 58 81 59 75 60 74 61 30 63 62 64 42 65 61 66 43 67
REMARK SMILES IDX 46 68 60 69 79 70 44 71 45 72 59 74 80 75 47 76 31 77 32 78
REMARK SMILES IDX 40 79 33 80 39 81 41 82 38 83 34 84 35 85 36 86 37 87 63 88
REMARK SMILES IDX 64 89 72 90 65 91 71 92 73 93 70 94 66 95 67 96 68 97 69 98
REMARK SMILES IDX 48 99 49 100 57 101 50 102 56 103 58 104 55 105 51 106
REMARK SMILES IDX 52 107 53 108 54 109
REMARK H PARENT 15 5 9 15 91 29 95 34 19 43 78 62 46 73
REMARK Flexibility Score: inf
ROOT
ATOM      1  C   UNL     1       1.403   0.711  -3.001  1.00  0.00     0.118 C 
ENDROOT
BRANCH   1   2
ATOM      2  N   UNL     1       2.724   1.358  -2.996  1.00  0.00    -0.352 N 
ATOM      3  C   UNL     1       3.281   2.428  -2.329  1.00  0.00     0.251 C 
ATOM      4  O   UNL     1       4.502   2.583  -2.406  1.00  0.00    -0.269 OA
ATOM      5  H   UNL     1       3.358   0.926  -3.613  1.00  0.00     0.163 HD
BRANCH   3   6
ATOM      6  C   UNL     1       2.512   3.421  -1.522  1.00  0.00     0.042 A 
ATOM      7  C   UNL     1       0.439   4.292  -0.624  1.00  0.00     0.065 A 
ATOM      8  C   UNL     1       1.137   3.413  -1.438  1.00  0.00     0.042 A 
ATOM      9  C   UNL     1       1.091   5.319   0.096  1.00  0.00     0.061 A 
ATOM     10  C   UNL     1       2.485   5.368  -0.021  1.00  0.00     0.029 A 
ATOM     11  C   UNL     1       3.186   4.418  -0.798  1.00  0.00     0.016 A 
BRANCH   7  12
ATOM     12  N   UNL     1      -0.951   4.116  -0.506  1.00  0.00    -0.320 N 
ATOM     13  C   UNL     1      -1.674   2.983  -0.167  1.00  0.00     0.255 C 
ATOM     14  O   UNL     1      -2.897   3.106  -0.046  1.00  0.00    -0.269 OA
ATOM     15  H   UNL     1      -1.491   4.918  -0.692  1.00  0.00     0.170 HD
BRANCH  13  16
ATOM     16  C   UNL     1      -1.054   1.655   0.161  1.00  0.00     0.040 A 
ATOM     17  C   UNL     1       2.271   0.009   1.058  1.00  0.00     0.044 C 
ATOM     18  C   UNL     1       0.801   0.198   0.805  1.00  0.00    -0.050 A 
ATOM     19  C   UNL     1       0.008  -0.919   0.536  1.00  0.00     0.003 A 
ATOM     20  C   UNL     1       0.237   1.479   0.689  1.00  0.00     0.017 A 
ATOM     21  C   UNL     1      -1.312  -0.762   0.123  1.00  0.00     0.001 A 
ATOM     22  C   UNL     1      -1.836   0.517  -0.078  1.00  0.00     0.014 A 
ENDBRANCH  13  16
ENDBRANCH   7  12
BRANCH   9  23
ATOM     23  N   UNL     1       0.375   6.138   0.956  1.00  0.00    -0.359 N 
ATOM     24  C   UNL     1       0.791   7.470   1.420  1.00  0.00     0.178 C 
ATOM     25  C   UNL     1      -0.455   5.459   1.949  1.00  0.00     0.178 C 
ATOM     26  C   UNL     1      -0.454   8.285   1.932  1.00  0.00     0.284 C 
ATOM     27  C   UNL     1      -1.764   6.249   2.087  1.00  0.00     0.284 C 
ATOM     28  N   UNL     1      -1.558   7.588   2.644  1.00  0.00    -0.324 N 
ATOM     29  H   UNL     1      -2.380   8.163   2.458  1.00  0.00     0.348 HD
BRANCH  28  30
ATOM     30  C   UNL     1      -1.525   7.603   4.117  1.00  0.00     0.363 C 
BRANCH  30  31
ATOM     31  C   UNL     1      -0.405   6.801   4.769  1.00  0.00     0.275 C 
ATOM     32  O   UNL     1       0.734   7.284   4.829  1.00  0.00    -0.268 OA
ATOM     33  N   UNL     1      -0.557   5.561   5.312  1.00  0.00    -0.347 N 
ATOM     34  H   UNL     1       0.268   5.292   5.775  1.00  0.00     0.164 HD
BRANCH  33  35
ATOM     35  C   UNL     1      -1.582   4.482   5.425  1.00  0.00     0.032 C 
ATOM     36  C   UNL     1      -1.455   3.451   4.287  1.00  0.00     0.034 C 
ATOM     37  C   UNL     1      -1.258   3.720   6.730  1.00  0.00     0.034 C 
ATOM     38  C   UNL     1      -3.029   4.970   5.524  1.00  0.00     0.034 C 
ENDBRANCH  33  35
ENDBRANCH  30  31
ENDBRANCH  28  30
ENDBRANCH   9  23
ENDBRANCH   3   6
ENDBRANCH   1   2
BRANCH   1  39
ATOM     39  C   UNL     1       0.351   1.432  -3.855  1.00  0.00     0.042 C 
BRANCH  39  40
ATOM     40  C   UNL     1       0.007   0.712  -5.142  1.00  0.00     0.118 C 
BRANCH  40  41
ATOM     41  N   UNL     1      -1.333   0.120  -5.176  1.00  0.00    -0.352 N 
ATOM     42  C   UNL     1      -1.928  -0.526  -6.252  1.00  0.00     0.251 C 
ATOM     43  H   UNL     1      -1.866   0.188  -4.351  1.00  0.00     0.163 HD
ATOM     44  O   UNL     1      -3.055  -0.985  -6.216  1.00  0.00    -0.269 OA
BRANCH  42  45
ATOM     45  C   UNL     1      -1.063  -0.749  -7.434  1.00  0.00     0.039 A 
ATOM     46  C   UNL     1      -0.566  -2.046  -7.588  1.00  0.00     0.014 A 
ATOM     47  C   UNL     1      -0.429   0.349  -8.010  1.00  0.00     0.014 A 
ATOM     48  C   UNL     1       0.717  -2.214  -8.096  1.00  0.00     0.010 A 
ATOM     49  C   UNL     1       0.887   0.189  -8.408  1.00  0.00     0.010 A 
ATOM     50  C   UNL     1       1.481  -1.082  -8.381  1.00  0.00    -0.014 A 
BRANCH  50  51
ATOM     51  C   UNL     1       2.934  -1.139  -8.533  1.00  0.00     0.031 A 
ATOM     52  C   UNL     1       3.538  -0.934  -9.865  1.00  0.00     0.074 A 
ATOM     53  C   UNL     1       3.739  -1.407  -7.479  1.00  0.00     0.049 A 
ATOM     54  N   UNL     1       4.664  -1.439 -10.244  1.00  0.00    -0.248 NA
ATOM     55  C   UNL     1       2.865  -0.176 -10.912  1.00  0.00     0.031 C 
ATOM     56  C   UNL     1       5.195  -1.294  -7.431  1.00  0.00     0.029 A 
ATOM     57  N   UNL     1       3.406  -2.081  -6.305  1.00  0.00    -0.354 N 
ATOM     58  C   UNL     1       4.984  -0.882 -11.460  1.00  0.00     0.074 A 
ATOM     59  C   UNL     1       3.811  -0.137 -11.852  1.00  0.00     0.031 C 
ATOM     60  C   UNL     1       5.660  -2.079  -6.448  1.00  0.00     0.029 A 
ATOM     61  C   UNL     1       4.535  -2.820  -5.910  1.00  0.00     0.049 A 
ATOM     62  H   UNL     1       2.539  -2.046  -5.839  1.00  0.00     0.167 HD
ATOM     63  C   UNL     1       6.248  -1.006 -11.956  1.00  0.00     0.034 A 
ATOM     64  C   UNL     1       4.485  -4.174  -5.758  1.00  0.00     0.034 A 
ATOM     65  C   UNL     1       7.090  -1.839 -11.102  1.00  0.00     0.049 A 
ATOM     66  C   UNL     1       5.426  -4.927  -6.665  1.00  0.00     0.074 A 
ATOM     67  C   UNL     1       8.026  -1.541 -10.126  1.00  0.00     0.029 A 
ATOM     68  N   UNL     1       6.817  -3.198 -10.982  1.00  0.00    -0.354 N 
ATOM     69  N   UNL     1       6.029  -4.405  -7.698  1.00  0.00    -0.248 NA
ATOM     70  C   UNL     1       5.732  -6.343  -6.492  1.00  0.00     0.031 C 
ATOM     71  C   UNL     1       8.263  -2.719  -9.371  1.00  0.00     0.029 A 
ATOM     72  C   UNL     1       7.498  -3.741  -9.908  1.00  0.00     0.049 A 
ATOM     73  H   UNL     1       6.221  -3.704 -11.580  1.00  0.00     0.167 HD
ATOM     74  C   UNL     1       6.722  -5.385  -8.362  1.00  0.00     0.074 A 
ATOM     75  C   UNL     1       6.550  -6.566  -7.534  1.00  0.00     0.031 C 
ATOM     76  C   UNL     1       7.345  -5.149  -9.557  1.00  0.00     0.034 A 
BRANCH  63  77
ATOM     77  C   UNL     1       6.781  -0.105 -13.047  1.00  0.00     0.023 A 
ATOM     78  C   UNL     1       8.127   0.311 -13.010  1.00  0.00     0.031 A 
ATOM     79  C   UNL     1       6.012   0.423 -14.101  1.00  0.00     0.131 A 
ATOM     80  C   UNL     1       8.615   1.287 -13.899  1.00  0.00     0.055 A 
ATOM     81  C   UNL     1       6.471   1.452 -14.934  1.00  0.00     0.041 A 
ATOM     82  F   UNL     1       4.799  -0.068 -14.396  1.00  0.00    -0.206 F 
ATOM     83  C   UNL     1       7.777   1.902 -14.825  1.00  0.00     0.022 A 
BRANCH  80  84
ATOM     84  S   UNL     1      10.372   1.734 -13.844  1.00  0.00     0.124 S 
ATOM     85  O   UNL     1      10.540   2.178 -12.465  1.00  0.00    -0.237 OA
ATOM     86  O   UNL     1      11.019   0.476 -14.202  1.00  0.00    -0.237 OA
ATOM     87  O   UNL     1      10.485   2.791 -14.850  1.00  0.00    -0.744 OA
ENDBRANCH  80  84
ENDBRANCH  63  77
BRANCH  64  88
ATOM     88  C   UNL     1       3.161  -4.668  -5.293  1.00  0.00     0.023 A 
ATOM     89  C   UNL     1       2.724  -4.217  -4.032  1.00  0.00     0.031 A 
ATOM     90  C   UNL     1       2.206  -5.173  -6.185  1.00  0.00     0.131 A 
ATOM     91  C   UNL     1       1.354  -4.104  -3.764  1.00  0.00     0.055 A 
ATOM     92  C   UNL     1       0.839  -5.120  -5.885  1.00  0.00     0.041 A 
ATOM     93  F   UNL     1       2.565  -5.589  -7.408  1.00  0.00    -0.206 F 
ATOM     94  C   UNL     1       0.406  -4.535  -4.694  1.00  0.00     0.022 A 
BRANCH  91  95
ATOM     95  S   UNL     1       0.813  -3.123  -2.335  1.00  0.00     0.124 S 
ATOM     96  O   UNL     1       0.410  -4.147  -1.379  1.00  0.00    -0.237 OA
ATOM     97  O   UNL     1       2.010  -2.367  -1.975  1.00  0.00    -0.237 OA
ATOM     98  O   UNL     1      -0.266  -2.308  -2.889  1.00  0.00    -0.744 OA
ENDBRANCH  91  95
ENDBRANCH  64  88
BRANCH  76  99
ATOM     99  C   UNL     1       7.932  -6.218 -10.457  1.00  0.00     0.023 A 
ATOM    100  C   UNL     1       7.604  -7.578 -10.352  1.00  0.00     0.031 A 
ATOM    101  C   UNL     1       8.814  -5.886 -11.513  1.00  0.00     0.131 A 
ATOM    102  C   UNL     1       8.217  -8.546 -11.166  1.00  0.00     0.055 A 
ATOM    103  C   UNL     1       9.353  -6.840 -12.384  1.00  0.00     0.041 A 
ATOM    104  F   UNL     1       9.186  -4.619 -11.749  1.00  0.00    -0.206 F 
ATOM    105  C   UNL     1       9.075  -8.185 -12.199  1.00  0.00     0.022 A 
BRANCH 102 106
ATOM    106  S   UNL     1       7.928 -10.294 -10.780  1.00  0.00     0.124 S 
ATOM    107  O   UNL     1       8.480 -10.397  -9.432  1.00  0.00    -0.237 OA
ATOM    108  O   UNL     1       6.476 -10.402 -10.878  1.00  0.00    -0.237 OA
ATOM    109  O   UNL     1       8.677 -11.005 -11.814  1.00  0.00    -0.744 OA
ENDBRANCH 102 106
ENDBRANCH  76  99
ENDBRANCH  50  51
ENDBRANCH  42  45
ENDBRANCH  40  41
ENDBRANCH  39  40
ENDBRANCH   1  39
TORSDOF 19
