REMARK SMILES CCc1c(Cl)ccc2c1C=C(C(=O)NCCCNC(=O)c1ccc(-c3c4nc(c(-c5cc(S(=O)(=O)[O-])ccc5F)c5ccc([nH]5)c(-c5cc(S(=O)(=O)[O-])ccc5F)c5nc(c(-c6cc(S(=O)(=O)[O-])ccc6F)c6ccc3[nH]6)C=C5)C=C4)cc1)[C@@H](C(F)(F)F)O2
REMARK SMILES IDX 17 1 16 2 15 3 14 4 12 5 13 6 11 8 3 9 4 10 9 11 5 12 6 13
REMARK SMILES IDX 8 14 10 15 7 16 89 17 84 18 2 19 1 20 85 21 86 22 87 23
REMARK SMILES IDX 88 24 18 25 19 26 20 28 21 29 22 30 83 31 23 32 82 33 24 34
REMARK SMILES IDX 25 35 26 36 76 37 27 38 81 39 75 40 77 41 28 42 80 43 74 44
REMARK SMILES IDX 73 45 29 47 61 48 41 49 60 50 42 51 45 52 59 53 78 54 43 55
REMARK SMILES IDX 44 56 58 58 79 59 46 60 30 61 31 62 39 63 32 64 38 65 40 66
REMARK SMILES IDX 37 67 33 68 34 69 35 70 36 71 62 72 63 73 71 74 64 75 70 76
REMARK SMILES IDX 72 77 69 78 65 79 66 80 67 81 68 82 47 83 48 84 56 85 49 86
REMARK SMILES IDX 55 87 57 88 54 89 50 90 51 91 52 92 53 93
REMARK H PARENT 14 7 18 27 77 46 45 57
REMARK Flexibility Score: inf
ROOT
ATOM      1  C   UNL     1      -0.018  -9.887   3.947  1.00  0.00     0.118 C 
ENDROOT
BRANCH   1   2
ATOM      2  C   UNL     1       0.523  -8.555   4.451  1.00  0.00     0.042 C 
BRANCH   2   3
ATOM      3  C   UNL     1       1.562  -7.960   3.514  1.00  0.00     0.118 C 
BRANCH   3   4
ATOM      4  N   UNL     1       0.950  -7.327   2.355  1.00  0.00    -0.352 N 
ATOM      5  C   UNL     1       0.708  -6.069   1.920  1.00  0.00     0.251 C 
ATOM      6  O   UNL     1       0.137  -5.996   0.826  1.00  0.00    -0.270 OA
ATOM      7  H   UNL     1       0.622  -7.997   1.712  1.00  0.00     0.163 HD
BRANCH   5   8
ATOM      8  C   UNL     1       1.086  -4.817   2.639  1.00  0.00     0.067 C 
ATOM      9  C   UNL     1       0.899  -1.123   1.982  1.00  0.00    -0.019 A 
ATOM     10  C   UNL     1       1.154   0.048   2.734  1.00  0.00     0.045 A 
ATOM     11  C   UNL     1       1.052  -2.373   2.655  1.00  0.00     0.022 A 
ATOM     12  Cl  UNL     1       0.862   1.651   2.156  1.00  0.00    -0.084 Cl
ATOM     13  C   UNL     1       1.619  -0.019   4.055  1.00  0.00     0.024 A 
ATOM     14  C   UNL     1       1.527  -2.410   3.977  1.00  0.00     0.128 A 
ATOM     15  C   UNL     1       0.680  -3.668   2.065  1.00  0.00     0.026 C 
ATOM     16  C   UNL     1       1.812  -1.244   4.674  1.00  0.00     0.048 A 
ATOM     17  O   UNL     1       1.693  -3.567   4.685  1.00  0.00    -0.475 OA
ATOM     18  C   UNL     1       1.883  -4.776   3.905  1.00  0.00     0.314 C 
BRANCH   9  19
ATOM     19  C   UNL     1       0.408  -1.109   0.539  1.00  0.00     0.034 C 
ATOM     20  C   UNL     1       0.941  -0.058  -0.430  1.00  0.00     0.009 C 
ENDBRANCH   9  19
BRANCH  18  21
ATOM     21  C   UNL     1       3.388  -5.012   3.677  1.00  0.00     0.429 C 
ATOM     22  F   UNL     1       4.003  -5.322   4.846  1.00  0.00    -0.167 F 
ATOM     23  F   UNL     1       3.631  -6.041   2.831  1.00  0.00    -0.167 F 
ATOM     24  F   UNL     1       4.016  -3.930   3.164  1.00  0.00    -0.167 F 
ENDBRANCH  18  21
ENDBRANCH   5   8
ENDBRANCH   3   4
ENDBRANCH   2   3
ENDBRANCH   1   2
BRANCH   1  25
ATOM     25  N   UNL     1       0.994 -10.941   3.977  1.00  0.00    -0.352 N 
ATOM     26  C   UNL     1       1.090 -12.063   4.767  1.00  0.00     0.251 C 
ATOM     27  H   UNL     1       1.725 -10.830   3.327  1.00  0.00     0.163 HD
ATOM     28  O   UNL     1       2.142 -12.698   4.789  1.00  0.00    -0.269 OA
BRANCH  26  29
ATOM     29  C   UNL     1      -0.055 -12.483   5.601  1.00  0.00     0.039 A 
ATOM     30  C   UNL     1      -1.353 -12.404   5.100  1.00  0.00     0.014 A 
ATOM     31  C   UNL     1       0.166 -12.952   6.899  1.00  0.00     0.014 A 
ATOM     32  C   UNL     1      -2.430 -12.583   5.955  1.00  0.00     0.010 A 
ATOM     33  C   UNL     1      -0.923 -13.250   7.724  1.00  0.00     0.010 A 
ATOM     34  C   UNL     1      -2.232 -13.012   7.277  1.00  0.00    -0.014 A 
BRANCH  34  35
ATOM     35  C   UNL     1      -3.418 -13.221   8.150  1.00  0.00     0.031 A 
ATOM     36  C   UNL     1      -3.617 -12.412   9.401  1.00  0.00     0.074 A 
ATOM     37  C   UNL     1      -4.355 -14.109   7.764  1.00  0.00     0.049 A 
ATOM     38  N   UNL     1      -4.628 -12.422  10.230  1.00  0.00    -0.248 NA
ATOM     39  C   UNL     1      -2.544 -11.480   9.780  1.00  0.00     0.031 C 
ATOM     40  C   UNL     1      -4.256 -14.954   6.574  1.00  0.00     0.029 A 
ATOM     41  N   UNL     1      -5.578 -14.427   8.297  1.00  0.00    -0.354 N 
ATOM     42  C   UNL     1      -4.301 -11.530  11.245  1.00  0.00     0.074 A 
ATOM     43  C   UNL     1      -2.986 -11.012  10.940  1.00  0.00     0.031 C 
ATOM     44  C   UNL     1      -5.398 -15.634   6.422  1.00  0.00     0.029 A 
ATOM     45  C   UNL     1      -6.280 -15.344   7.550  1.00  0.00     0.049 A 
ATOM     46  H   UNL     1      -5.920 -14.037   9.134  1.00  0.00     0.167 HD
ATOM     47  C   UNL     1      -5.038 -11.171  12.323  1.00  0.00     0.034 A 
ATOM     48  C   UNL     1      -7.491 -15.904   7.747  1.00  0.00     0.034 A 
ATOM     49  C   UNL     1      -6.364 -11.670  12.588  1.00  0.00     0.049 A 
ATOM     50  C   UNL     1      -8.295 -15.483   8.946  1.00  0.00     0.074 A 
ATOM     51  C   UNL     1      -7.218 -11.314  13.617  1.00  0.00     0.029 A 
ATOM     52  N   UNL     1      -7.027 -12.627  11.832  1.00  0.00    -0.354 N 
ATOM     53  N   UNL     1      -7.996 -14.591   9.861  1.00  0.00    -0.248 NA
ATOM     54  C   UNL     1      -9.593 -16.139   9.147  1.00  0.00     0.031 C 
ATOM     55  C   UNL     1      -8.366 -12.101  13.522  1.00  0.00     0.029 A 
ATOM     56  C   UNL     1      -8.265 -12.899  12.393  1.00  0.00     0.049 A 
ATOM     57  H   UNL     1      -6.671 -13.049  11.017  1.00  0.00     0.167 HD
ATOM     58  C   UNL     1      -9.068 -14.577  10.748  1.00  0.00     0.074 A 
ATOM     59  C   UNL     1     -10.037 -15.526  10.238  1.00  0.00     0.031 C 
ATOM     60  C   UNL     1      -9.225 -13.851  11.883  1.00  0.00     0.034 A 
BRANCH  47  61
ATOM     61  C   UNL     1      -4.446 -10.197  13.313  1.00  0.00     0.023 A 
ATOM     62  C   UNL     1      -4.211 -10.606  14.640  1.00  0.00     0.031 A 
ATOM     63  C   UNL     1      -4.220  -8.849  12.985  1.00  0.00     0.131 A 
ATOM     64  C   UNL     1      -3.787  -9.673  15.594  1.00  0.00     0.055 A 
ATOM     65  C   UNL     1      -3.760  -7.930  13.930  1.00  0.00     0.041 A 
ATOM     66  F   UNL     1      -4.430  -8.407  11.734  1.00  0.00    -0.206 F 
ATOM     67  C   UNL     1      -3.553  -8.339  15.244  1.00  0.00     0.022 A 
BRANCH  64  68
ATOM     68  S   UNL     1      -3.582 -10.136  17.335  1.00  0.00     0.124 S 
ATOM     69  O   UNL     1      -2.155  -9.898  17.540  1.00  0.00    -0.237 OA
ATOM     70  O   UNL     1      -4.473  -9.196  18.009  1.00  0.00    -0.237 OA
ATOM     71  O   UNL     1      -3.993 -11.535  17.378  1.00  0.00    -0.744 OA
ENDBRANCH  64  68
ENDBRANCH  47  61
BRANCH  48  72
ATOM     72  C   UNL     1      -7.995 -16.880   6.738  1.00  0.00     0.023 A 
ATOM     73  C   UNL     1      -7.284 -18.066   6.474  1.00  0.00     0.031 A 
ATOM     74  C   UNL     1      -9.081 -16.560   5.907  1.00  0.00     0.131 A 
ATOM     75  C   UNL     1      -7.597 -18.827   5.342  1.00  0.00     0.055 A 
ATOM     76  C   UNL     1      -9.443 -17.369   4.828  1.00  0.00     0.041 A 
ATOM     77  F   UNL     1      -9.781 -15.434   6.113  1.00  0.00    -0.206 F 
ATOM     78  C   UNL     1      -8.683 -18.496   4.526  1.00  0.00     0.022 A 
BRANCH  75  79
ATOM     79  S   UNL     1      -6.498 -20.164   4.793  1.00  0.00     0.124 S 
ATOM     80  O   UNL     1      -7.405 -21.306   4.746  1.00  0.00    -0.237 OA
ATOM     81  O   UNL     1      -6.047 -19.661   3.498  1.00  0.00    -0.237 OA
ATOM     82  O   UNL     1      -5.473 -20.215   5.830  1.00  0.00    -0.744 OA
ENDBRANCH  75  79
ENDBRANCH  48  72
BRANCH  60  83
ATOM     83  C   UNL     1     -10.483 -14.048  12.693  1.00  0.00     0.023 A 
ATOM     84  C   UNL     1     -11.379 -12.977  12.876  1.00  0.00     0.031 A 
ATOM     85  C   UNL     1     -10.709 -15.236  13.409  1.00  0.00     0.131 A 
ATOM     86  C   UNL     1     -12.432 -13.099  13.791  1.00  0.00     0.055 A 
ATOM     87  C   UNL     1     -11.789 -15.369  14.284  1.00  0.00     0.041 A 
ATOM     88  F   UNL     1      -9.878 -16.282  13.275  1.00  0.00    -0.206 F 
ATOM     89  C   UNL     1     -12.646 -14.292  14.490  1.00  0.00     0.022 A 
BRANCH  86  90
ATOM     90  S   UNL     1     -13.503 -11.687  14.178  1.00  0.00     0.124 S 
ATOM     91  O   UNL     1     -14.815 -12.182  13.766  1.00  0.00    -0.237 OA
ATOM     92  O   UNL     1     -13.315 -11.543  15.619  1.00  0.00    -0.237 OA
ATOM     93  O   UNL     1     -12.964 -10.603  13.364  1.00  0.00    -0.744 OA
ENDBRANCH  86  90
ENDBRANCH  60  83
ENDBRANCH  34  35
ENDBRANCH  26  29
ENDBRANCH   1  25
TORSDOF 15
