REMARK SMILES CC(C)C[C@H](CNC(=O)[C@H]1CCCCC[C@H]1[NH3+])CC(=O)NCCCNC(=O)c1ccc(-c2c3nc(c(-c4cc(S(=O)(=O)[O-])ccc4F)c4ccc([nH]4)c(-c4cc(S(=O)(=O)[O-])ccc4F)c4nc(c(-c5cc(S(=O)(=O)[O-])ccc5F)c5ccc2[nH]5)C=C4)C=C3)cc1
REMARK SMILES IDX 19 1 20 2 21 3 18 5 5 6 4 7 2 8 1 9 3 10 6 11 7 12 8 13 9 15
REMARK SMILES IDX 10 16 11 17 12 18 13 19 16 21 15 22 14 23 17 25 22 29 23 30
REMARK SMILES IDX 24 31 25 32 26 33 27 35 28 36 29 37 90 38 30 39 89 40 31 41
REMARK SMILES IDX 32 42 33 43 83 44 34 45 88 46 82 47 84 48 35 49 87 50 81 51
REMARK SMILES IDX 80 52 36 54 68 55 48 56 67 57 49 58 52 59 66 60 85 61 50 62
REMARK SMILES IDX 51 63 65 65 86 66 53 67 37 68 38 69 46 70 39 71 45 72 47 73
REMARK SMILES IDX 44 74 40 75 41 76 42 77 43 78 69 79 70 80 78 81 71 82 77 83
REMARK SMILES IDX 79 84 76 85 72 86 73 87 74 88 75 89 54 90 55 91 63 92 56 93
REMARK SMILES IDX 62 94 64 95 61 96 57 97 58 98 59 99 60 100
REMARK H PARENT 21 4 7 14 17 26 17 27 17 28 25 34 84 53 52 64
REMARK Flexibility Score: 90.00
ROOT
ATOM      1  C   UNL     1      -2.139  -6.513  -4.181  1.00  0.00     0.220 C 
ATOM      2  O   UNL     1      -0.943  -6.635  -4.452  1.00  0.00    -0.275 OA
ATOM      3  N   UNL     1      -3.047  -6.784  -5.158  1.00  0.00    -0.356 N 
ATOM      4  H   UNL     1      -2.654  -7.064  -6.016  1.00  0.00     0.163 HD
ENDROOT
BRANCH   1   5
ATOM      5  C   UNL     1      -2.570  -6.099  -2.780  1.00  0.00     0.105 C 
BRANCH   5   6
ATOM      6  C   UNL     1      -2.831  -4.580  -2.605  1.00  0.00     0.018 C 
BRANCH   6   7
ATOM      7  C   UNL     1      -2.131  -3.992  -1.327  1.00  0.00     0.009 C 
BRANCH   7   8
ATOM      8  C   UNL     1      -3.018  -3.802  -0.090  1.00  0.00    -0.017 C 
ATOM      9  C   UNL     1      -3.502  -5.123   0.506  1.00  0.00     0.007 C 
ATOM     10  C   UNL     1      -2.435  -2.882   0.982  1.00  0.00     0.007 C 
ENDBRANCH   7   8
ENDBRANCH   6   7
BRANCH   6  11
ATOM     11  C   UNL     1      -4.312  -4.116  -2.785  1.00  0.00     0.120 C 
BRANCH  11  12
ATOM     12  N   UNL     1      -5.335  -4.987  -2.195  1.00  0.00    -0.355 N 
ATOM     13  C   UNL     1      -6.650  -5.060  -2.569  1.00  0.00     0.229 C 
ATOM     14  H   UNL     1      -5.048  -5.576  -1.460  1.00  0.00     0.163 HD
ATOM     15  O   UNL     1      -6.989  -6.099  -3.151  1.00  0.00    -0.275 OA
BRANCH  13  16
ATOM     16  C   UNL     1      -7.734  -4.101  -2.046  1.00  0.00     0.136 C 
BRANCH  16  17
ATOM     17  C   UNL     1      -8.585  -4.859  -0.996  1.00  0.00     0.020 C 
BRANCH  17  18
ATOM     18  C   UNL     1      -7.799  -5.491   0.148  1.00  0.00     0.001 C 
BRANCH  18  19
ATOM     19  C   UNL     1      -7.373  -4.566   1.283  1.00  0.00     0.000 CG0
ATOM     20  G   UNL     1      -7.178  -3.076   1.011  1.00  0.00     0.000 G0
ENDBRANCH  18  19
ENDBRANCH  17  18
ENDBRANCH  16  17
BRANCH  16  21
ATOM     21  C   UNL     1      -7.376  -2.697  -1.548  1.00  0.00     0.193 C 
BRANCH  21  22
ATOM     22  C   UNL     1      -6.499  -2.686  -0.296  1.00  0.00     0.066 C 
BRANCH  22  23
ATOM     23  C   UNL     1      -7.178  -3.076   1.011  1.00  0.00     0.006 CG0
ATOM     24  G   UNL     1      -7.373  -4.566   1.283  1.00  0.00     0.000 G0
ENDBRANCH  22  23
ENDBRANCH  21  22
BRANCH  21  25
ATOM     25  N   UNL     1      -6.827  -1.872  -2.629  1.00  0.00    -0.354 N 
ATOM     26  H   UNL     1      -5.946  -2.274  -2.949  1.00  0.00     0.344 HD
ATOM     27  H   UNL     1      -6.665  -0.926  -2.285  1.00  0.00     0.344 HD
ATOM     28  H   UNL     1      -7.489  -1.843  -3.404  1.00  0.00     0.344 HD
ENDBRANCH  21  25
ENDBRANCH  16  21
ENDBRANCH  13  16
ENDBRANCH  11  12
ENDBRANCH   6  11
ENDBRANCH   5   6
ENDBRANCH   1   5
BRANCH   3  29
ATOM     29  C   UNL     1      -4.499  -6.727  -5.145  1.00  0.00     0.117 C 
BRANCH  29  30
ATOM     30  C   UNL     1      -5.005  -5.435  -5.777  1.00  0.00     0.042 C 
BRANCH  30  31
ATOM     31  C   UNL     1      -5.609  -5.594  -7.155  1.00  0.00     0.118 C 
BRANCH  31  32
ATOM     32  N   UNL     1      -6.944  -6.174  -7.120  1.00  0.00    -0.352 N 
ATOM     33  C   UNL     1      -8.092  -5.780  -7.769  1.00  0.00     0.251 C 
ATOM     34  H   UNL     1      -7.039  -6.968  -6.546  1.00  0.00     0.163 HD
ATOM     35  O   UNL     1      -9.152  -6.350  -7.511  1.00  0.00    -0.269 OA
BRANCH  33  36
ATOM     36  C   UNL     1      -8.075  -4.643  -8.724  1.00  0.00     0.039 A 
ATOM     37  C   UNL     1      -9.176  -3.782  -8.773  1.00  0.00     0.014 A 
ATOM     38  C   UNL     1      -6.981  -4.400  -9.555  1.00  0.00     0.014 A 
ATOM     39  C   UNL     1      -9.144  -2.650  -9.593  1.00  0.00     0.010 A 
ATOM     40  C   UNL     1      -6.897  -3.210 -10.270  1.00  0.00     0.010 A 
ATOM     41  C   UNL     1      -7.985  -2.327 -10.315  1.00  0.00    -0.014 A 
BRANCH  41  42
ATOM     42  C   UNL     1      -7.896  -1.109 -11.167  1.00  0.00     0.031 A 
ATOM     43  C   UNL     1      -7.606  -1.253 -12.641  1.00  0.00     0.074 A 
ATOM     44  C   UNL     1      -8.014   0.117 -10.618  1.00  0.00     0.049 A 
ATOM     45  N   UNL     1      -7.363  -0.329 -13.535  1.00  0.00    -0.248 NA
ATOM     46  C   UNL     1      -7.540  -2.626 -13.169  1.00  0.00     0.031 C 
ATOM     47  C   UNL     1      -8.266   0.392  -9.201  1.00  0.00     0.029 A 
ATOM     48  N   UNL     1      -7.934   1.366 -11.184  1.00  0.00    -0.354 N 
ATOM     49  C   UNL     1      -7.104  -1.009 -14.721  1.00  0.00     0.074 A 
ATOM     50  C   UNL     1      -7.130  -2.421 -14.410  1.00  0.00     0.031 C 
ATOM     51  C   UNL     1      -8.360   1.719  -9.019  1.00  0.00     0.029 A 
ATOM     52  C   UNL     1      -8.117   2.396 -10.289  1.00  0.00     0.049 A 
ATOM     53  H   UNL     1      -7.762   1.512 -12.143  1.00  0.00     0.167 HD
ATOM     54  C   UNL     1      -6.904  -0.508 -15.965  1.00  0.00     0.034 A 
ATOM     55  C   UNL     1      -8.080   3.732 -10.470  1.00  0.00     0.034 A 
ATOM     56  C   UNL     1      -6.906   0.901 -16.266  1.00  0.00     0.049 A 
ATOM     57  C   UNL     1      -7.804   4.268 -11.856  1.00  0.00     0.074 A 
ATOM     58  C   UNL     1      -6.738   1.522 -17.491  1.00  0.00     0.029 A 
ATOM     59  N   UNL     1      -7.090   1.912 -15.330  1.00  0.00    -0.354 N 
ATOM     60  N   UNL     1      -7.587   3.607 -12.971  1.00  0.00    -0.248 NA
ATOM     61  C   UNL     1      -7.778   5.728 -12.009  1.00  0.00     0.031 C 
ATOM     62  C   UNL     1      -6.758   2.905 -17.288  1.00  0.00     0.029 A 
ATOM     63  C   UNL     1      -7.020   3.150 -15.949  1.00  0.00     0.049 A 
ATOM     64  H   UNL     1      -7.248   1.769 -14.369  1.00  0.00     0.167 HD
ATOM     65  C   UNL     1      -7.447   4.575 -13.963  1.00  0.00     0.074 A 
ATOM     66  C   UNL     1      -7.617   5.859 -13.317  1.00  0.00     0.031 C 
ATOM     67  C   UNL     1      -7.203   4.420 -15.289  1.00  0.00     0.034 A 
BRANCH  54  68
ATOM     68  C   UNL     1      -6.666  -1.495 -17.082  1.00  0.00     0.023 A 
ATOM     69  C   UNL     1      -7.640  -2.443 -17.443  1.00  0.00     0.031 A 
ATOM     70  C   UNL     1      -5.446  -1.511 -17.780  1.00  0.00     0.131 A 
ATOM     71  C   UNL     1      -7.350  -3.415 -18.412  1.00  0.00     0.055 A 
ATOM     72  C   UNL     1      -5.197  -2.425 -18.807  1.00  0.00     0.041 A 
ATOM     73  F   UNL     1      -4.468  -0.646 -17.468  1.00  0.00    -0.206 F 
ATOM     74  C   UNL     1      -6.146  -3.394 -19.117  1.00  0.00     0.022 A 
BRANCH  71  75
ATOM     75  S   UNL     1      -8.509  -4.793 -18.627  1.00  0.00     0.124 S 
ATOM     76  O   UNL     1      -8.502  -5.393 -17.295  1.00  0.00    -0.237 OA
ATOM     77  O   UNL     1      -9.740  -4.113 -19.016  1.00  0.00    -0.237 OA
ATOM     78  O   UNL     1      -7.887  -5.604 -19.671  1.00  0.00    -0.744 OA
ENDBRANCH  71  75
ENDBRANCH  54  68
BRANCH  55  79
ATOM     79  C   UNL     1      -8.303   4.671  -9.330  1.00  0.00     0.023 A 
ATOM     80  C   UNL     1      -9.369   5.585  -9.351  1.00  0.00     0.031 A 
ATOM     81  C   UNL     1      -7.412   4.728  -8.243  1.00  0.00     0.131 A 
ATOM     82  C   UNL     1      -9.476   6.563  -8.349  1.00  0.00     0.055 A 
ATOM     83  C   UNL     1      -7.564   5.657  -7.211  1.00  0.00     0.041 A 
ATOM     84  F   UNL     1      -6.374   3.880  -8.168  1.00  0.00    -0.206 F 
ATOM     85  C   UNL     1      -8.590   6.596  -7.271  1.00  0.00     0.022 A 
BRANCH  82  86
ATOM     86  S   UNL     1     -10.711   7.876  -8.550  1.00  0.00     0.124 S 
ATOM     87  O   UNL     1     -10.352   8.421  -9.854  1.00  0.00    -0.237 OA
ATOM     88  O   UNL     1     -11.962   7.127  -8.489  1.00  0.00    -0.237 OA
ATOM     89  O   UNL     1     -10.457   8.758  -7.413  1.00  0.00    -0.744 OA
ENDBRANCH  82  86
ENDBRANCH  55  79
BRANCH  67  90
ATOM     90  C   UNL     1      -7.178   5.668 -16.137  1.00  0.00     0.023 A 
ATOM     91  C   UNL     1      -6.182   6.649 -15.988  1.00  0.00     0.031 A 
ATOM     92  C   UNL     1      -8.172   5.877 -17.110  1.00  0.00     0.131 A 
ATOM     93  C   UNL     1      -6.235   7.819 -16.759  1.00  0.00     0.055 A 
ATOM     94  C   UNL     1      -8.181   7.012 -17.920  1.00  0.00     0.041 A 
ATOM     95  F   UNL     1      -9.148   4.973 -17.294  1.00  0.00    -0.206 F 
ATOM     96  C   UNL     1      -7.217   7.998 -17.737  1.00  0.00     0.022 A 
BRANCH  93  97
ATOM     97  S   UNL     1      -5.056   9.150 -16.402  1.00  0.00     0.124 S 
ATOM     98  O   UNL     1      -5.339   9.439 -15.000  1.00  0.00    -0.237 OA
ATOM     99  O   UNL     1      -3.772   8.511 -16.674  1.00  0.00    -0.237 OA
ATOM    100  O   UNL     1      -5.433  10.204 -17.342  1.00  0.00    -0.744 OA
ENDBRANCH  93  97
ENDBRANCH  67  90
ENDBRANCH  41  42
ENDBRANCH  33  36
ENDBRANCH  31  32
ENDBRANCH  30  31
ENDBRANCH  29  30
ENDBRANCH   3  29
TORSDOF 20
