REMARK SMILES Cc1ccn2c([C@H]3C[C@@H]3C(=O)NCCCNC(=O)c3ccc(-c4c5nc(c(-c6cc(S(=O)(=O)[O-])ccc6F)c6ccc([nH]6)c(-c6cc(S(=O)(=O)[O-])ccc6F)c6nc(c(-c7cc(S(=O)(=O)[O-])ccc7F)c7ccc4[nH]7)C=C6)C=C5)cc3)nnc2c1
REMARK SMILES IDX 15 1 14 2 13 3 12 4 10 5 11 6 9 8 7 9 8 10 6 11 1 12 2 13
REMARK SMILES IDX 3 14 85 15 4 16 84 17 5 18 83 19 82 20 16 21 17 22 18 24
REMARK SMILES IDX 19 25 20 26 81 27 21 28 80 29 22 30 23 31 24 32 74 33 25 34
REMARK SMILES IDX 79 35 73 36 75 37 26 38 78 39 72 40 71 41 27 43 59 44 39 45
REMARK SMILES IDX 58 46 40 47 43 48 57 49 76 50 41 51 42 52 56 54 77 55 44 56
REMARK SMILES IDX 28 57 29 58 37 59 30 60 36 61 38 62 35 63 31 64 32 65 33 66
REMARK SMILES IDX 34 67 60 68 61 69 69 70 62 71 68 72 70 73 67 74 63 75 64 76
REMARK SMILES IDX 65 77 66 78 45 79 46 80 54 81 47 82 53 83 55 84 52 85 48 86
REMARK SMILES IDX 49 87 50 88 51 89
REMARK H PARENT 12 7 16 23 75 42 43 53
REMARK Flexibility Score: inf
ROOT
ATOM      1  C   UNL     1       0.800   1.092  -1.445  1.00  0.00     0.118 C 
ENDROOT
BRANCH   1   2
ATOM      2  C   UNL     1       0.570   1.961  -2.684  1.00  0.00     0.042 C 
BRANCH   2   3
ATOM      3  C   UNL     1       1.047   1.306  -3.983  1.00  0.00     0.117 C 
BRANCH   3   4
ATOM      4  N   UNL     1       0.261   0.126  -4.302  1.00  0.00    -0.356 N 
ATOM      5  C   UNL     1      -0.669  -0.051  -5.281  1.00  0.00     0.223 C 
ATOM      6  O   UNL     1      -1.258  -1.129  -5.386  1.00  0.00    -0.275 OA
ATOM      7  H   UNL     1       0.423  -0.657  -3.727  1.00  0.00     0.163 HD
BRANCH   5   8
ATOM      8  C   UNL     1      -0.916   1.022  -6.262  1.00  0.00     0.090 C 
ATOM      9  C   UNL     1      -1.377   2.421  -5.881  1.00  0.00     0.071 C 
ATOM     10  C   UNL     1      -2.331   1.453  -6.532  1.00  0.00     0.026 C 
BRANCH   9  11
ATOM     11  C   UNL     1      -0.847   3.575  -6.722  1.00  0.00     0.141 A 
ATOM     12  C   UNL     1      -1.235   9.138  -6.593  1.00  0.00     0.044 C 
ATOM     13  C   UNL     1      -1.054   7.648  -6.561  1.00  0.00    -0.046 A 
ATOM     14  C   UNL     1      -1.633   6.933  -5.423  1.00  0.00     0.022 A 
ATOM     15  C   UNL     1      -0.426   6.976  -7.553  1.00  0.00     0.053 A 
ATOM     16  C   UNL     1      -1.575   5.591  -5.390  1.00  0.00     0.095 A 
ATOM     17  C   UNL     1      -0.371   5.556  -7.520  1.00  0.00     0.161 A 
ATOM     18  N   UNL     1      -0.958   4.917  -6.438  1.00  0.00    -0.286 N 
ATOM     19  N   UNL     1       0.088   4.661  -8.369  1.00  0.00    -0.130 NA
ATOM     20  N   UNL     1      -0.239   3.416  -7.881  1.00  0.00    -0.134 NA
ENDBRANCH   9  11
ENDBRANCH   5   8
ENDBRANCH   3   4
ENDBRANCH   2   3
ENDBRANCH   1   2
BRANCH   1  21
ATOM     21  N   UNL     1       2.190   0.737  -1.237  1.00  0.00    -0.352 N 
ATOM     22  C   UNL     1       3.261   1.311  -0.612  1.00  0.00     0.251 C 
ATOM     23  H   UNL     1       2.418  -0.128  -1.647  1.00  0.00     0.163 HD
ATOM     24  O   UNL     1       4.291   0.629  -0.606  1.00  0.00    -0.269 OA
BRANCH  22  25
ATOM     25  C   UNL     1       3.294   2.671  -0.002  1.00  0.00     0.039 A 
ATOM     26  C   UNL     1       2.221   3.556   0.080  1.00  0.00     0.014 A 
ATOM     27  C   UNL     1       4.548   3.095   0.484  1.00  0.00     0.014 A 
ATOM     28  C   UNL     1       2.416   4.855   0.551  1.00  0.00     0.010 A 
ATOM     29  C   UNL     1       4.745   4.386   0.968  1.00  0.00     0.010 A 
ATOM     30  C   UNL     1       3.686   5.285   0.956  1.00  0.00    -0.014 A 
BRANCH  30  31
ATOM     31  C   UNL     1       3.826   6.671   1.400  1.00  0.00     0.031 A 
ATOM     32  C   UNL     1       2.985   7.065   2.566  1.00  0.00     0.074 A 
ATOM     33  C   UNL     1       4.684   7.563   0.866  1.00  0.00     0.049 A 
ATOM     34  N   UNL     1       1.976   7.875   2.587  1.00  0.00    -0.248 NA
ATOM     35  C   UNL     1       3.238   6.389   3.844  1.00  0.00     0.031 C 
ATOM     36  C   UNL     1       5.801   7.329  -0.053  1.00  0.00     0.029 A 
ATOM     37  N   UNL     1       4.769   8.900   1.116  1.00  0.00    -0.354 N 
ATOM     38  C   UNL     1       1.552   7.939   3.915  1.00  0.00     0.074 A 
ATOM     39  C   UNL     1       2.285   6.913   4.617  1.00  0.00     0.031 C 
ATOM     40  C   UNL     1       6.575   8.439  -0.105  1.00  0.00     0.029 A 
ATOM     41  C   UNL     1       5.921   9.503   0.638  1.00  0.00     0.049 A 
ATOM     42  H   UNL     1       4.068   9.397   1.598  1.00  0.00     0.167 HD
ATOM     43  C   UNL     1       0.730   8.927   4.376  1.00  0.00     0.034 A 
ATOM     44  C   UNL     1       6.336  10.770   0.885  1.00  0.00     0.034 A 
ATOM     45  C   UNL     1       0.123   9.655   3.297  1.00  0.00     0.049 A 
ATOM     46  C   UNL     1       5.165  11.566   1.324  1.00  0.00     0.074 A 
ATOM     47  C   UNL     1      -0.771   9.339   2.295  1.00  0.00     0.029 A 
ATOM     48  N   UNL     1       0.683  10.854   2.933  1.00  0.00    -0.354 N 
ATOM     49  N   UNL     1       4.179  11.913   0.546  1.00  0.00    -0.248 NA
ATOM     50  C   UNL     1       4.887  11.626   2.750  1.00  0.00     0.031 C 
ATOM     51  C   UNL     1      -0.343  10.097   1.169  1.00  0.00     0.029 A 
ATOM     52  C   UNL     1       0.752  10.869   1.563  1.00  0.00     0.049 A 
ATOM     53  H   UNL     1       0.980  11.570   3.541  1.00  0.00     0.167 HD
ATOM     54  C   UNL     1       3.050  11.786   1.340  1.00  0.00     0.074 A 
ATOM     55  C   UNL     1       3.556  11.714   2.709  1.00  0.00     0.031 C 
ATOM     56  C   UNL     1       1.832  11.472   0.806  1.00  0.00     0.034 A 
BRANCH  43  57
ATOM     57  C   UNL     1       0.669   9.408   5.805  1.00  0.00     0.023 A 
ATOM     58  C   UNL     1       1.662   9.098   6.752  1.00  0.00     0.031 A 
ATOM     59  C   UNL     1      -0.281  10.373   6.205  1.00  0.00     0.131 A 
ATOM     60  C   UNL     1       1.681   9.695   8.019  1.00  0.00     0.055 A 
ATOM     61  C   UNL     1      -0.222  11.021   7.446  1.00  0.00     0.041 A 
ATOM     62  F   UNL     1      -1.268  10.756   5.380  1.00  0.00    -0.206 F 
ATOM     63  C   UNL     1       0.763  10.681   8.363  1.00  0.00     0.022 A 
BRANCH  60  64
ATOM     64  S   UNL     1       2.920   9.197   9.247  1.00  0.00     0.124 S 
ATOM     65  O   UNL     1       3.627  10.450   9.485  1.00  0.00    -0.237 OA
ATOM     66  O   UNL     1       2.076   8.727  10.343  1.00  0.00    -0.237 OA
ATOM     67  O   UNL     1       3.678   8.155   8.561  1.00  0.00    -0.744 OA
ENDBRANCH  60  64
ENDBRANCH  43  57
BRANCH  44  68
ATOM     68  C   UNL     1       7.716  11.174   1.243  1.00  0.00     0.023 A 
ATOM     69  C   UNL     1       8.552  10.259   1.909  1.00  0.00     0.031 A 
ATOM     70  C   UNL     1       8.101  12.525   1.243  1.00  0.00     0.131 A 
ATOM     71  C   UNL     1       9.689  10.705   2.595  1.00  0.00     0.055 A 
ATOM     72  C   UNL     1       9.250  12.966   1.912  1.00  0.00     0.041 A 
ATOM     73  F   UNL     1       7.329  13.454   0.658  1.00  0.00    -0.206 F 
ATOM     74  C   UNL     1      10.041  12.056   2.607  1.00  0.00     0.022 A 
BRANCH  71  75
ATOM     75  S   UNL     1      10.680   9.542   3.571  1.00  0.00     0.124 S 
ATOM     76  O   UNL     1      12.042   9.878   3.162  1.00  0.00    -0.237 OA
ATOM     77  O   UNL     1      10.320   9.918   4.933  1.00  0.00    -0.237 OA
ATOM     78  O   UNL     1      10.208   8.234   3.125  1.00  0.00    -0.744 OA
ENDBRANCH  71  75
ENDBRANCH  44  68
BRANCH  56  79
ATOM     79  C   UNL     1       1.659  11.486  -0.700  1.00  0.00     0.023 A 
ATOM     80  C   UNL     1       0.507  12.110  -1.214  1.00  0.00     0.031 A 
ATOM     81  C   UNL     1       2.435  10.724  -1.596  1.00  0.00     0.131 A 
ATOM     82  C   UNL     1       0.139  11.928  -2.553  1.00  0.00     0.055 A 
ATOM     83  C   UNL     1       2.108  10.614  -2.952  1.00  0.00     0.041 A 
ATOM     84  F   UNL     1       3.474   9.990  -1.179  1.00  0.00    -0.206 F 
ATOM     85  C   UNL     1       0.947  11.204  -3.432  1.00  0.00     0.022 A 
BRANCH  82  86
ATOM     86  S   UNL     1      -1.488  12.465  -3.141  1.00  0.00     0.124 S 
ATOM     87  O   UNL     1      -1.140  13.482  -4.129  1.00  0.00    -0.237 OA
ATOM     88  O   UNL     1      -2.041  11.226  -3.689  1.00  0.00    -0.237 OA
ATOM     89  O   UNL     1      -2.154  12.958  -1.940  1.00  0.00    -0.744 OA
ENDBRANCH  82  86
ENDBRANCH  56  79
ENDBRANCH  30  31
ENDBRANCH  22  25
ENDBRANCH   1  21
TORSDOF 14
