REMARK SMILES CN(C(=O)N1Cc2nc[nH]c2C[C@@H]1C(=O)NCCCNC(=O)c1ccc(-c2c3nc(c(-c4cc(S(=O)(=O)[O-])ccc4F)c4ccc([nH]4)c(-c4cc(S(=O)(=O)[O-])ccc4F)c4nc(c(-c5cc(S(=O)(=O)[O-])ccc5F)c5ccc2[nH]5)C=C4)C=C3)cc1)C1CC1
REMARK SMILES IDX 18 1 17 2 16 3 14 4 15 5 13 7 5 8 6 9 7 10 12 11 8 12 11 13
REMARK SMILES IDX 9 14 10 15 3 17 4 18 2 19 1 20 86 21 87 22 88 23 19 24 20 25
REMARK SMILES IDX 21 26 22 28 23 29 24 30 85 31 25 32 84 33 26 34 27 35 28 36
REMARK SMILES IDX 78 37 29 38 83 39 77 40 79 41 30 42 82 43 76 44 75 45 31 47
REMARK SMILES IDX 63 48 43 49 62 50 44 51 47 52 61 53 80 54 45 55 46 56 60 58
REMARK SMILES IDX 81 59 48 60 32 61 33 62 41 63 34 64 40 65 42 66 39 67 35 68
REMARK SMILES IDX 36 69 37 70 38 71 64 72 65 73 73 74 66 75 72 76 74 77 71 78
REMARK SMILES IDX 67 79 68 80 69 81 70 82 49 83 50 84 58 85 51 86 57 87 59 88
REMARK SMILES IDX 56 89 52 90 53 91 54 92 55 93
REMARK H PARENT 16 6 10 16 20 27 79 46 47 57
REMARK Flexibility Score: inf
ROOT
ATOM      1  C   UNL     1       2.661   1.058   2.587  1.00  0.00     0.042 C 
ENDROOT
BRANCH   1   2
ATOM      2  C   UNL     1       2.638   1.820   1.247  1.00  0.00     0.117 C 
BRANCH   2   3
ATOM      3  N   UNL     1       1.507   1.362   0.483  1.00  0.00    -0.354 N 
ATOM      4  C   UNL     1       0.656   2.132  -0.304  1.00  0.00     0.243 C 
ATOM      5  O   UNL     1       0.978   2.899  -1.170  1.00  0.00    -0.273 OA
ATOM      6  H   UNL     1       1.314   0.397   0.523  1.00  0.00     0.163 HD
BRANCH   4   7
ATOM      7  C   UNL     1      -0.753   2.016   0.308  1.00  0.00     0.182 C 
ATOM      8  N   UNL     1      -0.946   1.028   1.415  1.00  0.00    -0.306 N 
ATOM      9  C   UNL     1      -1.525   1.699   2.615  1.00  0.00     0.180 C 
ATOM     10  C   UNL     1      -2.659   2.579   2.142  1.00  0.00     0.081 A 
ATOM     11  C   UNL     1      -2.125   2.282  -0.355  1.00  0.00     0.091 C 
ATOM     12  N   UNL     1      -3.330   3.464   2.942  1.00  0.00    -0.240 NA
ATOM     13  C   UNL     1      -2.953   2.815   0.802  1.00  0.00     0.042 A 
ATOM     14  C   UNL     1      -4.067   4.174   2.116  1.00  0.00     0.197 A 
ATOM     15  N   UNL     1      -3.923   3.773   0.810  1.00  0.00    -0.348 N 
ATOM     16  H   UNL     1      -4.422   4.111   0.032  1.00  0.00     0.167 HD
BRANCH   8  17
ATOM     17  C   UNL     1      -1.047  -0.343   1.388  1.00  0.00     0.321 C 
ATOM     18  O   UNL     1      -1.503  -0.900   2.398  1.00  0.00    -0.248 OA
BRANCH  17  19
ATOM     19  N   UNL     1      -0.562  -1.139   0.362  1.00  0.00    -0.325 N 
ATOM     20  C   UNL     1       0.140  -0.891  -0.910  1.00  0.00     0.149 C 
BRANCH  19  21
ATOM     21  C   UNL     1      -0.640  -2.570   0.650  1.00  0.00     0.086 C 
ATOM     22  C   UNL     1      -1.737  -3.447   0.121  1.00  0.00     0.027 C 
ATOM     23  C   UNL     1      -0.332  -3.640  -0.351  1.00  0.00     0.027 C 
ENDBRANCH  19  21
ENDBRANCH  17  19
ENDBRANCH   8  17
ENDBRANCH   4   7
ENDBRANCH   2   3
ENDBRANCH   1   2
BRANCH   1  24
ATOM     24  C   UNL     1       2.732  -0.481   2.495  1.00  0.00     0.118 C 
BRANCH  24  25
ATOM     25  N   UNL     1       4.077  -1.018   2.543  1.00  0.00    -0.352 N 
ATOM     26  C   UNL     1       4.557  -2.314   2.549  1.00  0.00     0.251 C 
ATOM     27  H   UNL     1       4.781  -0.331   2.577  1.00  0.00     0.163 HD
ATOM     28  O   UNL     1       5.778  -2.442   2.662  1.00  0.00    -0.269 OA
BRANCH  26  29
ATOM     29  C   UNL     1       3.711  -3.538   2.376  1.00  0.00     0.039 A 
ATOM     30  C   UNL     1       4.335  -4.728   1.947  1.00  0.00     0.014 A 
ATOM     31  C   UNL     1       2.342  -3.579   2.598  1.00  0.00     0.014 A 
ATOM     32  C   UNL     1       3.591  -5.881   1.628  1.00  0.00     0.010 A 
ATOM     33  C   UNL     1       1.607  -4.718   2.268  1.00  0.00     0.010 A 
ATOM     34  C   UNL     1       2.204  -5.865   1.740  1.00  0.00    -0.014 A 
BRANCH  34  35
ATOM     35  C   UNL     1       1.352  -7.008   1.351  1.00  0.00     0.031 A 
ATOM     36  C   UNL     1       0.700  -7.795   2.444  1.00  0.00     0.074 A 
ATOM     37  C   UNL     1       0.896  -7.221   0.093  1.00  0.00     0.049 A 
ATOM     38  N   UNL     1       0.874  -9.050   2.716  1.00  0.00    -0.248 NA
ATOM     39  C   UNL     1      -0.223  -7.124   3.371  1.00  0.00     0.031 C 
ATOM     40  C   UNL     1       1.125  -6.408  -1.103  1.00  0.00     0.029 A 
ATOM     41  N   UNL     1      -0.032  -8.133  -0.341  1.00  0.00    -0.354 N 
ATOM     42  C   UNL     1      -0.027  -9.363   3.732  1.00  0.00     0.074 A 
ATOM     43  C   UNL     1      -0.524  -8.107   4.219  1.00  0.00     0.031 C 
ATOM     44  C   UNL     1       0.160  -6.673  -2.016  1.00  0.00     0.029 A 
ATOM     45  C   UNL     1      -0.636  -7.797  -1.551  1.00  0.00     0.049 A 
ATOM     46  H   UNL     1      -0.252  -8.952   0.159  1.00  0.00     0.167 HD
ATOM     47  C   UNL     1      -0.460 -10.633   3.975  1.00  0.00     0.034 A 
ATOM     48  C   UNL     1      -1.736  -8.368  -2.115  1.00  0.00     0.034 A 
ATOM     49  C   UNL     1       0.333 -11.612   3.273  1.00  0.00     0.049 A 
ATOM     50  C   UNL     1      -1.828  -9.746  -1.579  1.00  0.00     0.074 A 
ATOM     51  C   UNL     1       1.681 -11.909   3.210  1.00  0.00     0.029 A 
ATOM     52  N   UNL     1      -0.227 -12.254   2.192  1.00  0.00    -0.354 N 
ATOM     53  N   UNL     1      -0.925 -10.662  -1.801  1.00  0.00    -0.248 NA
ATOM     54  C   UNL     1      -2.704 -10.006  -0.448  1.00  0.00     0.031 C 
ATOM     55  C   UNL     1       1.919 -12.234   1.841  1.00  0.00     0.029 A 
ATOM     56  C   UNL     1       0.693 -12.165   1.176  1.00  0.00     0.049 A 
ATOM     57  H   UNL     1      -1.109 -12.690   2.154  1.00  0.00     0.167 HD
ATOM     58  C   UNL     1      -0.823 -11.356  -0.607  1.00  0.00     0.074 A 
ATOM     59  C   UNL     1      -2.028 -10.998   0.138  1.00  0.00     0.031 C 
ATOM     60  C   UNL     1       0.356 -11.922  -0.212  1.00  0.00     0.034 A 
BRANCH  47  61
ATOM     61  C   UNL     1      -1.772 -11.002   4.635  1.00  0.00     0.023 A 
ATOM     62  C   UNL     1      -1.983 -12.354   4.969  1.00  0.00     0.031 A 
ATOM     63  C   UNL     1      -2.906 -10.164   4.735  1.00  0.00     0.131 A 
ATOM     64  C   UNL     1      -3.260 -12.824   5.325  1.00  0.00     0.055 A 
ATOM     65  C   UNL     1      -4.153 -10.617   5.179  1.00  0.00     0.041 A 
ATOM     66  F   UNL     1      -2.902  -8.894   4.312  1.00  0.00    -0.206 F 
ATOM     67  C   UNL     1      -4.343 -11.960   5.454  1.00  0.00     0.022 A 
BRANCH  64  68
ATOM     68  S   UNL     1      -3.525 -14.615   5.426  1.00  0.00     0.124 S 
ATOM     69  O   UNL     1      -2.956 -15.072   4.162  1.00  0.00    -0.237 OA
ATOM     70  O   UNL     1      -2.780 -14.962   6.631  1.00  0.00    -0.237 OA
ATOM     71  O   UNL     1      -4.977 -14.737   5.533  1.00  0.00    -0.744 OA
ENDBRANCH  64  68
ENDBRANCH  47  61
BRANCH  48  72
ATOM     72  C   UNL     1      -2.828  -7.699  -2.880  1.00  0.00     0.023 A 
ATOM     73  C   UNL     1      -3.724  -8.392  -3.721  1.00  0.00     0.031 A 
ATOM     74  C   UNL     1      -3.151  -6.352  -2.597  1.00  0.00     0.131 A 
ATOM     75  C   UNL     1      -4.865  -7.737  -4.248  1.00  0.00     0.055 A 
ATOM     76  C   UNL     1      -4.272  -5.707  -3.126  1.00  0.00     0.041 A 
ATOM     77  F   UNL     1      -2.427  -5.639  -1.723  1.00  0.00    -0.206 F 
ATOM     78  C   UNL     1      -5.139  -6.399  -3.953  1.00  0.00     0.022 A 
BRANCH  75  79
ATOM     79  S   UNL     1      -6.080  -8.654  -5.253  1.00  0.00     0.124 S 
ATOM     80  O   UNL     1      -5.349  -8.877  -6.495  1.00  0.00    -0.237 OA
ATOM     81  O   UNL     1      -6.342  -9.831  -4.432  1.00  0.00    -0.237 OA
ATOM     82  O   UNL     1      -7.205  -7.724  -5.362  1.00  0.00    -0.744 OA
ENDBRANCH  75  79
ENDBRANCH  48  72
BRANCH  60  83
ATOM     83  C   UNL     1       1.489 -12.035  -1.212  1.00  0.00     0.023 A 
ATOM     84  C   UNL     1       2.061 -10.936  -1.890  1.00  0.00     0.031 A 
ATOM     85  C   UNL     1       2.118 -13.285  -1.354  1.00  0.00     0.131 A 
ATOM     86  C   UNL     1       3.215 -11.111  -2.678  1.00  0.00     0.055 A 
ATOM     87  C   UNL     1       3.273 -13.452  -2.118  1.00  0.00     0.041 A 
ATOM     88  F   UNL     1       1.645 -14.363  -0.706  1.00  0.00    -0.206 F 
ATOM     89  C   UNL     1       3.825 -12.364  -2.787  1.00  0.00     0.022 A 
BRANCH  86  90
ATOM     90  S   UNL     1       3.948  -9.695  -3.558  1.00  0.00     0.124 S 
ATOM     91  O   UNL     1       2.834  -9.168  -4.338  1.00  0.00    -0.237 OA
ATOM     92  O   UNL     1       4.423  -8.849  -2.466  1.00  0.00    -0.237 OA
ATOM     93  O   UNL     1       5.013 -10.305  -4.357  1.00  0.00    -0.744 OA
ENDBRANCH  86  90
ENDBRANCH  60  83
ENDBRANCH  34  35
ENDBRANCH  26  29
ENDBRANCH  24  25
ENDBRANCH   1  24
TORSDOF 16
