REMARK SMILES CC[C@@H](C)[C@@H](C)Nc1cccc(F)c1C(=O)NCCCNC(=O)c1ccc(-c2c3nc(c(-c4cc(S(=O)(=O)[O-])ccc4F)c4ccc([nH]4)c(-c4cc(S(=O)(=O)[O-])ccc4F)c4nc(c(-c5cc(S(=O)(=O)[O-])ccc5F)c5ccc2[nH]5)C=C4)C=C3)cc1
REMARK SMILES IDX 18 1 17 2 15 3 16 4 14 6 8 7 9 8 10 9 12 10 11 11 13 12 7 13
REMARK SMILES IDX 5 15 6 16 3 17 4 18 2 19 1 20 19 21 20 22 21 23 22 24 23 26
REMARK SMILES IDX 24 27 25 28 86 29 26 30 85 31 27 32 28 33 29 34 79 35 30 36
REMARK SMILES IDX 84 37 78 38 80 39 31 40 83 41 77 42 76 43 32 45 64 46 44 47
REMARK SMILES IDX 63 48 45 49 48 50 62 51 81 52 46 53 47 54 61 56 82 57 49 58
REMARK SMILES IDX 33 59 34 60 42 61 35 62 41 63 43 64 40 65 36 66 37 67 38 68
REMARK SMILES IDX 39 69 65 70 66 71 74 72 67 73 73 74 75 75 72 76 68 77 69 78
REMARK SMILES IDX 70 79 71 80 50 81 51 82 59 83 52 84 58 85 60 86 57 87 53 88
REMARK SMILES IDX 54 89 55 90 56 91
REMARK H PARENT 17 5 7 14 21 25 80 44 48 55
REMARK Flexibility Score: inf
ROOT
ATOM      1  C   UNL     1       0.867   5.093   6.888  1.00  0.00     0.118 C 
ENDROOT
BRANCH   1   2
ATOM      2  N   UNL     1       1.659   4.029   6.299  1.00  0.00    -0.352 N 
ATOM      3  C   UNL     1       1.517   2.668   6.213  1.00  0.00     0.256 C 
ATOM      4  O   UNL     1       2.483   2.075   5.718  1.00  0.00    -0.269 OA
ATOM      5  H   UNL     1       2.480   4.357   5.866  1.00  0.00     0.163 HD
BRANCH   3   6
ATOM      6  C   UNL     1       0.289   1.890   6.579  1.00  0.00     0.098 A 
ATOM      7  C   UNL     1       0.002   0.698   5.846  1.00  0.00     0.050 A 
ATOM      8  C   UNL     1      -1.167  -0.022   6.155  1.00  0.00     0.027 A 
ATOM      9  C   UNL     1      -2.037   0.391   7.160  1.00  0.00     0.005 A 
ATOM     10  C   UNL     1      -0.572   2.247   7.620  1.00  0.00     0.138 A 
ATOM     11  C   UNL     1      -1.735   1.526   7.895  1.00  0.00     0.040 A 
ATOM     12  F   UNL     1      -0.305   3.262   8.448  1.00  0.00    -0.206 F 
BRANCH   7  13
ATOM     13  N   UNL     1       0.839   0.266   4.826  1.00  0.00    -0.382 N 
ATOM     14  H   UNL     1       1.788   0.520   4.898  1.00  0.00     0.160 HD
BRANCH  13  15
ATOM     15  C   UNL     1       0.465  -0.522   3.664  1.00  0.00     0.079 C 
ATOM     16  C   UNL     1       1.049  -1.926   3.844  1.00  0.00     0.031 C 
BRANCH  15  17
ATOM     17  C   UNL     1       0.986   0.194   2.380  1.00  0.00     0.008 C 
ATOM     18  C   UNL     1       0.470   1.644   2.319  1.00  0.00     0.010 C 
BRANCH  17  19
ATOM     19  C   UNL     1       0.583  -0.584   1.108  1.00  0.00     0.002 C 
ATOM     20  C   UNL     1       1.094   0.033  -0.188  1.00  0.00     0.004 C 
ENDBRANCH  17  19
ENDBRANCH  15  17
ENDBRANCH  13  15
ENDBRANCH   7  13
ENDBRANCH   3   6
ENDBRANCH   1   2
BRANCH   1  21
ATOM     21  C   UNL     1       1.403   5.451   8.277  1.00  0.00     0.042 C 
BRANCH  21  22
ATOM     22  C   UNL     1       2.717   6.232   8.241  1.00  0.00     0.118 C 
BRANCH  22  23
ATOM     23  N   UNL     1       2.527   7.591   7.755  1.00  0.00    -0.352 N 
ATOM     24  C   UNL     1       2.759   8.792   8.380  1.00  0.00     0.251 C 
ATOM     25  H   UNL     1       2.178   7.660   6.837  1.00  0.00     0.163 HD
ATOM     26  O   UNL     1       2.292   9.817   7.894  1.00  0.00    -0.269 OA
BRANCH  24  27
ATOM     27  C   UNL     1       3.555   8.856   9.627  1.00  0.00     0.039 A 
ATOM     28  C   UNL     1       3.151   9.731  10.640  1.00  0.00     0.014 A 
ATOM     29  C   UNL     1       4.723   8.103   9.783  1.00  0.00     0.014 A 
ATOM     30  C   UNL     1       3.886   9.811  11.826  1.00  0.00     0.010 A 
ATOM     31  C   UNL     1       5.418   8.135  10.991  1.00  0.00     0.010 A 
ATOM     32  C   UNL     1       5.009   8.991  12.024  1.00  0.00    -0.014 A 
BRANCH  32  33
ATOM     33  C   UNL     1       5.768   9.020  13.302  1.00  0.00     0.031 A 
ATOM     34  C   UNL     1       7.201   9.480  13.323  1.00  0.00     0.074 A 
ATOM     35  C   UNL     1       5.181   8.587  14.435  1.00  0.00     0.049 A 
ATOM     36  N   UNL     1       8.051   9.491  14.317  1.00  0.00    -0.248 NA
ATOM     37  C   UNL     1       7.756   9.972  12.052  1.00  0.00     0.031 C 
ATOM     38  C   UNL     1       3.804   8.099  14.539  1.00  0.00     0.029 A 
ATOM     39  N   UNL     1       5.664   8.486  15.716  1.00  0.00    -0.354 N 
ATOM     40  C   UNL     1       9.243   9.978  13.792  1.00  0.00     0.074 A 
ATOM     41  C   UNL     1       9.020  10.203  12.380  1.00  0.00     0.031 C 
ATOM     42  C   UNL     1       3.542   7.788  15.818  1.00  0.00     0.029 A 
ATOM     43  C   UNL     1       4.744   8.004  16.617  1.00  0.00     0.049 A 
ATOM     44  H   UNL     1       6.582   8.736  15.966  1.00  0.00     0.167 HD
ATOM     45  C   UNL     1      10.409  10.235  14.434  1.00  0.00     0.034 A 
ATOM     46  C   UNL     1       4.855   7.753  17.937  1.00  0.00     0.034 A 
ATOM     47  C   UNL     1      10.612  10.027  15.846  1.00  0.00     0.049 A 
ATOM     48  C   UNL     1       6.170   8.012  18.622  1.00  0.00     0.074 A 
ATOM     49  C   UNL     1      11.742  10.291  16.601  1.00  0.00     0.029 A 
ATOM     50  N   UNL     1       9.664   9.507  16.718  1.00  0.00    -0.354 N 
ATOM     51  N   UNL     1       7.289   8.466  18.109  1.00  0.00    -0.248 NA
ATOM     52  C   UNL     1       6.238   7.723  20.061  1.00  0.00     0.031 C 
ATOM     53  C   UNL     1      11.498   9.880  17.914  1.00  0.00     0.029 A 
ATOM     54  C   UNL     1      10.192   9.421  17.996  1.00  0.00     0.049 A 
ATOM     55  H   UNL     1       8.751   9.239  16.465  1.00  0.00     0.167 HD
ATOM     56  C   UNL     1       8.190   8.536  19.166  1.00  0.00     0.074 A 
ATOM     57  C   UNL     1       7.484   8.080  20.346  1.00  0.00     0.031 C 
ATOM     58  C   UNL     1       9.482   8.949  19.160  1.00  0.00     0.034 A 
BRANCH  45  59
ATOM     59  C   UNL     1      11.559  10.757  13.611  1.00  0.00     0.023 A 
ATOM     60  C   UNL     1      11.518  12.030  13.017  1.00  0.00     0.031 A 
ATOM     61  C   UNL     1      12.715   9.978  13.428  1.00  0.00     0.131 A 
ATOM     62  C   UNL     1      12.591  12.466  12.225  1.00  0.00     0.055 A 
ATOM     63  C   UNL     1      13.808  10.445  12.695  1.00  0.00     0.041 A 
ATOM     64  F   UNL     1      12.802   8.748  13.959  1.00  0.00    -0.206 F 
ATOM     65  C   UNL     1      13.746  11.693  12.081  1.00  0.00     0.022 A 
BRANCH  62  66
ATOM     66  S   UNL     1      12.420  14.023  11.312  1.00  0.00     0.124 S 
ATOM     67  O   UNL     1      11.331  13.705  10.392  1.00  0.00    -0.237 OA
ATOM     68  O   UNL     1      12.105  14.978  12.368  1.00  0.00    -0.237 OA
ATOM     69  O   UNL     1      13.728  14.198  10.685  1.00  0.00    -0.744 OA
ENDBRANCH  62  66
ENDBRANCH  45  59
BRANCH  46  70
ATOM     70  C   UNL     1       3.685   7.227  18.692  1.00  0.00     0.023 A 
ATOM     71  C   UNL     1       3.008   8.032  19.620  1.00  0.00     0.031 A 
ATOM     72  C   UNL     1       3.214   5.920  18.477  1.00  0.00     0.131 A 
ATOM     73  C   UNL     1       1.902   7.516  20.314  1.00  0.00     0.055 A 
ATOM     74  C   UNL     1       2.092   5.424  19.142  1.00  0.00     0.041 A 
ATOM     75  F   UNL     1       3.822   5.117  17.589  1.00  0.00    -0.206 F 
ATOM     76  C   UNL     1       1.431   6.223  20.071  1.00  0.00     0.022 A 
BRANCH  73  77
ATOM     77  S   UNL     1       1.087   8.559  21.554  1.00  0.00     0.124 S 
ATOM     78  O   UNL     1       2.136   8.701  22.557  1.00  0.00    -0.237 OA
ATOM     79  O   UNL     1       0.766   9.757  20.785  1.00  0.00    -0.237 OA
ATOM     80  O   UNL     1      -0.067   7.760  21.964  1.00  0.00    -0.744 OA
ENDBRANCH  73  77
ENDBRANCH  46  70
BRANCH  58  81
ATOM     81  C   UNL     1      10.214   8.956  20.475  1.00  0.00     0.023 A 
ATOM     82  C   UNL     1      10.624   7.764  21.094  1.00  0.00     0.031 A 
ATOM     83  C   UNL     1      10.550  10.177  21.087  1.00  0.00     0.131 A 
ATOM     84  C   UNL     1      11.330   7.817  22.305  1.00  0.00     0.055 A 
ATOM     85  C   UNL     1      11.290  10.225  22.268  1.00  0.00     0.041 A 
ATOM     86  F   UNL     1      10.182  11.342  20.531  1.00  0.00    -0.206 F 
ATOM     87  C   UNL     1      11.681   9.040  22.886  1.00  0.00     0.022 A 
BRANCH  84  88
ATOM     88  S   UNL     1      11.763   6.264  23.133  1.00  0.00     0.124 S 
ATOM     89  O   UNL     1      10.450   5.729  23.477  1.00  0.00    -0.237 OA
ATOM     90  O   UNL     1      12.492   5.544  22.094  1.00  0.00    -0.237 OA
ATOM     91  O   UNL     1      12.575   6.695  24.270  1.00  0.00    -0.744 OA
ENDBRANCH  84  88
ENDBRANCH  58  81
ENDBRANCH  32  33
ENDBRANCH  24  27
ENDBRANCH  22  23
ENDBRANCH  21  22
ENDBRANCH   1  21
TORSDOF 17
