REMARK SMILES CC1=NN(CC(=O)NCCCNC(=O)c2ccc(-c3c4nc(c(-c5cc(S(=O)(=O)[O-])ccc5F)c5ccc([nH]5)c(-c5cc(S(=O)(=O)[O-])ccc5F)c5nc(c(-c6cc(S(=O)(=O)[O-])ccc6F)c6ccc3[nH]6)C=C5)C=C4)cc2)C(=O)C1
REMARK SMILES IDX 11 1 10 2 9 3 8 4 6 5 7 6 5 8 4 9 1 10 2 11 3 12 80 13 78 14
REMARK SMILES IDX 79 15 12 16 13 17 14 19 15 20 16 21 77 22 17 23 76 24 18 25
REMARK SMILES IDX 19 26 20 27 70 28 21 29 75 30 69 31 71 32 22 33 74 34 68 35
REMARK SMILES IDX 67 36 23 38 55 39 35 40 54 41 36 42 39 43 53 44 72 45 37 46
REMARK SMILES IDX 38 47 52 49 73 50 40 51 24 52 25 53 33 54 26 55 32 56 34 57
REMARK SMILES IDX 31 58 27 59 28 60 29 61 30 62 56 63 57 64 65 65 58 66 64 67
REMARK SMILES IDX 66 68 63 69 59 70 60 71 61 72 62 73 41 74 42 75 50 76 43 77
REMARK SMILES IDX 49 78 51 79 48 80 44 81 45 82 46 83 47 84
REMARK H PARENT 8 7 12 18 71 37 39 48
REMARK Flexibility Score: inf
ROOT
ATOM      1  C   UNL     1       0.810   1.153  -4.696  1.00  0.00     0.118 C 
ENDROOT
BRANCH   1   2
ATOM      2  C   UNL     1       1.212   0.624  -3.321  1.00  0.00     0.042 C 
BRANCH   2   3
ATOM      3  C   UNL     1       2.158   1.546  -2.560  1.00  0.00     0.117 C 
BRANCH   3   4
ATOM      4  N   UNL     1       1.527   2.796  -2.187  1.00  0.00    -0.354 N 
ATOM      5  C   UNL     1       1.109   3.218  -0.957  1.00  0.00     0.241 C 
ATOM      6  O   UNL     1       0.739   4.392  -0.852  1.00  0.00    -0.273 OA
ATOM      7  H   UNL     1       1.378   3.431  -2.925  1.00  0.00     0.163 HD
BRANCH   5   8
ATOM      8  C   UNL     1       1.249   2.320   0.269  1.00  0.00     0.247 C 
BRANCH   8   9
ATOM      9  N   UNL     1       0.499   1.082   0.184  1.00  0.00    -0.224 N 
ATOM     10  C   UNL     1      -2.651  -0.608  -0.073  1.00  0.00     0.064 C 
ATOM     11  C   UNL     1      -1.239  -0.157   0.053  1.00  0.00     0.045 C 
ATOM     12  N   UNL     1      -0.872   1.089   0.055  1.00  0.00    -0.179 NA
ATOM     13  C   UNL     1      -0.108  -1.129   0.196  1.00  0.00     0.155 C 
ATOM     14  C   UNL     1       1.055  -0.190   0.298  1.00  0.00     0.248 C 
ATOM     15  O   UNL     1       2.224  -0.495   0.447  1.00  0.00    -0.273 OA
ENDBRANCH   8   9
ENDBRANCH   5   8
ENDBRANCH   3   4
ENDBRANCH   2   3
ENDBRANCH   1   2
BRANCH   1  16
ATOM     16  N   UNL     1       1.942   1.270  -5.607  1.00  0.00    -0.352 N 
ATOM     17  C   UNL     1       2.148   0.702  -6.841  1.00  0.00     0.251 C 
ATOM     18  H   UNL     1       2.673   1.846  -5.287  1.00  0.00     0.163 HD
ATOM     19  O   UNL     1       3.260   0.778  -7.357  1.00  0.00    -0.269 OA
BRANCH  17  20
ATOM     20  C   UNL     1       1.053  -0.014  -7.531  1.00  0.00     0.039 A 
ATOM     21  C   UNL     1       1.338  -1.215  -8.187  1.00  0.00     0.014 A 
ATOM     22  C   UNL     1      -0.245   0.500  -7.552  1.00  0.00     0.014 A 
ATOM     23  C   UNL     1       0.308  -1.934  -8.801  1.00  0.00     0.010 A 
ATOM     24  C   UNL     1      -1.283  -0.255  -8.095  1.00  0.00     0.010 A 
ATOM     25  C   UNL     1      -1.019  -1.481  -8.725  1.00  0.00    -0.014 A 
BRANCH  25  26
ATOM     26  C   UNL     1      -2.143  -2.264  -9.305  1.00  0.00     0.031 A 
ATOM     27  C   UNL     1      -2.974  -1.676 -10.414  1.00  0.00     0.074 A 
ATOM     28  C   UNL     1      -2.455  -3.474  -8.796  1.00  0.00     0.049 A 
ATOM     29  N   UNL     1      -4.067  -2.138 -10.964  1.00  0.00    -0.248 NA
ATOM     30  C   UNL     1      -2.529  -0.383 -10.957  1.00  0.00     0.031 C 
ATOM     31  C   UNL     1      -1.739  -4.142  -7.707  1.00  0.00     0.029 A 
ATOM     32  N   UNL     1      -3.463  -4.351  -9.113  1.00  0.00    -0.354 N 
ATOM     33  C   UNL     1      -4.440  -1.196 -11.917  1.00  0.00     0.074 A 
ATOM     34  C   UNL     1      -3.496  -0.103 -11.817  1.00  0.00     0.031 C 
ATOM     35  C   UNL     1      -2.321  -5.326  -7.457  1.00  0.00     0.029 A 
ATOM     36  C   UNL     1      -3.486  -5.480  -8.324  1.00  0.00     0.049 A 
ATOM     37  H   UNL     1      -4.110  -4.188  -9.837  1.00  0.00     0.167 HD
ATOM     38  C   UNL     1      -5.457  -1.249 -12.813  1.00  0.00     0.034 A 
ATOM     39  C   UNL     1      -4.359  -6.507  -8.283  1.00  0.00     0.034 A 
ATOM     40  C   UNL     1      -6.390  -2.345 -12.904  1.00  0.00     0.049 A 
ATOM     41  C   UNL     1      -5.522  -6.513  -9.249  1.00  0.00     0.074 A 
ATOM     42  C   UNL     1      -7.449  -2.504 -13.781  1.00  0.00     0.029 A 
ATOM     43  N   UNL     1      -6.378  -3.470 -12.090  1.00  0.00    -0.354 N 
ATOM     44  N   UNL     1      -5.845  -5.621 -10.158  1.00  0.00    -0.248 NA
ATOM     45  C   UNL     1      -6.429  -7.667  -9.194  1.00  0.00     0.031 C 
ATOM     46  C   UNL     1      -8.115  -3.689 -13.456  1.00  0.00     0.029 A 
ATOM     47  C   UNL     1      -7.422  -4.315 -12.433  1.00  0.00     0.049 A 
ATOM     48  H   UNL     1      -5.724  -3.643 -11.375  1.00  0.00     0.167 HD
ATOM     49  C   UNL     1      -6.965  -6.133 -10.809  1.00  0.00     0.074 A 
ATOM     50  C   UNL     1      -7.253  -7.413 -10.199  1.00  0.00     0.031 C 
ATOM     51  C   UNL     1      -7.690  -5.595 -11.823  1.00  0.00     0.034 A 
BRANCH  38  52
ATOM     52  C   UNL     1      -5.615  -0.084 -13.758  1.00  0.00     0.023 A 
ATOM     53  C   UNL     1      -4.622   0.233 -14.701  1.00  0.00     0.031 A 
ATOM     54  C   UNL     1      -6.768   0.720 -13.723  1.00  0.00     0.131 A 
ATOM     55  C   UNL     1      -4.769   1.359 -15.524  1.00  0.00     0.055 A 
ATOM     56  C   UNL     1      -6.946   1.791 -14.601  1.00  0.00     0.041 A 
ATOM     57  F   UNL     1      -7.741   0.481 -12.830  1.00  0.00    -0.206 F 
ATOM     58  C   UNL     1      -5.937   2.124 -15.500  1.00  0.00     0.022 A 
BRANCH  55  59
ATOM     59  S   UNL     1      -3.357   1.883 -16.533  1.00  0.00     0.124 S 
ATOM     60  O   UNL     1      -2.345   2.139 -15.510  1.00  0.00    -0.237 OA
ATOM     61  O   UNL     1      -3.126   0.721 -17.382  1.00  0.00    -0.237 OA
ATOM     62  O   UNL     1      -3.851   3.073 -17.222  1.00  0.00    -0.744 OA
ENDBRANCH  55  59
ENDBRANCH  38  52
BRANCH  39  63
ATOM     63  C   UNL     1      -4.206  -7.603  -7.280  1.00  0.00     0.023 A 
ATOM     64  C   UNL     1      -4.041  -8.938  -7.683  1.00  0.00     0.031 A 
ATOM     65  C   UNL     1      -4.311  -7.344  -5.901  1.00  0.00     0.131 A 
ATOM     66  C   UNL     1      -4.065  -9.967  -6.729  1.00  0.00     0.055 A 
ATOM     67  C   UNL     1      -4.258  -8.365  -4.950  1.00  0.00     0.041 A 
ATOM     68  F   UNL     1      -4.469  -6.088  -5.454  1.00  0.00    -0.206 F 
ATOM     69  C   UNL     1      -4.157  -9.689  -5.364  1.00  0.00     0.022 A 
BRANCH  66  70
ATOM     70  S   UNL     1      -4.123 -11.685  -7.310  1.00  0.00     0.124 S 
ATOM     71  O   UNL     1      -5.287 -11.660  -8.187  1.00  0.00    -0.237 OA
ATOM     72  O   UNL     1      -2.827 -11.825  -7.965  1.00  0.00    -0.237 OA
ATOM     73  O   UNL     1      -4.285 -12.454  -6.078  1.00  0.00    -0.744 OA
ENDBRANCH  66  70
ENDBRANCH  39  63
BRANCH  51  74
ATOM     74  C   UNL     1      -8.820  -6.426 -12.385  1.00  0.00     0.023 A 
ATOM     75  C   UNL     1      -9.964  -6.737 -11.631  1.00  0.00     0.031 A 
ATOM     76  C   UNL     1      -8.745  -6.909 -13.704  1.00  0.00     0.131 A 
ATOM     77  C   UNL     1     -10.963  -7.553 -12.183  1.00  0.00     0.055 A 
ATOM     78  C   UNL     1      -9.772  -7.665 -14.270  1.00  0.00     0.041 A 
ATOM     79  F   UNL     1      -7.674  -6.645 -14.469  1.00  0.00    -0.206 F 
ATOM     80  C   UNL     1     -10.884  -8.002 -13.504  1.00  0.00     0.022 A 
BRANCH  77  81
ATOM     81  S   UNL     1     -12.331  -8.096 -11.122  1.00  0.00     0.124 S 
ATOM     82  O   UNL     1     -11.626  -8.795 -10.053  1.00  0.00    -0.237 OA
ATOM     83  O   UNL     1     -12.959  -6.832 -10.752  1.00  0.00    -0.237 OA
ATOM     84  O   UNL     1     -13.129  -8.950 -12.001  1.00  0.00    -0.744 OA
ENDBRANCH  77  81
ENDBRANCH  51  74
ENDBRANCH  25  26
ENDBRANCH  17  20
ENDBRANCH   1  16
TORSDOF 14
