REMARK SMILES O=C(CCn1ccnc1)N[C@H]1C=C[C@H](C(=O)NCCCNC(=O)c2ccc(-c3c4nc(c(-c5cc(S(=O)(=O)[O-])ccc5F)c5ccc([nH]5)c(-c5cc(S(=O)(=O)[O-])ccc5F)c5nc(c(-c6cc(S(=O)(=O)[O-])ccc6F)c6ccc3[nH]6)C=C5)C=C4)cc2)C1
REMARK SMILES IDX 18 1 17 2 15 3 16 4 14 6 11 7 12 8 87 9 13 10 10 11 1 12
REMARK SMILES IDX 2 13 3 15 4 16 5 17 6 18 9 19 7 20 8 21 19 22 20 23 21 24
REMARK SMILES IDX 22 25 23 27 24 28 25 29 86 30 26 31 85 32 27 33 28 34 29 35
REMARK SMILES IDX 79 36 30 37 84 38 78 39 80 40 31 41 83 42 77 43 76 44 32 46
REMARK SMILES IDX 64 47 44 48 63 49 45 50 48 51 62 52 81 53 46 54 47 55 61 57
REMARK SMILES IDX 82 58 49 59 33 60 34 61 42 62 35 63 41 64 43 65 40 66 36 67
REMARK SMILES IDX 37 68 38 69 39 70 65 71 66 72 74 73 67 74 73 75 75 76 72 77
REMARK SMILES IDX 68 78 69 79 70 80 71 81 50 82 51 83 59 84 52 85 58 86 60 87
REMARK SMILES IDX 57 88 53 89 54 90 55 91 56 92
REMARK H PARENT 17 5 10 14 21 26 80 45 48 56
REMARK Flexibility Score: inf
ROOT
ATOM      1  C   UNL     1       0.055   1.778  -4.796  1.00  0.00     0.117 C 
ENDROOT
BRANCH   1   2
ATOM      2  N   UNL     1       0.327   3.190  -4.589  1.00  0.00    -0.356 N 
ATOM      3  C   UNL     1       0.632   3.909  -3.475  1.00  0.00     0.227 C 
ATOM      4  O   UNL     1       0.912   5.102  -3.641  1.00  0.00    -0.274 OA
ATOM      5  H   UNL     1       0.281   3.729  -5.411  1.00  0.00     0.163 HD
BRANCH   3   6
ATOM      6  C   UNL     1       0.728   3.313  -2.064  1.00  0.00     0.103 C 
ATOM      7  C   UNL     1       1.761   1.111  -1.726  1.00  0.00     0.106 C 
ATOM      8  C   UNL     1       0.289   1.076  -1.509  1.00  0.00    -0.006 C 
ATOM      9  C   UNL     1       2.068   2.615  -1.801  1.00  0.00     0.047 C 
ATOM     10  C   UNL     1      -0.276   2.275  -1.689  1.00  0.00    -0.016 C 
BRANCH   7  11
ATOM     11  N   UNL     1       2.559   0.460  -0.707  1.00  0.00    -0.350 N 
ATOM     12  O   UNL     1       0.977  -0.408   0.736  1.00  0.00    -0.275 OA
ATOM     13  C   UNL     1       2.144  -0.218   0.410  1.00  0.00     0.222 C 
ATOM     14  H   UNL     1       3.534   0.512  -0.834  1.00  0.00     0.164 HD
BRANCH  13  15
ATOM     15  C   UNL     1       3.261  -0.714   1.305  1.00  0.00     0.122 C 
BRANCH  15  16
ATOM     16  C   UNL     1       4.160  -1.757   0.649  1.00  0.00     0.133 C 
BRANCH  16  17
ATOM     17  N   UNL     1       5.176  -1.259  -0.259  1.00  0.00    -0.337 N 
ATOM     18  C   UNL     1       5.777  -0.030  -0.275  1.00  0.00     0.107 A 
ATOM     19  C   UNL     1       5.693  -1.975  -1.305  1.00  0.00     0.199 A 
ATOM     20  C   UNL     1       6.549  -0.024  -1.414  1.00  0.00     0.130 A 
ATOM     21  N   UNL     1       6.502  -1.242  -2.035  1.00  0.00    -0.245 NA
ENDBRANCH  16  17
ENDBRANCH  15  16
ENDBRANCH  13  15
ENDBRANCH   7  11
ENDBRANCH   3   6
ENDBRANCH   1   2
BRANCH   1  22
ATOM     22  C   UNL     1      -1.421   1.400  -4.653  1.00  0.00     0.042 C 
BRANCH  22  23
ATOM     23  C   UNL     1      -2.183   1.562  -5.957  1.00  0.00     0.118 C 
BRANCH  23  24
ATOM     24  N   UNL     1      -1.743   0.605  -6.975  1.00  0.00    -0.352 N 
ATOM     25  C   UNL     1      -2.051   0.570  -8.324  1.00  0.00     0.251 C 
ATOM     26  H   UNL     1      -1.147  -0.111  -6.656  1.00  0.00     0.163 HD
ATOM     27  O   UNL     1      -1.904  -0.456  -8.964  1.00  0.00    -0.269 OA
BRANCH  25  28
ATOM     28  C   UNL     1      -2.580   1.795  -8.953  1.00  0.00     0.039 A 
ATOM     29  C   UNL     1      -3.658   1.744  -9.838  1.00  0.00     0.014 A 
ATOM     30  C   UNL     1      -2.023   3.014  -8.578  1.00  0.00     0.014 A 
ATOM     31  C   UNL     1      -4.241   2.941 -10.249  1.00  0.00     0.010 A 
ATOM     32  C   UNL     1      -2.701   4.178  -8.845  1.00  0.00     0.010 A 
ATOM     33  C   UNL     1      -3.784   4.159  -9.715  1.00  0.00    -0.014 A 
BRANCH  33  34
ATOM     34  C   UNL     1      -4.528   5.400  -9.936  1.00  0.00     0.031 A 
ATOM     35  C   UNL     1      -5.987   5.286  -9.668  1.00  0.00     0.074 A 
ATOM     36  C   UNL     1      -3.954   6.604 -10.155  1.00  0.00     0.049 A 
ATOM     37  N   UNL     1      -6.940   5.268 -10.538  1.00  0.00    -0.248 NA
ATOM     38  C   UNL     1      -6.433   4.974  -8.300  1.00  0.00     0.031 C 
ATOM     39  C   UNL     1      -2.526   6.941 -10.164  1.00  0.00     0.029 A 
ATOM     40  N   UNL     1      -4.542   7.823 -10.315  1.00  0.00    -0.354 N 
ATOM     41  C   UNL     1      -8.122   5.226  -9.808  1.00  0.00     0.074 A 
ATOM     42  C   UNL     1      -7.745   4.811  -8.484  1.00  0.00     0.031 C 
ATOM     43  C   UNL     1      -2.370   8.280 -10.081  1.00  0.00     0.029 A 
ATOM     44  C   UNL     1      -3.673   8.908 -10.197  1.00  0.00     0.049 A 
ATOM     45  H   UNL     1      -5.503   7.929 -10.500  1.00  0.00     0.167 HD
ATOM     46  C   UNL     1      -9.258   5.806 -10.290  1.00  0.00     0.034 A 
ATOM     47  C   UNL     1      -3.991  10.231 -10.192  1.00  0.00     0.034 A 
ATOM     48  C   UNL     1      -9.135   6.068 -11.711  1.00  0.00     0.049 A 
ATOM     49  C   UNL     1      -5.297  10.350 -10.884  1.00  0.00     0.074 A 
ATOM     50  C   UNL     1      -8.849   5.289 -12.817  1.00  0.00     0.029 A 
ATOM     51  N   UNL     1      -8.903   7.366 -12.114  1.00  0.00    -0.354 N 
ATOM     52  N   UNL     1      -5.462  10.063 -12.147  1.00  0.00    -0.248 NA
ATOM     53  C   UNL     1      -6.505  10.305 -10.077  1.00  0.00     0.031 C 
ATOM     54  C   UNL     1      -7.973   6.090 -13.612  1.00  0.00     0.029 A 
ATOM     55  C   UNL     1      -7.859   7.343 -13.007  1.00  0.00     0.049 A 
ATOM     56  H   UNL     1      -9.396   8.165 -11.816  1.00  0.00     0.167 HD
ATOM     57  C   UNL     1      -6.660   9.367 -12.199  1.00  0.00     0.074 A 
ATOM     58  C   UNL     1      -7.308   9.642 -10.916  1.00  0.00     0.031 C 
ATOM     59  C   UNL     1      -6.884   8.411 -13.149  1.00  0.00     0.034 A 
BRANCH  46  60
ATOM     60  C   UNL     1     -10.305   6.496  -9.437  1.00  0.00     0.023 A 
ATOM     61  C   UNL     1     -11.396   7.078 -10.111  1.00  0.00     0.031 A 
ATOM     62  C   UNL     1     -10.158   6.870  -8.081  1.00  0.00     0.131 A 
ATOM     63  C   UNL     1     -12.187   8.063  -9.496  1.00  0.00     0.055 A 
ATOM     64  C   UNL     1     -10.993   7.799  -7.452  1.00  0.00     0.041 A 
ATOM     65  F   UNL     1      -9.157   6.438  -7.308  1.00  0.00    -0.206 F 
ATOM     66  C   UNL     1     -11.992   8.431  -8.169  1.00  0.00     0.022 A 
BRANCH  63  67
ATOM     67  S   UNL     1     -13.350   8.991 -10.527  1.00  0.00     0.124 S 
ATOM     68  O   UNL     1     -12.471   9.481 -11.584  1.00  0.00    -0.237 OA
ATOM     69  O   UNL     1     -14.304   7.956 -10.909  1.00  0.00    -0.237 OA
ATOM     70  O   UNL     1     -13.866  10.012  -9.619  1.00  0.00    -0.744 OA
ENDBRANCH  63  67
ENDBRANCH  46  60
BRANCH  47  71
ATOM     71  C   UNL     1      -3.390  11.317  -9.367  1.00  0.00     0.023 A 
ATOM     72  C   UNL     1      -3.574  12.690  -9.650  1.00  0.00     0.031 A 
ATOM     73  C   UNL     1      -2.826  11.004  -8.109  1.00  0.00     0.131 A 
ATOM     74  C   UNL     1      -3.212  13.672  -8.695  1.00  0.00     0.055 A 
ATOM     75  C   UNL     1      -2.473  11.977  -7.171  1.00  0.00     0.041 A 
ATOM     76  F   UNL     1      -2.683   9.730  -7.710  1.00  0.00    -0.206 F 
ATOM     77  C   UNL     1      -2.676  13.317  -7.456  1.00  0.00     0.022 A 
BRANCH  74  78
ATOM     78  S   UNL     1      -3.527  15.442  -9.011  1.00  0.00     0.124 S 
ATOM     79  O   UNL     1      -2.550  15.752 -10.048  1.00  0.00    -0.237 OA
ATOM     80  O   UNL     1      -4.928  15.446  -9.417  1.00  0.00    -0.237 OA
ATOM     81  O   UNL     1      -3.268  16.072  -7.716  1.00  0.00    -0.744 OA
ENDBRANCH  74  78
ENDBRANCH  47  71
BRANCH  59  82
ATOM     82  C   UNL     1      -5.939   8.333 -14.337  1.00  0.00     0.023 A 
ATOM     83  C   UNL     1      -4.536   8.163 -14.261  1.00  0.00     0.031 A 
ATOM     84  C   UNL     1      -6.522   8.331 -15.618  1.00  0.00     0.131 A 
ATOM     85  C   UNL     1      -3.776   8.016 -15.441  1.00  0.00     0.055 A 
ATOM     86  C   UNL     1      -5.771   8.162 -16.780  1.00  0.00     0.041 A 
ATOM     87  F   UNL     1      -7.851   8.466 -15.761  1.00  0.00    -0.206 F 
ATOM     88  C   UNL     1      -4.393   8.011 -16.697  1.00  0.00     0.022 A 
BRANCH  85  89
ATOM     89  S   UNL     1      -1.960   7.856 -15.375  1.00  0.00     0.124 S 
ATOM     90  O   UNL     1      -1.554   8.913 -14.457  1.00  0.00    -0.237 OA
ATOM     91  O   UNL     1      -1.779   6.488 -14.896  1.00  0.00    -0.237 OA
ATOM     92  O   UNL     1      -1.549   8.069 -16.765  1.00  0.00    -0.744 OA
ENDBRANCH  85  89
ENDBRANCH  59  82
ENDBRANCH  33  34
ENDBRANCH  25  28
ENDBRANCH  23  24
ENDBRANCH  22  23
ENDBRANCH   1  22
TORSDOF 17
