REMARK SMILES C[C@H](C(=O)NCCCNC(=O)c1ccc(-c2c3nc(c(-c4cc(S(=O)(=O)[O-])ccc4F)c4ccc([nH]4)c(-c4cc(S(=O)(=O)[O-])ccc4F)c4nc(c(-c5cc(S(=O)(=O)[O-])ccc5F)c5ccc2[nH]5)C=C4)C=C3)cc1)[C@@H](C)[N@H+]1CCCSCC1
REMARK SMILES IDX 3 1 4 2 5 3 2 5 1 6 75 7 76 8 77 9 78 11 83 13 82 14 81 15
REMARK SMILES IDX 80 16 79 17 6 19 7 20 8 21 9 22 10 23 11 25 12 26 13 27
REMARK SMILES IDX 74 28 14 29 73 30 15 31 16 32 17 33 67 34 18 35 72 36 66 37
REMARK SMILES IDX 68 38 19 39 71 40 65 41 64 42 20 44 52 45 32 46 51 47 33 48
REMARK SMILES IDX 36 49 50 50 69 51 34 52 35 53 49 55 70 56 37 57 21 58 22 59
REMARK SMILES IDX 30 60 23 61 29 62 31 63 28 64 24 65 25 66 26 67 27 68 53 69
REMARK SMILES IDX 54 70 62 71 55 72 61 73 63 74 60 75 56 76 57 77 58 78 59 79
REMARK SMILES IDX 38 80 39 81 47 82 40 83 46 84 48 85 45 86 41 87 42 88 43 89
REMARK SMILES IDX 44 90
REMARK H PARENT 5 4 77 10 9 24 68 43 36 54
REMARK Flexibility Score: 80.00
ROOT
ATOM      1  C   UNL     1       1.031   0.236  -0.371  1.00  0.00     0.228 C 
ATOM      2  O   UNL     1       2.184   0.566  -0.684  1.00  0.00    -0.275 OA
ATOM      3  N   UNL     1       0.310   1.187   0.280  1.00  0.00    -0.356 N 
ATOM      4  H   UNL     1       0.865   1.849   0.751  1.00  0.00     0.163 HD
ENDROOT
BRANCH   1   5
ATOM      5  C   UNL     1       0.607  -1.234  -0.570  1.00  0.00     0.133 C 
ATOM      6  C   UNL     1       1.181  -1.938   0.670  1.00  0.00     0.024 C 
BRANCH   5   7
ATOM      7  C   UNL     1      -0.890  -1.512  -0.909  1.00  0.00     0.193 C 
ATOM      8  C   UNL     1      -1.340  -0.557  -2.049  1.00  0.00     0.076 C 
BRANCH   7   9
ATOM      9  N   UNL     1      -1.373  -2.899  -1.212  1.00  0.00    -0.331 N 
ATOM     10  H   UNL     1      -2.389  -2.830  -1.145  1.00  0.00     0.348 HD
BRANCH   9  11
ATOM     11  C   UNL     1      -1.196  -3.324  -2.600  1.00  0.00     0.263 CG0
ATOM     12  G   UNL     1      -1.776  -4.675  -3.023  1.00  0.00     0.000 G0
ENDBRANCH   9  11
BRANCH   9  13
ATOM     13  C   UNL     1      -1.069  -3.895  -0.179  1.00  0.00     0.273 C 
BRANCH  13  14
ATOM     14  C   UNL     1      -2.075  -5.049  -0.065  1.00  0.00     0.131 C 
BRANCH  14  15
ATOM     15  S   UNL     1      -1.610  -6.564  -0.971  1.00  0.00    -0.156 SA
BRANCH  15  16
ATOM     16  C   UNL     1      -0.973  -5.856  -2.516  1.00  0.00     0.075 C 
BRANCH  16  17
ATOM     17  C   UNL     1      -1.776  -4.675  -3.023  1.00  0.00     0.072 CG0
ATOM     18  G   UNL     1      -1.196  -3.324  -2.600  1.00  0.00     0.000 G0
ENDBRANCH  16  17
ENDBRANCH  15  16
ENDBRANCH  14  15
ENDBRANCH  13  14
ENDBRANCH   9  13
ENDBRANCH   7   9
ENDBRANCH   5   7
ENDBRANCH   1   5
BRANCH   3  19
ATOM     19  C   UNL     1      -1.121   1.422   0.418  1.00  0.00     0.117 C 
BRANCH  19  20
ATOM     20  C   UNL     1      -1.541   1.979   1.757  1.00  0.00     0.042 C 
BRANCH  20  21
ATOM     21  C   UNL     1      -0.965   3.346   2.056  1.00  0.00     0.118 C 
BRANCH  21  22
ATOM     22  N   UNL     1      -1.359   4.360   1.083  1.00  0.00    -0.352 N 
ATOM     23  C   UNL     1      -2.118   5.495   1.240  1.00  0.00     0.251 C 
ATOM     24  H   UNL     1      -1.030   4.206   0.169  1.00  0.00     0.163 HD
ATOM     25  O   UNL     1      -2.488   6.113   0.243  1.00  0.00    -0.269 OA
BRANCH  23  26
ATOM     26  C   UNL     1      -2.510   5.949   2.592  1.00  0.00     0.039 A 
ATOM     27  C   UNL     1      -3.771   6.515   2.789  1.00  0.00     0.014 A 
ATOM     28  C   UNL     1      -1.634   5.814   3.670  1.00  0.00     0.014 A 
ATOM     29  C   UNL     1      -4.166   6.886   4.077  1.00  0.00     0.010 A 
ATOM     30  C   UNL     1      -2.083   6.038   4.962  1.00  0.00     0.010 A 
ATOM     31  C   UNL     1      -3.338   6.618   5.180  1.00  0.00    -0.014 A 
BRANCH  31  32
ATOM     32  C   UNL     1      -3.725   7.008   6.560  1.00  0.00     0.031 A 
ATOM     33  C   UNL     1      -2.846   7.955   7.338  1.00  0.00     0.074 A 
ATOM     34  C   UNL     1      -4.827   6.479   7.126  1.00  0.00     0.049 A 
ATOM     35  N   UNL     1      -2.961   8.370   8.573  1.00  0.00    -0.248 NA
ATOM     36  C   UNL     1      -1.649   8.466   6.648  1.00  0.00     0.031 C 
ATOM     37  C   UNL     1      -5.720   5.505   6.495  1.00  0.00     0.029 A 
ATOM     38  N   UNL     1      -5.384   6.685   8.362  1.00  0.00    -0.354 N 
ATOM     39  C   UNL     1      -1.850   9.175   8.806  1.00  0.00     0.074 A 
ATOM     40  C   UNL     1      -1.022   9.101   7.623  1.00  0.00     0.031 C 
ATOM     41  C   UNL     1      -6.733   5.231   7.331  1.00  0.00     0.029 A 
ATOM     42  C   UNL     1      -6.539   5.969   8.575  1.00  0.00     0.049 A 
ATOM     43  H   UNL     1      -4.994   7.289   9.035  1.00  0.00     0.167 HD
ATOM     44  C   UNL     1      -1.565   9.942   9.886  1.00  0.00     0.034 A 
ATOM     45  C   UNL     1      -7.346   5.912   9.652  1.00  0.00     0.034 A 
ATOM     46  C   UNL     1      -2.413  10.015  11.049  1.00  0.00     0.049 A 
ATOM     47  C   UNL     1      -7.012   6.767  10.848  1.00  0.00     0.074 A 
ATOM     48  C   UNL     1      -2.252  10.780  12.190  1.00  0.00     0.029 A 
ATOM     49  N   UNL     1      -3.588   9.291  11.220  1.00  0.00    -0.354 N 
ATOM     50  N   UNL     1      -5.982   7.562  11.036  1.00  0.00    -0.248 NA
ATOM     51  C   UNL     1      -7.960   6.736  11.967  1.00  0.00     0.031 C 
ATOM     52  C   UNL     1      -3.288  10.468  13.077  1.00  0.00     0.029 A 
ATOM     53  C   UNL     1      -4.149   9.576  12.455  1.00  0.00     0.049 A 
ATOM     54  H   UNL     1      -3.967   8.668  10.559  1.00  0.00     0.167 HD
ATOM     55  C   UNL     1      -6.179   8.152  12.281  1.00  0.00     0.074 A 
ATOM     56  C   UNL     1      -7.435   7.634  12.787  1.00  0.00     0.031 C 
ATOM     57  C   UNL     1      -5.399   9.043  12.946  1.00  0.00     0.034 A 
BRANCH  44  58
ATOM     58  C   UNL     1      -0.282  10.742   9.848  1.00  0.00     0.023 A 
ATOM     59  C   UNL     1      -0.043  11.705   8.850  1.00  0.00     0.031 A 
ATOM     60  C   UNL     1       0.741  10.504  10.783  1.00  0.00     0.131 A 
ATOM     61  C   UNL     1       1.215  12.317   8.748  1.00  0.00     0.055 A 
ATOM     62  C   UNL     1       1.957  11.190  10.736  1.00  0.00     0.041 A 
ATOM     63  F   UNL     1       0.587   9.581  11.746  1.00  0.00    -0.206 F 
ATOM     64  C   UNL     1       2.208  12.088   9.703  1.00  0.00     0.022 A 
BRANCH  61  65
ATOM     65  S   UNL     1       1.593  13.272   7.253  1.00  0.00     0.124 S 
ATOM     66  O   UNL     1       1.400  12.270   6.207  1.00  0.00    -0.237 OA
ATOM     67  O   UNL     1       0.604  14.342   7.303  1.00  0.00    -0.237 OA
ATOM     68  O   UNL     1       2.979  13.691   7.455  1.00  0.00    -0.744 OA
ENDBRANCH  61  65
ENDBRANCH  44  58
BRANCH  45  69
ATOM     69  C   UNL     1      -8.543   5.021   9.651  1.00  0.00     0.023 A 
ATOM     70  C   UNL     1      -9.843   5.546   9.730  1.00  0.00     0.031 A 
ATOM     71  C   UNL     1      -8.401   3.623   9.600  1.00  0.00     0.131 A 
ATOM     72  C   UNL     1     -10.945   4.679   9.805  1.00  0.00     0.055 A 
ATOM     73  C   UNL     1      -9.503   2.767   9.616  1.00  0.00     0.041 A 
ATOM     74  F   UNL     1      -7.181   3.067   9.515  1.00  0.00    -0.206 F 
ATOM     75  C   UNL     1     -10.785   3.294   9.733  1.00  0.00     0.022 A 
BRANCH  72  76
ATOM     76  S   UNL     1     -12.592   5.387  10.086  1.00  0.00     0.124 S 
ATOM     77  O   UNL     1     -12.396   6.109  11.338  1.00  0.00    -0.237 OA
ATOM     78  O   UNL     1     -12.776   6.207   8.893  1.00  0.00    -0.237 OA
ATOM     79  O   UNL     1     -13.457   4.212  10.171  1.00  0.00    -0.744 OA
ENDBRANCH  72  76
ENDBRANCH  45  69
BRANCH  57  80
ATOM     80  C   UNL     1      -5.917   9.555  14.270  1.00  0.00     0.023 A 
ATOM     81  C   UNL     1      -6.098   8.707  15.376  1.00  0.00     0.031 A 
ATOM     82  C   UNL     1      -6.256  10.912  14.416  1.00  0.00     0.131 A 
ATOM     83  C   UNL     1      -6.673   9.208  16.553  1.00  0.00     0.055 A 
ATOM     84  C   UNL     1      -6.757  11.421  15.615  1.00  0.00     0.041 A 
ATOM     85  F   UNL     1      -6.108  11.769  13.392  1.00  0.00    -0.206 F 
ATOM     86  C   UNL     1      -6.985  10.563  16.686  1.00  0.00     0.022 A 
BRANCH  83  87
ATOM     87  S   UNL     1      -7.127   8.039  17.863  1.00  0.00     0.124 S 
ATOM     88  O   UNL     1      -7.999   7.111  17.151  1.00  0.00    -0.237 OA
ATOM     89  O   UNL     1      -5.829   7.509  18.271  1.00  0.00    -0.237 OA
ATOM     90  O   UNL     1      -7.793   8.879  18.856  1.00  0.00    -0.744 OA
ENDBRANCH  83  87
ENDBRANCH  57  80
ENDBRANCH  31  32
ENDBRANCH  23  26
ENDBRANCH  21  22
ENDBRANCH  20  21
ENDBRANCH  19  20
ENDBRANCH   3  19
TORSDOF 15
