REMARK SMILES Cc1cccc(N2C(=O)/C(=C/c3ccc(C(=O)NCCCNC(=O)c4ccc(-c5c6nc(c(-c7cc(S(=O)(=O)[O-])ccc7F)c7ccc([nH]7)c(-c7cc(S(=O)(=O)[O-])ccc7F)c7nc(c(-c8cc(S(=O)(=O)[O-])ccc8F)c8ccc5[nH]8)C=C7)C=C6)cc4)cc3)c3ccccc3C2=O)c1
REMARK SMILES IDX 20 1 19 2 18 3 16 4 17 5 15 7 12 8 13 9 89 10 14 11 88 12
REMARK SMILES IDX 11 13 7 14 8 15 96 16 9 17 10 18 95 19 97 20 90 21 94 22
REMARK SMILES IDX 91 23 93 24 92 25 6 26 1 27 2 28 3 29 98 30 4 31 5 32 21 33
REMARK SMILES IDX 22 34 23 35 24 37 25 38 26 39 87 40 27 41 86 42 28 43 29 44
REMARK SMILES IDX 30 45 80 46 31 47 85 48 79 49 81 50 32 51 84 52 78 53 77 54
REMARK SMILES IDX 33 56 65 57 45 58 64 59 46 60 49 61 63 62 82 63 47 64 48 65
REMARK SMILES IDX 62 67 83 68 50 69 34 70 35 71 43 72 36 73 42 74 44 75 41 76
REMARK SMILES IDX 37 77 38 78 39 79 40 80 66 81 67 82 75 83 68 84 74 85 76 86
REMARK SMILES IDX 73 87 69 88 70 89 71 90 72 91 51 92 52 93 60 94 53 95 59 96
REMARK SMILES IDX 61 97 58 98 54 99 55 100 56 101 57 102
REMARK H PARENT 18 6 22 36 81 55 49 66
REMARK Flexibility Score: inf
ROOT
ATOM      1  C   UNL     1      -5.506  10.292   2.439  1.00  0.00     0.042 C 
ENDROOT
BRANCH   1   2
ATOM      2  C   UNL     1      -5.319   9.928   0.977  1.00  0.00     0.118 C 
BRANCH   2   3
ATOM      3  N   UNL     1      -4.888  11.050   0.149  1.00  0.00    -0.352 N 
ATOM      4  C   UNL     1      -3.994  11.035  -0.898  1.00  0.00     0.251 C 
ATOM      5  O   UNL     1      -3.633  12.056  -1.474  1.00  0.00    -0.269 OA
ATOM      6  H   UNL     1      -5.285  11.925   0.365  1.00  0.00     0.163 HD
BRANCH   4   7
ATOM      7  C   UNL     1      -3.372   9.745  -1.257  1.00  0.00     0.039 A 
ATOM      8  C   UNL     1      -2.190   7.237  -1.298  1.00  0.00    -0.025 A 
ATOM      9  C   UNL     1      -1.390   8.385  -1.213  1.00  0.00     0.009 A 
ATOM     10  C   UNL     1      -3.567   7.359  -1.527  1.00  0.00     0.009 A 
ATOM     11  C   UNL     1      -1.982   9.645  -1.188  1.00  0.00     0.014 A 
ATOM     12  C   UNL     1      -4.160   8.620  -1.518  1.00  0.00     0.014 A 
BRANCH   8  13
ATOM     13  C   UNL     1      -1.562   5.931  -1.077  1.00  0.00     0.022 C 
ATOM     14  N   UNL     1      -1.736   2.601   0.275  1.00  0.00    -0.242 N 
ATOM     15  C   UNL     1      -1.071   3.751  -0.196  1.00  0.00     0.265 C 
ATOM     16  C   UNL     1      -3.050   2.657   0.792  1.00  0.00     0.265 C 
ATOM     17  O   UNL     1       0.042   3.783  -0.723  1.00  0.00    -0.268 OA
ATOM     18  C   UNL     1      -1.852   5.033  -0.108  1.00  0.00     0.049 C 
ATOM     19  C   UNL     1      -3.527   3.964   1.304  1.00  0.00     0.048 A 
ATOM     20  O   UNL     1      -3.832   1.717   0.925  1.00  0.00    -0.268 OA
ATOM     21  C   UNL     1      -2.883   5.140   0.930  1.00  0.00    -0.000 A 
ATOM     22  C   UNL     1      -4.597   3.989   2.215  1.00  0.00     0.014 A 
ATOM     23  C   UNL     1      -3.246   6.330   1.578  1.00  0.00     0.010 A 
ATOM     24  C   UNL     1      -4.991   5.187   2.802  1.00  0.00     0.001 A 
ATOM     25  C   UNL     1      -4.297   6.353   2.501  1.00  0.00     0.001 A 
BRANCH  14  26
ATOM     26  C   UNL     1      -1.068   1.309   0.150  1.00  0.00     0.053 A 
ATOM     27  C   UNL     1       2.508  -0.084   0.036  1.00  0.00     0.044 C 
ATOM     28  C   UNL     1       1.009  -0.025   0.042  1.00  0.00    -0.049 A 
ATOM     29  C   UNL     1       0.264  -1.196  -0.081  1.00  0.00     0.003 A 
ATOM     30  C   UNL     1       0.338   1.204   0.180  1.00  0.00     0.030 A 
ATOM     31  C   UNL     1      -1.123  -1.132  -0.089  1.00  0.00     0.002 A 
ATOM     32  C   UNL     1      -1.775   0.103   0.015  1.00  0.00     0.027 A 
ENDBRANCH  14  26
ENDBRANCH   8  13
ENDBRANCH   4   7
ENDBRANCH   2   3
ENDBRANCH   1   2
BRANCH   1  33
ATOM     33  C   UNL     1      -6.755  11.121   2.694  1.00  0.00     0.118 C 
BRANCH  33  34
ATOM     34  N   UNL     1      -7.813  10.347   3.357  1.00  0.00    -0.352 N 
ATOM     35  C   UNL     1      -8.769  10.770   4.265  1.00  0.00     0.251 C 
ATOM     36  H   UNL     1      -7.846   9.391   3.124  1.00  0.00     0.163 HD
ATOM     37  O   UNL     1      -9.644  10.039   4.699  1.00  0.00    -0.269 OA
BRANCH  35  38
ATOM     38  C   UNL     1      -8.771  12.207   4.609  1.00  0.00     0.039 A 
ATOM     39  C   UNL     1      -9.768  12.988   4.019  1.00  0.00     0.014 A 
ATOM     40  C   UNL     1      -7.614  12.776   5.136  1.00  0.00     0.014 A 
ATOM     41  C   UNL     1      -9.483  14.312   3.708  1.00  0.00     0.010 A 
ATOM     42  C   UNL     1      -7.300  14.069   4.750  1.00  0.00     0.010 A 
ATOM     43  C   UNL     1      -8.196  14.800   3.959  1.00  0.00    -0.014 A 
BRANCH  43  44
ATOM     44  C   UNL     1      -7.674  15.969   3.253  1.00  0.00     0.031 A 
ATOM     45  C   UNL     1      -7.519  17.259   3.947  1.00  0.00     0.074 A 
ATOM     46  C   UNL     1      -7.389  15.924   1.930  1.00  0.00     0.049 A 
ATOM     47  N   UNL     1      -7.848  18.397   3.429  1.00  0.00    -0.248 NA
ATOM     48  C   UNL     1      -6.988  17.357   5.301  1.00  0.00     0.031 C 
ATOM     49  C   UNL     1      -6.777  16.987   1.133  1.00  0.00     0.029 A 
ATOM     50  N   UNL     1      -7.803  14.993   0.979  1.00  0.00    -0.354 N 
ATOM     51  C   UNL     1      -7.311  19.370   4.236  1.00  0.00     0.074 A 
ATOM     52  C   UNL     1      -6.870  18.681   5.431  1.00  0.00     0.031 C 
ATOM     53  C   UNL     1      -7.139  16.822  -0.148  1.00  0.00     0.029 A 
ATOM     54  C   UNL     1      -8.069  15.706  -0.199  1.00  0.00     0.049 A 
ATOM     55  H   UNL     1      -7.892  14.021   1.109  1.00  0.00     0.167 HD
ATOM     56  C   UNL     1      -7.117  20.637   3.776  1.00  0.00     0.034 A 
ATOM     57  C   UNL     1      -9.258  15.684  -0.865  1.00  0.00     0.034 A 
ATOM     58  C   UNL     1      -7.454  20.780   2.365  1.00  0.00     0.049 A 
ATOM     59  C   UNL     1      -9.852  17.063  -1.060  1.00  0.00     0.074 A 
ATOM     60  C   UNL     1      -6.669  20.802   1.224  1.00  0.00     0.029 A 
ATOM     61  N   UNL     1      -8.769  20.654   1.935  1.00  0.00    -0.354 N 
ATOM     62  N   UNL     1      -9.445  18.128  -0.428  1.00  0.00    -0.248 NA
ATOM     63  C   UNL     1     -10.993  17.336  -1.929  1.00  0.00     0.031 C 
ATOM     64  C   UNL     1      -7.518  20.657   0.101  1.00  0.00     0.029 A 
ATOM     65  C   UNL     1      -8.821  20.564   0.555  1.00  0.00     0.049 A 
ATOM     66  H   UNL     1      -9.555  20.632   2.528  1.00  0.00     0.167 HD
ATOM     67  C   UNL     1     -10.256  19.192  -0.742  1.00  0.00     0.074 A 
ATOM     68  C   UNL     1     -11.191  18.648  -1.711  1.00  0.00     0.031 C 
ATOM     69  C   UNL     1     -10.088  20.415  -0.150  1.00  0.00     0.034 A 
BRANCH  56  70
ATOM     70  C   UNL     1      -6.283  21.631   4.544  1.00  0.00     0.023 A 
ATOM     71  C   UNL     1      -5.371  22.464   3.869  1.00  0.00     0.031 A 
ATOM     72  C   UNL     1      -6.327  21.770   5.944  1.00  0.00     0.131 A 
ATOM     73  C   UNL     1      -4.484  23.295   4.574  1.00  0.00     0.055 A 
ATOM     74  C   UNL     1      -5.410  22.557   6.652  1.00  0.00     0.041 A 
ATOM     75  F   UNL     1      -7.264  21.143   6.674  1.00  0.00    -0.206 F 
ATOM     76  C   UNL     1      -4.469  23.314   5.966  1.00  0.00     0.022 A 
BRANCH  73  77
ATOM     77  S   UNL     1      -3.343  24.352   3.639  1.00  0.00     0.124 S 
ATOM     78  O   UNL     1      -2.621  23.383   2.821  1.00  0.00    -0.237 OA
ATOM     79  O   UNL     1      -4.258  25.240   2.930  1.00  0.00    -0.237 OA
ATOM     80  O   UNL     1      -2.545  24.994   4.683  1.00  0.00    -0.744 OA
ENDBRANCH  73  77
ENDBRANCH  56  70
BRANCH  57  81
ATOM     81  C   UNL     1     -10.054  14.442  -0.666  1.00  0.00     0.023 A 
ATOM     82  C   UNL     1      -9.492  13.223  -1.100  1.00  0.00     0.031 A 
ATOM     83  C   UNL     1     -11.115  14.394   0.247  1.00  0.00     0.131 A 
ATOM     84  C   UNL     1      -9.894  12.014  -0.513  1.00  0.00     0.055 A 
ATOM     85  C   UNL     1     -11.542  13.181   0.798  1.00  0.00     0.041 A 
ATOM     86  F   UNL     1     -11.655  15.523   0.729  1.00  0.00    -0.206 F 
ATOM     87  C   UNL     1     -10.902  11.991   0.452  1.00  0.00     0.022 A 
BRANCH  84  88
ATOM     88  S   UNL     1      -8.934  10.502  -0.824  1.00  0.00     0.124 S 
ATOM     89  O   UNL     1      -9.725   9.836  -1.849  1.00  0.00    -0.237 OA
ATOM     90  O   UNL     1      -7.637  11.014  -1.253  1.00  0.00    -0.237 OA
ATOM     91  O   UNL     1      -8.909   9.845   0.483  1.00  0.00    -0.744 OA
ENDBRANCH  84  88
ENDBRANCH  57  81
BRANCH  69  92
ATOM     92  C   UNL     1     -11.020  21.610  -0.260  1.00  0.00     0.023 A 
ATOM     93  C   UNL     1     -12.320  21.540  -0.782  1.00  0.00     0.031 A 
ATOM     94  C   UNL     1     -10.632  22.887   0.221  1.00  0.00     0.131 A 
ATOM     95  C   UNL     1     -13.127  22.688  -0.903  1.00  0.00     0.055 A 
ATOM     96  C   UNL     1     -11.463  24.012   0.171  1.00  0.00     0.041 A 
ATOM     97  F   UNL     1      -9.429  23.101   0.774  1.00  0.00    -0.206 F 
ATOM     98  C   UNL     1     -12.714  23.923  -0.413  1.00  0.00     0.022 A 
BRANCH  95  99
ATOM     99  S   UNL     1     -14.704  22.538  -1.783  1.00  0.00     0.124 S 
ATOM    100  O   UNL     1     -14.268  22.121  -3.113  1.00  0.00    -0.237 OA
ATOM    101  O   UNL     1     -15.404  21.525  -1.000  1.00  0.00    -0.237 OA
ATOM    102  O   UNL     1     -15.271  23.883  -1.709  1.00  0.00    -0.744 OA
ENDBRANCH  95  99
ENDBRANCH  69  92
ENDBRANCH  43  44
ENDBRANCH  35  38
ENDBRANCH  33  34
ENDBRANCH   1  33
TORSDOF 15
