REMARK SMILES C[C@H](O)[C@H](NC(=O)COCC[NH3+])C(=O)NCCCNC(=O)c1ccc(-c2c3nc(c(-c4cc(S(=O)(=O)[O-])ccc4F)c4ccc([nH]4)c(-c4cc(S(=O)(=O)[O-])ccc4F)c4nc(c(-c5cc(S(=O)(=O)[O-])ccc5F)c5ccc2[nH]5)C=C4)C=C3)cc1
REMARK SMILES IDX 13 1 14 2 15 3 4 5 2 6 1 7 3 8 5 10 6 11 7 13 8 14 9 15
REMARK SMILES IDX 10 16 11 17 12 18 16 22 17 23 18 24 19 25 20 26 21 28 22 29
REMARK SMILES IDX 23 30 84 31 24 32 83 33 25 34 26 35 27 36 77 37 28 38 82 39
REMARK SMILES IDX 76 40 78 41 29 42 81 43 75 44 74 45 30 47 62 48 42 49 61 50
REMARK SMILES IDX 43 51 46 52 60 53 79 54 44 55 45 56 59 58 80 59 47 60 31 61
REMARK SMILES IDX 32 62 40 63 33 64 39 65 41 66 38 67 34 68 35 69 36 70 37 71
REMARK SMILES IDX 63 72 64 73 72 74 65 75 71 76 73 77 70 78 66 79 67 80 68 81
REMARK SMILES IDX 69 82 48 83 49 84 57 85 50 86 56 87 58 88 55 89 51 90 52 91
REMARK SMILES IDX 53 92 54 93
REMARK H PARENT 15 4 3 9 5 12 12 19 12 20 12 21 19 27 78 46 46 57
REMARK Flexibility Score: inf
ROOT
ATOM      1  C   UNL     1      -1.926  -1.119   2.671  1.00  0.00     0.245 C 
ATOM      2  O   UNL     1      -2.988  -0.618   3.055  1.00  0.00    -0.273 OA
ATOM      3  N   UNL     1      -1.522  -2.266   3.283  1.00  0.00    -0.354 N 
ATOM      4  H   UNL     1      -2.026  -2.489   4.099  1.00  0.00     0.163 HD
ENDROOT
BRANCH   1   5
ATOM      5  C   UNL     1      -1.213  -0.553   1.434  1.00  0.00     0.200 C 
BRANCH   5   6
ATOM      6  C   UNL     1      -1.849  -1.110   0.120  1.00  0.00     0.143 C 
ATOM      7  C   UNL     1      -2.480  -2.499   0.186  1.00  0.00     0.041 C 
BRANCH   6   8
ATOM      8  O   UNL     1      -0.865  -1.158  -0.931  1.00  0.00    -0.391 OA
ATOM      9  H   UNL     1      -0.176  -1.800  -0.700  1.00  0.00     0.211 HD
ENDBRANCH   6   8
ENDBRANCH   5   6
BRANCH   5  10
ATOM     10  N   UNL     1       0.252  -0.629   1.387  1.00  0.00    -0.340 N 
ATOM     11  C   UNL     1       1.118   0.151   2.108  1.00  0.00     0.246 C 
ATOM     12  H   UNL     1       0.647  -1.300   0.785  1.00  0.00     0.164 HD
ATOM     13  O   UNL     1       2.138   0.561   1.554  1.00  0.00    -0.272 OA
BRANCH  11  14
ATOM     14  C   UNL     1       0.849   0.395   3.602  1.00  0.00     0.260 C 
BRANCH  14  15
ATOM     15  O   UNL     1       0.353   1.653   3.997  1.00  0.00    -0.366 OA
BRANCH  15  16
ATOM     16  C   UNL     1       1.332   2.501   4.605  1.00  0.00     0.222 C 
BRANCH  16  17
ATOM     17  C   UNL     1       1.762   2.071   6.027  1.00  0.00     0.287 C 
BRANCH  17  18
ATOM     18  N   UNL     1       2.941   1.200   6.043  1.00  0.00    -0.356 N 
ATOM     19  H   UNL     1       2.732   0.336   5.543  1.00  0.00     0.344 HD
ATOM     20  H   UNL     1       3.189   0.982   7.008  1.00  0.00     0.344 HD
ATOM     21  H   UNL     1       3.721   1.675   5.590  1.00  0.00     0.344 HD
ENDBRANCH  17  18
ENDBRANCH  16  17
ENDBRANCH  15  16
ENDBRANCH  14  15
ENDBRANCH  11  14
ENDBRANCH   5  10
ENDBRANCH   1   5
BRANCH   3  22
ATOM     22  C   UNL     1      -0.479  -3.221   2.942  1.00  0.00     0.117 C 
BRANCH  22  23
ATOM     23  C   UNL     1       0.750  -3.156   3.842  1.00  0.00     0.042 C 
BRANCH  23  24
ATOM     24  C   UNL     1       0.448  -3.037   5.331  1.00  0.00     0.118 C 
BRANCH  24  25
ATOM     25  N   UNL     1      -0.231  -4.210   5.850  1.00  0.00    -0.352 N 
ATOM     26  C   UNL     1       0.240  -5.209   6.666  1.00  0.00     0.251 C 
ATOM     27  H   UNL     1      -1.172  -4.305   5.574  1.00  0.00     0.163 HD
ATOM     28  O   UNL     1      -0.413  -6.240   6.787  1.00  0.00    -0.269 OA
BRANCH  26  29
ATOM     29  C   UNL     1       1.530  -5.053   7.375  1.00  0.00     0.039 A 
ATOM     30  C   UNL     1       2.407  -6.140   7.423  1.00  0.00     0.014 A 
ATOM     31  C   UNL     1       1.859  -3.862   8.029  1.00  0.00     0.014 A 
ATOM     32  C   UNL     1       3.632  -6.017   8.083  1.00  0.00     0.010 A 
ATOM     33  C   UNL     1       3.111  -3.717   8.624  1.00  0.00     0.010 A 
ATOM     34  C   UNL     1       4.006  -4.797   8.669  1.00  0.00    -0.014 A 
BRANCH  34  35
ATOM     35  C   UNL     1       5.313  -4.645   9.363  1.00  0.00     0.031 A 
ATOM     36  C   UNL     1       5.351  -4.373  10.844  1.00  0.00     0.074 A 
ATOM     37  C   UNL     1       6.459  -4.701   8.657  1.00  0.00     0.049 A 
ATOM     38  N   UNL     1       6.380  -4.135  11.617  1.00  0.00    -0.248 NA
ATOM     39  C   UNL     1       4.056  -4.333  11.538  1.00  0.00     0.031 C 
ATOM     40  C   UNL     1       6.551  -4.923   7.212  1.00  0.00     0.029 A 
ATOM     41  N   UNL     1       7.765  -4.567   9.055  1.00  0.00    -0.354 N 
ATOM     42  C   UNL     1       5.856  -3.900  12.884  1.00  0.00     0.074 A 
ATOM     43  C   UNL     1       4.415  -3.964  12.758  1.00  0.00     0.031 C 
ATOM     44  C   UNL     1       7.844  -4.931   6.851  1.00  0.00     0.029 A 
ATOM     45  C   UNL     1       8.671  -4.674   8.026  1.00  0.00     0.049 A 
ATOM     46  H   UNL     1       8.029  -4.410   9.991  1.00  0.00     0.167 HD
ATOM     47  C   UNL     1       6.514  -3.675  14.049  1.00  0.00     0.034 A 
ATOM     48  C   UNL     1      10.015  -4.567   8.026  1.00  0.00     0.034 A 
ATOM     49  C   UNL     1       7.952  -3.634  14.163  1.00  0.00     0.049 A 
ATOM     50  C   UNL     1      10.726  -4.305   9.329  1.00  0.00     0.074 A 
ATOM     51  C   UNL     1       8.724  -3.470  15.300  1.00  0.00     0.029 A 
ATOM     52  N   UNL     1       8.838  -3.753  13.098  1.00  0.00    -0.354 N 
ATOM     53  N   UNL     1      10.218  -4.128  10.527  1.00  0.00    -0.248 NA
ATOM     54  C   UNL     1      12.192  -4.240   9.281  1.00  0.00     0.031 C 
ATOM     55  C   UNL     1      10.070  -3.429  14.917  1.00  0.00     0.029 A 
ATOM     56  C   UNL     1      10.144  -3.639  13.549  1.00  0.00     0.049 A 
ATOM     57  H   UNL     1       8.576  -3.898  12.161  1.00  0.00     0.167 HD
ATOM     58  C   UNL     1      11.306  -3.959  11.379  1.00  0.00     0.074 A 
ATOM     59  C   UNL     1      12.495  -4.069  10.559  1.00  0.00     0.031 C 
ATOM     60  C   UNL     1      11.321  -3.738  12.718  1.00  0.00     0.034 A 
BRANCH  47  61
ATOM     61  C   UNL     1       5.676  -3.431  15.283  1.00  0.00     0.023 A 
ATOM     62  C   UNL     1       4.806  -4.412  15.791  1.00  0.00     0.031 A 
ATOM     63  C   UNL     1       5.719  -2.188  15.940  1.00  0.00     0.131 A 
ATOM     64  C   UNL     1       3.955  -4.108  16.863  1.00  0.00     0.055 A 
ATOM     65  C   UNL     1       4.930  -1.921  17.061  1.00  0.00     0.041 A 
ATOM     66  F   UNL     1       6.514  -1.205  15.491  1.00  0.00    -0.206 F 
ATOM     67  C   UNL     1       4.029  -2.877  17.519  1.00  0.00     0.022 A 
BRANCH  64  68
ATOM     68  S   UNL     1       2.643  -5.287  17.287  1.00  0.00     0.124 S 
ATOM     69  O   UNL     1       1.903  -5.366  16.030  1.00  0.00    -0.237 OA
ATOM     70  O   UNL     1       3.397  -6.477  17.662  1.00  0.00    -0.237 OA
ATOM     71  O   UNL     1       1.931  -4.628  18.380  1.00  0.00    -0.744 OA
ENDBRANCH  64  68
ENDBRANCH  47  61
BRANCH  48  72
ATOM     72  C   UNL     1      10.781  -4.699   6.755  1.00  0.00     0.023 A 
ATOM     73  C   UNL     1      11.658  -5.775   6.548  1.00  0.00     0.031 A 
ATOM     74  C   UNL     1      10.672  -3.730   5.742  1.00  0.00     0.131 A 
ATOM     75  C   UNL     1      12.424  -5.836   5.374  1.00  0.00     0.055 A 
ATOM     76  C   UNL     1      11.401  -3.821   4.555  1.00  0.00     0.041 A 
ATOM     77  F   UNL     1       9.842  -2.685   5.888  1.00  0.00    -0.206 F 
ATOM     78  C   UNL     1      12.293  -4.873   4.371  1.00  0.00     0.022 A 
BRANCH  75  79
ATOM     79  S   UNL     1      13.653  -7.160   5.208  1.00  0.00     0.124 S 
ATOM     80  O   UNL     1      14.503  -6.924   6.370  1.00  0.00    -0.237 OA
ATOM     81  O   UNL     1      12.818  -8.355   5.255  1.00  0.00    -0.237 OA
ATOM     82  O   UNL     1      14.274  -6.887   3.914  1.00  0.00    -0.744 OA
ENDBRANCH  75  79
ENDBRANCH  48  72
BRANCH  60  83
ATOM     83  C   UNL     1      12.674  -3.647  13.380  1.00  0.00     0.023 A 
ATOM     84  C   UNL     1      13.548  -2.575  13.132  1.00  0.00     0.031 A 
ATOM     85  C   UNL     1      13.097  -4.658  14.261  1.00  0.00     0.131 A 
ATOM     86  C   UNL     1      14.824  -2.565  13.717  1.00  0.00     0.055 A 
ATOM     87  C   UNL     1      14.345  -4.614  14.884  1.00  0.00     0.041 A 
ATOM     88  F   UNL     1      12.302  -5.705  14.533  1.00  0.00    -0.206 F 
ATOM     89  C   UNL     1      15.222  -3.570  14.603  1.00  0.00     0.022 A 
BRANCH  86  90
ATOM     90  S   UNL     1      15.993  -1.263  13.237  1.00  0.00     0.124 S 
ATOM     91  O   UNL     1      16.093  -1.462  11.795  1.00  0.00    -0.237 OA
ATOM     92  O   UNL     1      15.304  -0.051  13.667  1.00  0.00    -0.237 OA
ATOM     93  O   UNL     1      17.200  -1.590  13.994  1.00  0.00    -0.744 OA
ENDBRANCH  86  90
ENDBRANCH  60  83
ENDBRANCH  34  35
ENDBRANCH  26  29
ENDBRANCH  24  25
ENDBRANCH  23  24
ENDBRANCH  22  23
ENDBRANCH   3  22
TORSDOF 21
