REMARK SMILES C[C@@H](NC(=O)[C@@H]([NH3+])CC(=O)NCCCNC(=O)c1ccc(-c2c3nc(c(-c4cc(S(=O)(=O)[O-])ccc4F)c4ccc([nH]4)c(-c4cc(S(=O)(=O)[O-])ccc4F)c4nc(c(-c5cc(S(=O)(=O)[O-])ccc5F)c5ccc2[nH]5)C=C4)C=C3)cc1)C(=O)NC1C(C)(C)SC1(C)C
REMARK SMILES IDX 12 1 11 2 9 3 10 4 8 6 6 7 4 8 3 9 5 11 2 12 1 13 81 14
REMARK SMILES IDX 82 15 83 16 84 18 85 19 89 20 86 21 87 22 88 23 90 24 91 25
REMARK SMILES IDX 7 26 13 30 14 31 15 32 16 33 17 35 18 36 19 37 80 38 20 39
REMARK SMILES IDX 79 40 21 41 22 42 23 43 73 44 24 45 78 46 72 47 74 48 25 49
REMARK SMILES IDX 77 50 71 51 70 52 26 54 58 55 38 56 57 57 39 58 42 59 56 60
REMARK SMILES IDX 75 61 40 62 41 63 55 65 76 66 43 67 27 68 28 69 36 70 29 71
REMARK SMILES IDX 35 72 37 73 34 74 30 75 31 76 32 77 33 78 59 79 60 80 68 81
REMARK SMILES IDX 61 82 67 83 69 84 66 85 62 86 63 87 64 88 65 89 44 90 45 91
REMARK SMILES IDX 53 92 46 93 52 94 54 95 51 96 47 97 48 98 49 99 50 100
REMARK H PARENT 11 5 3 10 83 17 7 27 7 28 7 29 15 34 74 53 42 64
REMARK Flexibility Score: inf
ROOT
ATOM      1  C   UNL     1       1.223  -0.049  -5.227  1.00  0.00     0.117 C 
ENDROOT
BRANCH   1   2
ATOM      2  N   UNL     1       0.008  -0.008  -6.017  1.00  0.00    -0.356 N 
ATOM      3  C   UNL     1      -1.286   0.015  -5.599  1.00  0.00     0.226 C 
ATOM      4  O   UNL     1      -2.186  -0.050  -6.436  1.00  0.00    -0.275 OA
ATOM      5  H   UNL     1       0.137   0.005  -6.993  1.00  0.00     0.163 HD
BRANCH   3   6
ATOM      6  C   UNL     1      -1.594   0.096  -4.125  1.00  0.00     0.175 C 
BRANCH   6   7
ATOM      7  C   UNL     1      -1.681  -1.305  -3.543  1.00  0.00     0.280 C 
BRANCH   7   8
ATOM      8  C   UNL     1      -0.385  -1.870  -2.904  1.00  0.00     0.279 C 
ATOM      9  N   UNL     1       0.313  -1.324  -1.877  1.00  0.00    -0.339 N 
ATOM     10  H   UNL     1       1.126  -1.819  -1.625  1.00  0.00     0.164 HD
ATOM     11  O   UNL     1       0.048  -2.958  -3.302  1.00  0.00    -0.268 OA
BRANCH   9  12
ATOM     12  C   UNL     1       0.063  -0.130  -1.084  1.00  0.00     0.168 C 
ATOM     13  C   UNL     1       1.180   0.117  -0.069  1.00  0.00     0.041 C 
BRANCH  12  14
ATOM     14  C   UNL     1      -1.290  -0.218  -0.374  1.00  0.00     0.242 C 
ATOM     15  O   UNL     1      -1.908   0.805  -0.068  1.00  0.00    -0.273 OA
ATOM     16  N   UNL     1      -1.808  -1.434   0.009  1.00  0.00    -0.349 N 
ATOM     17  H   UNL     1      -2.790  -1.503  -0.025  1.00  0.00     0.163 HD
BRANCH  16  18
ATOM     18  C   UNL     1      -1.095  -2.662   0.467  1.00  0.00     0.113 C 
ATOM     19  C   UNL     1      -1.590  -3.022   1.925  1.00  0.00     0.032 C 
ATOM     20  C   UNL     1      -1.454  -4.104  -0.137  1.00  0.00     0.032 C 
ATOM     21  C   UNL     1      -0.609  -2.524   2.981  1.00  0.00     0.025 C 
ATOM     22  C   UNL     1      -3.031  -2.673   2.309  1.00  0.00     0.025 C 
ATOM     23  S   UNL     1      -1.426  -4.796   1.596  1.00  0.00    -0.145 SA
ATOM     24  C   UNL     1      -2.800  -4.394  -0.800  1.00  0.00     0.025 C 
ATOM     25  C   UNL     1      -0.336  -4.814  -0.919  1.00  0.00     0.025 C 
ENDBRANCH  16  18
ENDBRANCH  12  14
ENDBRANCH   9  12
ENDBRANCH   7   8
BRANCH   7  26
ATOM     26  N   UNL     1      -2.805  -1.361  -2.588  1.00  0.00    -0.347 N 
ATOM     27  H   UNL     1      -2.617  -0.736  -1.804  1.00  0.00     0.345 HD
ATOM     28  H   UNL     1      -2.912  -2.316  -2.245  1.00  0.00     0.345 HD
ATOM     29  H   UNL     1      -3.663  -1.071  -3.056  1.00  0.00     0.345 HD
ENDBRANCH   7  26
ENDBRANCH   6   7
ENDBRANCH   3   6
ENDBRANCH   1   2
BRANCH   1  30
ATOM     30  C   UNL     1       1.806  -1.452  -5.198  1.00  0.00     0.042 C 
BRANCH  30  31
ATOM     31  C   UNL     1       2.607  -1.827  -6.425  1.00  0.00     0.118 C 
BRANCH  31  32
ATOM     32  N   UNL     1       3.816  -1.037  -6.554  1.00  0.00    -0.352 N 
ATOM     33  C   UNL     1       5.124  -1.437  -6.610  1.00  0.00     0.251 C 
ATOM     34  H   UNL     1       3.675  -0.064  -6.609  1.00  0.00     0.163 HD
ATOM     35  O   UNL     1       6.005  -0.580  -6.494  1.00  0.00    -0.269 OA
BRANCH  33  36
ATOM     36  C   UNL     1       5.485  -2.863  -6.778  1.00  0.00     0.039 A 
ATOM     37  C   UNL     1       6.645  -3.335  -6.160  1.00  0.00     0.014 A 
ATOM     38  C   UNL     1       4.716  -3.733  -7.557  1.00  0.00     0.014 A 
ATOM     39  C   UNL     1       7.005  -4.678  -6.286  1.00  0.00     0.010 A 
ATOM     40  C   UNL     1       5.012  -5.092  -7.589  1.00  0.00     0.010 A 
ATOM     41  C   UNL     1       6.173  -5.577  -6.974  1.00  0.00    -0.014 A 
BRANCH  41  42
ATOM     42  C   UNL     1       6.523  -7.016  -7.087  1.00  0.00     0.031 A 
ATOM     43  C   UNL     1       6.759  -7.628  -8.443  1.00  0.00     0.074 A 
ATOM     44  C   UNL     1       6.589  -7.775  -5.975  1.00  0.00     0.049 A 
ATOM     45  N   UNL     1       7.022  -8.871  -8.756  1.00  0.00    -0.248 NA
ATOM     46  C   UNL     1       6.655  -6.730  -9.605  1.00  0.00     0.031 C 
ATOM     47  C   UNL     1       6.340  -7.299  -4.612  1.00  0.00     0.029 A 
ATOM     48  N   UNL     1       6.883  -9.105  -5.811  1.00  0.00    -0.354 N 
ATOM     49  C   UNL     1       7.100  -8.906 -10.145  1.00  0.00     0.074 A 
ATOM     50  C   UNL     1       6.790  -7.574 -10.616  1.00  0.00     0.031 C 
ATOM     51  C   UNL     1       6.529  -8.310  -3.751  1.00  0.00     0.029 A 
ATOM     52  C   UNL     1       6.857  -9.520  -4.498  1.00  0.00     0.049 A 
ATOM     53  H   UNL     1       7.093  -9.707  -6.561  1.00  0.00     0.167 HD
ATOM     54  C   UNL     1       7.428  -9.946 -10.950  1.00  0.00     0.034 A 
ATOM     55  C   UNL     1       7.061 -10.739  -3.961  1.00  0.00     0.034 A 
ATOM     56  C   UNL     1       7.750 -11.263 -10.459  1.00  0.00     0.049 A 
ATOM     57  C   UNL     1       7.395 -11.886  -4.881  1.00  0.00     0.074 A 
ATOM     58  C   UNL     1       8.149 -12.376 -11.177  1.00  0.00     0.029 A 
ATOM     59  N   UNL     1       7.705 -11.648  -9.124  1.00  0.00    -0.354 N 
ATOM     60  N   UNL     1       7.517 -11.889  -6.189  1.00  0.00    -0.248 NA
ATOM     61  C   UNL     1       7.631 -13.191  -4.252  1.00  0.00     0.031 C 
ATOM     62  C   UNL     1       8.269 -13.450 -10.290  1.00  0.00     0.029 A 
ATOM     63  C   UNL     1       8.034 -12.989  -9.004  1.00  0.00     0.049 A 
ATOM     64  H   UNL     1       7.473 -11.054  -8.373  1.00  0.00     0.167 HD
ATOM     65  C   UNL     1       7.878 -13.189  -6.533  1.00  0.00     0.074 A 
ATOM     66  C   UNL     1       7.971 -13.934  -5.295  1.00  0.00     0.031 C 
ATOM     67  C   UNL     1       8.115 -13.719  -7.761  1.00  0.00     0.034 A 
BRANCH  54  68
ATOM     68  C   UNL     1       7.427  -9.705 -12.442  1.00  0.00     0.023 A 
ATOM     69  C   UNL     1       8.299  -8.780 -13.044  1.00  0.00     0.031 A 
ATOM     70  C   UNL     1       6.532 -10.400 -13.274  1.00  0.00     0.131 A 
ATOM     71  C   UNL     1       8.210  -8.525 -14.421  1.00  0.00     0.055 A 
ATOM     72  C   UNL     1       6.506 -10.203 -14.657  1.00  0.00     0.041 A 
ATOM     73  F   UNL     1       5.659 -11.278 -12.757  1.00  0.00    -0.206 F 
ATOM     74  C   UNL     1       7.339  -9.251 -15.236  1.00  0.00     0.022 A 
BRANCH  71  75
ATOM     75  S   UNL     1       9.150  -7.135 -15.108  1.00  0.00     0.124 S 
ATOM     76  O   UNL     1       8.622  -6.012 -14.336  1.00  0.00    -0.237 OA
ATOM     77  O   UNL     1      10.529  -7.513 -14.822  1.00  0.00    -0.237 OA
ATOM     78  O   UNL     1       8.782  -7.136 -16.522  1.00  0.00    -0.744 OA
ENDBRANCH  71  75
ENDBRANCH  54  68
BRANCH  55  79
ATOM     79  C   UNL     1       6.946 -10.949  -2.488  1.00  0.00     0.023 A 
ATOM     80  C   UNL     1       8.049 -11.373  -1.730  1.00  0.00     0.031 A 
ATOM     81  C   UNL     1       5.718 -10.779  -1.824  1.00  0.00     0.131 A 
ATOM     82  C   UNL     1       7.890 -11.667  -0.366  1.00  0.00     0.055 A 
ATOM     83  C   UNL     1       5.580 -11.012  -0.454  1.00  0.00     0.041 A 
ATOM     84  F   UNL     1       4.631 -10.372  -2.499  1.00  0.00    -0.206 F 
ATOM     85  C   UNL     1       6.667 -11.475   0.280  1.00  0.00     0.022 A 
BRANCH  82  86
ATOM     86  S   UNL     1       9.283 -12.407   0.529  1.00  0.00     0.124 S 
ATOM     87  O   UNL     1       9.550 -13.598  -0.270  1.00  0.00    -0.237 OA
ATOM     88  O   UNL     1      10.285 -11.349   0.458  1.00  0.00    -0.237 OA
ATOM     89  O   UNL     1       8.737 -12.657   1.861  1.00  0.00    -0.744 OA
ENDBRANCH  82  86
ENDBRANCH  55  79
BRANCH  67  90
ATOM     90  C   UNL     1       8.548 -15.164  -7.812  1.00  0.00     0.023 A 
ATOM     91  C   UNL     1       7.693 -16.209  -7.421  1.00  0.00     0.031 A 
ATOM     92  C   UNL     1       9.842 -15.497  -8.251  1.00  0.00     0.131 A 
ATOM     93  C   UNL     1       8.163 -17.531  -7.418  1.00  0.00     0.055 A 
ATOM     94  C   UNL     1      10.280 -16.820  -8.312  1.00  0.00     0.041 A 
ATOM     95  F   UNL     1      10.702 -14.540  -8.633  1.00  0.00    -0.206 F 
ATOM     96  C   UNL     1       9.444 -17.845  -7.880  1.00  0.00     0.022 A 
BRANCH  93  97
ATOM     97  S   UNL     1       7.112 -18.827  -6.707  1.00  0.00     0.124 S 
ATOM     98  O   UNL     1       6.907 -18.338  -5.347  1.00  0.00    -0.237 OA
ATOM     99  O   UNL     1       5.942 -18.794  -7.578  1.00  0.00    -0.237 OA
ATOM    100  O   UNL     1       7.932 -20.032  -6.816  1.00  0.00    -0.744 OA
ENDBRANCH  93  97
ENDBRANCH  67  90
ENDBRANCH  41  42
ENDBRANCH  33  36
ENDBRANCH  31  32
ENDBRANCH  30  31
ENDBRANCH   1  30
TORSDOF 19
