REMARK SMILES CC(C)(C)OC(=O)N1C[C@@H](C(=O)NCCCNC(=O)c2ccc(-c3c4nc(c(-c5cc(S(=O)(=O)[O-])ccc5F)c5ccc([nH]5)c(-c5cc(S(=O)(=O)[O-])ccc5F)c5nc(c(-c6cc(S(=O)(=O)[O-])ccc6F)c6ccc3[nH]6)C=C5)C=C4)cc2)[C@@]2(C1)C(=O)Nc1ccccc12
REMARK SMILES IDX 15 1 14 2 13 3 11 4 12 5 10 7 8 8 9 9 84 10 83 11 85 12
REMARK SMILES IDX 93 13 86 14 87 15 88 16 92 17 89 19 91 20 90 21 6 22 7 23
REMARK SMILES IDX 5 24 2 25 1 26 3 27 4 28 16 29 17 30 18 31 19 33 20 34 21 35
REMARK SMILES IDX 82 36 22 37 81 38 23 39 24 40 25 41 75 42 26 43 80 44 74 45
REMARK SMILES IDX 76 46 27 47 79 48 73 49 72 50 28 52 60 53 40 54 59 55 41 56
REMARK SMILES IDX 44 57 58 58 77 59 42 60 43 61 57 63 78 64 45 65 29 66 30 67
REMARK SMILES IDX 38 68 31 69 37 70 39 71 36 72 32 73 33 74 34 75 35 76 61 77
REMARK SMILES IDX 62 78 70 79 63 80 69 81 71 82 68 83 64 84 65 85 66 86 67 87
REMARK SMILES IDX 46 88 47 89 55 90 48 91 54 92 56 93 53 94 49 95 50 96 51 97
REMARK SMILES IDX 52 98
REMARK H PARENT 13 6 87 18 17 32 76 51 44 62
REMARK Flexibility Score: inf
ROOT
ATOM      1  C   UNL     1       2.692   5.187  -3.385  1.00  0.00     0.042 C 
ENDROOT
BRANCH   1   2
ATOM      2  C   UNL     1       1.313   4.928  -3.997  1.00  0.00     0.117 C 
BRANCH   2   3
ATOM      3  N   UNL     1       1.237   5.226  -5.422  1.00  0.00    -0.356 N 
ATOM      4  C   UNL     1       1.229   4.493  -6.563  1.00  0.00     0.226 C 
ATOM      5  O   UNL     1       1.072   5.147  -7.603  1.00  0.00    -0.275 OA
ATOM      6  H   UNL     1       1.177   6.192  -5.598  1.00  0.00     0.163 HD
BRANCH   4   7
ATOM      7  C   UNL     1       1.409   2.984  -6.675  1.00  0.00     0.120 C 
ATOM      8  N   UNL     1       1.186   1.642  -4.737  1.00  0.00    -0.306 N 
ATOM      9  C   UNL     1       0.421   2.200  -5.834  1.00  0.00     0.138 C 
ATOM     10  C   UNL     1       2.628   1.864  -4.895  1.00  0.00     0.145 C 
ATOM     11  C   UNL     1       2.779   2.369  -6.345  1.00  0.00     0.107 C 
ATOM     12  C   UNL     1       2.974   1.068  -7.195  1.00  0.00     0.237 C 
ATOM     13  C   UNL     1       4.006   3.154  -6.773  1.00  0.00    -0.006 A 
ATOM     14  O   UNL     1       2.212   0.118  -7.288  1.00  0.00    -0.274 OA
ATOM     15  N   UNL     1       4.189   1.153  -7.844  1.00  0.00    -0.325 N 
ATOM     16  C   UNL     1       4.786   2.378  -7.634  1.00  0.00     0.045 A 
ATOM     17  C   UNL     1       4.384   4.473  -6.570  1.00  0.00     0.007 A 
ATOM     18  H   UNL     1       4.580   0.430  -8.387  1.00  0.00     0.169 HD
ATOM     19  C   UNL     1       5.935   2.830  -8.257  1.00  0.00     0.026 A 
ATOM     20  C   UNL     1       5.532   4.970  -7.204  1.00  0.00     0.000 A 
ATOM     21  C   UNL     1       6.308   4.152  -8.035  1.00  0.00     0.002 A 
BRANCH   8  22
ATOM     22  C   UNL     1       0.540   0.855  -3.813  1.00  0.00     0.410 C 
ATOM     23  O   UNL     1      -0.619   0.495  -3.974  1.00  0.00    -0.224 OA
BRANCH  22  24
ATOM     24  O   UNL     1       1.294   0.588  -2.718  1.00  0.00    -0.444 OA
BRANCH  24  25
ATOM     25  C   UNL     1       0.783  -0.273  -1.655  1.00  0.00     0.106 C 
ATOM     26  C   UNL     1       1.536   0.151  -0.385  1.00  0.00     0.056 C 
ATOM     27  C   UNL     1       1.143  -1.718  -2.007  1.00  0.00     0.056 C 
ATOM     28  C   UNL     1      -0.722  -0.148  -1.355  1.00  0.00     0.056 C 
ENDBRANCH  24  25
ENDBRANCH  22  24
ENDBRANCH   8  22
ENDBRANCH   4   7
ENDBRANCH   2   3
ENDBRANCH   1   2
BRANCH   1  29
ATOM     29  C   UNL     1       3.138   6.647  -3.413  1.00  0.00     0.118 C 
BRANCH  29  30
ATOM     30  N   UNL     1       2.450   7.438  -2.410  1.00  0.00    -0.352 N 
ATOM     31  C   UNL     1       2.951   8.071  -1.298  1.00  0.00     0.251 C 
ATOM     32  H   UNL     1       1.479   7.535  -2.546  1.00  0.00     0.163 HD
ATOM     33  O   UNL     1       2.170   8.442  -0.426  1.00  0.00    -0.269 OA
BRANCH  31  34
ATOM     34  C   UNL     1       4.408   8.304  -1.138  1.00  0.00     0.039 A 
ATOM     35  C   UNL     1       4.974   8.170   0.134  1.00  0.00     0.014 A 
ATOM     36  C   UNL     1       5.204   8.727  -2.207  1.00  0.00     0.014 A 
ATOM     37  C   UNL     1       6.337   8.422   0.326  1.00  0.00     0.010 A 
ATOM     38  C   UNL     1       6.575   8.921  -2.027  1.00  0.00     0.010 A 
ATOM     39  C   UNL     1       7.155   8.783  -0.756  1.00  0.00    -0.014 A 
BRANCH  39  40
ATOM     40  C   UNL     1       8.607   9.050  -0.569  1.00  0.00     0.031 A 
ATOM     41  C   UNL     1       9.155  10.436  -0.789  1.00  0.00     0.074 A 
ATOM     42  C   UNL     1       9.441   8.041  -0.247  1.00  0.00     0.049 A 
ATOM     43  N   UNL     1      10.395  10.854  -0.761  1.00  0.00    -0.248 NA
ATOM     44  C   UNL     1       8.175  11.485  -1.109  1.00  0.00     0.031 C 
ATOM     45  C   UNL     1       9.038   6.650  -0.030  1.00  0.00     0.029 A 
ATOM     46  N   UNL     1      10.801   8.025  -0.058  1.00  0.00    -0.354 N 
ATOM     47  C   UNL     1      10.348  12.211  -1.067  1.00  0.00     0.074 A 
ATOM     48  C   UNL     1       8.960  12.528  -1.336  1.00  0.00     0.031 C 
ATOM     49  C   UNL     1      10.123   5.920   0.273  1.00  0.00     0.029 A 
ATOM     50  C   UNL     1      11.304   6.777   0.232  1.00  0.00     0.049 A 
ATOM     51  H   UNL     1      11.363   8.830  -0.124  1.00  0.00     0.167 HD
ATOM     52  C   UNL     1      11.361  13.113  -1.097  1.00  0.00     0.034 A 
ATOM     53  C   UNL     1      12.574   6.367   0.427  1.00  0.00     0.034 A 
ATOM     54  C   UNL     1      12.739  12.786  -0.819  1.00  0.00     0.049 A 
ATOM     55  C   UNL     1      13.688   7.381   0.358  1.00  0.00     0.074 A 
ATOM     56  C   UNL     1      13.839  13.626  -0.790  1.00  0.00     0.029 A 
ATOM     57  N   UNL     1      13.209  11.512  -0.522  1.00  0.00    -0.354 N 
ATOM     58  N   UNL     1      13.621   8.667   0.098  1.00  0.00    -0.248 NA
ATOM     59  C   UNL     1      15.048   6.891   0.620  1.00  0.00     0.031 C 
ATOM     60  C   UNL     1      14.978  12.854  -0.535  1.00  0.00     0.029 A 
ATOM     61  C   UNL     1      14.583  11.542  -0.334  1.00  0.00     0.049 A 
ATOM     62  H   UNL     1      12.648  10.706  -0.455  1.00  0.00     0.167 HD
ATOM     63  C   UNL     1      14.925   9.142   0.198  1.00  0.00     0.074 A 
ATOM     64  C   UNL     1      15.754   8.010   0.555  1.00  0.00     0.031 C 
ATOM     65  C   UNL     1      15.397  10.402   0.015  1.00  0.00     0.034 A 
BRANCH  52  66
ATOM     66  C   UNL     1      11.011  14.536  -1.468  1.00  0.00     0.023 A 
ATOM     67  C   UNL     1      10.151  15.313  -0.671  1.00  0.00     0.031 A 
ATOM     68  C   UNL     1      11.516  15.114  -2.645  1.00  0.00     0.131 A 
ATOM     69  C   UNL     1       9.760  16.590  -1.101  1.00  0.00     0.055 A 
ATOM     70  C   UNL     1      11.189  16.418  -3.025  1.00  0.00     0.041 A 
ATOM     71  F   UNL     1      12.327  14.417  -3.457  1.00  0.00    -0.206 F 
ATOM     72  C   UNL     1      10.293  17.159  -2.259  1.00  0.00     0.022 A 
BRANCH  69  73
ATOM     73  S   UNL     1       8.433  17.437  -0.199  1.00  0.00     0.124 S 
ATOM     74  O   UNL     1       7.332  16.487  -0.339  1.00  0.00    -0.237 OA
ATOM     75  O   UNL     1       8.996  17.570   1.139  1.00  0.00    -0.237 OA
ATOM     76  O   UNL     1       8.264  18.688  -0.934  1.00  0.00    -0.744 OA
ENDBRANCH  69  73
ENDBRANCH  52  66
BRANCH  53  77
ATOM     77  C   UNL     1      12.872   4.930   0.691  1.00  0.00     0.023 A 
ATOM     78  C   UNL     1      13.423   4.518   1.914  1.00  0.00     0.031 A 
ATOM     79  C   UNL     1      12.658   3.954  -0.298  1.00  0.00     0.131 A 
ATOM     80  C   UNL     1      13.790   3.176   2.099  1.00  0.00     0.055 A 
ATOM     81  C   UNL     1      12.975   2.610  -0.090  1.00  0.00     0.041 A 
ATOM     82  F   UNL     1      12.129   4.293  -1.485  1.00  0.00    -0.206 F 
ATOM     83  C   UNL     1      13.558   2.217   1.111  1.00  0.00     0.022 A 
BRANCH  80  84
ATOM     84  S   UNL     1      14.664   2.718   3.622  1.00  0.00     0.124 S 
ATOM     85  O   UNL     1      15.815   3.612   3.584  1.00  0.00    -0.237 OA
ATOM     86  O   UNL     1      13.661   3.005   4.642  1.00  0.00    -0.237 OA
ATOM     87  O   UNL     1      14.965   1.301   3.427  1.00  0.00    -0.744 OA
ENDBRANCH  80  84
ENDBRANCH  53  77
BRANCH  65  88
ATOM     88  C   UNL     1      16.872  10.620   0.249  1.00  0.00     0.023 A 
ATOM     89  C   UNL     1      17.846  10.065  -0.599  1.00  0.00     0.031 A 
ATOM     90  C   UNL     1      17.306  11.382   1.348  1.00  0.00     0.131 A 
ATOM     91  C   UNL     1      19.207  10.232  -0.302  1.00  0.00     0.055 A 
ATOM     92  C   UNL     1      18.662  11.592   1.606  1.00  0.00     0.041 A 
ATOM     93  F   UNL     1      16.419  11.934   2.191  1.00  0.00    -0.206 F 
ATOM     94  C   UNL     1      19.621  11.005   0.786  1.00  0.00     0.022 A 
BRANCH  91  95
ATOM     95  S   UNL     1      20.433   9.353  -1.310  1.00  0.00     0.124 S 
ATOM     96  O   UNL     1      20.038   7.961  -1.123  1.00  0.00    -0.237 OA
ATOM     97  O   UNL     1      20.199   9.908  -2.640  1.00  0.00    -0.237 OA
ATOM     98  O   UNL     1      21.708   9.724  -0.700  1.00  0.00    -0.744 OA
ENDBRANCH  91  95
ENDBRANCH  65  88
ENDBRANCH  39  40
ENDBRANCH  31  34
ENDBRANCH  29  30
ENDBRANCH   1  29
TORSDOF 16
