REMARK SMILES CC1=C(C)C[C@@H](C(=O)NCCCNC(=O)c2ccc(-c3c4nc(c(-c5cc(S(=O)(=O)[O-])ccc5F)c5ccc([nH]5)c(-c5cc(S(=O)(=O)[O-])ccc5F)c5nc(c(-c6cc(S(=O)(=O)[O-])ccc6F)c6ccc3[nH]6)C=C5)C=C4)cc2)[C@@H](C(=O)NCC[NH+]2CCOCC2)C1
REMARK SMILES IDX 10 1 9 2 7 3 8 4 6 6 1 7 2 8 3 9 91 10 4 11 5 12 79 13 80 14
REMARK SMILES IDX 81 15 82 16 83 18 84 19 85 20 86 21 90 22 87 24 89 25 88 26
REMARK SMILES IDX 11 27 12 28 13 29 14 30 15 32 16 33 17 34 78 35 18 36 77 37
REMARK SMILES IDX 19 38 20 39 21 40 71 41 22 42 76 43 70 44 72 45 23 46 75 47
REMARK SMILES IDX 69 48 68 49 24 51 56 52 36 53 55 54 37 55 40 56 54 57 73 58
REMARK SMILES IDX 38 59 39 60 53 62 74 63 41 64 25 65 26 66 34 67 27 68 33 69
REMARK SMILES IDX 35 70 32 71 28 72 29 73 30 74 31 75 57 76 58 77 66 78 59 79
REMARK SMILES IDX 65 80 67 81 64 82 60 83 61 84 62 85 63 86 42 87 43 88 51 89
REMARK SMILES IDX 44 90 50 91 52 92 49 93 45 94 46 95 47 96 48 97
REMARK H PARENT 9 5 82 17 85 23 13 31 72 50 40 61
REMARK Flexibility Score: inf
ROOT
ATOM      1  C   UNL     1       2.158  -3.119   3.090  1.00  0.00     0.117 C 
ENDROOT
BRANCH   1   2
ATOM      2  N   UNL     1       1.370  -4.329   3.229  1.00  0.00    -0.356 N 
ATOM      3  C   UNL     1       0.426  -4.884   2.425  1.00  0.00     0.224 C 
ATOM      4  O   UNL     1       0.022  -6.012   2.730  1.00  0.00    -0.275 OA
ATOM      5  H   UNL     1       1.552  -4.838   4.052  1.00  0.00     0.163 HD
BRANCH   3   6
ATOM      6  C   UNL     1      -0.095  -4.210   1.153  1.00  0.00     0.095 C 
ATOM      7  C   UNL     1       0.499  -0.230  -0.753  1.00  0.00     0.039 C 
ATOM      8  C   UNL     1       0.321  -1.645  -0.269  1.00  0.00    -0.074 C 
ATOM      9  C   UNL     1       1.291  -2.580  -0.323  1.00  0.00    -0.074 C 
ATOM     10  C   UNL     1      -1.066  -2.034   0.188  1.00  0.00     0.045 C 
ATOM     11  C   UNL     1       2.670  -2.365  -0.892  1.00  0.00     0.039 C 
ATOM     12  C   UNL     1       1.031  -4.000   0.124  1.00  0.00     0.045 C 
ATOM     13  C   UNL     1      -1.106  -3.050   1.331  1.00  0.00     0.095 C 
BRANCH  13  14
ATOM     14  C   UNL     1      -1.324  -2.591   2.781  1.00  0.00     0.224 C 
ATOM     15  O   UNL     1      -1.800  -3.399   3.590  1.00  0.00    -0.275 OA
ATOM     16  N   UNL     1      -1.058  -1.364   3.278  1.00  0.00    -0.350 N 
ATOM     17  H   UNL     1      -1.305  -1.274   4.227  1.00  0.00     0.163 HD
BRANCH  16  18
ATOM     18  C   UNL     1      -0.491  -0.151   2.725  1.00  0.00     0.177 C 
BRANCH  18  19
ATOM     19  C   UNL     1      -0.863   1.098   3.549  1.00  0.00     0.283 C 
BRANCH  19  20
ATOM     20  N   UNL     1      -0.351   1.108   4.932  1.00  0.00    -0.330 N 
ATOM     21  C   UNL     1      -0.996   2.197   5.717  1.00  0.00     0.291 C 
ATOM     22  C   UNL     1       1.106   1.366   4.999  1.00  0.00     0.291 C 
ATOM     23  H   UNL     1      -0.560   0.183   5.307  1.00  0.00     0.348 HD
ATOM     24  C   UNL     1      -0.588   3.611   5.263  1.00  0.00     0.221 C 
ATOM     25  C   UNL     1       1.530   2.778   4.564  1.00  0.00     0.221 C 
ATOM     26  O   UNL     1       0.830   3.795   5.278  1.00  0.00    -0.370 OA
ENDBRANCH  19  20
ENDBRANCH  18  19
ENDBRANCH  16  18
ENDBRANCH  13  14
ENDBRANCH   3   6
ENDBRANCH   1   2
BRANCH   1  27
ATOM     27  C   UNL     1       2.097  -2.224   4.322  1.00  0.00     0.042 C 
BRANCH  27  28
ATOM     28  C   UNL     1       2.840  -2.752   5.543  1.00  0.00     0.118 C 
BRANCH  28  29
ATOM     29  N   UNL     1       4.198  -2.240   5.616  1.00  0.00    -0.352 N 
ATOM     30  C   UNL     1       4.766  -1.117   6.165  1.00  0.00     0.251 C 
ATOM     31  H   UNL     1       4.854  -2.827   5.175  1.00  0.00     0.163 HD
ATOM     32  O   UNL     1       5.932  -0.885   5.834  1.00  0.00    -0.269 OA
BRANCH  30  33
ATOM     33  C   UNL     1       4.082  -0.166   7.094  1.00  0.00     0.039 A 
ATOM     34  C   UNL     1       4.626   1.125   7.202  1.00  0.00     0.014 A 
ATOM     35  C   UNL     1       3.020  -0.492   7.938  1.00  0.00     0.014 A 
ATOM     36  C   UNL     1       4.128   2.053   8.130  1.00  0.00     0.010 A 
ATOM     37  C   UNL     1       2.461   0.466   8.802  1.00  0.00     0.010 A 
ATOM     38  C   UNL     1       3.029   1.740   8.941  1.00  0.00    -0.014 A 
BRANCH  38  39
ATOM     39  C   UNL     1       2.526   2.708   9.966  1.00  0.00     0.031 A 
ATOM     40  C   UNL     1       2.559   2.367  11.436  1.00  0.00     0.074 A 
ATOM     41  C   UNL     1       2.022   3.901   9.594  1.00  0.00     0.049 A 
ATOM     42  N   UNL     1       2.195   3.092  12.466  1.00  0.00    -0.248 NA
ATOM     43  C   UNL     1       3.038   1.025  11.791  1.00  0.00     0.031 C 
ATOM     44  C   UNL     1       1.893   4.360   8.215  1.00  0.00     0.029 A 
ATOM     45  N   UNL     1       1.527   4.947  10.335  1.00  0.00    -0.354 N 
ATOM     46  C   UNL     1       2.396   2.293  13.588  1.00  0.00     0.074 A 
ATOM     47  C   UNL     1       2.830   1.001  13.098  1.00  0.00     0.031 C 
ATOM     48  C   UNL     1       1.370   5.596   8.202  1.00  0.00     0.029 A 
ATOM     49  C   UNL     1       1.120   6.020   9.575  1.00  0.00     0.049 A 
ATOM     50  H   UNL     1       1.468   4.931  11.318  1.00  0.00     0.167 HD
ATOM     51  C   UNL     1       2.273   2.610  14.903  1.00  0.00     0.034 A 
ATOM     52  C   UNL     1       0.620   7.218   9.933  1.00  0.00     0.034 A 
ATOM     53  C   UNL     1       1.852   3.903  15.391  1.00  0.00     0.049 A 
ATOM     54  C   UNL     1       0.477   7.552  11.393  1.00  0.00     0.074 A 
ATOM     55  C   UNL     1       1.756   4.345  16.700  1.00  0.00     0.029 A 
ATOM     56  N   UNL     1       1.445   4.962  14.589  1.00  0.00    -0.354 N 
ATOM     57  N   UNL     1       0.741   6.809  12.441  1.00  0.00    -0.248 NA
ATOM     58  C   UNL     1      -0.007   8.901  11.714  1.00  0.00     0.031 C 
ATOM     59  C   UNL     1       1.239   5.647  16.692  1.00  0.00     0.029 A 
ATOM     60  C   UNL     1       1.072   6.044  15.376  1.00  0.00     0.049 A 
ATOM     61  H   UNL     1       1.425   4.948  13.605  1.00  0.00     0.167 HD
ATOM     62  C   UNL     1       0.491   7.615  13.548  1.00  0.00     0.074 A 
ATOM     63  C   UNL     1       0.061   8.901  13.037  1.00  0.00     0.031 C 
ATOM     64  C   UNL     1       0.620   7.319  14.867  1.00  0.00     0.034 A 
BRANCH  51  65
ATOM     65  C   UNL     1       2.587   1.514  15.898  1.00  0.00     0.023 A 
ATOM     66  C   UNL     1       3.862   0.921  15.958  1.00  0.00     0.031 A 
ATOM     67  C   UNL     1       1.586   1.000  16.741  1.00  0.00     0.131 A 
ATOM     68  C   UNL     1       4.070  -0.219  16.748  1.00  0.00     0.055 A 
ATOM     69  C   UNL     1       1.828  -0.075  17.600  1.00  0.00     0.041 A 
ATOM     70  F   UNL     1       0.346   1.514  16.723  1.00  0.00    -0.206 F 
ATOM     71  C   UNL     1       3.068  -0.708  17.588  1.00  0.00     0.022 A 
BRANCH  68  72
ATOM     72  S   UNL     1       5.599  -1.166  16.505  1.00  0.00     0.124 S 
ATOM     73  O   UNL     1       5.548  -1.446  15.071  1.00  0.00    -0.237 OA
ATOM     74  O   UNL     1       6.624  -0.227  16.939  1.00  0.00    -0.237 OA
ATOM     75  O   UNL     1       5.417  -2.336  17.365  1.00  0.00    -0.744 OA
ENDBRANCH  68  72
ENDBRANCH  51  65
BRANCH  52  76
ATOM     76  C   UNL     1       0.255   8.217   8.891  1.00  0.00     0.023 A 
ATOM     77  C   UNL     1       1.023   9.377   8.709  1.00  0.00     0.031 A 
ATOM     78  C   UNL     1      -0.877   8.033   8.079  1.00  0.00     0.131 A 
ATOM     79  C   UNL     1       0.629  10.332   7.760  1.00  0.00     0.055 A 
ATOM     80  C   UNL     1      -1.246   8.970   7.112  1.00  0.00     0.041 A 
ATOM     81  F   UNL     1      -1.635   6.933   8.208  1.00  0.00    -0.206 F 
ATOM     82  C   UNL     1      -0.495  10.133   6.955  1.00  0.00     0.022 A 
BRANCH  79  83
ATOM     83  S   UNL     1       1.588  11.865   7.618  1.00  0.00     0.124 S 
ATOM     84  O   UNL     1       1.410  12.452   8.941  1.00  0.00    -0.237 OA
ATOM     85  O   UNL     1       2.924  11.362   7.313  1.00  0.00    -0.237 OA
ATOM     86  O   UNL     1       0.931  12.578   6.524  1.00  0.00    -0.744 OA
ENDBRANCH  79  83
ENDBRANCH  52  76
BRANCH  64  87
ATOM     87  C   UNL     1       0.328   8.432  15.843  1.00  0.00     0.023 A 
ATOM     88  C   UNL     1      -0.966   8.964  15.995  1.00  0.00     0.031 A 
ATOM     89  C   UNL     1       1.369   9.004  16.595  1.00  0.00     0.131 A 
ATOM     90  C   UNL     1      -1.173  10.077  16.825  1.00  0.00     0.055 A 
ATOM     91  C   UNL     1       1.147  10.075  17.464  1.00  0.00     0.041 A 
ATOM     92  F   UNL     1       2.624   8.540  16.488  1.00  0.00    -0.206 F 
ATOM     93  C   UNL     1      -0.127  10.627  17.570  1.00  0.00     0.022 A 
BRANCH  90  94
ATOM     94  S   UNL     1      -2.804  10.870  16.829  1.00  0.00     0.124 S 
ATOM     95  O   UNL     1      -3.010  11.154  15.412  1.00  0.00    -0.237 OA
ATOM     96  O   UNL     1      -3.654   9.831  17.400  1.00  0.00    -0.237 OA
ATOM     97  O   UNL     1      -2.612  12.047  17.674  1.00  0.00    -0.744 OA
ENDBRANCH  90  94
ENDBRANCH  64  87
ENDBRANCH  38  39
ENDBRANCH  30  33
ENDBRANCH  28  29
ENDBRANCH  27  28
ENDBRANCH   1  27
TORSDOF 17
