REMARK SMILES CC(C)CC[C@H](C(=O)NCCCNC(=O)c1ccc(-c2c3nc(c(-c4cc(S(=O)(=O)[O-])ccc4F)c4ccc([nH]4)c(-c4cc(S(=O)(=O)[O-])ccc4F)c4nc(c(-c5cc(S(=O)(=O)[O-])ccc5F)c5ccc2[nH]5)C=C4)C=C3)cc1)c1ccc(F)cc1
REMARK SMILES IDX 11 1 10 2 9 3 7 4 8 5 6 7 5 8 4 9 2 10 1 11 3 12 79 13 80 14
REMARK SMILES IDX 85 15 81 16 84 17 82 18 83 19 12 20 13 21 14 22 15 24 16 25
REMARK SMILES IDX 17 26 78 27 18 28 77 29 19 30 20 31 21 32 71 33 22 34 76 35
REMARK SMILES IDX 70 36 72 37 23 38 75 39 69 40 68 41 24 43 56 44 36 45 55 46
REMARK SMILES IDX 37 47 40 48 54 49 73 50 38 51 39 52 53 54 74 55 41 56 25 57
REMARK SMILES IDX 26 58 34 59 27 60 33 61 35 62 32 63 28 64 29 65 30 66 31 67
REMARK SMILES IDX 57 68 58 69 66 70 59 71 65 72 67 73 64 74 60 75 61 76 62 77
REMARK SMILES IDX 63 78 42 79 43 80 51 81 44 82 50 83 52 84 49 85 45 86 46 87
REMARK SMILES IDX 47 88 48 89
REMARK H PARENT 9 6 13 23 72 42 40 53
REMARK Flexibility Score: inf
ROOT
ATOM      1  C   UNL     1       1.472  -1.218   0.017  1.00  0.00     0.042 C 
ENDROOT
BRANCH   1   2
ATOM      2  C   UNL     1       0.209  -1.730  -0.664  1.00  0.00     0.117 C 
BRANCH   2   3
ATOM      3  N   UNL     1      -0.885  -0.787  -0.534  1.00  0.00    -0.356 N 
ATOM      4  C   UNL     1      -1.442   0.050  -1.456  1.00  0.00     0.227 C 
ATOM      5  O   UNL     1      -2.338   0.798  -1.059  1.00  0.00    -0.274 OA
ATOM      6  H   UNL     1      -1.290  -0.744   0.363  1.00  0.00     0.163 HD
BRANCH   4   7
ATOM      7  C   UNL     1      -1.004  -0.037  -2.930  1.00  0.00     0.108 C 
BRANCH   7   8
ATOM      8  C   UNL     1      -1.787  -1.240  -3.547  1.00  0.00     0.018 C 
BRANCH   8   9
ATOM      9  C   UNL     1      -3.334  -1.180  -3.499  1.00  0.00     0.004 C 
BRANCH   9  10
ATOM     10  C   UNL     1      -4.011  -0.223  -4.494  1.00  0.00    -0.017 C 
ATOM     11  C   UNL     1      -3.906  -0.730  -5.934  1.00  0.00     0.007 C 
ATOM     12  C   UNL     1      -5.481   0.005  -4.137  1.00  0.00     0.007 C 
ENDBRANCH   9  10
ENDBRANCH   8   9
ENDBRANCH   7   8
BRANCH   7  13
ATOM     13  C   UNL     1      -1.069   1.288  -3.701  1.00  0.00    -0.035 A 
ATOM     14  C   UNL     1      -1.005   2.527  -3.038  1.00  0.00     0.007 A 
ATOM     15  C   UNL     1      -1.174   1.312  -5.104  1.00  0.00     0.007 A 
ATOM     16  C   UNL     1      -1.224   3.725  -3.722  1.00  0.00     0.039 A 
ATOM     17  C   UNL     1      -1.425   2.504  -5.788  1.00  0.00     0.039 A 
ATOM     18  C   UNL     1      -1.475   3.698  -5.085  1.00  0.00     0.123 A 
ATOM     19  F   UNL     1      -1.768   4.834  -5.730  1.00  0.00    -0.207 F 
ENDBRANCH   7  13
ENDBRANCH   4   7
ENDBRANCH   2   3
ENDBRANCH   1   2
BRANCH   1  20
ATOM     20  C   UNL     1       1.337  -1.068   1.530  1.00  0.00     0.118 C 
BRANCH  20  21
ATOM     21  N   UNL     1       1.107  -2.341   2.199  1.00  0.00    -0.352 N 
ATOM     22  C   UNL     1       1.824  -2.955   3.193  1.00  0.00     0.251 C 
ATOM     23  H   UNL     1       0.315  -2.837   1.889  1.00  0.00     0.163 HD
ATOM     24  O   UNL     1       1.571  -4.130   3.472  1.00  0.00    -0.269 OA
BRANCH  22  25
ATOM     25  C   UNL     1       2.899  -2.236   3.910  1.00  0.00     0.039 A 
ATOM     26  C   UNL     1       4.075  -2.921   4.226  1.00  0.00     0.014 A 
ATOM     27  C   UNL     1       2.746  -0.902   4.299  1.00  0.00     0.014 A 
ATOM     28  C   UNL     1       5.115  -2.254   4.880  1.00  0.00     0.010 A 
ATOM     29  C   UNL     1       3.813  -0.217   4.877  1.00  0.00     0.010 A 
ATOM     30  C   UNL     1       5.008  -0.887   5.182  1.00  0.00    -0.014 A 
BRANCH  30  31
ATOM     31  C   UNL     1       6.130  -0.151   5.826  1.00  0.00     0.031 A 
ATOM     32  C   UNL     1       5.947   0.462   7.191  1.00  0.00     0.074 A 
ATOM     33  C   UNL     1       7.292   0.009   5.160  1.00  0.00     0.049 A 
ATOM     34  N   UNL     1       6.782   1.190   7.888  1.00  0.00    -0.248 NA
ATOM     35  C   UNL     1       4.646   0.255   7.846  1.00  0.00     0.031 C 
ATOM     36  C   UNL     1       7.572  -0.500   3.814  1.00  0.00     0.029 A 
ATOM     37  N   UNL     1       8.452   0.654   5.514  1.00  0.00    -0.354 N 
ATOM     38  C   UNL     1       6.102   1.545   9.049  1.00  0.00     0.074 A 
ATOM     39  C   UNL     1       4.771   0.990   8.941  1.00  0.00     0.031 C 
ATOM     40  C   UNL     1       8.826  -0.166   3.468  1.00  0.00     0.029 A 
ATOM     41  C   UNL     1       9.425   0.623   4.539  1.00  0.00     0.049 A 
ATOM     42  H   UNL     1       8.577   1.097   6.384  1.00  0.00     0.167 HD
ATOM     43  C   UNL     1       6.554   2.256  10.111  1.00  0.00     0.034 A 
ATOM     44  C   UNL     1      10.653   1.179   4.505  1.00  0.00     0.034 A 
ATOM     45  C   UNL     1       7.896   2.775  10.217  1.00  0.00     0.049 A 
ATOM     46  C   UNL     1      11.130   1.959   5.708  1.00  0.00     0.074 A 
ATOM     47  C   UNL     1       8.478   3.436  11.285  1.00  0.00     0.029 A 
ATOM     48  N   UNL     1       8.861   2.702   9.222  1.00  0.00    -0.354 N 
ATOM     49  N   UNL     1      10.497   2.218   6.830  1.00  0.00    -0.248 NA
ATOM     50  C   UNL     1      12.492   2.504   5.650  1.00  0.00     0.031 C 
ATOM     51  C   UNL     1       9.765   3.831  10.907  1.00  0.00     0.029 A 
ATOM     52  C   UNL     1      10.021   3.337   9.639  1.00  0.00     0.049 A 
ATOM     53  H   UNL     1       8.740   2.263   8.349  1.00  0.00     0.167 HD
ATOM     54  C   UNL     1      11.403   2.918   7.623  1.00  0.00     0.074 A 
ATOM     55  C   UNL     1      12.628   3.021   6.861  1.00  0.00     0.031 C 
ATOM     56  C   UNL     1      11.239   3.428   8.870  1.00  0.00     0.034 A 
BRANCH  43  57
ATOM     57  C   UNL     1       5.588   2.544  11.235  1.00  0.00     0.023 A 
ATOM     58  C   UNL     1       5.055   1.525  12.042  1.00  0.00     0.031 A 
ATOM     59  C   UNL     1       5.220   3.872  11.521  1.00  0.00     0.131 A 
ATOM     60  C   UNL     1       4.150   1.845  13.066  1.00  0.00     0.055 A 
ATOM     61  C   UNL     1       4.377   4.190  12.587  1.00  0.00     0.041 A 
ATOM     62  F   UNL     1       5.680   4.885  10.770  1.00  0.00    -0.206 F 
ATOM     63  C   UNL     1       3.830   3.172  13.362  1.00  0.00     0.022 A 
BRANCH  60  64
ATOM     64  S   UNL     1       3.318   0.495  13.946  1.00  0.00     0.124 S 
ATOM     65  O   UNL     1       2.599  -0.166  12.860  1.00  0.00    -0.237 OA
ATOM     66  O   UNL     1       4.436  -0.247  14.517  1.00  0.00    -0.237 OA
ATOM     67  O   UNL     1       2.470   1.188  14.914  1.00  0.00    -0.744 OA
ENDBRANCH  60  64
ENDBRANCH  43  57
BRANCH  44  68
ATOM     68  C   UNL     1      11.521   1.053   3.295  1.00  0.00     0.023 A 
ATOM     69  C   UNL     1      12.781   0.436   3.366  1.00  0.00     0.031 A 
ATOM     70  C   UNL     1      11.142   1.628   2.069  1.00  0.00     0.131 A 
ATOM     71  C   UNL     1      13.646   0.480   2.261  1.00  0.00     0.055 A 
ATOM     72  C   UNL     1      11.977   1.605   0.951  1.00  0.00     0.041 A 
ATOM     73  F   UNL     1       9.947   2.229   1.940  1.00  0.00    -0.206 F 
ATOM     74  C   UNL     1      13.247   1.048   1.050  1.00  0.00     0.022 A 
BRANCH  71  75
ATOM     75  S   UNL     1      15.355  -0.091   2.476  1.00  0.00     0.124 S 
ATOM     76  O   UNL     1      15.791   0.704   3.618  1.00  0.00    -0.237 OA
ATOM     77  O   UNL     1      15.168  -1.517   2.720  1.00  0.00    -0.237 OA
ATOM     78  O   UNL     1      15.988   0.244   1.202  1.00  0.00    -0.744 OA
ENDBRANCH  71  75
ENDBRANCH  44  68
BRANCH  56  79
ATOM     79  C   UNL     1      12.441   4.082   9.511  1.00  0.00     0.023 A 
ATOM     80  C   UNL     1      13.018   5.254   8.989  1.00  0.00     0.031 A 
ATOM     81  C   UNL     1      13.030   3.508  10.651  1.00  0.00     0.131 A 
ATOM     82  C   UNL     1      14.188   5.772   9.565  1.00  0.00     0.055 A 
ATOM     83  C   UNL     1      14.152   4.069  11.263  1.00  0.00     0.041 A 
ATOM     84  F   UNL     1      12.524   2.387  11.192  1.00  0.00    -0.206 F 
ATOM     85  C   UNL     1      14.748   5.198  10.709  1.00  0.00     0.022 A 
BRANCH  82  86
ATOM     86  S   UNL     1      15.038   7.139   8.728  1.00  0.00     0.124 S 
ATOM     87  O   UNL     1      15.269   6.584   7.398  1.00  0.00    -0.237 OA
ATOM     88  O   UNL     1      14.053   8.213   8.807  1.00  0.00    -0.237 OA
ATOM     89  O   UNL     1      16.241   7.340   9.534  1.00  0.00    -0.744 OA
ENDBRANCH  82  86
ENDBRANCH  56  79
ENDBRANCH  30  31
ENDBRANCH  22  25
ENDBRANCH  20  21
ENDBRANCH   1  20
TORSDOF 17
