REMARK SMILES CC[NH+]1CCC2(CC1)OC[C@@H](C(=O)NCCCNC(=O)c1ccc(-c3c4nc(c(-c5cc(S(=O)(=O)[O-])ccc5F)c5ccc([nH]5)c(-c5cc(S(=O)(=O)[O-])ccc5F)c5nc(c(-c6cc(S(=O)(=O)[O-])ccc6F)c6ccc3[nH]6)C=C5)C=C4)cc1)N2C(=O)c1ccc(Cl)c([N+](=O)[O-])c1
REMARK SMILES IDX 16 1 15 2 14 3 12 4 13 5 11 7 3 8 4 9 8 10 5 12 7 13 6 14
REMARK SMILES IDX 9 15 84 16 10 17 2 18 1 19 85 20 86 21 87 22 88 23 96 24
REMARK SMILES IDX 89 25 92 26 90 27 91 28 93 29 94 30 95 31 17 32 18 33 19 34
REMARK SMILES IDX 20 36 21 37 22 38 83 39 23 40 82 41 24 42 25 43 26 44 76 45
REMARK SMILES IDX 27 46 81 47 75 48 77 49 28 50 80 51 74 52 73 53 29 55 61 56
REMARK SMILES IDX 41 57 60 58 42 59 45 60 59 61 78 62 43 63 44 64 58 66 79 67
REMARK SMILES IDX 46 68 30 69 31 70 39 71 32 72 38 73 40 74 37 75 33 76 34 77
REMARK SMILES IDX 35 78 36 79 62 80 63 81 71 82 64 83 70 84 72 85 69 86 65 87
REMARK SMILES IDX 66 88 67 89 68 90 47 91 48 92 56 93 49 94 55 95 57 96 54 97
REMARK SMILES IDX 50 98 51 99 52 100 53 101
REMARK H PARENT 14 6 3 11 18 35 77 54 45 65
REMARK Flexibility Score: inf
ROOT
ATOM      1  C   UNL     1       4.832  -1.380  -5.419  1.00  0.00     0.042 C 
ENDROOT
BRANCH   1   2
ATOM      2  C   UNL     1       5.854  -1.241  -4.309  1.00  0.00     0.117 C 
BRANCH   2   3
ATOM      3  N   UNL     1       6.740  -0.122  -4.546  1.00  0.00    -0.354 N 
ATOM      4  C   UNL     1       6.754   1.119  -3.991  1.00  0.00     0.245 C 
ATOM      5  O   UNL     1       7.730   1.831  -4.258  1.00  0.00    -0.273 OA
ATOM      6  H   UNL     1       7.444  -0.285  -5.215  1.00  0.00     0.163 HD
BRANCH   4   7
ATOM      7  C   UNL     1       5.775   1.543  -2.882  1.00  0.00     0.203 C 
ATOM      8  N   UNL     1       1.067   1.335  -0.865  1.00  0.00    -0.335 N 
ATOM      9  C   UNL     1       2.111   2.331  -0.696  1.00  0.00     0.267 C 
ATOM     10  C   UNL     1       1.332   0.178  -1.705  1.00  0.00     0.267 C 
ATOM     11  H   UNL     1       0.454   1.850  -1.497  1.00  0.00     0.348 HD
ATOM     12  C   UNL     1       3.518   1.788  -0.632  1.00  0.00     0.120 C 
ATOM     13  C   UNL     1       2.765  -0.330  -1.751  1.00  0.00     0.120 C 
ATOM     14  C   UNL     1       3.839   0.754  -1.722  1.00  0.00     0.155 C 
ATOM     15  O   UNL     1       5.020   0.066  -1.208  1.00  0.00    -0.352 OA
ATOM     16  N   UNL     1       4.331   1.315  -2.999  1.00  0.00    -0.295 N 
ATOM     17  C   UNL     1       6.181   0.799  -1.621  1.00  0.00     0.198 C 
BRANCH   8  18
ATOM     18  C   UNL     1       0.236   1.089   0.310  1.00  0.00     0.258 C 
ATOM     19  C   UNL     1       0.690  -0.073   1.183  1.00  0.00     0.071 C 
ENDBRANCH   8  18
BRANCH  16  20
ATOM     20  C   UNL     1       3.716   1.925  -4.095  1.00  0.00     0.257 C 
ATOM     21  O   UNL     1       4.360   2.539  -4.944  1.00  0.00    -0.269 OA
BRANCH  20  22
ATOM     22  C   UNL     1       2.266   1.851  -4.358  1.00  0.00     0.047 A 
ATOM     23  C   UNL     1       1.722   0.836  -5.148  1.00  0.00     0.016 A 
ATOM     24  C   UNL     1       1.432   2.872  -3.904  1.00  0.00     0.101 A 
ATOM     25  C   UNL     1       0.336   0.760  -5.342  1.00  0.00     0.028 A 
ATOM     26  C   UNL     1       0.029   2.739  -3.999  1.00  0.00     0.288 A 
ATOM     27  C   UNL     1      -0.527   1.680  -4.729  1.00  0.00     0.118 A 
ATOM     28  Cl  UNL     1      -2.213   1.399  -4.965  1.00  0.00    -0.077 Cl
BRANCH  26  29
ATOM     29  N   UNL     1      -0.778   3.672  -3.205  1.00  0.00     0.064 N 
ATOM     30  O   UNL     1      -1.922   3.348  -2.867  1.00  0.00    -0.258 OA
ATOM     31  O   UNL     1      -0.231   4.729  -2.851  1.00  0.00    -0.258 OA
ENDBRANCH  26  29
ENDBRANCH  20  22
ENDBRANCH  16  20
ENDBRANCH   4   7
ENDBRANCH   2   3
ENDBRANCH   1   2
BRANCH   1  32
ATOM     32  C   UNL     1       5.429  -1.690  -6.782  1.00  0.00     0.118 C 
BRANCH  32  33
ATOM     33  N   UNL     1       6.118  -2.969  -6.809  1.00  0.00    -0.352 N 
ATOM     34  C   UNL     1       5.849  -4.104  -7.535  1.00  0.00     0.251 C 
ATOM     35  H   UNL     1       6.901  -3.032  -6.215  1.00  0.00     0.163 HD
ATOM     36  O   UNL     1       6.428  -5.146  -7.253  1.00  0.00    -0.269 OA
BRANCH  34  37
ATOM     37  C   UNL     1       4.844  -4.073  -8.622  1.00  0.00     0.039 A 
ATOM     38  C   UNL     1       3.979  -5.160  -8.770  1.00  0.00     0.014 A 
ATOM     39  C   UNL     1       4.756  -2.988  -9.497  1.00  0.00     0.014 A 
ATOM     40  C   UNL     1       2.985  -5.125  -9.749  1.00  0.00     0.010 A 
ATOM     41  C   UNL     1       3.703  -2.910 -10.404  1.00  0.00     0.010 A 
ATOM     42  C   UNL     1       2.810  -3.982 -10.547  1.00  0.00    -0.014 A 
BRANCH  42  43
ATOM     43  C   UNL     1       1.711  -3.895 -11.544  1.00  0.00     0.031 A 
ATOM     44  C   UNL     1       2.030  -3.730 -13.006  1.00  0.00     0.074 A 
ATOM     45  C   UNL     1       0.429  -3.909 -11.127  1.00  0.00     0.049 A 
ATOM     46  N   UNL     1       1.216  -3.565 -14.017  1.00  0.00    -0.248 NA
ATOM     47  C   UNL     1       3.454  -3.720 -13.374  1.00  0.00     0.031 C 
ATOM     48  C   UNL     1      -0.005  -4.029  -9.732  1.00  0.00     0.029 A 
ATOM     49  N   UNL     1      -0.746  -3.819 -11.829  1.00  0.00    -0.354 N 
ATOM     50  C   UNL     1       2.028  -3.420 -15.137  1.00  0.00     0.074 A 
ATOM     51  C   UNL     1       3.397  -3.446 -14.668  1.00  0.00     0.031 C 
ATOM     52  C   UNL     1      -1.346  -4.037  -9.687  1.00  0.00     0.029 A 
ATOM     53  C   UNL     1      -1.871  -3.866 -11.038  1.00  0.00     0.049 A 
ATOM     54  H   UNL     1      -0.781  -3.728 -12.809  1.00  0.00     0.167 HD
ATOM     55  C   UNL     1       1.666  -3.301 -16.439  1.00  0.00     0.034 A 
ATOM     56  C   UNL     1      -3.176  -3.769 -11.361  1.00  0.00     0.034 A 
ATOM     57  C   UNL     1       0.295  -3.286 -16.889  1.00  0.00     0.049 A 
ATOM     58  C   UNL     1      -3.554  -3.597 -12.811  1.00  0.00     0.074 A 
ATOM     59  C   UNL     1      -0.184  -3.222 -18.185  1.00  0.00     0.029 A 
ATOM     60  N   UNL     1      -0.817  -3.324 -16.057  1.00  0.00    -0.354 N 
ATOM     61  N   UNL     1      -2.774  -3.513 -13.864  1.00  0.00    -0.248 NA
ATOM     62  C   UNL     1      -4.988  -3.518 -13.117  1.00  0.00     0.031 C 
ATOM     63  C   UNL     1      -1.579  -3.139 -18.133  1.00  0.00     0.029 A 
ATOM     64  C   UNL     1      -1.978  -3.247 -16.810  1.00  0.00     0.049 A 
ATOM     65  H   UNL     1      -0.785  -3.396 -15.075  1.00  0.00     0.167 HD
ATOM     66  C   UNL     1      -3.626  -3.406 -14.960  1.00  0.00     0.074 A 
ATOM     67  C   UNL     1      -4.977  -3.454 -14.440  1.00  0.00     0.031 C 
ATOM     68  C   UNL     1      -3.321  -3.285 -16.278  1.00  0.00     0.034 A 
BRANCH  55  69
ATOM     69  C   UNL     1       2.770  -3.153 -17.460  1.00  0.00     0.023 A 
ATOM     70  C   UNL     1       3.736  -4.156 -17.656  1.00  0.00     0.031 A 
ATOM     71  C   UNL     1       2.874  -1.983 -18.233  1.00  0.00     0.131 A 
ATOM     72  C   UNL     1       4.803  -3.939 -18.541  1.00  0.00     0.055 A 
ATOM     73  C   UNL     1       3.888  -1.811 -19.178  1.00  0.00     0.041 A 
ATOM     74  F   UNL     1       1.996  -0.979 -18.076  1.00  0.00    -0.206 F 
ATOM     75  C   UNL     1       4.870  -2.785 -19.325  1.00  0.00     0.022 A 
BRANCH  72  76
ATOM     76  S   UNL     1       6.181  -5.118 -18.539  1.00  0.00     0.124 S 
ATOM     77  O   UNL     1       6.617  -5.060 -17.146  1.00  0.00    -0.237 OA
ATOM     78  O   UNL     1       5.537  -6.358 -18.956  1.00  0.00    -0.237 OA
ATOM     79  O   UNL     1       7.122  -4.548 -19.502  1.00  0.00    -0.744 OA
ENDBRANCH  72  76
ENDBRANCH  55  69
BRANCH  56  80
ATOM     80  C   UNL     1      -4.225  -3.818 -10.300  1.00  0.00     0.023 A 
ATOM     81  C   UNL     1      -5.183  -4.844 -10.276  1.00  0.00     0.031 A 
ATOM     82  C   UNL     1      -4.315  -2.811  -9.322  1.00  0.00     0.131 A 
ATOM     83  C   UNL     1      -6.219  -4.812  -9.330  1.00  0.00     0.055 A 
ATOM     84  C   UNL     1      -5.312  -2.817  -8.345  1.00  0.00     0.041 A 
ATOM     85  F   UNL     1      -3.422  -1.809  -9.294  1.00  0.00    -0.206 F 
ATOM     86  C   UNL     1      -6.282  -3.814  -8.355  1.00  0.00     0.022 A 
BRANCH  83  87
ATOM     87  S   UNL     1      -7.545  -6.044  -9.455  1.00  0.00     0.124 S 
ATOM     88  O   UNL     1      -8.039  -5.811 -10.807  1.00  0.00    -0.237 OA
ATOM     89  O   UNL     1      -6.819  -7.292  -9.242  1.00  0.00    -0.237 OA
ATOM     90  O   UNL     1      -8.461  -5.667  -8.380  1.00  0.00    -0.744 OA
ENDBRANCH  83  87
ENDBRANCH  56  80
BRANCH  68  91
ATOM     91  C   UNL     1      -4.475  -3.248 -17.252  1.00  0.00     0.023 A 
ATOM     92  C   UNL     1      -5.399  -2.189 -17.270  1.00  0.00     0.031 A 
ATOM     93  C   UNL     1      -4.653  -4.295 -18.175  1.00  0.00     0.131 A 
ATOM     94  C   UNL     1      -6.493  -2.231 -18.148  1.00  0.00     0.055 A 
ATOM     95  C   UNL     1      -5.703  -4.296 -19.094  1.00  0.00     0.041 A 
ATOM     96  F   UNL     1      -3.804  -5.335 -18.201  1.00  0.00    -0.206 F 
ATOM     97  C   UNL     1      -6.639  -3.267 -19.074  1.00  0.00     0.022 A 
BRANCH  94  98
ATOM     98  S   UNL     1      -7.781  -0.963 -17.995  1.00  0.00     0.124 S 
ATOM     99  O   UNL     1      -8.208  -1.132 -16.610  1.00  0.00    -0.237 OA
ATOM    100  O   UNL     1      -7.049   0.264 -18.292  1.00  0.00    -0.237 OA
ATOM    101  O   UNL     1      -8.768  -1.354 -19.000  1.00  0.00    -0.744 OA
ENDBRANCH  94  98
ENDBRANCH  68  91
ENDBRANCH  42  43
ENDBRANCH  34  37
ENDBRANCH  32  33
ENDBRANCH   1  32
TORSDOF 17
