REMARK SMILES O=C(NCCCNC(=O)[C@@H]1C=C[C@H](NS(=O)(=O)c2ccc(Cl)cc2)C1)c1ccc(-c2c3nc(c(-c4cc(S(=O)(=O)[O-])ccc4F)c4ccc([nH]4)c(-c4cc(S(=O)(=O)[O-])ccc4F)c4nc(c(-c5cc(S(=O)(=O)[O-])ccc5F)c5ccc2[nH]5)C=C4)C=C3)cc1
REMARK SMILES IDX 5 1 4 2 3 3 1 4 2 5 26 7 27 8 88 9 28 10 87 11 29 12 30 13
REMARK SMILES IDX 31 14 81 15 32 16 86 17 80 18 82 19 33 20 85 21 79 22 78 23
REMARK SMILES IDX 34 25 66 26 46 27 65 28 47 29 50 30 64 31 83 32 48 33 49 34
REMARK SMILES IDX 63 36 84 37 51 38 35 39 36 40 44 41 37 42 43 43 45 44 42 45
REMARK SMILES IDX 38 46 39 47 40 48 41 49 67 50 68 51 76 52 69 53 75 54 77 55
REMARK SMILES IDX 74 56 70 57 71 58 72 59 73 60 52 61 53 62 61 63 54 64 60 65
REMARK SMILES IDX 62 66 59 67 55 68 56 69 57 70 58 71 6 72 7 73 8 74 9 76
REMARK SMILES IDX 10 77 11 78 25 79 12 80 13 81 14 82 15 84 16 85 17 86 18 87
REMARK SMILES IDX 19 88 24 89 20 90 23 91 21 92 22 93
REMARK H PARENT 3 6 82 24 50 35 7 75 14 83
REMARK Flexibility Score: inf
ROOT
ATOM      1  C   UNL     1       4.612  -0.866  -9.102  1.00  0.00     0.042 C 
ENDROOT
BRANCH   1   2
ATOM      2  C   UNL     1       4.346  -0.991 -10.590  1.00  0.00     0.118 C 
BRANCH   2   3
ATOM      3  N   UNL     1       5.480  -1.500 -11.357  1.00  0.00    -0.352 N 
ATOM      4  O   UNL     1       6.559  -2.749 -12.906  1.00  0.00    -0.269 OA
ATOM      5  C   UNL     1       5.497  -2.420 -12.386  1.00  0.00     0.251 C 
ATOM      6  H   UNL     1       6.359  -1.134 -11.105  1.00  0.00     0.163 HD
BRANCH   5   7
ATOM      7  C   UNL     1       4.230  -3.045 -12.831  1.00  0.00     0.039 A 
ATOM      8  C   UNL     1       3.074  -2.280 -12.948  1.00  0.00     0.014 A 
ATOM      9  C   UNL     1       4.181  -4.422 -13.073  1.00  0.00     0.014 A 
ATOM     10  C   UNL     1       1.847  -2.911 -13.071  1.00  0.00     0.010 A 
ATOM     11  C   UNL     1       2.954  -5.040 -13.345  1.00  0.00     0.010 A 
ATOM     12  C   UNL     1       1.766  -4.296 -13.299  1.00  0.00    -0.014 A 
BRANCH  12  13
ATOM     13  C   UNL     1       0.421  -4.890 -13.528  1.00  0.00     0.031 A 
ATOM     14  C   UNL     1      -0.142  -5.948 -12.617  1.00  0.00     0.074 A 
ATOM     15  C   UNL     1      -0.333  -4.379 -14.524  1.00  0.00     0.049 A 
ATOM     16  N   UNL     1      -1.323  -6.514 -12.646  1.00  0.00    -0.248 NA
ATOM     17  C   UNL     1       0.731  -6.447 -11.544  1.00  0.00     0.031 C 
ATOM     18  C   UNL     1       0.120  -3.357 -15.474  1.00  0.00     0.029 A 
ATOM     19  N   UNL     1      -1.640  -4.594 -14.875  1.00  0.00    -0.354 N 
ATOM     20  C   UNL     1      -1.331  -7.446 -11.613  1.00  0.00     0.074 A 
ATOM     21  C   UNL     1      -0.022  -7.391 -10.996  1.00  0.00     0.031 C 
ATOM     22  C   UNL     1      -0.914  -2.965 -16.229  1.00  0.00     0.029 A 
ATOM     23  C   UNL     1      -2.075  -3.779 -15.895  1.00  0.00     0.049 A 
ATOM     24  H   UNL     1      -2.212  -5.267 -14.440  1.00  0.00     0.167 HD
ATOM     25  C   UNL     1      -2.339  -8.265 -11.218  1.00  0.00     0.034 A 
ATOM     26  C   UNL     1      -3.268  -3.705 -16.515  1.00  0.00     0.034 A 
ATOM     27  C   UNL     1      -3.639  -8.300 -11.849  1.00  0.00     0.049 A 
ATOM     28  C   UNL     1      -4.362  -4.626 -16.058  1.00  0.00     0.074 A 
ATOM     29  C   UNL     1      -4.727  -9.102 -11.547  1.00  0.00     0.029 A 
ATOM     30  N   UNL     1      -4.031  -7.492 -12.911  1.00  0.00    -0.354 N 
ATOM     31  N   UNL     1      -4.337  -5.521 -15.097  1.00  0.00    -0.248 NA
ATOM     32  C   UNL     1      -5.641  -4.532 -16.768  1.00  0.00     0.031 C 
ATOM     33  C   UNL     1      -5.753  -8.816 -12.457  1.00  0.00     0.029 A 
ATOM     34  C   UNL     1      -5.335  -7.787 -13.284  1.00  0.00     0.049 A 
ATOM     35  H   UNL     1      -3.464  -6.808 -13.337  1.00  0.00     0.167 HD
ATOM     36  C   UNL     1      -5.600  -6.101 -15.091  1.00  0.00     0.074 A 
ATOM     37  C   UNL     1      -6.373  -5.419 -16.111  1.00  0.00     0.031 C 
ATOM     38  C   UNL     1      -6.077  -7.114 -14.324  1.00  0.00     0.034 A 
BRANCH  25  39
ATOM     39  C   UNL     1      -2.057  -9.221 -10.080  1.00  0.00     0.023 A 
ATOM     40  C   UNL     1      -1.788  -8.766  -8.777  1.00  0.00     0.031 A 
ATOM     41  C   UNL     1      -2.043 -10.610 -10.306  1.00  0.00     0.131 A 
ATOM     42  C   UNL     1      -1.460  -9.684  -7.766  1.00  0.00     0.055 A 
ATOM     43  C   UNL     1      -1.788 -11.522  -9.279  1.00  0.00     0.041 A 
ATOM     44  F   UNL     1      -2.272 -11.105 -11.532  1.00  0.00    -0.206 F 
ATOM     45  C   UNL     1      -1.482 -11.061  -8.002  1.00  0.00     0.022 A 
BRANCH  42  46
ATOM     46  S   UNL     1      -0.885  -9.050  -6.166  1.00  0.00     0.124 S 
ATOM     47  O   UNL     1       0.296  -8.283  -6.557  1.00  0.00    -0.237 OA
ATOM     48  O   UNL     1      -2.027  -8.269  -5.705  1.00  0.00    -0.237 OA
ATOM     49  O   UNL     1      -0.605 -10.260  -5.396  1.00  0.00    -0.744 OA
ENDBRANCH  42  46
ENDBRANCH  25  39
BRANCH  26  50
ATOM     50  C   UNL     1      -3.462  -2.768 -17.659  1.00  0.00     0.023 A 
ATOM     51  C   UNL     1      -4.407  -1.733 -17.606  1.00  0.00     0.031 A 
ATOM     52  C   UNL     1      -2.709  -2.913 -18.840  1.00  0.00     0.131 A 
ATOM     53  C   UNL     1      -4.600  -0.906 -18.724  1.00  0.00     0.055 A 
ATOM     54  C   UNL     1      -2.860  -2.049 -19.924  1.00  0.00     0.041 A 
ATOM     55  F   UNL     1      -1.790  -3.886 -18.945  1.00  0.00    -0.206 F 
ATOM     56  C   UNL     1      -3.821  -1.046 -19.876  1.00  0.00     0.022 A 
BRANCH  53  57
ATOM     57  S   UNL     1      -5.954   0.301 -18.691  1.00  0.00     0.124 S 
ATOM     58  O   UNL     1      -7.099  -0.543 -18.370  1.00  0.00    -0.237 OA
ATOM     59  O   UNL     1      -5.516   1.215 -17.641  1.00  0.00    -0.237 OA
ATOM     60  O   UNL     1      -5.947   0.857 -20.042  1.00  0.00    -0.744 OA
ENDBRANCH  53  57
ENDBRANCH  26  50
BRANCH  38  61
ATOM     61  C   UNL     1      -7.508  -7.518 -14.569  1.00  0.00     0.023 A 
ATOM     62  C   UNL     1      -7.903  -8.110 -15.782  1.00  0.00     0.031 A 
ATOM     63  C   UNL     1      -8.496  -7.255 -13.605  1.00  0.00     0.131 A 
ATOM     64  C   UNL     1      -9.261  -8.352 -16.030  1.00  0.00     0.055 A 
ATOM     65  C   UNL     1      -9.839  -7.555 -13.833  1.00  0.00     0.041 A 
ATOM     66  F   UNL     1      -8.172  -6.687 -12.432  1.00  0.00    -0.206 F 
ATOM     67  C   UNL     1     -10.231  -8.091 -15.058  1.00  0.00     0.022 A 
BRANCH  64  68
ATOM     68  S   UNL     1      -9.757  -8.905 -17.685  1.00  0.00     0.124 S 
ATOM     69  O   UNL     1      -9.237  -7.834 -18.530  1.00  0.00    -0.237 OA
ATOM     70  O   UNL     1      -9.080 -10.193 -17.799  1.00  0.00    -0.237 OA
ATOM     71  O   UNL     1     -11.214  -8.976 -17.600  1.00  0.00    -0.744 OA
ENDBRANCH  64  68
ENDBRANCH  38  61
ENDBRANCH  12  13
ENDBRANCH   5   7
ENDBRANCH   2   3
ENDBRANCH   1   2
BRANCH   1  72
ATOM     72  C   UNL     1       5.640   0.203  -8.773  1.00  0.00     0.117 C 
BRANCH  72  73
ATOM     73  N   UNL     1       5.092   1.349  -8.092  1.00  0.00    -0.356 N 
ATOM     74  C   UNL     1       5.293   1.737  -6.805  1.00  0.00     0.226 C 
ATOM     75  H   UNL     1       4.497   1.923  -8.627  1.00  0.00     0.163 HD
ATOM     76  O   UNL     1       5.035   2.917  -6.536  1.00  0.00    -0.274 OA
BRANCH  74  77
ATOM     77  C   UNL     1       5.873   0.822  -5.708  1.00  0.00     0.103 C 
ATOM     78  C   UNL     1       7.365   0.901  -5.612  1.00  0.00    -0.016 C 
ATOM     79  C   UNL     1       5.585  -0.689  -5.691  1.00  0.00     0.042 C 
ATOM     80  C   UNL     1       7.935  -0.307  -5.566  1.00  0.00    -0.011 C 
ATOM     81  C   UNL     1       6.951  -1.415  -5.660  1.00  0.00     0.093 C 
BRANCH  81  82
ATOM     82  N   UNL     1       7.113  -2.302  -6.806  1.00  0.00    -0.204 NA
ATOM     83  H   UNL     1       6.249  -2.186  -7.335  1.00  0.00     0.142 HD
BRANCH  82  84
ATOM     84  S   UNL     1       8.304  -2.339  -7.975  1.00  0.00     0.241 S 
ATOM     85  O   UNL     1       8.105  -3.571  -8.695  1.00  0.00    -0.207 OA
ATOM     86  O   UNL     1       8.341  -1.070  -8.677  1.00  0.00    -0.207 OA
BRANCH  84  87
ATOM     87  C   UNL     1       9.835  -2.496  -7.102  1.00  0.00     0.082 A 
ATOM     88  C   UNL     1      10.054  -3.607  -6.287  1.00  0.00     0.023 A 
ATOM     89  C   UNL     1      10.828  -1.521  -7.276  1.00  0.00     0.023 A 
ATOM     90  C   UNL     1      11.276  -3.731  -5.624  1.00  0.00     0.022 A 
ATOM     91  C   UNL     1      12.044  -1.650  -6.610  1.00  0.00     0.022 A 
ATOM     92  C   UNL     1      12.263  -2.754  -5.786  1.00  0.00     0.041 A 
ATOM     93  Cl  UNL     1      13.767  -2.915  -4.967  1.00  0.00    -0.084 Cl
ENDBRANCH  84  87
ENDBRANCH  82  84
ENDBRANCH  81  82
ENDBRANCH  74  77
ENDBRANCH  72  73
ENDBRANCH   1  72
TORSDOF 16
