REMARK SMILES O=C(COc1cc(-c2ccccc2)nc(Nc2ccccc2Br)n1)NCCCNC(=O)c1ccc(-c2c3nc(c(-c4cc(S(=O)(=O)[O-])ccc4F)c4ccc([nH]4)c(-c4cc(S(=O)(=O)[O-])ccc4F)c4nc(c(-c5cc(S(=O)(=O)[O-])ccc5F)c5ccc2[nH]5)C=C4)C=C3)cc1
REMARK SMILES IDX 26 1 25 2 1 3 2 4 3 6 4 7 5 8 6 9 24 10 7 11 15 12 14 13
REMARK SMILES IDX 8 14 9 15 13 16 10 17 12 18 11 19 16 20 17 22 18 23 22 24
REMARK SMILES IDX 19 25 21 26 23 27 20 28 27 29 28 30 29 31 30 32 31 34 32 35
REMARK SMILES IDX 33 36 94 37 34 38 93 39 35 40 36 41 37 42 87 43 38 44 92 45
REMARK SMILES IDX 86 46 88 47 39 48 91 49 85 50 84 51 40 53 72 54 52 55 71 56
REMARK SMILES IDX 53 57 56 58 70 59 89 60 54 61 55 62 69 64 90 65 57 66 41 67
REMARK SMILES IDX 42 68 50 69 43 70 49 71 51 72 48 73 44 74 45 75 46 76 47 77
REMARK SMILES IDX 73 78 74 79 82 80 75 81 81 82 83 83 80 84 76 85 77 86 78 87
REMARK SMILES IDX 79 88 58 89 59 90 67 91 60 92 66 93 68 94 65 95 61 96 62 97
REMARK SMILES IDX 63 98 64 99
REMARK H PARENT 25 5 16 21 29 33 88 52 56 63
REMARK Flexibility Score: inf
ROOT
ATOM      1  C   UNL     1       2.116   1.466  -1.747  1.00  0.00     0.117 C 
ENDROOT
BRANCH   1   2
ATOM      2  N   UNL     1       2.839   0.729  -0.727  1.00  0.00    -0.353 N 
ATOM      3  O   UNL     1       1.059   0.424   0.700  1.00  0.00    -0.271 OA
ATOM      4  C   UNL     1       2.203   0.149   0.355  1.00  0.00     0.258 C 
ATOM      5  H   UNL     1       3.816   0.639  -0.809  1.00  0.00     0.163 HD
BRANCH   4   6
ATOM      6  C   UNL     1       3.034  -0.942   1.042  1.00  0.00     0.331 C 
BRANCH   6   7
ATOM      7  O   UNL     1       3.820  -1.728   0.141  1.00  0.00    -0.467 OA
BRANCH   7   8
ATOM      8  C   UNL     1       3.071  -2.682  -0.510  1.00  0.00     0.219 A 
ATOM      9  C   UNL     1       2.158  -2.327  -1.463  1.00  0.00     0.097 A 
ATOM     10  N   UNL     1       3.385  -3.952  -0.246  1.00  0.00    -0.177 NA
ATOM     11  C   UNL     1       1.505  -3.347  -2.109  1.00  0.00     0.080 A 
ATOM     12  C   UNL     1       2.712  -4.898  -0.924  1.00  0.00     0.231 A 
ATOM     13  N   UNL     1       1.770  -4.640  -1.851  1.00  0.00    -0.212 NA
BRANCH  11  14
ATOM     14  C   UNL     1       0.456  -3.023  -3.084  1.00  0.00     0.000 A 
ATOM     15  C   UNL     1      -0.858  -3.478  -2.904  1.00  0.00     0.010 A 
ATOM     16  C   UNL     1       0.710  -2.130  -4.144  1.00  0.00     0.010 A 
ATOM     17  C   UNL     1      -1.891  -3.026  -3.732  1.00  0.00     0.001 A 
ATOM     18  C   UNL     1      -0.319  -1.680  -4.972  1.00  0.00     0.001 A 
ATOM     19  C   UNL     1      -1.622  -2.122  -4.758  1.00  0.00     0.000 A 
ENDBRANCH  11  14
BRANCH  12  20
ATOM     20  N   UNL     1       3.024  -6.244  -0.754  1.00  0.00    -0.323 N 
ATOM     21  H   UNL     1       2.560  -6.858  -1.369  1.00  0.00     0.170 HD
BRANCH  20  22
ATOM     22  C   UNL     1       3.892  -6.862   0.153  1.00  0.00     0.055 A 
ATOM     23  C   UNL     1       4.903  -7.690  -0.369  1.00  0.00     0.027 A 
ATOM     24  C   UNL     1       3.857  -6.670   1.546  1.00  0.00     0.041 A 
ATOM     25  C   UNL     1       5.849  -8.297   0.461  1.00  0.00     0.002 A 
ATOM     26  C   UNL     1       4.806  -7.281   2.378  1.00  0.00     0.018 A 
ATOM     27  Br  UNL     1       2.455  -5.720   2.419  1.00  0.00    -0.049 Br
ATOM     28  C   UNL     1       5.803  -8.089   1.835  1.00  0.00     0.001 A 
ENDBRANCH  20  22
ENDBRANCH  12  20
ENDBRANCH   7   8
ENDBRANCH   6   7
ENDBRANCH   4   6
ENDBRANCH   1   2
BRANCH   1  29
ATOM     29  C   UNL     1       2.427   2.949  -1.757  1.00  0.00     0.042 C 
BRANCH  29  30
ATOM     30  C   UNL     1       3.896   3.273  -1.990  1.00  0.00     0.118 C 
BRANCH  30  31
ATOM     31  N   UNL     1       4.379   2.863  -3.301  1.00  0.00    -0.352 N 
ATOM     32  C   UNL     1       5.039   3.593  -4.262  1.00  0.00     0.251 C 
ATOM     33  H   UNL     1       4.206   1.923  -3.536  1.00  0.00     0.163 HD
ATOM     34  O   UNL     1       5.230   3.088  -5.367  1.00  0.00    -0.269 OA
BRANCH  32  35
ATOM     35  C   UNL     1       5.485   4.978  -3.985  1.00  0.00     0.039 A 
ATOM     36  C   UNL     1       5.343   5.945  -4.984  1.00  0.00     0.014 A 
ATOM     37  C   UNL     1       6.046   5.329  -2.755  1.00  0.00     0.014 A 
ATOM     38  C   UNL     1       5.706   7.270  -4.726  1.00  0.00     0.010 A 
ATOM     39  C   UNL     1       6.318   6.665  -2.468  1.00  0.00     0.010 A 
ATOM     40  C   UNL     1       6.165   7.650  -3.455  1.00  0.00    -0.014 A 
BRANCH  40  41
ATOM     41  C   UNL     1       6.521   9.063  -3.152  1.00  0.00     0.031 A 
ATOM     42  C   UNL     1       7.934   9.416  -2.764  1.00  0.00     0.074 A 
ATOM     43  C   UNL     1       5.572  10.020  -3.183  1.00  0.00     0.049 A 
ATOM     44  N   UNL     1       8.432  10.573  -2.408  1.00  0.00    -0.248 NA
ATOM     45  C   UNL     1       8.908   8.314  -2.744  1.00  0.00     0.031 C 
ATOM     46  C   UNL     1       4.161   9.800  -3.509  1.00  0.00     0.029 A 
ATOM     47  N   UNL     1       5.646  11.368  -2.936  1.00  0.00    -0.354 N 
ATOM     48  C   UNL     1       9.771  10.335  -2.113  1.00  0.00     0.074 A 
ATOM     49  C   UNL     1       9.985   8.912  -2.260  1.00  0.00     0.031 C 
ATOM     50  C   UNL     1       3.513  10.976  -3.474  1.00  0.00     0.029 A 
ATOM     51  C   UNL     1       4.445  12.025  -3.074  1.00  0.00     0.049 A 
ATOM     52  H   UNL     1       6.482  11.823  -2.682  1.00  0.00     0.167 HD
ATOM     53  C   UNL     1      10.739  11.224  -1.778  1.00  0.00     0.034 A 
ATOM     54  C   UNL     1       4.126  13.323  -2.888  1.00  0.00     0.034 A 
ATOM     55  C   UNL     1      10.512  12.643  -1.645  1.00  0.00     0.049 A 
ATOM     56  C   UNL     1       5.212  14.288  -2.479  1.00  0.00     0.074 A 
ATOM     57  C   UNL     1      11.429  13.638  -1.355  1.00  0.00     0.029 A 
ATOM     58  N   UNL     1       9.280  13.269  -1.784  1.00  0.00    -0.354 N 
ATOM     59  N   UNL     1       6.484  14.054  -2.250  1.00  0.00    -0.248 NA
ATOM     60  C   UNL     1       4.821  15.694  -2.318  1.00  0.00     0.031 C 
ATOM     61  C   UNL     1      10.741  14.850  -1.240  1.00  0.00     0.029 A 
ATOM     62  C   UNL     1       9.408  14.631  -1.552  1.00  0.00     0.049 A 
ATOM     63  H   UNL     1       8.438  12.813  -2.013  1.00  0.00     0.167 HD
ATOM     64  C   UNL     1       7.051  15.292  -1.957  1.00  0.00     0.074 A 
ATOM     65  C   UNL     1       5.985  16.268  -2.051  1.00  0.00     0.031 C 
ATOM     66  C   UNL     1       8.337  15.596  -1.644  1.00  0.00     0.034 A 
BRANCH  53  67
ATOM     67  C   UNL     1      12.123  10.678  -1.508  1.00  0.00     0.023 A 
ATOM     68  C   UNL     1      12.857  10.002  -2.498  1.00  0.00     0.031 A 
ATOM     69  C   UNL     1      12.706  10.809  -0.235  1.00  0.00     0.131 A 
ATOM     70  C   UNL     1      14.090   9.413  -2.179  1.00  0.00     0.055 A 
ATOM     71  C   UNL     1      13.975  10.300   0.051  1.00  0.00     0.041 A 
ATOM     72  F   UNL     1      12.046  11.423   0.760  1.00  0.00    -0.206 F 
ATOM     73  C   UNL     1      14.668   9.582  -0.919  1.00  0.00     0.022 A 
BRANCH  70  74
ATOM     74  S   UNL     1      14.850   8.289  -3.384  1.00  0.00     0.124 S 
ATOM     75  O   UNL     1      13.801   7.286  -3.552  1.00  0.00    -0.237 OA
ATOM     76  O   UNL     1      15.086   9.164  -4.526  1.00  0.00    -0.237 OA
ATOM     77  O   UNL     1      16.051   7.815  -2.700  1.00  0.00    -0.744 OA
ENDBRANCH  70  74
ENDBRANCH  53  67
BRANCH  54  78
ATOM     78  C   UNL     1       2.722  13.794  -3.076  1.00  0.00     0.023 A 
ATOM     79  C   UNL     1       2.400  14.736  -4.067  1.00  0.00     0.031 A 
ATOM     80  C   UNL     1       1.689  13.349  -2.232  1.00  0.00     0.131 A 
ATOM     81  C   UNL     1       1.094  15.243  -4.153  1.00  0.00     0.055 A 
ATOM     82  C   UNL     1       0.378  13.810  -2.362  1.00  0.00     0.041 A 
ATOM     83  F   UNL     1       1.940  12.448  -1.268  1.00  0.00    -0.206 F 
ATOM     84  C   UNL     1       0.077  14.775  -3.318  1.00  0.00     0.022 A 
BRANCH  81  85
ATOM     85  S   UNL     1       0.764  16.602  -5.309  1.00  0.00     0.124 S 
ATOM     86  O   UNL     1       1.705  17.616  -4.849  1.00  0.00    -0.237 OA
ATOM     87  O   UNL     1       1.065  15.983  -6.596  1.00  0.00    -0.237 OA
ATOM     88  O   UNL     1      -0.646  16.908  -5.081  1.00  0.00    -0.744 OA
ENDBRANCH  81  85
ENDBRANCH  54  78
BRANCH  66  89
ATOM     89  C   UNL     1       8.673  17.055  -1.441  1.00  0.00     0.023 A 
ATOM     90  C   UNL     1       8.132  17.805  -0.382  1.00  0.00     0.031 A 
ATOM     91  C   UNL     1       9.543  17.708  -2.333  1.00  0.00     0.131 A 
ATOM     92  C   UNL     1       8.416  19.176  -0.279  1.00  0.00     0.055 A 
ATOM     93  C   UNL     1       9.879  19.054  -2.184  1.00  0.00     0.041 A 
ATOM     94  F   UNL     1      10.087  17.044  -3.366  1.00  0.00    -0.206 F 
ATOM     95  C   UNL     1       9.302  19.800  -1.161  1.00  0.00     0.022 A 
BRANCH  92  96
ATOM     96  S   UNL     1       7.528  20.159   0.960  1.00  0.00     0.124 S 
ATOM     97  O   UNL     1       6.136  19.920   0.595  1.00  0.00    -0.237 OA
ATOM     98  O   UNL     1       7.972  19.557   2.213  1.00  0.00    -0.237 OA
ATOM     99  O   UNL     1       8.005  21.521   0.724  1.00  0.00    -0.744 OA
ENDBRANCH  92  96
ENDBRANCH  66  89
ENDBRANCH  40  41
ENDBRANCH  32  35
ENDBRANCH  30  31
ENDBRANCH  29  30
ENDBRANCH   1  29
TORSDOF 18
