REMARK SMILES Cc1c(CC(=O)N[C@H](CO)C(=O)NCCCNC(=O)c2ccc(-c3c4nc(c(-c5cc(S(=O)(=O)[O-])ccc5F)c5ccc([nH]5)c(-c5cc(S(=O)(=O)[O-])ccc5F)c5nc(c(-c6cc(S(=O)(=O)[O-])ccc6F)c6ccc3[nH]6)C=C5)C=C4)cc2)cc(-c2ccc(S(C)(=O)=O)cc2)n1-c1cccc(F)c1
REMARK SMILES IDX 14 1 13 2 11 3 12 4 8 6 7 7 5 8 6 9 4 11 3 12 1 13 2 14
REMARK SMILES IDX 95 15 83 16 84 17 96 18 97 19 102 20 98 21 100 22 99 23
REMARK SMILES IDX 101 24 85 25 86 26 94 27 87 28 93 29 88 30 89 31 90 32 91 33
REMARK SMILES IDX 92 34 9 35 10 36 15 38 16 39 17 40 18 41 19 43 20 44 21 45
REMARK SMILES IDX 82 46 22 47 81 48 23 49 24 50 25 51 75 52 26 53 80 54 74 55
REMARK SMILES IDX 76 56 27 57 79 58 73 59 72 60 28 62 60 63 40 64 59 65 41 66
REMARK SMILES IDX 44 67 58 68 77 69 42 70 43 71 57 73 78 74 45 75 29 76 30 77
REMARK SMILES IDX 38 78 31 79 37 80 39 81 36 82 32 83 33 84 34 85 35 86 61 87
REMARK SMILES IDX 62 88 70 89 63 90 69 91 71 92 68 93 64 94 65 95 66 96 67 97
REMARK SMILES IDX 46 98 47 99 55 100 48 101 54 102 56 103 53 104 49 105 50 106
REMARK SMILES IDX 51 107 52 108
REMARK H PARENT 13 5 7 10 10 37 17 42 76 61 44 72
REMARK Flexibility Score: inf
ROOT
ATOM      1  C   UNL     1      -5.282  -3.090  -0.172  1.00  0.00     0.117 C 
ENDROOT
BRANCH   1   2
ATOM      2  N   UNL     1      -4.815  -3.198   1.193  1.00  0.00    -0.354 N 
ATOM      3  C   UNL     1      -3.497  -3.392   1.530  1.00  0.00     0.244 C 
ATOM      4  O   UNL     1      -3.072  -4.540   1.658  1.00  0.00    -0.273 OA
ATOM      5  H   UNL     1      -5.477  -3.130   1.919  1.00  0.00     0.163 HD
BRANCH   3   6
ATOM      6  C   UNL     1      -2.571  -2.164   1.611  1.00  0.00     0.197 C 
BRANCH   6   7
ATOM      7  N   UNL     1      -3.320  -0.927   1.836  1.00  0.00    -0.342 N 
ATOM      8  C   UNL     1      -3.846  -0.412   2.981  1.00  0.00     0.225 C 
ATOM      9  O   UNL     1      -4.605   0.558   2.866  1.00  0.00    -0.275 OA
ATOM     10  H   UNL     1      -3.467  -0.380   1.031  1.00  0.00     0.164 HD
BRANCH   8  11
ATOM     11  C   UNL     1      -3.427  -0.889   4.366  1.00  0.00     0.137 C 
BRANCH  11  12
ATOM     12  C   UNL     1      -3.474  -2.364   4.636  1.00  0.00    -0.017 A 
ATOM     13  C   UNL     1      -6.010  -2.871   4.442  1.00  0.00     0.065 C 
ATOM     14  C   UNL     1      -4.567  -3.225   4.613  1.00  0.00     0.024 A 
ATOM     15  N   UNL     1      -4.110  -4.523   4.863  1.00  0.00    -0.313 N 
ATOM     16  C   UNL     1      -2.357  -3.141   5.040  1.00  0.00     0.033 A 
ATOM     17  C   UNL     1      -2.740  -4.465   5.129  1.00  0.00     0.053 A 
BRANCH  15  18
ATOM     18  C   UNL     1      -4.877  -5.722   4.789  1.00  0.00     0.049 A 
ATOM     19  C   UNL     1      -4.848  -6.660   5.825  1.00  0.00     0.027 A 
ATOM     20  C   UNL     1      -5.550  -6.027   3.606  1.00  0.00     0.065 A 
ATOM     21  C   UNL     1      -5.512  -7.884   5.673  1.00  0.00     0.005 A 
ATOM     22  C   UNL     1      -6.190  -7.248   3.460  1.00  0.00     0.125 A 
ATOM     23  C   UNL     1      -6.183  -8.180   4.485  1.00  0.00     0.039 A 
ATOM     24  F   UNL     1      -6.795  -7.532   2.300  1.00  0.00    -0.207 F 
ENDBRANCH  15  18
BRANCH  17  25
ATOM     25  C   UNL     1      -1.866  -5.628   5.315  1.00  0.00    -0.001 A 
ATOM     26  C   UNL     1      -1.808  -6.641   4.344  1.00  0.00     0.011 A 
ATOM     27  C   UNL     1      -1.079  -5.740   6.467  1.00  0.00     0.011 A 
ATOM     28  C   UNL     1      -1.046  -7.789   4.556  1.00  0.00     0.021 A 
ATOM     29  C   UNL     1      -0.306  -6.883   6.684  1.00  0.00     0.021 A 
ATOM     30  C   UNL     1      -0.321  -7.914   5.742  1.00  0.00     0.067 A 
BRANCH  30  31
ATOM     31  S   UNL     1       0.587  -9.410   6.051  1.00  0.00     0.175 S 
ATOM     32  C   UNL     1      -0.672 -10.659   6.154  1.00  0.00     0.163 C 
ATOM     33  O   UNL     1       1.403  -9.654   4.872  1.00  0.00    -0.224 OA
ATOM     34  O   UNL     1       1.196  -9.285   7.359  1.00  0.00    -0.224 OA
ENDBRANCH  30  31
ENDBRANCH  17  25
ENDBRANCH  11  12
ENDBRANCH   8  11
ENDBRANCH   6   7
BRANCH   6  35
ATOM     35  C   UNL     1      -1.695  -2.111   0.349  1.00  0.00     0.191 C 
BRANCH  35  36
ATOM     36  O   UNL     1      -2.087  -1.057  -0.536  1.00  0.00    -0.394 OA
ATOM     37  H   UNL     1      -3.001  -1.203  -0.828  1.00  0.00     0.210 HD
ENDBRANCH  35  36
ENDBRANCH   6  35
ENDBRANCH   3   6
ENDBRANCH   1   2
BRANCH   1  38
ATOM     38  C   UNL     1      -4.925  -4.287  -1.079  1.00  0.00     0.042 C 
BRANCH  38  39
ATOM     39  C   UNL     1      -5.184  -5.719  -0.543  1.00  0.00     0.118 C 
BRANCH  39  40
ATOM     40  N   UNL     1      -6.338  -6.383  -1.120  1.00  0.00    -0.352 N 
ATOM     41  C   UNL     1      -6.589  -7.736  -1.316  1.00  0.00     0.251 C 
ATOM     42  H   UNL     1      -7.056  -5.780  -1.421  1.00  0.00     0.163 HD
ATOM     43  O   UNL     1      -7.723  -8.029  -1.695  1.00  0.00    -0.269 OA
BRANCH  41  44
ATOM     44  C   UNL     1      -5.542  -8.826  -1.189  1.00  0.00     0.039 A 
ATOM     45  C   UNL     1      -4.777  -9.143  -2.303  1.00  0.00     0.014 A 
ATOM     46  C   UNL     1      -5.489  -9.763  -0.137  1.00  0.00     0.014 A 
ATOM     47  C   UNL     1      -3.938 -10.310  -2.322  1.00  0.00     0.010 A 
ATOM     48  C   UNL     1      -4.681 -10.990  -0.190  1.00  0.00     0.010 A 
ATOM     49  C   UNL     1      -3.865 -11.323  -1.293  1.00  0.00    -0.014 A 
BRANCH  49  50
ATOM     50  C   UNL     1      -3.411 -12.825  -1.785  1.00  0.00     0.031 A 
ATOM     51  C   UNL     1      -4.265 -12.993  -3.000  1.00  0.00     0.074 A 
ATOM     52  C   UNL     1      -2.644 -13.957  -1.454  1.00  0.00     0.049 A 
ATOM     53  N   UNL     1      -5.559 -12.865  -2.903  1.00  0.00    -0.248 NA
ATOM     54  C   UNL     1      -3.740 -12.853  -4.360  1.00  0.00     0.031 C 
ATOM     55  C   UNL     1      -1.880 -14.207  -0.218  1.00  0.00     0.029 A 
ATOM     56  N   UNL     1      -2.345 -15.191  -2.150  1.00  0.00    -0.354 N 
ATOM     57  C   UNL     1      -6.054 -12.942  -4.181  1.00  0.00     0.074 A 
ATOM     58  C   UNL     1      -4.890 -12.680  -5.023  1.00  0.00     0.031 C 
ATOM     59  C   UNL     1      -1.125 -15.347  -0.294  1.00  0.00     0.029 A 
ATOM     60  C   UNL     1      -1.322 -16.051  -1.565  1.00  0.00     0.049 A 
ATOM     61  H   UNL     1      -2.812 -15.439  -2.981  1.00  0.00     0.167 HD
ATOM     62  C   UNL     1      -7.015 -13.893  -4.374  1.00  0.00     0.034 A 
ATOM     63  C   UNL     1      -0.726 -17.251  -2.003  1.00  0.00     0.034 A 
ATOM     64  C   UNL     1      -6.447 -15.114  -4.886  1.00  0.00     0.049 A 
ATOM     65  C   UNL     1      -1.688 -17.894  -2.894  1.00  0.00     0.074 A 
ATOM     66  C   UNL     1      -5.559 -15.367  -5.911  1.00  0.00     0.029 A 
ATOM     67  N   UNL     1      -6.387 -16.195  -4.029  1.00  0.00    -0.354 N 
ATOM     68  N   UNL     1      -2.726 -18.520  -2.442  1.00  0.00    -0.248 NA
ATOM     69  C   UNL     1      -1.518 -17.907  -4.341  1.00  0.00     0.031 C 
ATOM     70  C   UNL     1      -4.651 -16.298  -5.365  1.00  0.00     0.029 A 
ATOM     71  C   UNL     1      -5.224 -16.902  -4.251  1.00  0.00     0.049 A 
ATOM     72  H   UNL     1      -7.071 -16.425  -3.360  1.00  0.00     0.167 HD
ATOM     73  C   UNL     1      -3.578 -18.463  -3.499  1.00  0.00     0.074 A 
ATOM     74  C   UNL     1      -2.724 -18.374  -4.671  1.00  0.00     0.031 C 
ATOM     75  C   UNL     1      -4.784 -17.880  -3.272  1.00  0.00     0.034 A 
BRANCH  62  76
ATOM     76  C   UNL     1      -8.136 -13.832  -3.375  1.00  0.00     0.023 A 
ATOM     77  C   UNL     1      -9.384 -13.352  -3.789  1.00  0.00     0.031 A 
ATOM     78  C   UNL     1      -7.963 -14.116  -2.003  1.00  0.00     0.131 A 
ATOM     79  C   UNL     1     -10.389 -13.110  -2.838  1.00  0.00     0.055 A 
ATOM     80  C   UNL     1      -8.941 -13.821  -1.056  1.00  0.00     0.041 A 
ATOM     81  F   UNL     1      -6.835 -14.694  -1.557  1.00  0.00    -0.206 F 
ATOM     82  C   UNL     1     -10.162 -13.305  -1.472  1.00  0.00     0.022 A 
BRANCH  79  83
ATOM     83  S   UNL     1     -12.018 -12.566  -3.417  1.00  0.00     0.124 S 
ATOM     84  O   UNL     1     -11.727 -11.262  -4.003  1.00  0.00    -0.237 OA
ATOM     85  O   UNL     1     -12.376 -13.616  -4.367  1.00  0.00    -0.237 OA
ATOM     86  O   UNL     1     -12.829 -12.536  -2.200  1.00  0.00    -0.744 OA
ENDBRANCH  79  83
ENDBRANCH  62  76
BRANCH  63  87
ATOM     87  C   UNL     1       0.486 -18.235  -1.799  1.00  0.00     0.023 A 
ATOM     88  C   UNL     1       0.450 -19.640  -2.207  1.00  0.00     0.031 A 
ATOM     89  C   UNL     1       1.779 -17.744  -1.589  1.00  0.00     0.131 A 
ATOM     90  C   UNL     1       1.629 -20.423  -2.425  1.00  0.00     0.055 A 
ATOM     91  C   UNL     1       2.944 -18.527  -1.800  1.00  0.00     0.041 A 
ATOM     92  F   UNL     1       1.966 -16.454  -1.277  1.00  0.00    -0.206 F 
ATOM     93  C   UNL     1       2.878 -19.851  -2.233  1.00  0.00     0.022 A 
BRANCH  90  94
ATOM     94  S   UNL     1       1.595 -22.134  -3.144  1.00  0.00     0.124 S 
ATOM     95  O   UNL     1       1.205 -22.961  -2.010  1.00  0.00    -0.237 OA
ATOM     96  O   UNL     1       0.629 -22.016  -4.231  1.00  0.00    -0.237 OA
ATOM     97  O   UNL     1       2.974 -22.342  -3.597  1.00  0.00    -0.744 OA
ENDBRANCH  90  94
ENDBRANCH  63  87
BRANCH  75  98
ATOM     98  C   UNL     1      -5.476 -18.195  -1.940  1.00  0.00     0.023 A 
ATOM     99  C   UNL     1      -4.860 -18.253  -0.658  1.00  0.00     0.031 A 
ATOM    100  C   UNL     1      -6.832 -18.554  -1.986  1.00  0.00     0.131 A 
ATOM    101  C   UNL     1      -5.573 -18.692   0.478  1.00  0.00     0.055 A 
ATOM    102  C   UNL     1      -7.552 -18.944  -0.853  1.00  0.00     0.041 A 
ATOM    103  F   UNL     1      -7.494 -18.549  -3.154  1.00  0.00    -0.206 F 
ATOM    104  C   UNL     1      -6.920 -19.032   0.381  1.00  0.00     0.022 A 
BRANCH 101 105
ATOM    105  S   UNL     1      -4.730 -18.920   2.084  1.00  0.00     0.124 S 
ATOM    106  O   UNL     1      -3.498 -19.615   1.730  1.00  0.00    -0.237 OA
ATOM    107  O   UNL     1      -4.572 -17.548   2.559  1.00  0.00    -0.237 OA
ATOM    108  O   UNL     1      -5.679 -19.725   2.855  1.00  0.00    -0.744 OA
ENDBRANCH 101 105
ENDBRANCH  75  98
ENDBRANCH  49  50
ENDBRANCH  41  44
ENDBRANCH  39  40
ENDBRANCH  38  39
ENDBRANCH   1  38
TORSDOF 21
