REMARK SMILES Cc1cc(=O)c(Oc2ccc(C(=O)NCCCNC(=O)c3ccc(-c4c5nc(c(-c6cc(S(=O)(=O)[O-])ccc6F)c6ccc([nH]6)c(-c6cc(S(=O)(=O)[O-])ccc6F)c6nc(c(-c7cc(S(=O)(=O)[O-])ccc7F)c7ccc4[nH]7)C=C6)C=C5)cc3)cc2)c(-c2ccc(S(C)(=O)=O)cc2)o1
REMARK SMILES IDX 15 1 14 2 12 3 13 4 11 6 8 7 9 8 85 9 10 10 84 11 7 12 6 13
REMARK SMILES IDX 1 14 2 15 3 16 97 17 4 18 86 19 5 20 87 21 88 22 96 23 89 24
REMARK SMILES IDX 95 25 90 26 91 27 92 28 93 29 94 30 16 31 17 32 18 33 19 34
REMARK SMILES IDX 20 36 21 37 22 38 83 39 23 40 82 41 24 42 25 43 26 44 76 45
REMARK SMILES IDX 27 46 81 47 75 48 77 49 28 50 80 51 74 52 73 53 29 55 61 56
REMARK SMILES IDX 41 57 60 58 42 59 45 60 59 61 78 62 43 63 44 64 58 66 79 67
REMARK SMILES IDX 46 68 30 69 31 70 39 71 32 72 38 73 40 74 37 75 33 76 34 77
REMARK SMILES IDX 35 78 36 79 62 80 63 81 71 82 64 83 70 84 72 85 69 86 65 87
REMARK SMILES IDX 66 88 67 89 68 90 47 91 48 92 56 93 49 94 55 95 57 96 54 97
REMARK SMILES IDX 50 98 51 99 52 100 53 101
REMARK H PARENT 14 5 18 35 77 54 45 65
REMARK Flexibility Score: inf
ROOT
ATOM      1  C   UNL     1      -6.331  -7.495  -2.250  1.00  0.00     0.118 C 
ENDROOT
BRANCH   1   2
ATOM      2  N   UNL     1      -6.104  -7.130  -3.639  1.00  0.00    -0.352 N 
ATOM      3  C   UNL     1      -4.954  -6.935  -4.368  1.00  0.00     0.251 C 
ATOM      4  O   UNL     1      -5.047  -6.791  -5.586  1.00  0.00    -0.269 OA
ATOM      5  H   UNL     1      -6.931  -6.997  -4.157  1.00  0.00     0.163 HD
BRANCH   3   6
ATOM      6  C   UNL     1      -3.622  -6.775  -3.728  1.00  0.00     0.040 A 
ATOM      7  C   UNL     1      -1.380  -5.890  -2.338  1.00  0.00     0.127 A 
ATOM      8  C   UNL     1      -1.577  -5.465  -3.646  1.00  0.00     0.048 A 
ATOM      9  C   UNL     1      -2.151  -6.930  -1.824  1.00  0.00     0.048 A 
ATOM     10  C   UNL     1      -2.727  -5.873  -4.325  1.00  0.00     0.017 A 
ATOM     11  C   UNL     1      -3.245  -7.406  -2.544  1.00  0.00     0.017 A 
BRANCH   7  12
ATOM     12  O   UNL     1      -0.393  -5.403  -1.538  1.00  0.00    -0.449 OA
BRANCH  12  13
ATOM     13  C   UNL     1      -0.274  -4.069  -1.169  1.00  0.00     0.217 A 
ATOM     14  C   UNL     1       0.740  -0.027  -0.023  1.00  0.00     0.088 C 
ATOM     15  C   UNL     1       0.459  -1.466  -0.314  1.00  0.00     0.105 A 
ATOM     16  C   UNL     1       1.300  -2.448   0.017  1.00  0.00     0.098 A 
ATOM     17  O   UNL     1      -0.731  -1.698  -0.970  1.00  0.00    -0.457 OA
ATOM     18  C   UNL     1       0.961  -3.826  -0.355  1.00  0.00     0.228 A 
ATOM     19  C   UNL     1      -1.069  -2.985  -1.386  1.00  0.00     0.180 A 
ATOM     20  O   UNL     1       1.708  -4.737  -0.006  1.00  0.00    -0.285 OA
BRANCH  19  21
ATOM     21  C   UNL     1      -2.359  -2.941  -2.103  1.00  0.00     0.021 A 
ATOM     22  C   UNL     1      -2.425  -2.327  -3.368  1.00  0.00     0.013 A 
ATOM     23  C   UNL     1      -3.526  -3.485  -1.550  1.00  0.00     0.013 A 
ATOM     24  C   UNL     1      -3.612  -2.337  -4.105  1.00  0.00     0.021 A 
ATOM     25  C   UNL     1      -4.722  -3.487  -2.279  1.00  0.00     0.021 A 
ATOM     26  C   UNL     1      -4.754  -2.928  -3.559  1.00  0.00     0.067 A 
BRANCH  26  27
ATOM     27  S   UNL     1      -6.221  -3.061  -4.559  1.00  0.00     0.175 S 
ATOM     28  C   UNL     1      -6.936  -1.443  -4.477  1.00  0.00     0.163 C 
ATOM     29  O   UNL     1      -5.786  -3.280  -5.925  1.00  0.00    -0.224 OA
ATOM     30  O   UNL     1      -7.129  -3.984  -3.900  1.00  0.00    -0.224 OA
ENDBRANCH  26  27
ENDBRANCH  19  21
ENDBRANCH  12  13
ENDBRANCH   7  12
ENDBRANCH   3   6
ENDBRANCH   1   2
BRANCH   1  31
ATOM     31  C   UNL     1      -7.514  -6.819  -1.577  1.00  0.00     0.042 C 
BRANCH  31  32
ATOM     32  C   UNL     1      -8.855  -6.992  -2.266  1.00  0.00     0.118 C 
BRANCH  32  33
ATOM     33  N   UNL     1      -9.312  -8.376  -2.327  1.00  0.00    -0.352 N 
ATOM     34  C   UNL     1     -10.235  -9.085  -1.592  1.00  0.00     0.251 C 
ATOM     35  H   UNL     1      -8.874  -8.907  -3.032  1.00  0.00     0.163 HD
ATOM     36  O   UNL     1     -10.329 -10.297  -1.778  1.00  0.00    -0.269 OA
BRANCH  34  37
ATOM     37  C   UNL     1     -11.074  -8.436  -0.554  1.00  0.00     0.039 A 
ATOM     38  C   UNL     1     -11.552  -7.140  -0.707  1.00  0.00     0.014 A 
ATOM     39  C   UNL     1     -11.416  -9.151   0.602  1.00  0.00     0.014 A 
ATOM     40  C   UNL     1     -12.133  -6.481   0.370  1.00  0.00     0.010 A 
ATOM     41  C   UNL     1     -12.137  -8.530   1.632  1.00  0.00     0.010 A 
ATOM     42  C   UNL     1     -12.446  -7.165   1.556  1.00  0.00    -0.014 A 
BRANCH  42  43
ATOM     43  C   UNL     1     -13.120  -6.420   2.659  1.00  0.00     0.031 A 
ATOM     44  C   UNL     1     -12.492  -6.288   4.023  1.00  0.00     0.074 A 
ATOM     45  C   UNL     1     -14.278  -5.779   2.396  1.00  0.00     0.049 A 
ATOM     46  N   UNL     1     -12.889  -5.568   5.043  1.00  0.00    -0.248 NA
ATOM     47  C   UNL     1     -11.271  -7.066   4.285  1.00  0.00     0.031 C 
ATOM     48  C   UNL     1     -14.998  -5.852   1.123  1.00  0.00     0.029 A 
ATOM     49  N   UNL     1     -15.029  -4.910   3.150  1.00  0.00    -0.354 N 
ATOM     50  C   UNL     1     -11.979  -5.814   6.066  1.00  0.00     0.074 A 
ATOM     51  C   UNL     1     -11.037  -6.787   5.561  1.00  0.00     0.031 C 
ATOM     52  C   UNL     1     -16.026  -4.996   1.149  1.00  0.00     0.029 A 
ATOM     53  C   UNL     1     -16.100  -4.376   2.469  1.00  0.00     0.049 A 
ATOM     54  H   UNL     1     -14.822  -4.691   4.087  1.00  0.00     0.167 HD
ATOM     55  C   UNL     1     -11.923  -5.262   7.304  1.00  0.00     0.034 A 
ATOM     56  C   UNL     1     -17.042  -3.490   2.853  1.00  0.00     0.034 A 
ATOM     57  C   UNL     1     -12.862  -4.280   7.791  1.00  0.00     0.049 A 
ATOM     58  C   UNL     1     -16.964  -2.902   4.235  1.00  0.00     0.074 A 
ATOM     59  C   UNL     1     -12.864  -3.635   9.016  1.00  0.00     0.029 A 
ATOM     60  N   UNL     1     -13.962  -3.801   7.091  1.00  0.00    -0.354 N 
ATOM     61  N   UNL     1     -16.054  -3.092   5.162  1.00  0.00    -0.248 NA
ATOM     62  C   UNL     1     -18.033  -1.975   4.626  1.00  0.00     0.031 C 
ATOM     63  C   UNL     1     -14.001  -2.829   9.087  1.00  0.00     0.029 A 
ATOM     64  C   UNL     1     -14.667  -2.898   7.873  1.00  0.00     0.049 A 
ATOM     65  H   UNL     1     -14.206  -4.064   6.174  1.00  0.00     0.167 HD
ATOM     66  C   UNL     1     -16.440  -2.307   6.244  1.00  0.00     0.074 A 
ATOM     67  C   UNL     1     -17.635  -1.599   5.834  1.00  0.00     0.031 C 
ATOM     68  C   UNL     1     -15.865  -2.198   7.470  1.00  0.00     0.034 A 
BRANCH  55  69
ATOM     69  C   UNL     1     -10.805  -5.679   8.235  1.00  0.00     0.023 A 
ATOM     70  C   UNL     1     -11.106  -6.277   9.474  1.00  0.00     0.031 A 
ATOM     71  C   UNL     1      -9.462  -5.360   7.963  1.00  0.00     0.131 A 
ATOM     72  C   UNL     1     -10.086  -6.499  10.409  1.00  0.00     0.055 A 
ATOM     73  C   UNL     1      -8.442  -5.631   8.878  1.00  0.00     0.041 A 
ATOM     74  F   UNL     1      -9.118  -4.784   6.800  1.00  0.00    -0.206 F 
ATOM     75  C   UNL     1      -8.755  -6.189  10.113  1.00  0.00     0.022 A 
BRANCH  72  76
ATOM     76  S   UNL     1     -10.454  -7.119  12.073  1.00  0.00     0.124 S 
ATOM     77  O   UNL     1      -9.657  -8.344  12.120  1.00  0.00    -0.237 OA
ATOM     78  O   UNL     1      -9.971  -6.029  12.917  1.00  0.00    -0.237 OA
ATOM     79  O   UNL     1     -11.899  -7.318  12.062  1.00  0.00    -0.744 OA
ENDBRANCH  72  76
ENDBRANCH  55  69
BRANCH  56  80
ATOM     80  C   UNL     1     -18.100  -3.089   1.877  1.00  0.00     0.023 A 
ATOM     81  C   UNL     1     -18.958  -4.051   1.311  1.00  0.00     0.031 A 
ATOM     82  C   UNL     1     -18.187  -1.770   1.404  1.00  0.00     0.131 A 
ATOM     83  C   UNL     1     -19.793  -3.700   0.244  1.00  0.00     0.055 A 
ATOM     84  C   UNL     1     -19.087  -1.405   0.400  1.00  0.00     0.041 A 
ATOM     85  F   UNL     1     -17.384  -0.817   1.901  1.00  0.00    -0.206 F 
ATOM     86  C   UNL     1     -19.879  -2.378  -0.202  1.00  0.00     0.022 A 
BRANCH  83  87
ATOM     87  S   UNL     1     -20.669  -4.975  -0.705  1.00  0.00     0.124 S 
ATOM     88  O   UNL     1     -22.062  -4.567  -0.551  1.00  0.00    -0.237 OA
ATOM     89  O   UNL     1     -20.101  -4.794  -2.039  1.00  0.00    -0.237 OA
ATOM     90  O   UNL     1     -20.297  -6.218  -0.037  1.00  0.00    -0.744 OA
ENDBRANCH  83  87
ENDBRANCH  56  80
BRANCH  68  91
ATOM     91  C   UNL     1     -16.523  -1.295   8.490  1.00  0.00     0.023 A 
ATOM     92  C   UNL     1     -15.819  -0.203   9.034  1.00  0.00     0.031 A 
ATOM     93  C   UNL     1     -17.799  -1.582   9.009  1.00  0.00     0.131 A 
ATOM     94  C   UNL     1     -16.380   0.539  10.082  1.00  0.00     0.055 A 
ATOM     95  C   UNL     1     -18.378  -0.803  10.012  1.00  0.00     0.041 A 
ATOM     96  F   UNL     1     -18.508  -2.621   8.539  1.00  0.00    -0.206 F 
ATOM     97  C   UNL     1     -17.662   0.254  10.563  1.00  0.00     0.022 A 
BRANCH  94  98
ATOM     98  S   UNL     1     -15.434   1.839  10.923  1.00  0.00     0.124 S 
ATOM     99  O   UNL     1     -16.231   3.028  10.631  1.00  0.00    -0.237 OA
ATOM    100  O   UNL     1     -15.466   1.393  12.313  1.00  0.00    -0.237 OA
ATOM    101  O   UNL     1     -14.124   1.794  10.280  1.00  0.00    -0.744 OA
ENDBRANCH  94  98
ENDBRANCH  68  91
ENDBRANCH  42  43
ENDBRANCH  34  37
ENDBRANCH  32  33
ENDBRANCH  31  32
ENDBRANCH   1  31
TORSDOF 17
