REMARK SMILES COc1cc(Cl)c(C)cc1N1C(=O)C[C@H](Nc2cc(C(=O)NCCCNC(=O)c3ccc(-c4c5nc(c(-c6cc(S(=O)(=O)[O-])ccc6F)c6ccc([nH]6)c(-c6cc(S(=O)(=O)[O-])ccc6F)c6nc(c(-c7cc(S(=O)(=O)[O-])ccc7F)c7ccc4[nH]7)C=C6)C=C5)cc3)ccc2C)C1=O
REMARK SMILES IDX 23 1 22 2 20 3 21 4 19 6 17 7 18 8 94 9 93 10 95 11 92 12
REMARK SMILES IDX 16 13 15 15 11 16 12 17 96 18 13 19 14 20 97 21 10 22 3 23
REMARK SMILES IDX 4 24 5 25 9 26 6 27 7 28 8 29 2 30 1 31 24 32 25 33 26 34
REMARK SMILES IDX 27 35 28 37 29 38 30 39 91 40 31 41 90 42 32 43 33 44 34 45
REMARK SMILES IDX 84 46 35 47 89 48 83 49 85 50 36 51 88 52 82 53 81 54 37 56
REMARK SMILES IDX 69 57 49 58 68 59 50 60 53 61 67 62 86 63 51 64 52 65 66 67
REMARK SMILES IDX 87 68 54 69 38 70 39 71 47 72 40 73 46 74 48 75 45 76 41 77
REMARK SMILES IDX 42 78 43 79 44 80 70 81 71 82 79 83 72 84 78 85 80 86 77 87
REMARK SMILES IDX 73 88 74 89 75 90 76 91 55 92 56 93 64 94 57 95 63 96 65 97
REMARK SMILES IDX 62 98 58 99 59 100 60 101 61 102
REMARK H PARENT 22 5 16 14 26 36 85 55 53 66
REMARK Flexibility Score: inf
ROOT
ATOM      1  C   UNL     1       2.801  -2.247   4.599  1.00  0.00     0.118 C 
ENDROOT
BRANCH   1   2
ATOM      2  N   UNL     1       3.771  -2.457   5.670  1.00  0.00    -0.352 N 
ATOM      3  C   UNL     1       5.133  -2.306   5.756  1.00  0.00     0.251 C 
ATOM      4  O   UNL     1       5.659  -2.505   6.855  1.00  0.00    -0.269 OA
ATOM      5  H   UNL     1       3.362  -2.774   6.508  1.00  0.00     0.163 HD
BRANCH   3   6
ATOM      6  C   UNL     1       6.021  -1.904   4.621  1.00  0.00     0.041 A 
ATOM      7  C   UNL     1       6.555  -1.567   2.248  1.00  0.00     0.038 A 
ATOM      8  C   UNL     1       5.682  -1.976   3.272  1.00  0.00     0.039 A 
ATOM      9  C   UNL     1       7.856  -1.171   2.580  1.00  0.00    -0.028 A 
ATOM     10  C   UNL     1       8.224  -1.119   3.932  1.00  0.00     0.006 A 
ATOM     11  C   UNL     1       8.870  -0.779   1.544  1.00  0.00     0.046 C 
ATOM     12  C   UNL     1       7.316  -1.471   4.936  1.00  0.00     0.014 A 
BRANCH   7  13
ATOM     13  N   UNL     1       6.156  -1.696   0.911  1.00  0.00    -0.373 N 
ATOM     14  H   UNL     1       6.677  -2.225   0.265  1.00  0.00     0.161 HD
BRANCH  13  15
ATOM     15  C   UNL     1       4.918  -1.000   0.521  1.00  0.00     0.179 C 
ATOM     16  N   UNL     1       3.388  -1.449  -1.187  1.00  0.00    -0.245 N 
ATOM     17  C   UNL     1       4.182  -0.452  -1.691  1.00  0.00     0.236 C 
ATOM     18  C   UNL     1       3.881  -1.966  -0.019  1.00  0.00     0.256 C 
ATOM     19  O   UNL     1       4.122   0.071  -2.785  1.00  0.00    -0.274 OA
ATOM     20  C   UNL     1       5.191  -0.066  -0.646  1.00  0.00     0.136 C 
ATOM     21  O   UNL     1       3.669  -3.080   0.449  1.00  0.00    -0.272 OA
BRANCH  16  22
ATOM     22  C   UNL     1       2.301  -2.023  -1.869  1.00  0.00     0.094 A 
ATOM     23  C   UNL     1       1.046  -2.106  -1.250  1.00  0.00     0.144 A 
ATOM     24  C   UNL     1      -0.026  -2.719  -1.897  1.00  0.00     0.069 A 
ATOM     25  C   UNL     1       0.152  -3.256  -3.174  1.00  0.00     0.047 A 
ATOM     26  C   UNL     1       2.465  -2.539  -3.160  1.00  0.00     0.035 A 
ATOM     27  Cl  UNL     1      -1.209  -3.991  -3.945  1.00  0.00    -0.084 Cl
ATOM     28  C   UNL     1       1.404  -3.192  -3.811  1.00  0.00    -0.030 A 
ATOM     29  C   UNL     1       1.646  -3.833  -5.149  1.00  0.00     0.046 C 
BRANCH  23  30
ATOM     30  O   UNL     1       0.827  -1.608   0.007  1.00  0.00    -0.495 OA
ATOM     31  C   UNL     1       0.641  -0.191  -0.004  1.00  0.00     0.278 C 
ENDBRANCH  23  30
ENDBRANCH  16  22
ENDBRANCH  13  15
ENDBRANCH   7  13
ENDBRANCH   3   6
ENDBRANCH   1   2
BRANCH   1  32
ATOM     32  C   UNL     1       2.682  -3.474   3.696  1.00  0.00     0.042 C 
BRANCH  32  33
ATOM     33  C   UNL     1       1.507  -4.382   4.019  1.00  0.00     0.118 C 
BRANCH  33  34
ATOM     34  N   UNL     1       0.442  -4.327   3.014  1.00  0.00    -0.352 N 
ATOM     35  C   UNL     1      -0.669  -5.136   2.871  1.00  0.00     0.251 C 
ATOM     36  H   UNL     1       0.530  -3.610   2.344  1.00  0.00     0.163 HD
ATOM     37  O   UNL     1      -1.458  -5.010   1.940  1.00  0.00    -0.269 OA
BRANCH  35  38
ATOM     38  C   UNL     1      -0.988  -6.067   3.974  1.00  0.00     0.039 A 
ATOM     39  C   UNL     1      -2.178  -5.811   4.666  1.00  0.00     0.014 A 
ATOM     40  C   UNL     1       0.011  -6.861   4.525  1.00  0.00     0.014 A 
ATOM     41  C   UNL     1      -2.236  -6.091   6.023  1.00  0.00     0.010 A 
ATOM     42  C   UNL     1       0.000  -7.041   5.891  1.00  0.00     0.010 A 
ATOM     43  C   UNL     1      -1.087  -6.576   6.642  1.00  0.00    -0.014 A 
BRANCH  43  44
ATOM     44  C   UNL     1      -0.887  -6.531   8.081  1.00  0.00     0.031 A 
ATOM     45  C   UNL     1      -0.989  -7.774   8.857  1.00  0.00     0.074 A 
ATOM     46  C   UNL     1      -0.537  -5.365   8.667  1.00  0.00     0.049 A 
ATOM     47  N   UNL     1      -1.167  -7.832  10.130  1.00  0.00    -0.248 NA
ATOM     48  C   UNL     1      -0.981  -9.085   8.219  1.00  0.00     0.031 C 
ATOM     49  C   UNL     1      -0.049  -5.158  10.027  1.00  0.00     0.029 A 
ATOM     50  N   UNL     1      -0.800  -4.079   8.191  1.00  0.00    -0.354 N 
ATOM     51  C   UNL     1      -0.985  -9.139  10.517  1.00  0.00     0.074 A 
ATOM     52  C   UNL     1      -1.000  -9.886   9.286  1.00  0.00     0.031 C 
ATOM     53  C   UNL     1      -0.292  -3.886  10.384  1.00  0.00     0.029 A 
ATOM     54  C   UNL     1      -1.072  -3.281   9.319  1.00  0.00     0.049 A 
ATOM     55  H   UNL     1      -0.796  -3.787   7.251  1.00  0.00     0.167 HD
ATOM     56  C   UNL     1      -0.694  -9.390  11.826  1.00  0.00     0.034 A 
ATOM     57  C   UNL     1      -2.306  -2.718   9.479  1.00  0.00     0.034 A 
ATOM     58  C   UNL     1      -0.950  -8.195  12.643  1.00  0.00     0.049 A 
ATOM     59  C   UNL     1      -3.043  -3.244  10.695  1.00  0.00     0.074 A 
ATOM     60  C   UNL     1      -0.131  -7.241  13.226  1.00  0.00     0.029 A 
ATOM     61  N   UNL     1      -2.242  -7.670  12.680  1.00  0.00    -0.354 N 
ATOM     62  N   UNL     1      -2.720  -4.334  11.341  1.00  0.00    -0.248 NA
ATOM     63  C   UNL     1      -4.189  -2.567  11.291  1.00  0.00     0.031 C 
ATOM     64  C   UNL     1      -0.929  -6.094  13.507  1.00  0.00     0.029 A 
ATOM     65  C   UNL     1      -2.238  -6.367  13.143  1.00  0.00     0.049 A 
ATOM     66  H   UNL     1      -3.051  -8.162  12.410  1.00  0.00     0.167 HD
ATOM     67  C   UNL     1      -3.574  -4.521  12.400  1.00  0.00     0.074 A 
ATOM     68  C   UNL     1      -4.461  -3.369  12.335  1.00  0.00     0.031 C 
ATOM     69  C   UNL     1      -3.482  -5.605  13.235  1.00  0.00     0.034 A 
BRANCH  56  70
ATOM     70  C   UNL     1       0.094 -10.599  12.315  1.00  0.00     0.023 A 
ATOM     71  C   UNL     1       0.741 -10.527  13.570  1.00  0.00     0.031 A 
ATOM     72  C   UNL     1       0.352 -11.786  11.593  1.00  0.00     0.131 A 
ATOM     73  C   UNL     1       1.631 -11.533  14.006  1.00  0.00     0.055 A 
ATOM     74  C   UNL     1       1.250 -12.775  12.015  1.00  0.00     0.041 A 
ATOM     75  F   UNL     1      -0.264 -12.085  10.448  1.00  0.00    -0.206 F 
ATOM     76  C   UNL     1       1.906 -12.648  13.223  1.00  0.00     0.022 A 
BRANCH  73  77
ATOM     77  S   UNL     1       2.454 -11.360  15.613  1.00  0.00     0.124 S 
ATOM     78  O   UNL     1       3.239 -10.144  15.428  1.00  0.00    -0.237 OA
ATOM     79  O   UNL     1       1.324 -11.271  16.532  1.00  0.00    -0.237 OA
ATOM     80  O   UNL     1       3.240 -12.589  15.725  1.00  0.00    -0.744 OA
ENDBRANCH  73  77
ENDBRANCH  56  70
BRANCH  57  81
ATOM     81  C   UNL     1      -2.903  -2.276   8.182  1.00  0.00     0.023 A 
ATOM     82  C   UNL     1      -2.171  -1.321   7.437  1.00  0.00     0.031 A 
ATOM     83  C   UNL     1      -3.856  -3.042   7.499  1.00  0.00     0.131 A 
ATOM     84  C   UNL     1      -2.268  -1.279   6.037  1.00  0.00     0.055 A 
ATOM     85  C   UNL     1      -3.999  -2.950   6.106  1.00  0.00     0.041 A 
ATOM     86  F   UNL     1      -4.563  -3.985   8.140  1.00  0.00    -0.206 F 
ATOM     87  C   UNL     1      -3.168  -2.106   5.364  1.00  0.00     0.022 A 
BRANCH  84  88
ATOM     88  S   UNL     1      -1.030  -0.341   5.086  1.00  0.00     0.124 S 
ATOM     89  O   UNL     1      -1.739   0.900   4.792  1.00  0.00    -0.237 OA
ATOM     90  O   UNL     1       0.090  -0.224   6.016  1.00  0.00    -0.237 OA
ATOM     91  O   UNL     1      -0.755  -1.198   3.934  1.00  0.00    -0.744 OA
ENDBRANCH  84  88
ENDBRANCH  57  81
BRANCH  69  92
ATOM     92  C   UNL     1      -4.514  -6.010  14.277  1.00  0.00     0.023 A 
ATOM     93  C   UNL     1      -5.814  -5.485  14.328  1.00  0.00     0.031 A 
ATOM     94  C   UNL     1      -4.235  -7.020  15.233  1.00  0.00     0.131 A 
ATOM     95  C   UNL     1      -6.724  -5.870  15.331  1.00  0.00     0.055 A 
ATOM     96  C   UNL     1      -5.173  -7.470  16.170  1.00  0.00     0.041 A 
ATOM     97  F   UNL     1      -3.041  -7.626  15.299  1.00  0.00    -0.206 F 
ATOM     98  C   UNL     1      -6.422  -6.879  16.238  1.00  0.00     0.022 A 
BRANCH  95  99
ATOM     99  S   UNL     1      -8.281  -4.953  15.470  1.00  0.00     0.124 S 
ATOM    100  O   UNL     1      -7.807  -3.600  15.752  1.00  0.00    -0.237 OA
ATOM    101  O   UNL     1      -8.880  -5.152  14.155  1.00  0.00    -0.237 OA
ATOM    102  O   UNL     1      -8.972  -5.611  16.576  1.00  0.00    -0.744 OA
ENDBRANCH  95  99
ENDBRANCH  69  92
ENDBRANCH  43  44
ENDBRANCH  35  38
ENDBRANCH  33  34
ENDBRANCH  32  33
ENDBRANCH   1  32
TORSDOF 17
