REMARK SMILES C[C@H]1CCc2sc3ncn4nc(/C=C\C(=O)NCCCNC(=O)c5ccc(-c6c7nc(c(-c8cc(S(=O)(=O)[O-])ccc8F)c8ccc([nH]8)c(-c8cc(S(=O)(=O)[O-])ccc8F)c8nc(c(-c9cc(S(=O)(=O)[O-])ccc9F)c9ccc6[nH]9)C=C8)C=C7)cc5)nc4c3c2C1
REMARK SMILES IDX 20 1 19 2 18 3 17 4 15 5 16 6 14 8 13 9 12 10 1 11 2 12 3 13
REMARK SMILES IDX 91 14 4 15 90 16 5 17 89 18 6 19 7 20 88 21 8 22 10 23 87 24
REMARK SMILES IDX 9 25 11 26 21 27 22 28 23 30 24 31 25 32 86 33 26 34 85 35
REMARK SMILES IDX 27 36 28 37 29 38 79 39 30 40 84 41 78 42 80 43 31 44 83 45
REMARK SMILES IDX 77 46 76 47 32 49 64 50 44 51 63 52 45 53 48 54 62 55 81 56
REMARK SMILES IDX 46 57 47 58 61 60 82 61 49 62 33 63 34 64 42 65 35 66 41 67
REMARK SMILES IDX 43 68 40 69 36 70 37 71 38 72 39 73 65 74 66 75 74 76 67 77
REMARK SMILES IDX 73 78 75 79 72 80 68 81 69 82 70 83 71 84 50 85 51 86 59 87
REMARK SMILES IDX 52 88 58 89 60 90 57 91 53 92 54 93 55 94 56 95
REMARK H PARENT 17 7 21 29 80 48 48 59
REMARK Flexibility Score: inf
ROOT
ATOM      1  C   UNL     1       4.712  -4.332   0.418  1.00  0.00     0.118 C 
ENDROOT
BRANCH   1   2
ATOM      2  C   UNL     1       5.088  -4.061  -1.039  1.00  0.00     0.042 C 
BRANCH   2   3
ATOM      3  C   UNL     1       3.888  -3.584  -1.828  1.00  0.00     0.118 C 
BRANCH   3   4
ATOM      4  N   UNL     1       4.016  -2.470  -2.734  1.00  0.00    -0.352 N 
ATOM      5  C   UNL     1       3.863  -2.455  -4.088  1.00  0.00     0.244 C 
ATOM      6  O   UNL     1       3.774  -1.381  -4.684  1.00  0.00    -0.270 OA
ATOM      7  H   UNL     1       4.244  -1.606  -2.320  1.00  0.00     0.163 HD
BRANCH   5   8
ATOM      8  C   UNL     1       4.020  -3.690  -4.895  1.00  0.00     0.075 C 
ATOM      9  C   UNL     1       3.415  -4.891  -4.873  1.00  0.00     0.057 C 
BRANCH   9  10
ATOM     10  C   UNL     1       2.405  -5.407  -4.002  1.00  0.00     0.175 A 
ATOM     11  C   UNL     1      -1.736  -1.088  -0.453  1.00  0.00     0.008 C 
ATOM     12  C   UNL     1      -0.332  -1.367   0.064  1.00  0.00    -0.009 C 
ATOM     13  C   UNL     1      -0.380  -1.729   1.559  1.00  0.00     0.009 C 
ATOM     14  C   UNL     1       0.388  -2.433  -0.789  1.00  0.00     0.041 C 
ATOM     15  C   UNL     1      -0.924  -3.134   1.865  1.00  0.00     0.047 C 
ATOM     16  C   UNL     1       0.030  -3.840  -0.420  1.00  0.00    -0.020 A 
ATOM     17  C   UNL     1      -0.557  -4.130   0.801  1.00  0.00     0.011 A 
ATOM     18  C   UNL     1       0.352  -5.051  -1.101  1.00  0.00     0.060 A 
ATOM     19  S   UNL     1      -0.820  -5.803   1.035  1.00  0.00    -0.120 S 
ATOM     20  C   UNL     1       0.073  -6.200  -0.367  1.00  0.00     0.129 A 
ATOM     21  C   UNL     1       1.091  -5.329  -2.355  1.00  0.00     0.168 A 
ATOM     22  N   UNL     1       0.482  -7.491  -0.622  1.00  0.00    -0.225 NA
ATOM     23  N   UNL     1       1.540  -6.606  -2.536  1.00  0.00    -0.201 N 
ATOM     24  N   UNL     1       1.560  -4.556  -3.309  1.00  0.00    -0.207 NA
ATOM     25  C   UNL     1       1.263  -7.651  -1.657  1.00  0.00     0.227 A 
ATOM     26  N   UNL     1       2.386  -6.688  -3.584  1.00  0.00    -0.145 NA
ENDBRANCH   9  10
ENDBRANCH   5   8
ENDBRANCH   3   4
ENDBRANCH   2   3
ENDBRANCH   1   2
BRANCH   1  27
ATOM     27  N   UNL     1       3.566  -5.257   0.605  1.00  0.00    -0.352 N 
ATOM     28  C   UNL     1       2.768  -5.453   1.745  1.00  0.00     0.251 C 
ATOM     29  H   UNL     1       3.333  -5.808  -0.176  1.00  0.00     0.163 HD
ATOM     30  O   UNL     1       2.333  -6.561   1.996  1.00  0.00    -0.269 OA
BRANCH  28  31
ATOM     31  C   UNL     1       2.462  -4.286   2.611  1.00  0.00     0.039 A 
ATOM     32  C   UNL     1       2.046  -4.327   3.943  1.00  0.00     0.014 A 
ATOM     33  C   UNL     1       2.672  -3.062   2.023  1.00  0.00     0.014 A 
ATOM     34  C   UNL     1       1.982  -3.115   4.650  1.00  0.00     0.010 A 
ATOM     35  C   UNL     1       3.045  -2.016   2.799  1.00  0.00     0.010 A 
ATOM     36  C   UNL     1       2.545  -1.957   4.073  1.00  0.00    -0.014 A 
BRANCH  36  37
ATOM     37  C   UNL     1       3.050  -0.822   4.833  1.00  0.00     0.031 A 
ATOM     38  C   UNL     1       4.027  -1.344   5.817  1.00  0.00     0.074 A 
ATOM     39  C   UNL     1       2.954   0.488   4.497  1.00  0.00     0.049 A 
ATOM     40  N   UNL     1       3.718  -1.800   6.986  1.00  0.00    -0.248 NA
ATOM     41  C   UNL     1       5.354  -1.798   5.346  1.00  0.00     0.031 C 
ATOM     42  C   UNL     1       2.297   1.138   3.358  1.00  0.00     0.029 A 
ATOM     43  N   UNL     1       3.484   1.556   5.160  1.00  0.00    -0.354 N 
ATOM     44  C   UNL     1       4.917  -2.236   7.513  1.00  0.00     0.074 A 
ATOM     45  C   UNL     1       5.737  -2.553   6.381  1.00  0.00     0.031 C 
ATOM     46  C   UNL     1       2.612   2.461   3.327  1.00  0.00     0.029 A 
ATOM     47  C   UNL     1       3.380   2.797   4.517  1.00  0.00     0.049 A 
ATOM     48  H   UNL     1       3.914   1.460   6.040  1.00  0.00     0.167 HD
ATOM     49  C   UNL     1       5.254  -1.877   8.781  1.00  0.00     0.034 A 
ATOM     50  C   UNL     1       3.816   4.008   4.991  1.00  0.00     0.034 A 
ATOM     51  C   UNL     1       4.093  -1.334   9.470  1.00  0.00     0.049 A 
ATOM     52  C   UNL     1       3.892   3.840   6.470  1.00  0.00     0.074 A 
ATOM     53  C   UNL     1       2.830  -1.807   9.774  1.00  0.00     0.029 A 
ATOM     54  N   UNL     1       3.991   0.040   9.504  1.00  0.00    -0.354 N 
ATOM     55  N   UNL     1       2.843   3.597   7.210  1.00  0.00    -0.248 NA
ATOM     56  C   UNL     1       5.162   3.389   7.016  1.00  0.00     0.031 C 
ATOM     57  C   UNL     1       1.947  -0.713   9.510  1.00  0.00     0.029 A 
ATOM     58  C   UNL     1       2.708   0.409   9.175  1.00  0.00     0.049 A 
ATOM     59  H   UNL     1       4.722   0.660   9.729  1.00  0.00     0.167 HD
ATOM     60  C   UNL     1       3.245   2.594   8.082  1.00  0.00     0.074 A 
ATOM     61  C   UNL     1       4.705   2.543   7.944  1.00  0.00     0.031 C 
ATOM     62  C   UNL     1       2.349   1.690   8.582  1.00  0.00     0.034 A 
BRANCH  49  63
ATOM     63  C   UNL     1       6.668  -1.580   9.226  1.00  0.00     0.023 A 
ATOM     64  C   UNL     1       6.853  -1.297  10.589  1.00  0.00     0.031 A 
ATOM     65  C   UNL     1       7.781  -1.316   8.389  1.00  0.00     0.131 A 
ATOM     66  C   UNL     1       8.050  -0.725  11.051  1.00  0.00     0.055 A 
ATOM     67  C   UNL     1       8.985  -0.791   8.861  1.00  0.00     0.041 A 
ATOM     68  F   UNL     1       7.757  -1.463   7.061  1.00  0.00    -0.206 F 
ATOM     69  C   UNL     1       9.118  -0.468  10.196  1.00  0.00     0.022 A 
BRANCH  66  70
ATOM     70  S   UNL     1       8.148  -0.222  12.784  1.00  0.00     0.124 S 
ATOM     71  O   UNL     1       7.064   0.749  12.871  1.00  0.00    -0.237 OA
ATOM     72  O   UNL     1       7.935  -1.490  13.474  1.00  0.00    -0.237 OA
ATOM     73  O   UNL     1       9.495   0.329  12.899  1.00  0.00    -0.744 OA
ENDBRANCH  66  70
ENDBRANCH  49  63
BRANCH  50  74
ATOM     74  C   UNL     1       4.657   5.045   4.282  1.00  0.00     0.023 A 
ATOM     75  C   UNL     1       5.018   6.289   4.877  1.00  0.00     0.031 A 
ATOM     76  C   UNL     1       5.360   4.698   3.110  1.00  0.00     0.131 A 
ATOM     77  C   UNL     1       6.043   7.098   4.313  1.00  0.00     0.055 A 
ATOM     78  C   UNL     1       6.380   5.492   2.570  1.00  0.00     0.041 A 
ATOM     79  F   UNL     1       5.141   3.528   2.493  1.00  0.00    -0.206 F 
ATOM     80  C   UNL     1       6.736   6.687   3.175  1.00  0.00     0.022 A 
BRANCH  77  81
ATOM     81  S   UNL     1       6.581   8.662   5.102  1.00  0.00     0.124 S 
ATOM     82  O   UNL     1       5.489   9.568   4.765  1.00  0.00    -0.237 OA
ATOM     83  O   UNL     1       6.703   8.288   6.506  1.00  0.00    -0.237 OA
ATOM     84  O   UNL     1       7.851   8.961   4.438  1.00  0.00    -0.744 OA
ENDBRANCH  77  81
ENDBRANCH  50  74
BRANCH  62  85
ATOM     85  C   UNL     1       0.862   1.981   8.423  1.00  0.00     0.023 A 
ATOM     86  C   UNL     1       0.130   2.007   7.208  1.00  0.00     0.031 A 
ATOM     87  C   UNL     1       0.135   2.107   9.619  1.00  0.00     0.131 A 
ATOM     88  C   UNL     1      -1.280   2.149   7.236  1.00  0.00     0.055 A 
ATOM     89  C   UNL     1      -1.253   2.224   9.642  1.00  0.00     0.041 A 
ATOM     90  F   UNL     1       0.770   2.069  10.802  1.00  0.00    -0.206 F 
ATOM     91  C   UNL     1      -1.966   2.247   8.451  1.00  0.00     0.022 A 
BRANCH  88  92
ATOM     92  S   UNL     1      -2.264   2.188   5.694  1.00  0.00     0.124 S 
ATOM     93  O   UNL     1      -1.694   3.314   4.963  1.00  0.00    -0.237 OA
ATOM     94  O   UNL     1      -2.023   0.867   5.121  1.00  0.00    -0.237 OA
ATOM     95  O   UNL     1      -3.635   2.401   6.165  1.00  0.00    -0.744 OA
ENDBRANCH  88  92
ENDBRANCH  62  85
ENDBRANCH  36  37
ENDBRANCH  28  31
ENDBRANCH   1  27
TORSDOF 14
