REMARK SMILES Cc1nsc(NC(=O)[C@]2([NH3+])CCC[C@@H](C)C2)c1C(=O)NCCCNC(=O)c1ccc(-c2c3nc(c(-c4cc(S(=O)(=O)[O-])ccc4F)c4ccc([nH]4)c(-c4cc(S(=O)(=O)[O-])ccc4F)c4nc(c(-c5cc(S(=O)(=O)[O-])ccc5F)c5ccc2[nH]5)C=C4)C=C3)cc1
REMARK SMILES IDX 22 1 21 2 20 3 18 4 19 5 17 7 1 8 2 9 3 10 4 11 5 12 6 13
REMARK SMILES IDX 7 14 8 16 9 17 11 18 16 19 12 20 14 21 13 22 15 23 10 24
REMARK SMILES IDX 23 28 24 29 25 30 26 32 27 33 28 34 89 35 29 36 88 37 30 38
REMARK SMILES IDX 31 39 32 40 82 41 33 42 87 43 81 44 83 45 34 46 86 47 80 48
REMARK SMILES IDX 79 49 35 51 67 52 47 53 66 54 48 55 51 56 65 57 84 58 49 59
REMARK SMILES IDX 50 60 64 62 85 63 52 64 36 65 37 66 45 67 38 68 44 69 46 70
REMARK SMILES IDX 43 71 39 72 40 73 41 74 42 75 68 76 69 77 77 78 70 79 76 80
REMARK SMILES IDX 78 81 75 82 71 83 72 84 73 85 74 86 53 87 54 88 62 89 55 90
REMARK SMILES IDX 61 91 63 92 60 93 56 94 57 95 58 96 59 97
REMARK H PARENT 20 6 6 15 10 25 10 26 10 27 24 31 83 50 51 61
REMARK Flexibility Score: inf
ROOT
ATOM      1  C   UNL     1       4.383  -0.576   2.884  1.00  0.00     0.042 C 
ENDROOT
BRANCH   1   2
ATOM      2  C   UNL     1       3.189  -0.673   3.836  1.00  0.00     0.118 C 
BRANCH   2   3
ATOM      3  N   UNL     1       2.847   0.542   4.545  1.00  0.00    -0.352 N 
ATOM      4  C   UNL     1       2.127   1.669   4.258  1.00  0.00     0.256 C 
ATOM      5  O   UNL     1       1.847   2.365   5.240  1.00  0.00    -0.269 OA
ATOM      6  H   UNL     1       3.224   0.562   5.454  1.00  0.00     0.163 HD
BRANCH   4   7
ATOM      7  C   UNL     1       1.806   2.150   2.912  1.00  0.00     0.097 A 
ATOM      8  C   UNL     1       1.442   0.086   1.258  1.00  0.00     0.069 C 
ATOM      9  C   UNL     1       1.659   1.512   1.613  1.00  0.00     0.066 A 
ATOM     10  N   UNL     1       1.644   2.335   0.561  1.00  0.00    -0.195 NA
ATOM     11  S   UNL     1       1.603   3.877   1.103  1.00  0.00    -0.017 S 
ATOM     12  C   UNL     1       1.402   3.486   2.739  1.00  0.00     0.129 A 
BRANCH  12  13
ATOM     13  N   UNL     1       1.059   4.417   3.708  1.00  0.00    -0.310 N 
ATOM     14  C   UNL     1       0.260   5.535   3.718  1.00  0.00     0.286 C 
ATOM     15  H   UNL     1       1.480   4.238   4.580  1.00  0.00     0.171 HD
ATOM     16  O   UNL     1       0.225   6.173   4.781  1.00  0.00    -0.267 OA
BRANCH  14  17
ATOM     17  C   UNL     1      -0.619   6.010   2.508  1.00  0.00     0.174 C 
ATOM     18  C   UNL     1      -1.548   7.190   2.911  1.00  0.00     0.079 C 
ATOM     19  C   UNL     1      -1.563   4.870   2.052  1.00  0.00     0.082 C 
ATOM     20  C   UNL     1      -2.447   7.643   1.750  1.00  0.00     0.007 C 
ATOM     21  C   UNL     1      -2.532   5.217   0.911  1.00  0.00    -0.008 C 
ATOM     22  C   UNL     1      -3.309   6.505   1.206  1.00  0.00     0.004 C 
ATOM     23  C   UNL     1      -1.841   5.244  -0.454  1.00  0.00     0.008 C 
BRANCH  17  24
ATOM     24  N   UNL     1       0.276   6.587   1.483  1.00  0.00    -0.345 N 
ATOM     25  H   UNL     1      -0.277   6.902   0.687  1.00  0.00     0.345 HD
ATOM     26  H   UNL     1       0.943   5.879   1.175  1.00  0.00     0.345 HD
ATOM     27  H   UNL     1       0.782   7.379   1.881  1.00  0.00     0.345 HD
ENDBRANCH  17  24
ENDBRANCH  14  17
ENDBRANCH  12  13
ENDBRANCH   4   7
ENDBRANCH   2   3
ENDBRANCH   1   2
BRANCH   1  28
ATOM     28  C   UNL     1       5.637  -1.250   3.429  1.00  0.00     0.118 C 
BRANCH  28  29
ATOM     29  N   UNL     1       5.421  -2.678   3.678  1.00  0.00    -0.352 N 
ATOM     30  C   UNL     1       6.051  -3.515   4.579  1.00  0.00     0.251 C 
ATOM     31  H   UNL     1       4.727  -3.102   3.122  1.00  0.00     0.163 HD
ATOM     32  O   UNL     1       5.925  -4.725   4.491  1.00  0.00    -0.269 OA
BRANCH  30  33
ATOM     33  C   UNL     1       6.917  -2.905   5.603  1.00  0.00     0.039 A 
ATOM     34  C   UNL     1       8.245  -3.312   5.712  1.00  0.00     0.014 A 
ATOM     35  C   UNL     1       6.435  -1.819   6.328  1.00  0.00     0.014 A 
ATOM     36  C   UNL     1       9.125  -2.525   6.450  1.00  0.00     0.010 A 
ATOM     37  C   UNL     1       7.334  -0.979   6.956  1.00  0.00     0.010 A 
ATOM     38  C   UNL     1       8.686  -1.317   7.024  1.00  0.00    -0.014 A 
BRANCH  38  39
ATOM     39  C   UNL     1       9.675  -0.388   7.585  1.00  0.00     0.031 A 
ATOM     40  C   UNL     1      10.931  -0.193   6.801  1.00  0.00     0.074 A 
ATOM     41  C   UNL     1       9.502   0.398   8.668  1.00  0.00     0.049 A 
ATOM     42  N   UNL     1      12.100  -0.675   7.068  1.00  0.00    -0.248 NA
ATOM     43  C   UNL     1      10.875   0.547   5.534  1.00  0.00     0.031 C 
ATOM     44  C   UNL     1       8.296   0.626   9.468  1.00  0.00     0.029 A 
ATOM     45  N   UNL     1      10.413   1.235   9.244  1.00  0.00    -0.354 N 
ATOM     46  C   UNL     1      12.980  -0.137   6.133  1.00  0.00     0.074 A 
ATOM     47  C   UNL     1      12.148   0.478   5.130  1.00  0.00     0.031 C 
ATOM     48  C   UNL     1       8.484   1.690  10.279  1.00  0.00     0.029 A 
ATOM     49  C   UNL     1       9.878   2.079  10.202  1.00  0.00     0.049 A 
ATOM     50  H   UNL     1      11.367   1.238   9.001  1.00  0.00     0.167 HD
ATOM     51  C   UNL     1      14.325  -0.093   6.367  1.00  0.00     0.034 A 
ATOM     52  C   UNL     1      10.527   3.014  10.935  1.00  0.00     0.034 A 
ATOM     53  C   UNL     1      14.683  -0.931   7.491  1.00  0.00     0.049 A 
ATOM     54  C   UNL     1      11.941   2.586  11.027  1.00  0.00     0.074 A 
ATOM     55  C   UNL     1      14.545  -2.273   7.793  1.00  0.00     0.029 A 
ATOM     56  N   UNL     1      14.961  -0.318   8.692  1.00  0.00    -0.354 N 
ATOM     57  N   UNL     1      12.318   1.491  11.631  1.00  0.00    -0.248 NA
ATOM     58  C   UNL     1      12.910   3.142  10.099  1.00  0.00     0.031 C 
ATOM     59  C   UNL     1      14.224  -2.303   9.184  1.00  0.00     0.029 A 
ATOM     60  C   UNL     1      14.252  -0.989   9.658  1.00  0.00     0.049 A 
ATOM     61  H   UNL     1      15.555   0.454   8.832  1.00  0.00     0.167 HD
ATOM     62  C   UNL     1      13.354   0.992  10.859  1.00  0.00     0.074 A 
ATOM     63  C   UNL     1      13.756   2.111  10.011  1.00  0.00     0.031 C 
ATOM     64  C   UNL     1      13.610  -0.349  10.792  1.00  0.00     0.034 A 
BRANCH  51  65
ATOM     65  C   UNL     1      15.302   0.924   5.812  1.00  0.00     0.023 A 
ATOM     66  C   UNL     1      16.663   0.780   6.162  1.00  0.00     0.031 A 
ATOM     67  C   UNL     1      14.957   2.153   5.211  1.00  0.00     0.131 A 
ATOM     68  C   UNL     1      17.573   1.842   6.013  1.00  0.00     0.055 A 
ATOM     69  C   UNL     1      15.883   3.181   4.995  1.00  0.00     0.041 A 
ATOM     70  F   UNL     1      13.698   2.466   4.885  1.00  0.00    -0.206 F 
ATOM     71  C   UNL     1      17.191   3.044   5.427  1.00  0.00     0.022 A 
BRANCH  68  72
ATOM     72  S   UNL     1      19.210   1.690   6.777  1.00  0.00     0.124 S 
ATOM     73  O   UNL     1      18.863   1.338   8.150  1.00  0.00    -0.237 OA
ATOM     74  O   UNL     1      19.821   0.636   5.975  1.00  0.00    -0.237 OA
ATOM     75  O   UNL     1      19.790   3.020   6.603  1.00  0.00    -0.744 OA
ENDBRANCH  68  72
ENDBRANCH  51  65
BRANCH  52  76
ATOM     76  C   UNL     1      10.014   4.356  11.289  1.00  0.00     0.023 A 
ATOM     77  C   UNL     1      10.544   5.110  12.350  1.00  0.00     0.031 A 
ATOM     78  C   UNL     1       9.123   5.017  10.412  1.00  0.00     0.131 A 
ATOM     79  C   UNL     1      10.183   6.467  12.500  1.00  0.00     0.055 A 
ATOM     80  C   UNL     1       8.765   6.356  10.569  1.00  0.00     0.041 A 
ATOM     81  F   UNL     1       8.636   4.401   9.322  1.00  0.00    -0.206 F 
ATOM     82  C   UNL     1       9.303   7.092  11.612  1.00  0.00     0.022 A 
BRANCH  79  83
ATOM     83  S   UNL     1      10.955   7.470  13.807  1.00  0.00     0.124 S 
ATOM     84  O   UNL     1      10.330   6.939  15.012  1.00  0.00    -0.237 OA
ATOM     85  O   UNL     1      12.373   7.178  13.629  1.00  0.00    -0.237 OA
ATOM     86  O   UNL     1      10.565   8.837  13.460  1.00  0.00    -0.744 OA
ENDBRANCH  79  83
ENDBRANCH  52  76
BRANCH  64  87
ATOM     87  C   UNL     1      12.991  -1.261  11.834  1.00  0.00     0.023 A 
ATOM     88  C   UNL     1      11.606  -1.381  12.082  1.00  0.00     0.031 A 
ATOM     89  C   UNL     1      13.854  -2.134  12.522  1.00  0.00     0.131 A 
ATOM     90  C   UNL     1      11.134  -2.340  13.001  1.00  0.00     0.055 A 
ATOM     91  C   UNL     1      13.382  -3.095  13.416  1.00  0.00     0.041 A 
ATOM     92  F   UNL     1      15.180  -2.090  12.309  1.00  0.00    -0.206 F 
ATOM     93  C   UNL     1      12.019  -3.197  13.664  1.00  0.00     0.022 A 
BRANCH  90  94
ATOM     94  S   UNL     1       9.354  -2.482  13.363  1.00  0.00     0.124 S 
ATOM     95  O   UNL     1       8.939  -1.103  13.593  1.00  0.00    -0.237 OA
ATOM     96  O   UNL     1       8.833  -3.111  12.152  1.00  0.00    -0.237 OA
ATOM     97  O   UNL     1       9.315  -3.334  14.553  1.00  0.00    -0.744 OA
ENDBRANCH  90  94
ENDBRANCH  64  87
ENDBRANCH  38  39
ENDBRANCH  30  33
ENDBRANCH  28  29
ENDBRANCH   1  28
TORSDOF 16
