REMARK SMILES COc1cccc([C@@]([NH3+])(C(=O)NCCCNC(=O)c2ccc(-c3c4nc(c(-c5cc(S(=O)(=O)[O-])ccc5F)c5ccc([nH]5)c(-c5cc(S(=O)(=O)[O-])ccc5F)c5nc(c(-c6cc(S(=O)(=O)[O-])ccc6F)c6ccc3[nH]6)C=C5)C=C4)cc2)C(F)(F)F)c1
REMARK SMILES IDX 14 1 13 2 12 3 10 4 11 5 8 7 7 8 3 9 4 10 86 11 5 12 6 13
REMARK SMILES IDX 2 14 1 15 9 16 82 20 83 21 84 22 85 23 15 24 16 25 17 26
REMARK SMILES IDX 18 28 19 29 20 30 81 31 21 32 80 33 22 34 23 35 24 36 74 37
REMARK SMILES IDX 25 38 79 39 73 40 75 41 26 42 78 43 72 44 71 45 27 47 59 48
REMARK SMILES IDX 39 49 58 50 40 51 43 52 57 53 76 54 41 55 42 56 56 58 77 59
REMARK SMILES IDX 44 60 28 61 29 62 37 63 30 64 36 65 38 66 35 67 31 68 32 69
REMARK SMILES IDX 33 70 34 71 60 72 61 73 69 74 62 75 68 76 70 77 67 78 63 79
REMARK SMILES IDX 64 80 65 81 66 82 45 83 46 84 54 85 47 86 53 87 55 88 52 89
REMARK SMILES IDX 48 90 49 91 50 92 51 93
REMARK H PARENT 12 6 9 17 9 18 9 19 16 27 75 46 43 57
REMARK Flexibility Score: inf
ROOT
ATOM      1  C   UNL     1       1.206  -7.225  -2.155  1.00  0.00     0.042 C 
ENDROOT
BRANCH   1   2
ATOM      2  C   UNL     1       2.706  -7.168  -1.871  1.00  0.00     0.118 C 
BRANCH   2   3
ATOM      3  N   UNL     1       3.333  -6.040  -2.542  1.00  0.00    -0.350 N 
ATOM      4  C   UNL     1       3.720  -4.800  -2.118  1.00  0.00     0.296 C 
ATOM      5  O   UNL     1       4.109  -4.055  -3.027  1.00  0.00    -0.267 OA
ATOM      6  H   UNL     1       3.515  -6.204  -3.495  1.00  0.00     0.163 HD
BRANCH   4   7
ATOM      7  C   UNL     1       3.686  -4.321  -0.631  1.00  0.00     0.295 C 
BRANCH   7   8
ATOM      8  C   UNL     1       2.275  -3.828  -0.220  1.00  0.00     0.035 A 
ATOM      9  C   UNL     1       0.622  -2.049   0.160  1.00  0.00     0.119 A 
ATOM     10  C   UNL     1      -0.325  -2.997   0.538  1.00  0.00     0.046 A 
ATOM     11  C   UNL     1       1.902  -2.466  -0.234  1.00  0.00     0.057 A 
ATOM     12  C   UNL     1       0.005  -4.344   0.555  1.00  0.00     0.004 A 
ATOM     13  C   UNL     1       1.296  -4.746   0.208  1.00  0.00     0.011 A 
BRANCH   9  14
ATOM     14  O   UNL     1       0.184  -0.756   0.247  1.00  0.00    -0.497 OA
ATOM     15  C   UNL     1       1.008   0.254  -0.318  1.00  0.00     0.278 C 
ENDBRANCH   9  14
ENDBRANCH   7   8
BRANCH   7  16
ATOM     16  N   UNL     1       4.114  -5.455   0.289  1.00  0.00    -0.333 N 
ATOM     17  H   UNL     1       3.413  -6.195   0.264  1.00  0.00     0.345 HD
ATOM     18  H   UNL     1       4.204  -5.104   1.243  1.00  0.00     0.345 HD
ATOM     19  H   UNL     1       5.011  -5.825  -0.023  1.00  0.00     0.345 HD
ENDBRANCH   7  16
BRANCH   7  20
ATOM     20  C   UNL     1       4.785  -3.196  -0.570  1.00  0.00     0.458 C 
ATOM     21  F   UNL     1       4.588  -2.130  -1.370  1.00  0.00    -0.164 F 
ATOM     22  F   UNL     1       4.885  -2.714   0.703  1.00  0.00    -0.164 F 
ATOM     23  F   UNL     1       6.015  -3.707  -0.856  1.00  0.00    -0.164 F 
ENDBRANCH   7  20
ENDBRANCH   4   7
ENDBRANCH   2   3
ENDBRANCH   1   2
BRANCH   1  24
ATOM     24  C   UNL     1       0.863  -7.763  -3.539  1.00  0.00     0.118 C 
BRANCH  24  25
ATOM     25  N   UNL     1       1.089  -9.197  -3.640  1.00  0.00    -0.352 N 
ATOM     26  C   UNL     1       0.203 -10.223  -3.864  1.00  0.00     0.251 C 
ATOM     27  H   UNL     1       2.027  -9.477  -3.530  1.00  0.00     0.163 HD
ATOM     28  O   UNL     1       0.577 -11.378  -3.677  1.00  0.00    -0.269 OA
BRANCH  26  29
ATOM     29  C   UNL     1      -1.188  -9.955  -4.306  1.00  0.00     0.039 A 
ATOM     30  C   UNL     1      -2.217 -10.761  -3.808  1.00  0.00     0.014 A 
ATOM     31  C   UNL     1      -1.483  -8.962  -5.243  1.00  0.00     0.014 A 
ATOM     32  C   UNL     1      -3.539 -10.535  -4.205  1.00  0.00     0.010 A 
ATOM     33  C   UNL     1      -2.808  -8.688  -5.581  1.00  0.00     0.010 A 
ATOM     34  C   UNL     1      -3.851  -9.476  -5.073  1.00  0.00    -0.014 A 
BRANCH  34  35
ATOM     35  C   UNL     1      -5.256  -9.194  -5.476  1.00  0.00     0.031 A 
ATOM     36  C   UNL     1      -5.667  -9.326  -6.919  1.00  0.00     0.074 A 
ATOM     37  C   UNL     1      -6.145  -8.768  -4.557  1.00  0.00     0.049 A 
ATOM     38  N   UNL     1      -6.811  -9.037  -7.485  1.00  0.00    -0.248 NA
ATOM     39  C   UNL     1      -4.646  -9.826  -7.853  1.00  0.00     0.031 C 
ATOM     40  C   UNL     1      -5.861  -8.573  -3.133  1.00  0.00     0.029 A 
ATOM     41  N   UNL     1      -7.465  -8.411  -4.681  1.00  0.00    -0.354 N 
ATOM     42  C   UNL     1      -6.645  -9.305  -8.841  1.00  0.00     0.074 A 
ATOM     43  C   UNL     1      -5.271  -9.727  -9.017  1.00  0.00     0.031 C 
ATOM     44  C   UNL     1      -6.976  -8.150  -2.515  1.00  0.00     0.029 A 
ATOM     45  C   UNL     1      -8.041  -7.997  -3.501  1.00  0.00     0.049 A 
ATOM     46  H   UNL     1      -7.955  -8.447  -5.534  1.00  0.00     0.167 HD
ATOM     47  C   UNL     1      -7.558  -9.229  -9.841  1.00  0.00     0.034 A 
ATOM     48  C   UNL     1      -9.280  -7.531  -3.245  1.00  0.00     0.034 A 
ATOM     49  C   UNL     1      -8.929  -8.823  -9.648  1.00  0.00     0.049 A 
ATOM     50  C   UNL     1     -10.270  -7.432  -4.379  1.00  0.00     0.074 A 
ATOM     51  C   UNL     1      -9.947  -8.751 -10.584  1.00  0.00     0.029 A 
ATOM     52  N   UNL     1      -9.476  -8.419  -8.438  1.00  0.00    -0.354 N 
ATOM     53  N   UNL     1     -10.104  -7.724  -5.649  1.00  0.00    -0.248 NA
ATOM     54  C   UNL     1     -11.617  -6.952  -4.044  1.00  0.00     0.031 C 
ATOM     55  C   UNL     1     -11.090  -8.248  -9.954  1.00  0.00     0.029 A 
ATOM     56  C   UNL     1     -10.809  -8.074  -8.608  1.00  0.00     0.049 A 
ATOM     57  H   UNL     1      -8.989  -8.382  -7.583  1.00  0.00     0.167 HD
ATOM     58  C   UNL     1     -11.336  -7.494  -6.254  1.00  0.00     0.074 A 
ATOM     59  C   UNL     1     -12.238  -7.055  -5.210  1.00  0.00     0.031 C 
ATOM     60  C   UNL     1     -11.694  -7.635  -7.556  1.00  0.00     0.034 A 
BRANCH  47  61
ATOM     61  C   UNL     1      -7.093  -9.572 -11.236  1.00  0.00     0.023 A 
ATOM     62  C   UNL     1      -6.658 -10.866 -11.571  1.00  0.00     0.031 A 
ATOM     63  C   UNL     1      -7.074  -8.591 -12.244  1.00  0.00     0.131 A 
ATOM     64  C   UNL     1      -6.162 -11.128 -12.857  1.00  0.00     0.055 A 
ATOM     65  C   UNL     1      -6.652  -8.878 -13.543  1.00  0.00     0.041 A 
ATOM     66  F   UNL     1      -7.460  -7.332 -11.979  1.00  0.00    -0.206 F 
ATOM     67  C   UNL     1      -6.179 -10.150 -13.853  1.00  0.00     0.022 A 
BRANCH  64  68
ATOM     68  S   UNL     1      -5.376 -12.732 -13.173  1.00  0.00     0.124 S 
ATOM     69  O   UNL     1      -4.270 -12.710 -12.218  1.00  0.00    -0.237 OA
ATOM     70  O   UNL     1      -6.451 -13.674 -12.883  1.00  0.00    -0.237 OA
ATOM     71  O   UNL     1      -4.980 -12.650 -14.577  1.00  0.00    -0.744 OA
ENDBRANCH  64  68
ENDBRANCH  47  61
BRANCH  48  72
ATOM     72  C   UNL     1      -9.662  -7.104  -1.868  1.00  0.00     0.023 A 
ATOM     73  C   UNL     1     -10.677  -7.769  -1.161  1.00  0.00     0.031 A 
ATOM     74  C   UNL     1      -9.061  -5.987  -1.262  1.00  0.00     0.131 A 
ATOM     75  C   UNL     1     -11.099  -7.278   0.085  1.00  0.00     0.055 A 
ATOM     76  C   UNL     1      -9.445  -5.537   0.003  1.00  0.00     0.041 A 
ATOM     77  F   UNL     1      -8.083  -5.316  -1.891  1.00  0.00    -0.206 F 
ATOM     78  C   UNL     1     -10.482  -6.174   0.677  1.00  0.00     0.022 A 
BRANCH  75  79
ATOM     79  S   UNL     1     -12.542  -8.044   0.874  1.00  0.00     0.124 S 
ATOM     80  O   UNL     1     -13.557  -7.908  -0.164  1.00  0.00    -0.237 OA
ATOM     81  O   UNL     1     -12.062  -9.398   1.130  1.00  0.00    -0.237 OA
ATOM     82  O   UNL     1     -12.753  -7.224   2.065  1.00  0.00    -0.744 OA
ENDBRANCH  75  79
ENDBRANCH  48  72
BRANCH  60  83
ATOM     83  C   UNL     1     -13.136  -7.361  -7.904  1.00  0.00     0.023 A 
ATOM     84  C   UNL     1     -13.683  -6.068  -7.826  1.00  0.00     0.031 A 
ATOM     85  C   UNL     1     -13.976  -8.414  -8.307  1.00  0.00     0.131 A 
ATOM     86  C   UNL     1     -15.047  -5.871  -8.092  1.00  0.00     0.055 A 
ATOM     87  C   UNL     1     -15.318  -8.201  -8.627  1.00  0.00     0.041 A 
ATOM     88  F   UNL     1     -13.505  -9.668  -8.398  1.00  0.00    -0.206 F 
ATOM     89  C   UNL     1     -15.863  -6.926  -8.507  1.00  0.00     0.022 A 
BRANCH  86  90
ATOM     90  S   UNL     1     -15.762  -4.229  -7.804  1.00  0.00     0.124 S 
ATOM     91  O   UNL     1     -15.484  -4.021  -6.386  1.00  0.00    -0.237 OA
ATOM     92  O   UNL     1     -15.006  -3.393  -8.731  1.00  0.00    -0.237 OA
ATOM     93  O   UNL     1     -17.173  -4.406  -8.140  1.00  0.00    -0.744 OA
ENDBRANCH  86  90
ENDBRANCH  60  83
ENDBRANCH  34  35
ENDBRANCH  26  29
ENDBRANCH  24  25
ENDBRANCH   1  24
TORSDOF 17
