REMARK SMILES CS(=O)(=O)c1ccc(N2N=C(C(=O)NCCCNC(=O)c3ccc(-c4c5nc(c(-c6cc(S(=O)(=O)[O-])ccc6F)c6ccc([nH]6)c(-c6cc(S(=O)(=O)[O-])ccc6F)c6nc(c(-c7cc(S(=O)(=O)[O-])ccc7F)c7ccc4[nH]7)C=C6)C=C5)cc3)C[C@H]2c2ccco2)cc1
REMARK SMILES IDX 16 1 15 2 14 3 12 4 13 5 11 7 9 8 10 9 85 10 84 11 8 12 5 13
REMARK SMILES IDX 6 14 92 15 7 16 91 17 2 18 1 19 3 20 4 21 86 22 87 23 90 24
REMARK SMILES IDX 88 25 89 26 17 27 18 28 19 29 20 31 21 32 22 33 83 34 23 35
REMARK SMILES IDX 82 36 24 37 25 38 26 39 76 40 27 41 81 42 75 43 77 44 28 45
REMARK SMILES IDX 80 46 74 47 73 48 29 50 61 51 41 52 60 53 42 54 45 55 59 56
REMARK SMILES IDX 78 57 43 58 44 59 58 61 79 62 46 63 30 64 31 65 39 66 32 67
REMARK SMILES IDX 38 68 40 69 37 70 33 71 34 72 35 73 36 74 62 75 63 76 71 77
REMARK SMILES IDX 64 78 70 79 72 80 69 81 65 82 66 83 67 84 68 85 47 86 48 87
REMARK SMILES IDX 56 88 49 89 55 90 57 91 54 92 50 93 51 94 52 95 53 96
REMARK H PARENT 14 6 18 30 77 49 45 60
REMARK Flexibility Score: inf
ROOT
ATOM      1  C   UNL     1       1.165  -7.874   9.559  1.00  0.00     0.042 C 
ENDROOT
BRANCH   1   2
ATOM      2  C   UNL     1       2.263  -6.829   9.408  1.00  0.00     0.118 C 
BRANCH   2   3
ATOM      3  N   UNL     1       2.950  -6.953   8.133  1.00  0.00    -0.351 N 
ATOM      4  C   UNL     1       2.990  -6.216   6.977  1.00  0.00     0.267 C 
ATOM      5  O   UNL     1       3.635  -6.673   6.035  1.00  0.00    -0.268 OA
ATOM      6  H   UNL     1       3.520  -7.754   8.088  1.00  0.00     0.163 HD
BRANCH   4   7
ATOM      7  C   UNL     1       2.328  -4.858   6.804  1.00  0.00     0.128 C 
ATOM      8  N   UNL     1       1.934  -2.930   5.952  1.00  0.00    -0.254 N 
ATOM      9  N   UNL     1       2.567  -4.125   5.757  1.00  0.00    -0.171 NA
ATOM     10  C   UNL     1       1.028  -2.948   7.112  1.00  0.00     0.180 C 
ATOM     11  C   UNL     1       1.400  -4.264   7.801  1.00  0.00     0.099 C 
BRANCH   8  12
ATOM     12  C   UNL     1       1.604  -2.147   4.843  1.00  0.00     0.060 A 
ATOM     13  C   UNL     1       0.828  -0.522   2.687  1.00  0.00     0.067 A 
ATOM     14  C   UNL     1       0.661  -1.906   2.605  1.00  0.00     0.022 A 
ATOM     15  C   UNL     1       1.399   0.057   3.820  1.00  0.00     0.022 A 
ATOM     16  C   UNL     1       1.065  -2.711   3.676  1.00  0.00     0.029 A 
ATOM     17  C   UNL     1       1.784  -0.757   4.886  1.00  0.00     0.029 A 
BRANCH  13  18
ATOM     18  S   UNL     1       0.289   0.517   1.353  1.00  0.00     0.175 S 
ATOM     19  C   UNL     1       1.100  -0.129  -0.084  1.00  0.00     0.163 C 
ATOM     20  O   UNL     1       0.828   1.846   1.584  1.00  0.00    -0.224 OA
ATOM     21  O   UNL     1      -1.137   0.310   1.205  1.00  0.00    -0.224 OA
ENDBRANCH  13  18
ENDBRANCH   8  12
BRANCH  10  22
ATOM     22  C   UNL     1       1.082  -1.775   8.052  1.00  0.00     0.128 A 
ATOM     23  C   UNL     1       0.479  -0.531   8.039  1.00  0.00     0.048 A 
ATOM     24  O   UNL     1       1.840  -1.894   9.185  1.00  0.00    -0.467 OA
ATOM     25  C   UNL     1       0.897   0.137   9.216  1.00  0.00     0.042 A 
ATOM     26  C   UNL     1       1.711  -0.743   9.886  1.00  0.00     0.195 A 
ENDBRANCH  10  22
ENDBRANCH   4   7
ENDBRANCH   2   3
ENDBRANCH   1   2
BRANCH   1  27
ATOM     27  C   UNL     1       1.702  -9.281   9.798  1.00  0.00     0.118 C 
BRANCH  27  28
ATOM     28  N   UNL     1       2.391  -9.393  11.077  1.00  0.00    -0.352 N 
ATOM     29  C   UNL     1       2.061 -10.102  12.206  1.00  0.00     0.251 C 
ATOM     30  H   UNL     1       3.228  -8.877  11.143  1.00  0.00     0.163 HD
ATOM     31  O   UNL     1       2.647  -9.853  13.257  1.00  0.00    -0.269 OA
BRANCH  29  32
ATOM     32  C   UNL     1       1.008 -11.140  12.167  1.00  0.00     0.039 A 
ATOM     33  C   UNL     1       0.141 -11.269  13.256  1.00  0.00     0.014 A 
ATOM     34  C   UNL     1       0.895 -12.011  11.081  1.00  0.00     0.014 A 
ATOM     35  C   UNL     1      -0.875 -12.227  13.226  1.00  0.00     0.010 A 
ATOM     36  C   UNL     1      -0.168 -12.908  11.015  1.00  0.00     0.010 A 
ATOM     37  C   UNL     1      -1.061 -13.031  12.090  1.00  0.00    -0.014 A 
BRANCH  37  38
ATOM     38  C   UNL     1      -2.169 -14.018  12.007  1.00  0.00     0.031 A 
ATOM     39  C   UNL     1      -1.860 -15.485  11.873  1.00  0.00     0.074 A 
ATOM     40  C   UNL     1      -3.446 -13.587  11.973  1.00  0.00     0.049 A 
ATOM     41  N   UNL     1      -2.674 -16.489  11.672  1.00  0.00    -0.248 NA
ATOM     42  C   UNL     1      -0.441 -15.866  11.939  1.00  0.00     0.031 C 
ATOM     43  C   UNL     1      -3.868 -12.187  12.052  1.00  0.00     0.029 A 
ATOM     44  N   UNL     1      -4.623 -14.280  11.847  1.00  0.00    -0.354 N 
ATOM     45  C   UNL     1      -1.866 -17.617  11.564  1.00  0.00     0.074 A 
ATOM     46  C   UNL     1      -0.496 -17.160  11.664  1.00  0.00     0.031 C 
ATOM     47  C   UNL     1      -5.208 -12.127  11.992  1.00  0.00     0.029 A 
ATOM     48  C   UNL     1      -5.739 -13.476  11.823  1.00  0.00     0.049 A 
ATOM     49  H   UNL     1      -4.665 -15.262  11.781  1.00  0.00     0.167 HD
ATOM     50  C   UNL     1      -2.234 -18.914  11.417  1.00  0.00     0.034 A 
ATOM     51  C   UNL     1      -7.040 -13.788  11.667  1.00  0.00     0.034 A 
ATOM     52  C   UNL     1      -3.607 -19.353  11.343  1.00  0.00     0.049 A 
ATOM     53  C   UNL     1      -7.426 -15.235  11.502  1.00  0.00     0.074 A 
ATOM     54  C   UNL     1      -4.097 -20.645  11.257  1.00  0.00     0.029 A 
ATOM     55  N   UNL     1      -4.712 -18.510  11.341  1.00  0.00    -0.354 N 
ATOM     56  N   UNL     1      -6.653 -16.295  11.448  1.00  0.00    -0.248 NA
ATOM     57  C   UNL     1      -8.860 -15.529  11.387  1.00  0.00     0.031 C 
ATOM     58  C   UNL     1      -5.490 -20.580  11.142  1.00  0.00     0.029 A 
ATOM     59  C   UNL     1      -5.878 -19.252  11.229  1.00  0.00     0.049 A 
ATOM     60  H   UNL     1      -4.672 -17.529  11.410  1.00  0.00     0.167 HD
ATOM     61  C   UNL     1      -7.511 -17.384  11.322  1.00  0.00     0.074 A 
ATOM     62  C   UNL     1      -8.859 -16.852  11.323  1.00  0.00     0.031 C 
ATOM     63  C   UNL     1      -7.214 -18.704  11.219  1.00  0.00     0.034 A 
BRANCH  50  64
ATOM     64  C   UNL     1      -1.131 -19.941  11.304  1.00  0.00     0.023 A 
ATOM     65  C   UNL     1      -0.219 -20.164  12.351  1.00  0.00     0.031 A 
ATOM     66  C   UNL     1      -0.967 -20.683  10.122  1.00  0.00     0.131 A 
ATOM     67  C   UNL     1       0.861 -21.040  12.166  1.00  0.00     0.055 A 
ATOM     68  C   UNL     1       0.061 -21.618   9.975  1.00  0.00     0.041 A 
ATOM     69  F   UNL     1      -1.793 -20.502   9.080  1.00  0.00    -0.206 F 
ATOM     70  C   UNL     1       0.993 -21.788  10.995  1.00  0.00     0.022 A 
BRANCH  67  71
ATOM     71  S   UNL     1       2.171 -21.074  13.420  1.00  0.00     0.124 S 
ATOM     72  O   UNL     1       2.622 -19.684  13.411  1.00  0.00    -0.237 OA
ATOM     73  O   UNL     1       1.454 -21.505  14.614  1.00  0.00    -0.237 OA
ATOM     74  O   UNL     1       3.132 -22.036  12.886  1.00  0.00    -0.744 OA
ENDBRANCH  67  71
ENDBRANCH  50  64
BRANCH  51  75
ATOM     75  C   UNL     1      -8.076 -12.716  11.650  1.00  0.00     0.023 A 
ATOM     76  C   UNL     1      -9.040 -12.628  12.666  1.00  0.00     0.031 A 
ATOM     77  C   UNL     1      -8.137 -11.784  10.599  1.00  0.00     0.131 A 
ATOM     78  C   UNL     1     -10.052 -11.659  12.588  1.00  0.00     0.055 A 
ATOM     79  C   UNL     1      -9.116 -10.791  10.551  1.00  0.00     0.041 A 
ATOM     80  F   UNL     1      -7.233 -11.819   9.607  1.00  0.00    -0.206 F 
ATOM     81  C   UNL     1     -10.090 -10.732  11.543  1.00  0.00     0.022 A 
BRANCH  78  82
ATOM     82  S   UNL     1     -11.367 -11.675  13.836  1.00  0.00     0.124 S 
ATOM     83  O   UNL     1     -11.910 -13.020  13.679  1.00  0.00    -0.237 OA
ATOM     84  O   UNL     1     -10.621 -11.424  15.065  1.00  0.00    -0.237 OA
ATOM     85  O   UNL     1     -12.251 -10.591  13.413  1.00  0.00    -0.744 OA
ENDBRANCH  78  82
ENDBRANCH  51  75
BRANCH  63  86
ATOM     86  C   UNL     1      -8.377 -19.662  11.145  1.00  0.00     0.023 A 
ATOM     87  C   UNL     1      -9.231 -19.702  10.030  1.00  0.00     0.031 A 
ATOM     88  C   UNL     1      -8.640 -20.536  12.214  1.00  0.00     0.131 A 
ATOM     89  C   UNL     1     -10.341 -20.560  10.032  1.00  0.00     0.055 A 
ATOM     90  C   UNL     1      -9.712 -21.429  12.186  1.00  0.00     0.041 A 
ATOM     91  F   UNL     1      -7.856 -20.538  13.305  1.00  0.00    -0.206 F 
ATOM     92  C   UNL     1     -10.578 -21.435  11.096  1.00  0.00     0.022 A 
BRANCH  89  93
ATOM     93  S   UNL     1     -11.525 -20.456   8.662  1.00  0.00     0.124 S 
ATOM     94  O   UNL     1     -11.955 -19.064   8.737  1.00  0.00    -0.237 OA
ATOM     95  O   UNL     1     -10.701 -20.808   7.510  1.00  0.00    -0.237 OA
ATOM     96  O   UNL     1     -12.546 -21.441   9.015  1.00  0.00    -0.744 OA
ENDBRANCH  89  93
ENDBRANCH  63  86
ENDBRANCH  37  38
ENDBRANCH  29  32
ENDBRANCH  27  28
ENDBRANCH   1  27
TORSDOF 16
