REMARK SMILES CCn1ncc(NC(=O)[C@@H]2CCCC[C@@H]2C(=O)NCCCNC(=O)c2ccc(-c3c4nc(c(-c5cc(S(=O)(=O)[O-])ccc5F)c5ccc([nH]5)c(-c5cc(S(=O)(=O)[O-])ccc5F)c5nc(c(-c6cc(S(=O)(=O)[O-])ccc6F)c6ccc3[nH]6)C=C5)C=C4)cc2)c1C(=O)Nc1cnn(C)c1C
REMARK SMILES IDX 19 1 18 2 16 3 17 4 15 6 10 7 11 8 12 9 14 10 13 11 8 12
REMARK SMILES IDX 7 13 9 15 6 16 3 17 4 18 88 19 5 20 2 21 1 22 89 23 90 24
REMARK SMILES IDX 91 25 92 27 93 28 97 29 94 30 95 31 98 32 96 33 20 34 21 35
REMARK SMILES IDX 22 36 23 37 24 39 25 40 26 41 87 42 27 43 86 44 28 45 29 46
REMARK SMILES IDX 30 47 80 48 31 49 85 50 79 51 81 52 32 53 84 54 78 55 77 56
REMARK SMILES IDX 33 58 65 59 45 60 64 61 46 62 49 63 63 64 82 65 47 66 48 67
REMARK SMILES IDX 62 69 83 70 50 71 34 72 35 73 43 74 36 75 42 76 44 77 41 78
REMARK SMILES IDX 37 79 38 80 39 81 40 82 66 83 67 84 75 85 68 86 74 87 76 88
REMARK SMILES IDX 73 89 69 90 70 91 71 92 72 93 51 94 52 95 60 96 53 97 59 98
REMARK SMILES IDX 61 99 58 100 54 101 55 102 56 103 57 104
REMARK H PARENT 18 5 7 14 91 26 22 38 81 57 49 68
REMARK Flexibility Score: inf
ROOT
ATOM      1  C   UNL     1       3.265   0.205   8.368  1.00  0.00     0.117 C 
ENDROOT
BRANCH   1   2
ATOM      2  N   UNL     1       4.518   0.902   8.224  1.00  0.00    -0.356 N 
ATOM      3  C   UNL     1       5.253   1.290   7.154  1.00  0.00     0.223 C 
ATOM      4  O   UNL     1       6.247   1.978   7.418  1.00  0.00    -0.275 OA
ATOM      5  H   UNL     1       4.927   1.148   9.085  1.00  0.00     0.163 HD
BRANCH   3   6
ATOM      6  C   UNL     1       5.029   0.838   5.700  1.00  0.00     0.091 C 
ATOM      7  C   UNL     1       3.874   1.331   4.821  1.00  0.00     0.091 C 
ATOM      8  C   UNL     1       2.528   0.724   5.160  1.00  0.00     0.014 C 
ATOM      9  C   UNL     1       2.573  -0.788   5.338  1.00  0.00     0.001 C 
ATOM     10  C   UNL     1       5.206  -0.666   5.511  1.00  0.00     0.014 C 
ATOM     11  C   UNL     1       3.931  -1.497   5.388  1.00  0.00     0.001 C 
BRANCH   7  12
ATOM     12  C   UNL     1       3.783   2.826   4.673  1.00  0.00     0.228 C 
ATOM     13  N   UNL     1       3.039   3.389   3.678  1.00  0.00    -0.322 N 
ATOM     14  H   UNL     1       3.131   4.368   3.649  1.00  0.00     0.170 HD
ATOM     15  O   UNL     1       4.314   3.592   5.478  1.00  0.00    -0.274 OA
BRANCH  13  16
ATOM     16  C   UNL     1       2.182   2.906   2.695  1.00  0.00     0.092 A 
ATOM     17  N   UNL     1       0.788   1.887   1.345  1.00  0.00    -0.258 N 
ATOM     18  N   UNL     1       0.316   3.145   1.399  1.00  0.00    -0.178 NA
ATOM     19  C   UNL     1       2.004   1.705   1.984  1.00  0.00     0.150 A 
ATOM     20  C   UNL     1       1.162   3.760   2.208  1.00  0.00     0.162 A 
BRANCH  17  21
ATOM     21  C   UNL     1      -0.010   0.958   0.575  1.00  0.00     0.142 C 
ATOM     22  C   UNL     1       0.454   0.873  -0.864  1.00  0.00     0.029 C 
ENDBRANCH  17  21
BRANCH  19  23
ATOM     23  C   UNL     1       2.902   0.563   1.788  1.00  0.00     0.276 C 
ATOM     24  O   UNL     1       4.073   0.704   1.439  1.00  0.00    -0.267 OA
ATOM     25  N   UNL     1       2.499  -0.685   2.250  1.00  0.00    -0.318 N 
ATOM     26  H   UNL     1       2.737  -0.928   3.174  1.00  0.00     0.170 HD
BRANCH  25  27
ATOM     27  C   UNL     1       1.787  -1.614   1.505  1.00  0.00     0.082 A 
ATOM     28  C   UNL     1       1.818  -1.832   0.114  1.00  0.00     0.161 A 
ATOM     29  C   UNL     1       0.921  -2.585   1.988  1.00  0.00     0.059 A 
ATOM     30  N   UNL     1       0.858  -2.667  -0.284  1.00  0.00    -0.179 NA
ATOM     31  N   UNL     1       0.253  -3.021   0.865  1.00  0.00    -0.271 N 
ATOM     32  C   UNL     1       0.543  -3.074   3.341  1.00  0.00     0.068 C 
ATOM     33  C   UNL     1      -1.076  -3.590   0.807  1.00  0.00     0.174 C 
ENDBRANCH  25  27
ENDBRANCH  19  23
ENDBRANCH  13  16
ENDBRANCH   7  12
ENDBRANCH   3   6
ENDBRANCH   1   2
BRANCH   1  34
ATOM     34  C   UNL     1       3.382  -1.296   8.624  1.00  0.00     0.042 C 
BRANCH  34  35
ATOM     35  C   UNL     1       2.845  -1.655   9.987  1.00  0.00     0.118 C 
BRANCH  35  36
ATOM     36  N   UNL     1       1.391  -1.462  10.078  1.00  0.00    -0.352 N 
ATOM     37  C   UNL     1       0.608  -1.538  11.225  1.00  0.00     0.251 C 
ATOM     38  H   UNL     1       0.920  -1.257   9.238  1.00  0.00     0.163 HD
ATOM     39  O   UNL     1      -0.589  -1.705  11.169  1.00  0.00    -0.269 OA
BRANCH  37  40
ATOM     40  C   UNL     1       1.329  -1.411  12.505  1.00  0.00     0.039 A 
ATOM     41  C   UNL     1       1.255  -2.401  13.482  1.00  0.00     0.014 A 
ATOM     42  C   UNL     1       2.268  -0.387  12.571  1.00  0.00     0.014 A 
ATOM     43  C   UNL     1       2.239  -2.420  14.469  1.00  0.00     0.010 A 
ATOM     44  C   UNL     1       3.344  -0.544  13.406  1.00  0.00     0.010 A 
ATOM     45  C   UNL     1       3.320  -1.521  14.393  1.00  0.00    -0.014 A 
BRANCH  45  46
ATOM     46  C   UNL     1       4.512  -1.689  15.227  1.00  0.00     0.031 A 
ATOM     47  C   UNL     1       5.013  -3.091  15.280  1.00  0.00     0.074 A 
ATOM     48  C   UNL     1       5.213  -0.657  15.755  1.00  0.00     0.049 A 
ATOM     49  N   UNL     1       4.837  -3.940  16.236  1.00  0.00    -0.248 NA
ATOM     50  C   UNL     1       5.576  -3.697  14.060  1.00  0.00     0.031 C 
ATOM     51  C   UNL     1       4.999   0.784  15.557  1.00  0.00     0.029 A 
ATOM     52  N   UNL     1       6.334  -0.673  16.532  1.00  0.00    -0.354 N 
ATOM     53  C   UNL     1       5.535  -5.084  15.865  1.00  0.00     0.074 A 
ATOM     54  C   UNL     1       5.737  -4.966  14.447  1.00  0.00     0.031 C 
ATOM     55  C   UNL     1       6.070   1.481  15.996  1.00  0.00     0.029 A 
ATOM     56  C   UNL     1       6.956   0.568  16.691  1.00  0.00     0.049 A 
ATOM     57  H   UNL     1       6.678  -1.496  16.949  1.00  0.00     0.167 HD
ATOM     58  C   UNL     1       6.132  -5.863  16.811  1.00  0.00     0.034 A 
ATOM     59  C   UNL     1       8.093   0.857  17.382  1.00  0.00     0.034 A 
ATOM     60  C   UNL     1       5.642  -5.509  18.130  1.00  0.00     0.049 A 
ATOM     61  C   UNL     1       8.265  -0.235  18.364  1.00  0.00     0.074 A 
ATOM     62  C   UNL     1       4.411  -5.519  18.755  1.00  0.00     0.029 A 
ATOM     63  N   UNL     1       6.437  -4.665  18.873  1.00  0.00    -0.354 N 
ATOM     64  N   UNL     1       7.429  -0.444  19.345  1.00  0.00    -0.248 NA
ATOM     65  C   UNL     1       9.070  -1.385  17.985  1.00  0.00     0.031 C 
ATOM     66  C   UNL     1       4.396  -4.340  19.561  1.00  0.00     0.029 A 
ATOM     67  C   UNL     1       5.644  -3.719  19.471  1.00  0.00     0.049 A 
ATOM     68  H   UNL     1       7.415  -4.730  18.961  1.00  0.00     0.167 HD
ATOM     69  C   UNL     1       7.273  -1.820  19.393  1.00  0.00     0.074 A 
ATOM     70  C   UNL     1       8.401  -2.348  18.626  1.00  0.00     0.031 C 
ATOM     71  C   UNL     1       6.093  -2.375  19.805  1.00  0.00     0.034 A 
BRANCH  58  72
ATOM     72  C   UNL     1       7.449  -6.602  16.639  1.00  0.00     0.023 A 
ATOM     73  C   UNL     1       7.958  -7.266  17.775  1.00  0.00     0.031 A 
ATOM     74  C   UNL     1       8.358  -6.449  15.569  1.00  0.00     0.131 A 
ATOM     75  C   UNL     1       9.317  -7.613  17.868  1.00  0.00     0.055 A 
ATOM     76  C   UNL     1       9.697  -6.851  15.643  1.00  0.00     0.041 A 
ATOM     77  F   UNL     1       8.043  -5.835  14.425  1.00  0.00    -0.206 F 
ATOM     78  C   UNL     1      10.194  -7.402  16.810  1.00  0.00     0.022 A 
BRANCH  75  79
ATOM     79  S   UNL     1       9.954  -8.174  19.468  1.00  0.00     0.124 S 
ATOM     80  O   UNL     1       9.562  -7.072  20.339  1.00  0.00    -0.237 OA
ATOM     81  O   UNL     1       9.236  -9.431  19.651  1.00  0.00    -0.237 OA
ATOM     82  O   UNL     1      11.390  -8.304  19.232  1.00  0.00    -0.744 OA
ENDBRANCH  75  79
ENDBRANCH  58  72
BRANCH  59  83
ATOM     83  C   UNL     1       9.174   1.816  17.011  1.00  0.00     0.023 A 
ATOM     84  C   UNL     1      10.084   2.379  17.936  1.00  0.00     0.031 A 
ATOM     85  C   UNL     1       9.477   1.990  15.642  1.00  0.00     0.131 A 
ATOM     86  C   UNL     1      11.236   3.068  17.477  1.00  0.00     0.055 A 
ATOM     87  C   UNL     1      10.616   2.664  15.196  1.00  0.00     0.041 A 
ATOM     88  F   UNL     1       8.714   1.428  14.691  1.00  0.00    -0.206 F 
ATOM     89  C   UNL     1      11.506   3.200  16.112  1.00  0.00     0.022 A 
BRANCH  86  90
ATOM     90  S   UNL     1      12.452   3.762  18.652  1.00  0.00     0.124 S 
ATOM     91  O   UNL     1      11.654   4.726  19.400  1.00  0.00    -0.237 OA
ATOM     92  O   UNL     1      12.893   2.578  19.380  1.00  0.00    -0.237 OA
ATOM     93  O   UNL     1      13.469   4.357  17.782  1.00  0.00    -0.744 OA
ENDBRANCH  86  90
ENDBRANCH  59  83
BRANCH  71  94
ATOM     94  C   UNL     1       5.108  -1.482  20.540  1.00  0.00     0.023 A 
ATOM     95  C   UNL     1       4.505  -0.311  20.019  1.00  0.00     0.031 A 
ATOM     96  C   UNL     1       4.701  -1.909  21.816  1.00  0.00     0.131 A 
ATOM     97  C   UNL     1       3.543   0.384  20.782  1.00  0.00     0.055 A 
ATOM     98  C   UNL     1       3.733  -1.233  22.555  1.00  0.00     0.041 A 
ATOM     99  F   UNL     1       5.222  -3.022  22.358  1.00  0.00    -0.206 F 
ATOM    100  C   UNL     1       3.154  -0.079  22.043  1.00  0.00     0.022 A 
BRANCH  97 101
ATOM    101  S   UNL     1       2.789   1.927  20.163  1.00  0.00     0.124 S 
ATOM    102  O   UNL     1       3.934   2.714  19.721  1.00  0.00    -0.237 OA
ATOM    103  O   UNL     1       1.899   1.446  19.110  1.00  0.00    -0.237 OA
ATOM    104  O   UNL     1       2.100   2.464  21.339  1.00  0.00    -0.744 OA
ENDBRANCH  97 101
ENDBRANCH  71  94
ENDBRANCH  45  46
ENDBRANCH  37  40
ENDBRANCH  35  36
ENDBRANCH  34  35
ENDBRANCH   1  34
TORSDOF 18
