REMARK SMILES COc1cc2c(CC(=O)NCCCNC(=O)c3ccc(-c4c5nc(c(-c6cc(S(=O)(=O)[O-])ccc6F)c6ccc([nH]6)c(-c6cc(S(=O)(=O)[O-])ccc6F)c6nc(c(-c7cc(S(=O)(=O)[O-])ccc7F)c7ccc4[nH]7)C=C6)C=C5)cc3)c(C)n(C(=O)c3ccc(Cl)cc3)c2cc1Cl
REMARK SMILES IDX 12 1 11 2 10 3 8 4 9 5 7 7 6 8 3 9 4 10 94 11 5 12 93 13
REMARK SMILES IDX 95 14 92 15 80 16 82 17 81 18 2 19 1 20 83 21 84 22 85 23
REMARK SMILES IDX 86 24 91 25 87 26 90 27 88 28 89 29 13 30 14 31 15 32 16 34
REMARK SMILES IDX 17 35 18 36 79 37 19 38 78 39 20 40 21 41 22 42 72 43 23 44
REMARK SMILES IDX 77 45 71 46 73 47 24 48 76 49 70 50 69 51 25 53 57 54 37 55
REMARK SMILES IDX 56 56 38 57 41 58 55 59 74 60 39 61 40 62 54 64 75 65 42 66
REMARK SMILES IDX 26 67 27 68 35 69 28 70 34 71 36 72 33 73 29 74 30 75 31 76
REMARK SMILES IDX 32 77 58 78 59 79 67 80 60 81 66 82 68 83 65 84 61 85 62 86
REMARK SMILES IDX 63 87 64 88 43 89 44 90 52 91 45 92 51 93 53 94 50 95 46 96
REMARK SMILES IDX 47 97 48 98 49 99
REMARK H PARENT 10 6 14 33 73 52 41 63
REMARK Flexibility Score: inf
ROOT
ATOM      1  C   UNL     1       0.234  -7.600   2.113  1.00  0.00     0.042 C 
ENDROOT
BRANCH   1   2
ATOM      2  C   UNL     1      -1.185  -7.764   1.563  1.00  0.00     0.117 C 
BRANCH   2   3
ATOM      3  N   UNL     1      -2.010  -6.586   1.775  1.00  0.00    -0.356 N 
ATOM      4  C   UNL     1      -2.453  -5.663   0.873  1.00  0.00     0.224 C 
ATOM      5  O   UNL     1      -3.163  -4.741   1.284  1.00  0.00    -0.275 OA
ATOM      6  H   UNL     1      -2.291  -6.432   2.706  1.00  0.00     0.163 HD
BRANCH   4   7
ATOM      7  C   UNL     1      -2.127  -5.805  -0.605  1.00  0.00     0.138 C 
BRANCH   7   8
ATOM      8  C   UNL     1      -0.672  -5.617  -0.924  1.00  0.00    -0.009 A 
ATOM      9  C   UNL     1       0.843  -2.274   0.178  1.00  0.00     0.138 A 
ATOM     10  C   UNL     1      -0.156  -3.246   0.030  1.00  0.00     0.058 A 
ATOM     11  C   UNL     1       2.119  -2.522  -0.313  1.00  0.00     0.085 A 
ATOM     12  C   UNL     1       0.121  -4.477  -0.615  1.00  0.00     0.008 A 
ATOM     13  C   UNL     1       2.390  -3.704  -1.011  1.00  0.00     0.051 A 
ATOM     14  Cl  UNL     1       3.460  -1.468  -0.033  1.00  0.00    -0.080 Cl
ATOM     15  C   UNL     1       1.408  -4.712  -1.110  1.00  0.00     0.058 A 
ATOM     16  C   UNL     1       0.133  -6.499  -1.640  1.00  0.00     0.028 A 
ATOM     17  N   UNL     1       1.456  -6.031  -1.600  1.00  0.00    -0.280 N 
ATOM     18  C   UNL     1      -0.305  -7.767  -2.309  1.00  0.00     0.065 C 
BRANCH   9  19
ATOM     19  O   UNL     1       0.484  -1.151   0.880  1.00  0.00    -0.495 OA
ATOM     20  C   UNL     1       0.615   0.047   0.115  1.00  0.00     0.278 C 
ENDBRANCH   9  19
BRANCH  17  21
ATOM     21  C   UNL     1       2.623  -6.773  -1.972  1.00  0.00     0.262 C 
ATOM     22  O   UNL     1       2.493  -7.912  -2.375  1.00  0.00    -0.268 OA
BRANCH  21  23
ATOM     23  C   UNL     1       4.005  -6.250  -1.904  1.00  0.00     0.040 A 
ATOM     24  C   UNL     1       4.600  -5.951  -0.673  1.00  0.00     0.015 A 
ATOM     25  C   UNL     1       4.674  -5.992  -3.105  1.00  0.00     0.015 A 
ATOM     26  C   UNL     1       5.827  -5.283  -0.653  1.00  0.00     0.021 A 
ATOM     27  C   UNL     1       5.907  -5.339  -3.077  1.00  0.00     0.021 A 
ATOM     28  C   UNL     1       6.463  -4.960  -1.855  1.00  0.00     0.041 A 
ATOM     29  Cl  UNL     1       7.919  -4.042  -1.828  1.00  0.00    -0.084 Cl
ENDBRANCH  21  23
ENDBRANCH  17  21
ENDBRANCH   7   8
ENDBRANCH   4   7
ENDBRANCH   2   3
ENDBRANCH   1   2
BRANCH   1  30
ATOM     30  C   UNL     1       0.289  -7.453   3.634  1.00  0.00     0.118 C 
BRANCH  30  31
ATOM     31  N   UNL     1      -0.363  -8.533   4.349  1.00  0.00    -0.352 N 
ATOM     32  C   UNL     1       0.014  -9.747   4.847  1.00  0.00     0.251 C 
ATOM     33  H   UNL     1      -1.314  -8.342   4.518  1.00  0.00     0.163 HD
ATOM     34  O   UNL     1      -0.855 -10.337   5.497  1.00  0.00    -0.269 OA
BRANCH  32  35
ATOM     35  C   UNL     1       1.321 -10.421   4.619  1.00  0.00     0.039 A 
ATOM     36  C   UNL     1       2.398  -9.903   3.900  1.00  0.00     0.014 A 
ATOM     37  C   UNL     1       1.424 -11.732   5.130  1.00  0.00     0.014 A 
ATOM     38  C   UNL     1       3.498 -10.710   3.610  1.00  0.00     0.010 A 
ATOM     39  C   UNL     1       2.524 -12.534   4.854  1.00  0.00     0.010 A 
ATOM     40  C   UNL     1       3.536 -12.041   4.043  1.00  0.00    -0.014 A 
BRANCH  40  41
ATOM     41  C   UNL     1       4.696 -12.857   3.685  1.00  0.00     0.031 A 
ATOM     42  C   UNL     1       5.989 -12.360   4.229  1.00  0.00     0.074 A 
ATOM     43  C   UNL     1       4.615 -14.016   2.997  1.00  0.00     0.049 A 
ATOM     44  N   UNL     1       6.976 -11.836   3.579  1.00  0.00    -0.248 NA
ATOM     45  C   UNL     1       6.142 -12.302   5.690  1.00  0.00     0.031 C 
ATOM     46  C   UNL     1       3.408 -14.780   2.660  1.00  0.00     0.029 A 
ATOM     47  N   UNL     1       5.617 -14.810   2.519  1.00  0.00    -0.354 N 
ATOM     48  C   UNL     1       7.965 -11.566   4.528  1.00  0.00     0.074 A 
ATOM     49  C   UNL     1       7.335 -11.719   5.814  1.00  0.00     0.031 C 
ATOM     50  C   UNL     1       3.759 -16.020   2.246  1.00  0.00     0.029 A 
ATOM     51  C   UNL     1       5.205 -16.075   2.119  1.00  0.00     0.049 A 
ATOM     52  H   UNL     1       6.554 -14.511   2.462  1.00  0.00     0.167 HD
ATOM     53  C   UNL     1       9.279 -11.453   4.176  1.00  0.00     0.034 A 
ATOM     54  C   UNL     1       5.995 -17.104   1.726  1.00  0.00     0.034 A 
ATOM     55  C   UNL     1       9.420 -11.381   2.749  1.00  0.00     0.049 A 
ATOM     56  C   UNL     1       7.298 -16.549   1.307  1.00  0.00     0.074 A 
ATOM     57  C   UNL     1       9.269 -10.421   1.777  1.00  0.00     0.029 A 
ATOM     58  N   UNL     1       9.451 -12.603   2.130  1.00  0.00    -0.354 N 
ATOM     59  N   UNL     1       7.465 -15.816   0.243  1.00  0.00    -0.248 NA
ATOM     60  C   UNL     1       8.398 -16.527   2.264  1.00  0.00     0.031 C 
ATOM     61  C   UNL     1       8.972 -11.130   0.579  1.00  0.00     0.029 A 
ATOM     62  C   UNL     1       8.992 -12.501   0.846  1.00  0.00     0.049 A 
ATOM     63  H   UNL     1       9.761 -13.438   2.550  1.00  0.00     0.167 HD
ATOM     64  C   UNL     1       8.449 -14.918   0.606  1.00  0.00     0.074 A 
ATOM     65  C   UNL     1       9.108 -15.514   1.762  1.00  0.00     0.031 C 
ATOM     66  C   UNL     1       8.438 -13.639   0.135  1.00  0.00     0.034 A 
BRANCH  53  67
ATOM     67  C   UNL     1      10.456 -11.831   5.052  1.00  0.00     0.023 A 
ATOM     68  C   UNL     1      10.317 -12.527   6.266  1.00  0.00     0.031 A 
ATOM     69  C   UNL     1      11.776 -11.725   4.556  1.00  0.00     0.131 A 
ATOM     70  C   UNL     1      11.422 -13.078   6.930  1.00  0.00     0.055 A 
ATOM     71  C   UNL     1      12.873 -12.329   5.187  1.00  0.00     0.041 A 
ATOM     72  F   UNL     1      12.037 -11.078   3.409  1.00  0.00    -0.206 F 
ATOM     73  C   UNL     1      12.698 -13.016   6.380  1.00  0.00     0.022 A 
BRANCH  70  74
ATOM     74  S   UNL     1      11.205 -13.917   8.524  1.00  0.00     0.124 S 
ATOM     75  O   UNL     1      11.708 -15.255   8.233  1.00  0.00    -0.237 OA
ATOM     76  O   UNL     1      12.041 -13.101   9.401  1.00  0.00    -0.237 OA
ATOM     77  O   UNL     1       9.770 -13.815   8.769  1.00  0.00    -0.744 OA
ENDBRANCH  70  74
ENDBRANCH  53  67
BRANCH  54  78
ATOM     78  C   UNL     1       5.847 -18.544   2.029  1.00  0.00     0.023 A 
ATOM     79  C   UNL     1       5.362 -18.928   3.292  1.00  0.00     0.031 A 
ATOM     80  C   UNL     1       6.500 -19.523   1.257  1.00  0.00     0.131 A 
ATOM     81  C   UNL     1       5.600 -20.222   3.777  1.00  0.00     0.055 A 
ATOM     82  C   UNL     1       6.712 -20.823   1.733  1.00  0.00     0.041 A 
ATOM     83  F   UNL     1       7.013 -19.212   0.057  1.00  0.00    -0.206 F 
ATOM     84  C   UNL     1       6.279 -21.171   3.009  1.00  0.00     0.022 A 
BRANCH  81  85
ATOM     85  S   UNL     1       5.136 -20.672   5.472  1.00  0.00     0.124 S 
ATOM     86  O   UNL     1       4.412 -21.924   5.270  1.00  0.00    -0.237 OA
ATOM     87  O   UNL     1       6.442 -20.797   6.112  1.00  0.00    -0.237 OA
ATOM     88  O   UNL     1       4.316 -19.547   5.911  1.00  0.00    -0.744 OA
ENDBRANCH  81  85
ENDBRANCH  54  78
BRANCH  66  89
ATOM     89  C   UNL     1       7.643 -13.336  -1.107  1.00  0.00     0.023 A 
ATOM     90  C   UNL     1       8.343 -12.726  -2.160  1.00  0.00     0.031 A 
ATOM     91  C   UNL     1       6.245 -13.434  -1.216  1.00  0.00     0.131 A 
ATOM     92  C   UNL     1       7.652 -12.171  -3.240  1.00  0.00     0.055 A 
ATOM     93  C   UNL     1       5.563 -12.950  -2.338  1.00  0.00     0.041 A 
ATOM     94  F   UNL     1       5.496 -13.921  -0.218  1.00  0.00    -0.206 F 
ATOM     95  C   UNL     1       6.265 -12.295  -3.346  1.00  0.00     0.022 A 
BRANCH  92  96
ATOM     96  S   UNL     1       8.528 -11.129  -4.433  1.00  0.00     0.124 S 
ATOM     97  O   UNL     1       8.363 -11.875  -5.677  1.00  0.00    -0.237 OA
ATOM     98  O   UNL     1       7.785  -9.872  -4.352  1.00  0.00    -0.237 OA
ATOM     99  O   UNL     1       9.893 -11.069  -3.917  1.00  0.00    -0.744 OA
ENDBRANCH  92  96
ENDBRANCH  66  89
ENDBRANCH  40  41
ENDBRANCH  32  35
ENDBRANCH  30  31
ENDBRANCH   1  30
TORSDOF 17
