REMARK SMILES C[C@@H](NC(=O)c1cc(C(=O)NCCCNC(=O)c2ccc(-c3c4nc(c(-c5cc(S(=O)(=O)[O-])ccc5F)c5ccc([nH]5)c(-c5cc(S(=O)(=O)[O-])ccc5F)c5nc(c(-c6cc(S(=O)(=O)[O-])ccc6F)c6ccc3[nH]6)C=C5)C=C4)cc2)n(C)n1)c1ccccc1
REMARK SMILES IDX 13 1 12 2 11 3 9 4 10 5 8 7 6 8 7 9 83 10 81 11 82 12 4 13
REMARK SMILES IDX 3 14 5 16 2 17 1 18 84 19 85 20 89 21 86 22 88 23 87 24
REMARK SMILES IDX 14 25 15 26 16 27 17 29 18 30 19 31 80 32 20 33 79 34 21 35
REMARK SMILES IDX 22 36 23 37 73 38 24 39 78 40 72 41 74 42 25 43 77 44 71 45
REMARK SMILES IDX 70 46 26 48 58 49 38 50 57 51 39 52 42 53 56 54 75 55 40 56
REMARK SMILES IDX 41 57 55 59 76 60 43 61 27 62 28 63 36 64 29 65 35 66 37 67
REMARK SMILES IDX 34 68 30 69 31 70 32 71 33 72 59 73 60 74 68 75 61 76 67 77
REMARK SMILES IDX 69 78 66 79 62 80 63 81 64 82 65 83 44 84 45 85 53 86 46 87
REMARK SMILES IDX 52 88 54 89 51 90 47 91 48 92 49 93 50 94
REMARK H PARENT 11 6 3 15 15 28 74 47 42 58
REMARK Flexibility Score: inf
ROOT
ATOM      1  C   UNL     1      -7.214  -2.168  -0.832  1.00  0.00     0.042 C 
ENDROOT
BRANCH   1   2
ATOM      2  C   UNL     1      -6.735  -2.426  -2.263  1.00  0.00     0.118 C 
BRANCH   2   3
ATOM      3  N   UNL     1      -5.900  -1.356  -2.753  1.00  0.00    -0.351 N 
ATOM      4  C   UNL     1      -4.576  -1.216  -3.054  1.00  0.00     0.269 C 
ATOM      5  O   UNL     1      -4.333  -0.159  -3.652  1.00  0.00    -0.268 OA
ATOM      6  H   UNL     1      -6.408  -0.527  -2.907  1.00  0.00     0.163 HD
BRANCH   4   7
ATOM      7  C   UNL     1      -3.503  -2.148  -2.758  1.00  0.00     0.126 A 
ATOM      8  C   UNL     1      -1.365  -2.842  -2.572  1.00  0.00     0.151 A 
ATOM      9  C   UNL     1      -2.205  -1.936  -3.238  1.00  0.00     0.069 A 
ATOM     10  N   UNL     1      -2.102  -3.747  -1.921  1.00  0.00    -0.167 NA
ATOM     11  N   UNL     1      -3.351  -3.235  -1.926  1.00  0.00    -0.262 N 
ATOM     12  C   UNL     1      -4.216  -3.806  -0.925  1.00  0.00     0.174 C 
BRANCH   8  13
ATOM     13  C   UNL     1       0.093  -2.874  -2.473  1.00  0.00     0.272 C 
ATOM     14  N   UNL     1       0.727  -1.929  -1.688  1.00  0.00    -0.344 N 
ATOM     15  H   UNL     1       1.593  -2.232  -1.332  1.00  0.00     0.164 HD
ATOM     16  O   UNL     1       0.774  -3.757  -2.969  1.00  0.00    -0.267 OA
BRANCH  14  17
ATOM     17  C   UNL     1       0.370  -0.570  -1.281  1.00  0.00     0.109 C 
ATOM     18  C   UNL     1       1.389  -0.082  -0.242  1.00  0.00     0.036 C 
BRANCH  17  19
ATOM     19  C   UNL     1      -1.021  -0.321  -0.732  1.00  0.00    -0.026 A 
ATOM     20  C   UNL     1      -1.748   0.789  -1.203  1.00  0.00     0.006 A 
ATOM     21  C   UNL     1      -1.595  -1.117   0.268  1.00  0.00     0.006 A 
ATOM     22  C   UNL     1      -3.026   1.070  -0.718  1.00  0.00     0.000 A 
ATOM     23  C   UNL     1      -2.877  -0.832   0.753  1.00  0.00     0.000 A 
ATOM     24  C   UNL     1      -3.594   0.255   0.256  1.00  0.00     0.000 A 
ENDBRANCH  17  19
ENDBRANCH  14  17
ENDBRANCH   8  13
ENDBRANCH   4   7
ENDBRANCH   2   3
ENDBRANCH   1   2
BRANCH   1  25
ATOM     25  C   UNL     1      -8.379  -1.185  -0.724  1.00  0.00     0.118 C 
BRANCH  25  26
ATOM     26  N   UNL     1      -9.587  -1.712  -1.332  1.00  0.00    -0.352 N 
ATOM     27  C   UNL     1     -10.806  -2.023  -0.788  1.00  0.00     0.251 C 
ATOM     28  H   UNL     1      -9.519  -1.874  -2.301  1.00  0.00     0.163 HD
ATOM     29  O   UNL     1     -11.569  -2.724  -1.451  1.00  0.00    -0.269 OA
BRANCH  27  30
ATOM     30  C   UNL     1     -11.222  -1.540   0.551  1.00  0.00     0.039 A 
ATOM     31  C   UNL     1     -12.086  -2.345   1.302  1.00  0.00     0.014 A 
ATOM     32  C   UNL     1     -10.872  -0.275   1.034  1.00  0.00     0.014 A 
ATOM     33  C   UNL     1     -12.576  -1.897   2.531  1.00  0.00     0.010 A 
ATOM     34  C   UNL     1     -11.308   0.145   2.294  1.00  0.00     0.010 A 
ATOM     35  C   UNL     1     -12.181  -0.653   3.048  1.00  0.00    -0.014 A 
BRANCH  35  36
ATOM     36  C   UNL     1     -12.705  -0.179   4.357  1.00  0.00     0.031 A 
ATOM     37  C   UNL     1     -13.618   1.019   4.425  1.00  0.00     0.074 A 
ATOM     38  C   UNL     1     -12.357  -0.827   5.486  1.00  0.00     0.049 A 
ATOM     39  N   UNL     1     -14.173   1.580   5.469  1.00  0.00    -0.248 NA
ATOM     40  C   UNL     1     -13.930   1.684   3.151  1.00  0.00     0.031 C 
ATOM     41  C   UNL     1     -11.461  -1.984   5.551  1.00  0.00     0.029 A 
ATOM     42  N   UNL     1     -12.719  -0.616   6.793  1.00  0.00    -0.354 N 
ATOM     43  C   UNL     1     -14.903   2.659   4.981  1.00  0.00     0.074 A 
ATOM     44  C   UNL     1     -14.661   2.713   3.554  1.00  0.00     0.031 C 
ATOM     45  C   UNL     1     -11.374  -2.401   6.825  1.00  0.00     0.029 A 
ATOM     46  C   UNL     1     -12.172  -1.522   7.673  1.00  0.00     0.049 A 
ATOM     47  H   UNL     1     -13.315   0.115   7.075  1.00  0.00     0.167 HD
ATOM     48  C   UNL     1     -15.722   3.508   5.652  1.00  0.00     0.034 A 
ATOM     49  C   UNL     1     -12.300  -1.632   9.010  1.00  0.00     0.034 A 
ATOM     50  C   UNL     1     -15.956   3.443   7.075  1.00  0.00     0.049 A 
ATOM     51  C   UNL     1     -13.190  -0.655   9.736  1.00  0.00     0.074 A 
ATOM     52  C   UNL     1     -16.771   4.245   7.856  1.00  0.00     0.029 A 
ATOM     53  N   UNL     1     -15.375   2.518   7.934  1.00  0.00    -0.354 N 
ATOM     54  N   UNL     1     -13.896   0.341   9.252  1.00  0.00    -0.248 NA
ATOM     55  C   UNL     1     -13.314  -0.830  11.189  1.00  0.00     0.031 C 
ATOM     56  C   UNL     1     -16.642   3.841   9.190  1.00  0.00     0.029 A 
ATOM     57  C   UNL     1     -15.800   2.742   9.236  1.00  0.00     0.049 A 
ATOM     58  H   UNL     1     -14.752   1.807   7.660  1.00  0.00     0.167 HD
ATOM     59  C   UNL     1     -14.575   0.887  10.338  1.00  0.00     0.074 A 
ATOM     60  C   UNL     1     -14.211   0.095  11.495  1.00  0.00     0.031 C 
ATOM     61  C   UNL     1     -15.423   1.946  10.379  1.00  0.00     0.034 A 
BRANCH  48  62
ATOM     62  C   UNL     1     -16.410   4.588   4.849  1.00  0.00     0.023 A 
ATOM     63  C   UNL     1     -17.339   4.272   3.841  1.00  0.00     0.031 A 
ATOM     64  C   UNL     1     -16.125   5.945   5.077  1.00  0.00     0.131 A 
ATOM     65  C   UNL     1     -17.892   5.292   3.052  1.00  0.00     0.055 A 
ATOM     66  C   UNL     1     -16.741   6.961   4.342  1.00  0.00     0.041 A 
ATOM     67  F   UNL     1     -15.234   6.309   6.013  1.00  0.00    -0.206 F 
ATOM     68  C   UNL     1     -17.619   6.637   3.312  1.00  0.00     0.022 A 
BRANCH  65  69
ATOM     69  S   UNL     1     -18.867   4.828   1.595  1.00  0.00     0.124 S 
ATOM     70  O   UNL     1     -17.887   4.080   0.812  1.00  0.00    -0.237 OA
ATOM     71  O   UNL     1     -19.952   4.045   2.177  1.00  0.00    -0.237 OA
ATOM     72  O   UNL     1     -19.262   6.113   1.023  1.00  0.00    -0.744 OA
ENDBRANCH  65  69
ENDBRANCH  48  62
BRANCH  49  73
ATOM     73  C   UNL     1     -11.581  -2.702   9.760  1.00  0.00     0.023 A 
ATOM     74  C   UNL     1     -12.290  -3.688  10.465  1.00  0.00     0.031 A 
ATOM     75  C   UNL     1     -10.177  -2.716   9.840  1.00  0.00     0.131 A 
ATOM     76  C   UNL     1     -11.599  -4.606  11.270  1.00  0.00     0.055 A 
ATOM     77  C   UNL     1      -9.491  -3.670  10.595  1.00  0.00     0.041 A 
ATOM     78  F   UNL     1      -9.449  -1.800   9.181  1.00  0.00    -0.206 F 
ATOM     79  C   UNL     1     -10.204  -4.612  11.331  1.00  0.00     0.022 A 
BRANCH  76  80
ATOM     80  S   UNL     1     -12.559  -5.724  12.329  1.00  0.00     0.124 S 
ATOM     81  O   UNL     1     -13.382  -4.785  13.083  1.00  0.00    -0.237 OA
ATOM     82  O   UNL     1     -13.258  -6.543  11.344  1.00  0.00    -0.237 OA
ATOM     83  O   UNL     1     -11.535  -6.420  13.104  1.00  0.00    -0.744 OA
ENDBRANCH  76  80
ENDBRANCH  49  73
BRANCH  61  84
ATOM     84  C   UNL     1     -16.045   2.266  11.717  1.00  0.00     0.023 A 
ATOM     85  C   UNL     1     -15.271   2.712  12.803  1.00  0.00     0.031 A 
ATOM     86  C   UNL     1     -17.424   2.081  11.919  1.00  0.00     0.131 A 
ATOM     87  C   UNL     1     -15.868   2.888  14.061  1.00  0.00     0.055 A 
ATOM     88  C   UNL     1     -18.024   2.319  13.156  1.00  0.00     0.041 A 
ATOM     89  F   UNL     1     -18.210   1.657  10.916  1.00  0.00    -0.206 F 
ATOM     90  C   UNL     1     -17.242   2.708  14.240  1.00  0.00     0.022 A 
BRANCH  87  91
ATOM     91  S   UNL     1     -14.803   3.244  15.485  1.00  0.00     0.124 S 
ATOM     92  O   UNL     1     -13.881   2.113  15.466  1.00  0.00    -0.237 OA
ATOM     93  O   UNL     1     -14.231   4.538  15.129  1.00  0.00    -0.237 OA
ATOM     94  O   UNL     1     -15.734   3.267  16.612  1.00  0.00    -0.744 OA
ENDBRANCH  87  91
ENDBRANCH  61  84
ENDBRANCH  35  36
ENDBRANCH  27  30
ENDBRANCH  25  26
ENDBRANCH   1  25
TORSDOF 16
