REMARK SMILES CC[C@]1(C(=O)NCCCNC(=O)c2ccc(-c3c4nc(c(-c5cc(S(=O)(=O)[O-])ccc5F)c5ccc([nH]5)c(-c5cc(S(=O)(=O)[O-])ccc5F)c5nc(c(-c6cc(S(=O)(=O)[O-])ccc6F)c6ccc3[nH]6)C=C5)C=C4)cc2)CC[N@@H+](Cc2nc(C)ccc2O)C1
REMARK SMILES IDX 8 1 7 2 6 3 4 4 5 5 3 7 76 8 88 9 77 10 78 11 2 13 1 14
REMARK SMILES IDX 79 15 80 16 81 17 86 18 82 19 85 20 83 21 84 22 87 23 9 25
REMARK SMILES IDX 10 26 11 27 12 29 13 30 14 31 75 32 15 33 74 34 16 35 17 36
REMARK SMILES IDX 18 37 68 38 19 39 73 40 67 41 69 42 20 43 72 44 66 45 65 46
REMARK SMILES IDX 21 48 53 49 33 50 52 51 34 52 37 53 51 54 70 55 35 56 36 57
REMARK SMILES IDX 50 59 71 60 38 61 22 62 23 63 31 64 24 65 30 66 32 67 29 68
REMARK SMILES IDX 25 69 26 70 27 71 28 72 54 73 55 74 63 75 56 76 62 77 64 78
REMARK SMILES IDX 61 79 57 80 58 81 59 82 60 83 39 84 40 85 48 86 41 87 47 88
REMARK SMILES IDX 49 89 46 90 42 91 43 92 44 93 45 94
REMARK H PARENT 6 6 78 12 87 24 10 28 69 47 37 58
REMARK Flexibility Score: inf
ROOT
ATOM      1  C   UNL     1       4.996  -2.507  -4.660  1.00  0.00     0.042 C 
ENDROOT
BRANCH   1   2
ATOM      2  C   UNL     1       4.479  -1.626  -3.478  1.00  0.00     0.117 C 
BRANCH   2   3
ATOM      3  N   UNL     1       3.142  -0.997  -3.667  1.00  0.00    -0.355 N 
ATOM      4  C   UNL     1       2.446  -0.349  -2.656  1.00  0.00     0.232 C 
ATOM      5  O   UNL     1       2.822   0.805  -2.423  1.00  0.00    -0.274 OA
ATOM      6  H   UNL     1       2.728  -1.043  -4.560  1.00  0.00     0.163 HD
BRANCH   4   7
ATOM      7  C   UNL     1       1.070  -0.891  -2.075  1.00  0.00     0.103 C 
ATOM      8  C   UNL     1      -0.060  -0.731  -3.120  1.00  0.00     0.084 C 
ATOM      9  C   UNL     1       0.920  -2.390  -1.677  1.00  0.00     0.279 C 
ATOM     10  C   UNL     1      -1.101  -1.787  -2.756  1.00  0.00     0.263 C 
ATOM     11  N   UNL     1      -0.340  -2.924  -2.251  1.00  0.00    -0.329 N 
ATOM     12  H   UNL     1      -0.808  -3.400  -1.479  1.00  0.00     0.348 HD
BRANCH   7  13
ATOM     13  C   UNL     1       0.675   0.030  -0.865  1.00  0.00     0.020 C 
ATOM     14  C   UNL     1       1.621  -0.003   0.331  1.00  0.00     0.005 C 
ENDBRANCH   7  13
BRANCH  11  15
ATOM     15  C   UNL     1      -0.294  -4.088  -3.196  1.00  0.00     0.323 C 
BRANCH  15  16
ATOM     16  C   UNL     1       0.081  -3.811  -4.656  1.00  0.00     0.136 A 
ATOM     17  N   UNL     1      -0.808  -3.930  -5.676  1.00  0.00    -0.248 NA
ATOM     18  C   UNL     1       1.330  -3.297  -4.893  1.00  0.00     0.142 A 
ATOM     19  C   UNL     1      -0.434  -3.421  -6.892  1.00  0.00     0.038 A 
ATOM     20  C   UNL     1       1.582  -2.564  -6.034  1.00  0.00     0.050 A 
ATOM     21  C   UNL     1      -1.123  -3.908  -8.133  1.00  0.00     0.067 C 
ATOM     22  C   UNL     1       0.685  -2.623  -7.069  1.00  0.00     0.027 A 
BRANCH  18  23
ATOM     23  O   UNL     1       2.278  -3.444  -3.948  1.00  0.00    -0.506 OA
ATOM     24  H   UNL     1       2.098  -3.943  -3.176  1.00  0.00     0.293 HD
ENDBRANCH  18  23
ENDBRANCH  15  16
ENDBRANCH  11  15
ENDBRANCH   4   7
ENDBRANCH   2   3
ENDBRANCH   1   2
BRANCH   1  25
ATOM     25  C   UNL     1       5.237  -1.844  -6.035  1.00  0.00     0.118 C 
BRANCH  25  26
ATOM     26  N   UNL     1       6.299  -2.552  -6.742  1.00  0.00    -0.352 N 
ATOM     27  C   UNL     1       6.303  -3.448  -7.785  1.00  0.00     0.251 C 
ATOM     28  H   UNL     1       7.199  -2.344  -6.403  1.00  0.00     0.163 HD
ATOM     29  O   UNL     1       7.215  -4.278  -7.779  1.00  0.00    -0.269 OA
BRANCH  27  30
ATOM     30  C   UNL     1       5.364  -3.433  -8.950  1.00  0.00     0.039 A 
ATOM     31  C   UNL     1       5.282  -4.605  -9.726  1.00  0.00     0.014 A 
ATOM     32  C   UNL     1       4.759  -2.275  -9.446  1.00  0.00     0.014 A 
ATOM     33  C   UNL     1       4.654  -4.614 -10.983  1.00  0.00     0.010 A 
ATOM     34  C   UNL     1       4.099  -2.293 -10.697  1.00  0.00     0.010 A 
ATOM     35  C   UNL     1       4.067  -3.452 -11.498  1.00  0.00    -0.014 A 
BRANCH  35  36
ATOM     36  C   UNL     1       3.506  -3.431 -12.891  1.00  0.00     0.031 A 
ATOM     37  C   UNL     1       4.186  -2.631 -13.980  1.00  0.00     0.074 A 
ATOM     38  C   UNL     1       2.392  -4.128 -13.200  1.00  0.00     0.049 A 
ATOM     39  N   UNL     1       3.824  -2.436 -15.226  1.00  0.00    -0.248 NA
ATOM     40  C   UNL     1       5.431  -1.945 -13.609  1.00  0.00     0.031 C 
ATOM     41  C   UNL     1       1.631  -4.957 -12.265  1.00  0.00     0.029 A 
ATOM     42  N   UNL     1       1.699  -4.245 -14.384  1.00  0.00    -0.354 N 
ATOM     43  C   UNL     1       4.780  -1.587 -15.780  1.00  0.00     0.074 A 
ATOM     44  C   UNL     1       5.716  -1.278 -14.718  1.00  0.00     0.031 C 
ATOM     45  C   UNL     1       0.582  -5.496 -12.909  1.00  0.00     0.029 A 
ATOM     46  C   UNL     1       0.568  -5.027 -14.293  1.00  0.00     0.049 A 
ATOM     47  H   UNL     1       1.986  -3.810 -15.220  1.00  0.00     0.167 HD
ATOM     48  C   UNL     1       4.880  -1.117 -17.052  1.00  0.00     0.034 A 
ATOM     49  C   UNL     1      -0.381  -5.322 -15.207  1.00  0.00     0.034 A 
ATOM     50  C   UNL     1       3.962  -1.449 -18.118  1.00  0.00     0.049 A 
ATOM     51  C   UNL     1      -0.263  -4.774 -16.609  1.00  0.00     0.074 A 
ATOM     52  C   UNL     1       4.010  -1.065 -19.449  1.00  0.00     0.029 A 
ATOM     53  N   UNL     1       2.829  -2.239 -17.980  1.00  0.00    -0.354 N 
ATOM     54  N   UNL     1       0.660  -3.990 -17.115  1.00  0.00    -0.248 NA
ATOM     55  C   UNL     1      -1.312  -5.159 -17.565  1.00  0.00     0.031 C 
ATOM     56  C   UNL     1       2.876  -1.569 -20.098  1.00  0.00     0.029 A 
ATOM     57  C   UNL     1       2.156  -2.328 -19.191  1.00  0.00     0.049 A 
ATOM     58  H   UNL     1       2.544  -2.674 -17.143  1.00  0.00     0.167 HD
ATOM     59  C   UNL     1       0.318  -3.815 -18.454  1.00  0.00     0.074 A 
ATOM     60  C   UNL     1      -0.887  -4.583 -18.681  1.00  0.00     0.031 C 
ATOM     61  C   UNL     1       0.948  -3.087 -19.411  1.00  0.00     0.034 A 
BRANCH  48  62
ATOM     62  C   UNL     1       6.007  -0.153 -17.354  1.00  0.00     0.023 A 
ATOM     63  C   UNL     1       7.357  -0.536 -17.271  1.00  0.00     0.031 A 
ATOM     64  C   UNL     1       5.726   1.177 -17.718  1.00  0.00     0.131 A 
ATOM     65  C   UNL     1       8.370   0.414 -17.467  1.00  0.00     0.055 A 
ATOM     66  C   UNL     1       6.739   2.099 -17.992  1.00  0.00     0.041 A 
ATOM     67  F   UNL     1       4.457   1.609 -17.803  1.00  0.00    -0.206 F 
ATOM     68  C   UNL     1       8.071   1.724 -17.851  1.00  0.00     0.022 A 
BRANCH  65  69
ATOM     69  S   UNL     1      10.082  -0.038 -17.073  1.00  0.00     0.124 S 
ATOM     70  O   UNL     1       9.967  -0.410 -15.660  1.00  0.00    -0.237 OA
ATOM     71  O   UNL     1      10.334  -1.145 -17.999  1.00  0.00    -0.237 OA
ATOM     72  O   UNL     1      10.832   1.176 -17.332  1.00  0.00    -0.744 OA
ENDBRANCH  65  69
ENDBRANCH  48  62
BRANCH  49  73
ATOM     73  C   UNL     1      -1.557  -6.160 -14.827  1.00  0.00     0.023 A 
ATOM     74  C   UNL     1      -1.768  -7.424 -15.402  1.00  0.00     0.031 A 
ATOM     75  C   UNL     1      -2.516  -5.683 -13.916  1.00  0.00     0.131 A 
ATOM     76  C   UNL     1      -2.929  -8.149 -15.092  1.00  0.00     0.055 A 
ATOM     77  C   UNL     1      -3.645  -6.430 -13.573  1.00  0.00     0.041 A 
ATOM     78  F   UNL     1      -2.363  -4.481 -13.337  1.00  0.00    -0.206 F 
ATOM     79  C   UNL     1      -3.862  -7.667 -14.171  1.00  0.00     0.022 A 
BRANCH  76  80
ATOM     80  S   UNL     1      -3.245  -9.705 -15.971  1.00  0.00     0.124 S 
ATOM     81  O   UNL     1      -3.254  -9.264 -17.362  1.00  0.00    -0.237 OA
ATOM     82  O   UNL     1      -2.106 -10.519 -15.563  1.00  0.00    -0.237 OA
ATOM     83  O   UNL     1      -4.538 -10.137 -15.445  1.00  0.00    -0.744 OA
ENDBRANCH  76  80
ENDBRANCH  49  73
BRANCH  61  84
ATOM     84  C   UNL     1       0.365  -3.125 -20.804  1.00  0.00     0.023 A 
ATOM     85  C   UNL     1      -0.878  -2.541 -21.104  1.00  0.00     0.031 A 
ATOM     86  C   UNL     1       1.061  -3.768 -21.843  1.00  0.00     0.131 A 
ATOM     87  C   UNL     1      -1.412  -2.656 -22.398  1.00  0.00     0.055 A 
ATOM     88  C   UNL     1       0.550  -3.833 -23.141  1.00  0.00     0.041 A 
ATOM     89  F   UNL     1       2.252  -4.344 -21.614  1.00  0.00    -0.206 F 
ATOM     90  C   UNL     1      -0.699  -3.285 -23.421  1.00  0.00     0.022 A 
BRANCH  87  91
ATOM     91  S   UNL     1      -3.090  -2.040 -22.709  1.00  0.00     0.124 S 
ATOM     92  O   UNL     1      -3.881  -2.821 -21.763  1.00  0.00    -0.237 OA
ATOM     93  O   UNL     1      -2.961  -0.617 -22.410  1.00  0.00    -0.237 OA
ATOM     94  O   UNL     1      -3.317  -2.358 -24.118  1.00  0.00    -0.744 OA
ENDBRANCH  87  91
ENDBRANCH  61  84
ENDBRANCH  35  36
ENDBRANCH  27  30
ENDBRANCH  25  26
ENDBRANCH   1  25
TORSDOF 17
