REMARK SMILES C=CCn1nc(C(=O)NCCCNC(=O)c2ccc(-c3c4nc(c(-c5cc(S(=O)(=O)[O-])ccc5F)c5ccc([nH]5)c(-c5cc(S(=O)(=O)[O-])ccc5F)c5nc(c(-c6cc(S(=O)(=O)[O-])ccc6F)c6ccc3[nH]6)C=C5)C=C4)cc2)c2c1CC[C@@H]([NH+]1CCC(C(C)(C)O)CC1)C2
REMARK SMILES IDX 11 1 10 2 9 3 7 4 8 5 6 7 4 8 5 9 80 10 79 11 81 12 94 13
REMARK SMILES IDX 82 14 83 15 3 16 2 17 1 18 84 19 85 20 93 21 86 23 92 24
REMARK SMILES IDX 87 25 88 26 89 27 90 28 91 29 12 31 13 32 14 33 15 35 16 36
REMARK SMILES IDX 17 37 78 38 18 39 77 40 19 41 20 42 21 43 71 44 22 45 76 46
REMARK SMILES IDX 70 47 72 48 23 49 75 50 69 51 68 52 24 54 56 55 36 56 55 57
REMARK SMILES IDX 37 58 40 59 54 60 73 61 38 62 39 63 53 65 74 66 41 67 25 68
REMARK SMILES IDX 26 69 34 70 27 71 33 72 35 73 32 74 28 75 29 76 30 77 31 78
REMARK SMILES IDX 57 79 58 80 66 81 59 82 65 83 67 84 64 85 60 86 61 87 62 88
REMARK SMILES IDX 63 89 42 90 43 91 51 92 44 93 50 94 52 95 49 96 45 97 46 98
REMARK SMILES IDX 47 99 48 100
REMARK H PARENT 9 6 84 22 91 30 13 34 72 53 40 64
REMARK Flexibility Score: inf
ROOT
ATOM      1  C   UNL     1      -3.794  -3.433   6.909  1.00  0.00     0.042 C 
ENDROOT
BRANCH   1   2
ATOM      2  C   UNL     1      -2.323  -3.800   6.640  1.00  0.00     0.118 C 
BRANCH   2   3
ATOM      3  N   UNL     1      -2.093  -4.256   5.271  1.00  0.00    -0.351 N 
ATOM      4  C   UNL     1      -1.711  -3.660   4.080  1.00  0.00     0.272 C 
ATOM      5  O   UNL     1      -1.484  -4.461   3.165  1.00  0.00    -0.267 OA
ATOM      6  H   UNL     1      -2.247  -5.223   5.170  1.00  0.00     0.163 HD
BRANCH   4   7
ATOM      7  C   UNL     1      -1.564  -2.192   3.865  1.00  0.00     0.153 A 
ATOM      8  N   UNL     1      -1.046  -0.389   2.788  1.00  0.00    -0.265 N 
ATOM      9  N   UNL     1      -0.916  -1.734   2.766  1.00  0.00    -0.167 NA
ATOM     10  C   UNL     1      -1.582   0.059   3.958  1.00  0.00     0.043 A 
ATOM     11  C   UNL     1      -2.080  -1.068   4.561  1.00  0.00     0.012 A 
ATOM     12  C   UNL     1      -1.799   1.454   4.420  1.00  0.00     0.062 C 
ATOM     13  C   UNL     1      -3.045  -0.970   5.655  1.00  0.00     0.105 C 
ATOM     14  C   UNL     1      -2.715   1.478   5.667  1.00  0.00     0.072 C 
ATOM     15  C   UNL     1      -3.779   0.362   5.807  1.00  0.00     0.189 C 
BRANCH   8  16
ATOM     16  C   UNL     1      -0.852   0.368   1.554  1.00  0.00     0.171 C 
BRANCH  16  17
ATOM     17  C   UNL     1       0.593   0.559   1.200  1.00  0.00    -0.011 C 
ATOM     18  C   UNL     1       1.132   0.174   0.035  1.00  0.00     0.006 C 
ENDBRANCH  16  17
ENDBRANCH   8  16
BRANCH  15  19
ATOM     19  N   UNL     1      -5.085   0.275   5.122  1.00  0.00    -0.332 N 
ATOM     20  C   UNL     1      -5.156   0.180   3.678  1.00  0.00     0.262 C 
ATOM     21  C   UNL     1      -6.142   1.139   5.615  1.00  0.00     0.262 C 
ATOM     22  H   UNL     1      -5.259  -0.679   5.437  1.00  0.00     0.348 HD
ATOM     23  C   UNL     1      -4.946   1.515   2.991  1.00  0.00     0.068 C 
ATOM     24  C   UNL     1      -5.941   2.573   5.172  1.00  0.00     0.068 C 
ATOM     25  C   UNL     1      -5.569   2.758   3.676  1.00  0.00     0.031 C 
BRANCH  25  26
ATOM     26  C   UNL     1      -4.714   4.059   3.470  1.00  0.00     0.062 C 
ATOM     27  C   UNL     1      -4.177   4.217   2.045  1.00  0.00     0.042 C 
ATOM     28  C   UNL     1      -5.515   5.298   3.879  1.00  0.00     0.042 C 
BRANCH  26  29
ATOM     29  O   UNL     1      -3.563   4.030   4.317  1.00  0.00    -0.390 OA
ATOM     30  H   UNL     1      -3.018   3.258   4.096  1.00  0.00     0.211 HD
ENDBRANCH  26  29
ENDBRANCH  25  26
ENDBRANCH  15  19
ENDBRANCH   4   7
ENDBRANCH   2   3
ENDBRANCH   1   2
BRANCH   1  31
ATOM     31  C   UNL     1      -4.599  -4.325   7.807  1.00  0.00     0.118 C 
BRANCH  31  32
ATOM     32  N   UNL     1      -4.230  -4.188   9.212  1.00  0.00    -0.352 N 
ATOM     33  C   UNL     1      -4.607  -5.035  10.243  1.00  0.00     0.251 C 
ATOM     34  H   UNL     1      -3.660  -3.422   9.451  1.00  0.00     0.163 HD
ATOM     35  O   UNL     1      -4.665  -4.639  11.391  1.00  0.00    -0.269 OA
BRANCH  33  36
ATOM     36  C   UNL     1      -4.978  -6.413   9.865  1.00  0.00     0.039 A 
ATOM     37  C   UNL     1      -6.131  -7.008  10.362  1.00  0.00     0.014 A 
ATOM     38  C   UNL     1      -4.242  -7.013   8.846  1.00  0.00     0.014 A 
ATOM     39  C   UNL     1      -6.599  -8.153   9.723  1.00  0.00     0.010 A 
ATOM     40  C   UNL     1      -4.835  -7.987   8.081  1.00  0.00     0.010 A 
ATOM     41  C   UNL     1      -5.989  -8.605   8.531  1.00  0.00    -0.014 A 
BRANCH  41  42
ATOM     42  C   UNL     1      -6.628  -9.633   7.702  1.00  0.00     0.031 A 
ATOM     43  C   UNL     1      -8.107  -9.543   7.677  1.00  0.00     0.074 A 
ATOM     44  C   UNL     1      -6.003 -10.569   6.951  1.00  0.00     0.049 A 
ATOM     45  N   UNL     1      -8.902 -10.212   8.441  1.00  0.00    -0.248 NA
ATOM     46  C   UNL     1      -8.773  -8.476   6.918  1.00  0.00     0.031 C 
ATOM     47  C   UNL     1      -4.574 -10.727   6.658  1.00  0.00     0.029 A 
ATOM     48  N   UNL     1      -6.559 -11.594   6.238  1.00  0.00    -0.354 N 
ATOM     49  C   UNL     1     -10.185  -9.862   8.062  1.00  0.00     0.074 A 
ATOM     50  C   UNL     1     -10.044  -8.649   7.298  1.00  0.00     0.031 C 
ATOM     51  C   UNL     1      -4.398 -11.644   5.679  1.00  0.00     0.029 A 
ATOM     52  C   UNL     1      -5.674 -12.278   5.406  1.00  0.00     0.049 A 
ATOM     53  H   UNL     1      -7.512 -11.831   6.307  1.00  0.00     0.167 HD
ATOM     54  C   UNL     1     -11.197 -10.761   8.195  1.00  0.00     0.034 A 
ATOM     55  C   UNL     1      -5.934 -13.343   4.599  1.00  0.00     0.034 A 
ATOM     56  C   UNL     1     -10.810 -11.846   9.082  1.00  0.00     0.049 A 
ATOM     57  C   UNL     1      -7.093 -14.046   5.196  1.00  0.00     0.074 A 
ATOM     58  C   UNL     1     -10.332 -11.907  10.380  1.00  0.00     0.029 A 
ATOM     59  N   UNL     1     -10.471 -13.059   8.519  1.00  0.00    -0.354 N 
ATOM     60  N   UNL     1      -7.031 -14.655   6.347  1.00  0.00    -0.248 NA
ATOM     61  C   UNL     1      -8.428 -13.656   4.774  1.00  0.00     0.031 C 
ATOM     62  C   UNL     1      -9.299 -12.893  10.347  1.00  0.00     0.029 A 
ATOM     63  C   UNL     1      -9.273 -13.455   9.069  1.00  0.00     0.049 A 
ATOM     64  H   UNL     1     -10.992 -13.552   7.845  1.00  0.00     0.167 HD
ATOM     65  C   UNL     1      -8.206 -14.309   6.995  1.00  0.00     0.074 A 
ATOM     66  C   UNL     1      -9.071 -13.781   5.939  1.00  0.00     0.031 C 
ATOM     67  C   UNL     1      -8.267 -14.227   8.358  1.00  0.00     0.034 A 
BRANCH  54  68
ATOM     68  C   UNL     1     -12.353 -10.885   7.230  1.00  0.00     0.023 A 
ATOM     69  C   UNL     1     -13.310 -11.878   7.506  1.00  0.00     0.031 A 
ATOM     70  C   UNL     1     -12.409 -10.318   5.936  1.00  0.00     0.131 A 
ATOM     71  C   UNL     1     -14.170 -12.348   6.500  1.00  0.00     0.055 A 
ATOM     72  C   UNL     1     -13.315 -10.742   4.960  1.00  0.00     0.041 A 
ATOM     73  F   UNL     1     -11.541  -9.397   5.505  1.00  0.00    -0.206 F 
ATOM     74  C   UNL     1     -14.179 -11.788   5.227  1.00  0.00     0.022 A 
BRANCH  71  75
ATOM     75  S   UNL     1     -15.141 -13.837   6.840  1.00  0.00     0.124 S 
ATOM     76  O   UNL     1     -14.096 -14.783   7.217  1.00  0.00    -0.237 OA
ATOM     77  O   UNL     1     -16.018 -13.383   7.914  1.00  0.00    -0.237 OA
ATOM     78  O   UNL     1     -15.802 -14.107   5.566  1.00  0.00    -0.744 OA
ENDBRANCH  71  75
ENDBRANCH  54  68
BRANCH  55  79
ATOM     79  C   UNL     1      -5.447 -13.589   3.213  1.00  0.00     0.023 A 
ATOM     80  C   UNL     1      -5.589 -14.835   2.559  1.00  0.00     0.031 A 
ATOM     81  C   UNL     1      -5.075 -12.492   2.405  1.00  0.00     0.131 A 
ATOM     82  C   UNL     1      -5.385 -14.938   1.161  1.00  0.00     0.055 A 
ATOM     83  C   UNL     1      -4.882 -12.598   1.026  1.00  0.00     0.041 A 
ATOM     84  F   UNL     1      -4.979 -11.254   2.917  1.00  0.00    -0.206 F 
ATOM     85  C   UNL     1      -5.050 -13.820   0.395  1.00  0.00     0.022 A 
BRANCH  82  86
ATOM     86  S   UNL     1      -5.657 -16.519   0.288  1.00  0.00     0.124 S 
ATOM     87  O   UNL     1      -4.520 -17.318   0.731  1.00  0.00    -0.237 OA
ATOM     88  O   UNL     1      -6.969 -16.930   0.775  1.00  0.00    -0.237 OA
ATOM     89  O   UNL     1      -5.625 -16.138  -1.125  1.00  0.00    -0.744 OA
ENDBRANCH  82  86
ENDBRANCH  55  79
BRANCH  67  90
ATOM     90  C   UNL     1      -7.123 -14.821   9.169  1.00  0.00     0.023 A 
ATOM     91  C   UNL     1      -5.749 -14.527   8.991  1.00  0.00     0.031 A 
ATOM     92  C   UNL     1      -7.462 -15.689  10.223  1.00  0.00     0.131 A 
ATOM     93  C   UNL     1      -4.780 -15.118   9.829  1.00  0.00     0.055 A 
ATOM     94  C   UNL     1      -6.504 -16.251  11.067  1.00  0.00     0.041 A 
ATOM     95  F   UNL     1      -8.746 -16.000  10.465  1.00  0.00    -0.206 F 
ATOM     96  C   UNL     1      -5.157 -15.977  10.866  1.00  0.00     0.022 A 
BRANCH  93  97
ATOM     97  S   UNL     1      -3.001 -14.821   9.560  1.00  0.00     0.124 S 
ATOM     98  O   UNL     1      -2.839 -14.972   8.119  1.00  0.00    -0.237 OA
ATOM     99  O   UNL     1      -2.823 -13.469  10.083  1.00  0.00    -0.237 OA
ATOM    100  O   UNL     1      -2.357 -15.868  10.357  1.00  0.00    -0.744 OA
ENDBRANCH  93  97
ENDBRANCH  67  90
ENDBRANCH  41  42
ENDBRANCH  33  36
ENDBRANCH  31  32
ENDBRANCH   1  31
TORSDOF 18
