REMARK SMILES O=C(NCCCNC(=O)c1cc(F)c(F)cc1NS(=O)(=O)c1ccc2c(c1)CCC2)c1ccc(-c2c3nc(c(-c4cc(S(=O)(=O)[O-])ccc4F)c4ccc([nH]4)c(-c4cc(S(=O)(=O)[O-])ccc4F)c4nc(c(-c5cc(S(=O)(=O)[O-])ccc5F)c5ccc2[nH]5)C=C4)C=C3)cc1
REMARK SMILES IDX 5 1 4 2 3 3 1 4 2 5 31 7 32 8 93 9 33 10 92 11 34 12 35 13
REMARK SMILES IDX 36 14 86 15 37 16 91 17 85 18 87 19 38 20 90 21 84 22 83 23
REMARK SMILES IDX 39 25 71 26 51 27 70 28 52 29 55 30 69 31 88 32 53 33 54 34
REMARK SMILES IDX 68 36 89 37 56 38 40 39 41 40 49 41 42 42 48 43 50 44 47 45
REMARK SMILES IDX 43 46 44 47 45 48 46 49 72 50 73 51 81 52 74 53 80 54 82 55
REMARK SMILES IDX 79 56 75 57 76 58 77 59 78 60 57 61 58 62 66 63 59 64 65 65
REMARK SMILES IDX 67 66 64 67 60 68 61 69 62 70 63 71 6 72 7 73 8 74 9 76
REMARK SMILES IDX 10 77 11 78 17 79 12 80 16 81 13 82 14 83 15 84 18 85 19 87
REMARK SMILES IDX 20 88 21 89 22 90 23 91 27 92 24 93 26 94 25 95 28 96 30 97
REMARK SMILES IDX 29 98
REMARK H PARENT 3 6 87 24 55 35 7 75 18 86
REMARK Flexibility Score: inf
ROOT
ATOM      1  C   UNL     1       4.819  -2.407  -0.321  1.00  0.00     0.042 C 
ENDROOT
BRANCH   1   2
ATOM      2  C   UNL     1       4.488  -1.017  -0.843  1.00  0.00     0.118 C 
BRANCH   2   3
ATOM      3  N   UNL     1       3.058  -0.726  -0.829  1.00  0.00    -0.352 N 
ATOM      4  O   UNL     1       1.105   0.141  -0.130  1.00  0.00    -0.269 OA
ATOM      5  C   UNL     1       2.332   0.179  -0.088  1.00  0.00     0.251 C 
ATOM      6  H   UNL     1       2.523  -1.267  -1.453  1.00  0.00     0.163 HD
BRANCH   5   7
ATOM      7  C   UNL     1       3.015   1.172   0.773  1.00  0.00     0.039 A 
ATOM      8  C   UNL     1       4.171   1.818   0.341  1.00  0.00     0.014 A 
ATOM      9  C   UNL     1       2.486   1.467   2.034  1.00  0.00     0.014 A 
ATOM     10  C   UNL     1       4.909   2.585   1.235  1.00  0.00     0.010 A 
ATOM     11  C   UNL     1       3.170   2.337   2.891  1.00  0.00     0.010 A 
ATOM     12  C   UNL     1       4.418   2.862   2.521  1.00  0.00    -0.014 A 
BRANCH  12  13
ATOM     13  C   UNL     1       5.230   3.708   3.439  1.00  0.00     0.031 A 
ATOM     14  C   UNL     1       5.748   3.162   4.745  1.00  0.00     0.074 A 
ATOM     15  C   UNL     1       5.553   4.961   3.058  1.00  0.00     0.049 A 
ATOM     16  N   UNL     1       6.510   3.742   5.638  1.00  0.00    -0.248 NA
ATOM     17  C   UNL     1       5.348   1.793   5.101  1.00  0.00     0.031 C 
ATOM     18  C   UNL     1       5.109   5.602   1.817  1.00  0.00     0.029 A 
ATOM     19  N   UNL     1       6.349   5.907   3.650  1.00  0.00    -0.354 N 
ATOM     20  C   UNL     1       6.663   2.821   6.671  1.00  0.00     0.074 A 
ATOM     21  C   UNL     1       5.879   1.659   6.308  1.00  0.00     0.031 C 
ATOM     22  C   UNL     1       5.692   6.804   1.708  1.00  0.00     0.029 A 
ATOM     23  C   UNL     1       6.486   7.056   2.904  1.00  0.00     0.049 A 
ATOM     24  H   UNL     1       6.781   5.778   4.525  1.00  0.00     0.167 HD
ATOM     25  C   UNL     1       7.394   2.932   7.809  1.00  0.00     0.034 A 
ATOM     26  C   UNL     1       7.163   8.193   3.157  1.00  0.00     0.034 A 
ATOM     27  C   UNL     1       8.180   4.096   8.151  1.00  0.00     0.049 A 
ATOM     28  C   UNL     1       7.942   8.301   4.440  1.00  0.00     0.074 A 
ATOM     29  C   UNL     1       8.983   4.300   9.260  1.00  0.00     0.029 A 
ATOM     30  N   UNL     1       8.256   5.259   7.393  1.00  0.00    -0.354 N 
ATOM     31  N   UNL     1       8.089   7.412   5.396  1.00  0.00    -0.248 NA
ATOM     32  C   UNL     1       8.651   9.564   4.675  1.00  0.00     0.031 C 
ATOM     33  C   UNL     1       9.482   5.607   9.211  1.00  0.00     0.029 A 
ATOM     34  C   UNL     1       9.065   6.192   8.027  1.00  0.00     0.049 A 
ATOM     35  H   UNL     1       7.802   5.401   6.530  1.00  0.00     0.167 HD
ATOM     36  C   UNL     1       8.937   8.000   6.330  1.00  0.00     0.074 A 
ATOM     37  C   UNL     1       9.280   9.309   5.812  1.00  0.00     0.031 C 
ATOM     38  C   UNL     1       9.394   7.500   7.507  1.00  0.00     0.034 A 
BRANCH  25  39
ATOM     39  C   UNL     1       7.337   1.783   8.792  1.00  0.00     0.023 A 
ATOM     40  C   UNL     1       7.800   0.496   8.465  1.00  0.00     0.031 A 
ATOM     41  C   UNL     1       6.785   1.974  10.073  1.00  0.00     0.131 A 
ATOM     42  C   UNL     1       7.633  -0.562   9.373  1.00  0.00     0.055 A 
ATOM     43  C   UNL     1       6.700   0.936  11.003  1.00  0.00     0.041 A 
ATOM     44  F   UNL     1       6.306   3.173  10.438  1.00  0.00    -0.206 F 
ATOM     45  C   UNL     1       7.111  -0.345  10.650  1.00  0.00     0.022 A 
BRANCH  42  46
ATOM     46  S   UNL     1       7.967  -2.253   8.806  1.00  0.00     0.124 S 
ATOM     47  O   UNL     1       7.078  -2.361   7.651  1.00  0.00    -0.237 OA
ATOM     48  O   UNL     1       9.394  -2.212   8.510  1.00  0.00    -0.237 OA
ATOM     49  O   UNL     1       7.590  -3.081   9.950  1.00  0.00    -0.744 OA
ENDBRANCH  42  46
ENDBRANCH  25  39
BRANCH  26  50
ATOM     50  C   UNL     1       7.122   9.325   2.187  1.00  0.00     0.023 A 
ATOM     51  C   UNL     1       8.287   9.776   1.549  1.00  0.00     0.031 A 
ATOM     52  C   UNL     1       5.917   9.997   1.912  1.00  0.00     0.131 A 
ATOM     53  C   UNL     1       8.232  10.896   0.705  1.00  0.00     0.055 A 
ATOM     54  C   UNL     1       5.857  11.072   1.025  1.00  0.00     0.041 A 
ATOM     55  F   UNL     1       4.772   9.604   2.493  1.00  0.00    -0.206 F 
ATOM     56  C   UNL     1       7.023  11.537   0.426  1.00  0.00     0.022 A 
BRANCH  53  57
ATOM     57  S   UNL     1       9.785  11.561   0.044  1.00  0.00     0.124 S 
ATOM     58  O   UNL     1      10.529  11.845   1.266  1.00  0.00    -0.237 OA
ATOM     59  O   UNL     1      10.273  10.446  -0.760  1.00  0.00    -0.237 OA
ATOM     60  O   UNL     1       9.356  12.734  -0.714  1.00  0.00    -0.744 OA
ENDBRANCH  53  57
ENDBRANCH  26  50
BRANCH  38  61
ATOM     61  C   UNL     1      10.364   8.361   8.281  1.00  0.00     0.023 A 
ATOM     62  C   UNL     1       9.989   9.602   8.826  1.00  0.00     0.031 A 
ATOM     63  C   UNL     1      11.698   7.946   8.443  1.00  0.00     0.131 A 
ATOM     64  C   UNL     1      10.953  10.416   9.441  1.00  0.00     0.055 A 
ATOM     65  C   UNL     1      12.636   8.729   9.117  1.00  0.00     0.041 A 
ATOM     66  F   UNL     1      12.115   6.772   7.941  1.00  0.00    -0.206 F 
ATOM     67  C   UNL     1      12.270   9.980   9.605  1.00  0.00     0.022 A 
BRANCH  64  68
ATOM     68  S   UNL     1      10.491  12.105   9.916  1.00  0.00     0.124 S 
ATOM     69  O   UNL     1      10.014  12.656   8.652  1.00  0.00    -0.237 OA
ATOM     70  O   UNL     1       9.474  11.873  10.936  1.00  0.00    -0.237 OA
ATOM     71  O   UNL     1      11.743  12.677  10.409  1.00  0.00    -0.744 OA
ENDBRANCH  64  68
ENDBRANCH  38  61
ENDBRANCH  12  13
ENDBRANCH   5   7
ENDBRANCH   2   3
ENDBRANCH   1   2
BRANCH   1  72
ATOM     72  C   UNL     1       4.285  -3.532  -1.196  1.00  0.00     0.118 C 
BRANCH  72  73
ATOM     73  N   UNL     1       4.952  -3.591  -2.496  1.00  0.00    -0.352 N 
ATOM     74  C   UNL     1       5.897  -4.483  -2.943  1.00  0.00     0.253 C 
ATOM     75  H   UNL     1       4.688  -2.894  -3.140  1.00  0.00     0.163 HD
ATOM     76  O   UNL     1       6.545  -4.268  -3.960  1.00  0.00    -0.269 OA
BRANCH  74  77
ATOM     77  C   UNL     1       6.163  -5.691  -2.145  1.00  0.00     0.067 A 
ATOM     78  C   UNL     1       5.078  -6.539  -1.866  1.00  0.00     0.058 A 
ATOM     79  C   UNL     1       7.424  -5.903  -1.563  1.00  0.00     0.065 A 
ATOM     80  C   UNL     1       5.219  -7.523  -0.901  1.00  0.00     0.159 A 
ATOM     81  C   UNL     1       7.500  -6.835  -0.525  1.00  0.00     0.070 A 
ATOM     82  F   UNL     1       4.171  -8.296  -0.590  1.00  0.00    -0.204 F 
ATOM     83  C   UNL     1       6.414  -7.649  -0.212  1.00  0.00     0.160 A 
ATOM     84  F   UNL     1       6.533  -8.551   0.771  1.00  0.00    -0.204 F 
BRANCH  79  85
ATOM     85  N   UNL     1       8.595  -5.123  -1.915  1.00  0.00    -0.279 N 
ATOM     86  H   UNL     1       8.635  -4.160  -1.716  1.00  0.00     0.180 HD
BRANCH  85  87
ATOM     87  S   UNL     1       9.915  -5.915  -2.690  1.00  0.00     0.261 S 
ATOM     88  O   UNL     1       9.425  -6.439  -3.949  1.00  0.00    -0.201 OA
ATOM     89  O   UNL     1      11.034  -5.000  -2.659  1.00  0.00    -0.201 OA
BRANCH  87  90
ATOM     90  C   UNL     1      10.321  -7.302  -1.655  1.00  0.00     0.088 A 
ATOM     91  C   UNL     1       9.787  -8.565  -1.984  1.00  0.00     0.022 A 
ATOM     92  C   UNL     1      11.064  -7.103  -0.484  1.00  0.00     0.026 A 
ATOM     93  C   UNL     1       9.880  -9.620  -1.077  1.00  0.00     0.005 A 
ATOM     94  C   UNL     1      11.164  -8.170   0.395  1.00  0.00    -0.043 A 
ATOM     95  C   UNL     1      10.547  -9.398   0.116  1.00  0.00    -0.045 A 
ATOM     96  C   UNL     1      11.784  -8.188   1.760  1.00  0.00     0.036 C 
ATOM     97  C   UNL     1      10.636 -10.317   1.294  1.00  0.00     0.036 C 
ATOM     98  C   UNL     1      11.804  -9.695   2.067  1.00  0.00     0.010 C 
ENDBRANCH  87  90
ENDBRANCH  85  87
ENDBRANCH  79  85
ENDBRANCH  74  77
ENDBRANCH  72  73
ENDBRANCH   1  72
TORSDOF 16
