REMARK SMILES CN(CCOCC1CC1)C(=O)N1[C@@H]2CC[C@H]1[C@H](C(=O)NCCCNC(=O)c1ccc(-c3c4nc(c(-c5cc(S(=O)(=O)[O-])ccc5F)c5ccc([nH]5)c(-c5cc(S(=O)(=O)[O-])ccc5F)c5nc(c(-c6cc(S(=O)(=O)[O-])ccc6F)c6ccc3[nH]6)C=C5)C=C4)cc1)C2
REMARK SMILES IDX 18 1 19 2 20 3 17 5 12 6 13 7 16 8 14 9 90 10 15 11 10 12
REMARK SMILES IDX 11 13 2 14 1 15 3 16 4 17 5 18 6 19 7 20 8 21 9 22 21 23
REMARK SMILES IDX 22 24 23 25 24 26 25 27 26 29 27 30 28 31 89 32 29 33 88 34
REMARK SMILES IDX 30 35 31 36 32 37 82 38 33 39 87 40 81 41 83 42 34 43 86 44
REMARK SMILES IDX 80 45 79 46 35 48 67 49 47 50 66 51 48 52 51 53 65 54 84 55
REMARK SMILES IDX 49 56 50 57 64 59 85 60 52 61 36 62 37 63 45 64 38 65 44 66
REMARK SMILES IDX 46 67 43 68 39 69 40 70 41 71 42 72 68 73 69 74 77 75 70 76
REMARK SMILES IDX 76 77 78 78 75 79 71 80 72 81 73 82 74 83 53 84 54 85 62 86
REMARK SMILES IDX 55 87 61 88 63 89 60 90 56 91 57 92 58 93 59 94
REMARK H PARENT 20 4 24 28 83 47 51 58
REMARK Flexibility Score: inf
ROOT
ATOM      1  C   UNL     1      -0.048   2.306  -4.551  1.00  0.00     0.225 C 
ATOM      2  O   UNL     1      -1.020   1.965  -5.243  1.00  0.00    -0.275 OA
ATOM      3  N   UNL     1       0.820   1.303  -4.256  1.00  0.00    -0.356 N 
ATOM      4  H   UNL     1       0.499   0.427  -4.572  1.00  0.00     0.163 HD
ENDROOT
BRANCH   1   5
ATOM      5  C   UNL     1      -0.019   3.751  -4.042  1.00  0.00     0.103 C 
ATOM      6  N   UNL     1       0.423   3.609  -1.803  1.00  0.00    -0.318 N 
ATOM      7  C   UNL     1       1.300   4.674  -2.261  1.00  0.00     0.088 C 
ATOM      8  C   UNL     1      -0.709   3.854  -2.670  1.00  0.00     0.099 C 
ATOM      9  C   UNL     1       0.406   5.893  -1.986  1.00  0.00     0.027 C 
ATOM     10  C   UNL     1       1.325   4.453  -3.793  1.00  0.00     0.040 C 
ATOM     11  C   UNL     1      -0.995   5.340  -2.334  1.00  0.00     0.028 C 
BRANCH   6  12
ATOM     12  C   UNL     1       0.618   2.914  -0.651  1.00  0.00     0.320 C 
ATOM     13  O   UNL     1       1.571   3.215   0.074  1.00  0.00    -0.248 OA
BRANCH  12  14
ATOM     14  N   UNL     1      -0.201   1.841  -0.328  1.00  0.00    -0.325 N 
ATOM     15  C   UNL     1       0.175   1.113   0.881  1.00  0.00     0.148 C 
BRANCH  14  16
ATOM     16  C   UNL     1      -1.191   1.192  -1.187  1.00  0.00     0.149 C 
BRANCH  16  17
ATOM     17  C   UNL     1      -2.688   1.441  -0.925  1.00  0.00     0.181 C 
BRANCH  17  18
ATOM     18  O   UNL     1      -3.149   2.716  -0.507  1.00  0.00    -0.379 OA
BRANCH  18  19
ATOM     19  C   UNL     1      -2.622   3.304   0.677  1.00  0.00     0.163 C 
BRANCH  19  20
ATOM     20  C   UNL     1      -2.879   2.623   1.987  1.00  0.00     0.015 C 
ATOM     21  C   UNL     1      -4.161   1.882   2.255  1.00  0.00     0.006 C 
ATOM     22  C   UNL     1      -2.851   1.146   2.306  1.00  0.00     0.006 C 
ENDBRANCH  19  20
ENDBRANCH  18  19
ENDBRANCH  17  18
ENDBRANCH  16  17
ENDBRANCH  14  16
ENDBRANCH  12  14
ENDBRANCH   6  12
ENDBRANCH   1   5
BRANCH   3  23
ATOM     23  C   UNL     1       2.116   1.209  -3.585  1.00  0.00     0.117 C 
BRANCH  23  24
ATOM     24  C   UNL     1       2.134   0.341  -2.325  1.00  0.00     0.042 C 
BRANCH  24  25
ATOM     25  C   UNL     1       1.895  -1.155  -2.496  1.00  0.00     0.118 C 
BRANCH  25  26
ATOM     26  N   UNL     1       3.139  -1.892  -2.392  1.00  0.00    -0.352 N 
ATOM     27  C   UNL     1       3.801  -2.458  -1.329  1.00  0.00     0.251 C 
ATOM     28  H   UNL     1       3.601  -2.011  -3.253  1.00  0.00     0.163 HD
ATOM     29  O   UNL     1       5.011  -2.640  -1.486  1.00  0.00    -0.269 OA
BRANCH  27  30
ATOM     30  C   UNL     1       3.172  -2.892  -0.042  1.00  0.00     0.039 A 
ATOM     31  C   UNL     1       4.039  -3.091   1.047  1.00  0.00     0.014 A 
ATOM     32  C   UNL     1       1.841  -3.295   0.107  1.00  0.00     0.014 A 
ATOM     33  C   UNL     1       3.608  -3.729   2.220  1.00  0.00     0.010 A 
ATOM     34  C   UNL     1       1.391  -3.873   1.314  1.00  0.00     0.010 A 
ATOM     35  C   UNL     1       2.280  -4.150   2.368  1.00  0.00    -0.014 A 
BRANCH  35  36
ATOM     36  C   UNL     1       1.881  -4.963   3.566  1.00  0.00     0.031 A 
ATOM     37  C   UNL     1       1.450  -6.408   3.409  1.00  0.00     0.074 A 
ATOM     38  C   UNL     1       1.954  -4.442   4.810  1.00  0.00     0.049 A 
ATOM     39  N   UNL     1       1.135  -7.288   4.330  1.00  0.00    -0.248 NA
ATOM     40  C   UNL     1       1.342  -6.928   2.037  1.00  0.00     0.031 C 
ATOM     41  C   UNL     1       2.336  -3.065   5.127  1.00  0.00     0.029 A 
ATOM     42  N   UNL     1       1.724  -5.009   6.044  1.00  0.00    -0.354 N 
ATOM     43  C   UNL     1       0.777  -8.452   3.652  1.00  0.00     0.074 A 
ATOM     44  C   UNL     1       0.870  -8.150   2.239  1.00  0.00     0.031 C 
ATOM     45  C   UNL     1       2.345  -2.905   6.461  1.00  0.00     0.029 A 
ATOM     46  C   UNL     1       1.939  -4.153   7.103  1.00  0.00     0.049 A 
ATOM     47  H   UNL     1       1.432  -5.942   6.159  1.00  0.00     0.167 HD
ATOM     48  C   UNL     1       0.423  -9.664   4.150  1.00  0.00     0.034 A 
ATOM     49  C   UNL     1       1.825  -4.344   8.435  1.00  0.00     0.034 A 
ATOM     50  C   UNL     1       0.371  -9.986   5.557  1.00  0.00     0.049 A 
ATOM     51  C   UNL     1       1.431  -5.706   8.961  1.00  0.00     0.074 A 
ATOM     52  C   UNL     1       0.101 -11.210   6.149  1.00  0.00     0.029 A 
ATOM     53  N   UNL     1       0.586  -9.088   6.592  1.00  0.00    -0.354 N 
ATOM     54  N   UNL     1       1.170  -6.808   8.297  1.00  0.00    -0.248 NA
ATOM     55  C   UNL     1       1.339  -5.851  10.421  1.00  0.00     0.031 C 
ATOM     56  C   UNL     1       0.081 -11.035   7.537  1.00  0.00     0.029 A 
ATOM     57  C   UNL     1       0.418  -9.722   7.816  1.00  0.00     0.049 A 
ATOM     58  H   UNL     1       0.823  -8.140   6.476  1.00  0.00     0.167 HD
ATOM     59  C   UNL     1       0.922  -7.782   9.263  1.00  0.00     0.074 A 
ATOM     60  C   UNL     1       1.092  -7.145  10.551  1.00  0.00     0.031 C 
ATOM     61  C   UNL     1       0.584  -9.087   9.101  1.00  0.00     0.034 A 
BRANCH  48  62
ATOM     62  C   UNL     1       0.030 -10.745   3.167  1.00  0.00     0.023 A 
ATOM     63  C   UNL     1       0.951 -11.306   2.266  1.00  0.00     0.031 A 
ATOM     64  C   UNL     1      -1.288 -11.237   3.153  1.00  0.00     0.131 A 
ATOM     65  C   UNL     1       0.528 -12.287   1.354  1.00  0.00     0.055 A 
ATOM     66  C   UNL     1      -1.684 -12.263   2.293  1.00  0.00     0.041 A 
ATOM     67  F   UNL     1      -2.216 -10.728   3.980  1.00  0.00    -0.206 F 
ATOM     68  C   UNL     1      -0.776 -12.787   1.379  1.00  0.00     0.022 A 
BRANCH  65  69
ATOM     69  S   UNL     1       1.681 -12.826   0.061  1.00  0.00     0.124 S 
ATOM     70  O   UNL     1       1.927 -11.575  -0.654  1.00  0.00    -0.237 OA
ATOM     71  O   UNL     1       2.797 -13.354   0.830  1.00  0.00    -0.237 OA
ATOM     72  O   UNL     1       0.912 -13.820  -0.689  1.00  0.00    -0.744 OA
ENDBRANCH  65  69
ENDBRANCH  48  62
BRANCH  49  73
ATOM     73  C   UNL     1       2.068  -3.223   9.395  1.00  0.00     0.023 A 
ATOM     74  C   UNL     1       3.081  -3.302  10.366  1.00  0.00     0.031 A 
ATOM     75  C   UNL     1       1.220  -2.102   9.422  1.00  0.00     0.131 A 
ATOM     76  C   UNL     1       3.173  -2.321  11.366  1.00  0.00     0.055 A 
ATOM     77  C   UNL     1       1.358  -1.094  10.379  1.00  0.00     0.041 A 
ATOM     78  F   UNL     1       0.233  -1.974   8.521  1.00  0.00    -0.206 F 
ATOM     79  C   UNL     1       2.326  -1.211  11.371  1.00  0.00     0.022 A 
BRANCH  76  80
ATOM     80  S   UNL     1       4.328  -2.585  12.741  1.00  0.00     0.124 S 
ATOM     81  O   UNL     1       3.914  -3.896  13.229  1.00  0.00    -0.237 OA
ATOM     82  O   UNL     1       5.620  -2.531  12.064  1.00  0.00    -0.237 OA
ATOM     83  O   UNL     1       4.049  -1.467  13.639  1.00  0.00    -0.744 OA
ENDBRANCH  76  80
ENDBRANCH  49  73
BRANCH  61  84
ATOM     84  C   UNL     1       0.429  -9.921  10.352  1.00  0.00     0.023 A 
ATOM     85  C   UNL     1      -0.573  -9.653  11.303  1.00  0.00     0.031 A 
ATOM     86  C   UNL     1       1.324 -10.972  10.620  1.00  0.00     0.131 A 
ATOM     87  C   UNL     1      -0.608 -10.373  12.508  1.00  0.00     0.055 A 
ATOM     88  C   UNL     1       1.242 -11.730  11.790  1.00  0.00     0.041 A 
ATOM     89  F   UNL     1       2.302 -11.276   9.752  1.00  0.00    -0.206 F 
ATOM     90  C   UNL     1       0.284 -11.420  12.750  1.00  0.00     0.022 A 
BRANCH  87  91
ATOM     91  S   UNL     1      -1.757  -9.841  13.807  1.00  0.00     0.124 S 
ATOM     92  O   UNL     1      -1.395  -8.438  13.979  1.00  0.00    -0.237 OA
ATOM     93  O   UNL     1      -3.058 -10.092  13.194  1.00  0.00    -0.237 OA
ATOM     94  O   UNL     1      -1.426 -10.710  14.935  1.00  0.00    -0.744 OA
ENDBRANCH  87  91
ENDBRANCH  61  84
ENDBRANCH  35  36
ENDBRANCH  27  30
ENDBRANCH  25  26
ENDBRANCH  24  25
ENDBRANCH  23  24
ENDBRANCH   3  23
TORSDOF 20
