REMARK SMILES O=C(CCC(=O)O[C@@H]1N=C(c2ccccc2)c2cc(Br)ccc2NC1=O)NCCCNC(=O)c1ccc(-c2c3nc(c(-c4cc(S(=O)(=O)[O-])ccc4F)c4ccc([nH]4)c(-c4cc(S(=O)(=O)[O-])ccc4F)c4nc(c(-c5cc(S(=O)(=O)[O-])ccc5F)c5ccc2[nH]5)C=C4)C=C3)cc1
REMARK SMILES IDX 1 1 2 2 27 3 3 5 4 6 5 7 6 8 7 9 8 10 9 12 10 13 11 14 12 15
REMARK SMILES IDX 16 16 13 17 15 18 14 19 17 20 18 21 23 22 19 23 22 24 20 25
REMARK SMILES IDX 21 26 24 27 25 28 26 30 28 32 29 33 30 34 31 35 32 36 33 38
REMARK SMILES IDX 34 39 35 40 96 41 36 42 95 43 37 44 38 45 39 46 89 47 40 48
REMARK SMILES IDX 94 49 88 50 90 51 41 52 93 53 87 54 86 55 42 57 74 58 54 59
REMARK SMILES IDX 73 60 55 61 58 62 72 63 91 64 56 65 57 66 71 68 92 69 59 70
REMARK SMILES IDX 43 71 44 72 52 73 45 74 51 75 53 76 50 77 46 78 47 79 48 80
REMARK SMILES IDX 49 81 75 82 76 83 84 84 77 85 83 86 85 87 82 88 78 89 79 90
REMARK SMILES IDX 80 91 81 92 60 93 61 94 69 95 62 96 68 97 70 98 67 99 63 100
REMARK SMILES IDX 64 101 65 102 66 103
REMARK H PARENT 27 4 24 29 31 37 90 56 58 67
REMARK Flexibility Score: 90.00
ROOT
ATOM      1  O   UNL     1       1.103  -0.448   0.547  1.00  0.00    -0.275 OA
ATOM      2  C   UNL     1       2.202  -0.026   0.204  1.00  0.00     0.220 C 
ATOM      3  N   UNL     1       2.629   0.047  -1.102  1.00  0.00    -0.356 N 
ATOM      4  H   UNL     1       3.470   0.517  -1.304  1.00  0.00     0.163 HD
ENDROOT
BRANCH   2   5
ATOM      5  C   UNL     1       3.257   0.382   1.211  1.00  0.00     0.111 C 
BRANCH   5   6
ATOM      6  C   UNL     1       3.976  -0.855   1.734  1.00  0.00     0.132 C 
BRANCH   6   7
ATOM      7  C   UNL     1       5.163  -1.235   0.879  1.00  0.00     0.308 C 
ATOM      8  O   UNL     1       6.315  -1.238   1.292  1.00  0.00    -0.252 OA
BRANCH   7   9
ATOM      9  O   UNL     1       4.750  -1.578  -0.367  1.00  0.00    -0.430 OA
BRANCH   9  10
ATOM     10  C   UNL     1       5.757  -1.926  -1.331  1.00  0.00     0.385 CG0
ATOM     11  G   UNL     1       6.672  -0.721  -1.659  1.00  0.00     0.000 G0
BRANCH  10  12
ATOM     12  N   UNL     1       6.500  -3.138  -1.025  1.00  0.00    -0.232 NA
ATOM     13  C   UNL     1       7.226  -3.711  -1.916  1.00  0.00     0.079 C 
BRANCH  13  14
ATOM     14  C   UNL     1       7.880  -4.981  -1.495  1.00  0.00     0.001 A 
ATOM     15  C   UNL     1       7.086  -6.019  -1.000  1.00  0.00     0.010 A 
ATOM     16  C   UNL     1       9.269  -5.116  -1.566  1.00  0.00     0.010 A 
ATOM     17  C   UNL     1       7.685  -7.210  -0.592  1.00  0.00     0.001 A 
ATOM     18  C   UNL     1       9.863  -6.306  -1.145  1.00  0.00     0.001 A 
ATOM     19  C   UNL     1       9.072  -7.351  -0.663  1.00  0.00     0.000 A 
ENDBRANCH  13  14
BRANCH  13  20
ATOM     20  C   UNL     1       7.488  -3.223  -3.299  1.00  0.00     0.025 A 
ATOM     21  C   UNL     1       7.582  -4.177  -4.329  1.00  0.00     0.028 A 
ATOM     22  C   UNL     1       7.782  -1.881  -3.569  1.00  0.00     0.050 A 
ATOM     23  C   UNL     1       8.022  -3.802  -5.596  1.00  0.00     0.018 A 
ATOM     24  C   UNL     1       8.293  -1.536  -4.831  1.00  0.00     0.028 A 
ATOM     25  Br  UNL     1       8.123  -5.090  -6.974  1.00  0.00    -0.051 Br
ATOM     26  C   UNL     1       8.403  -2.489  -5.845  1.00  0.00     0.018 A 
BRANCH  22  27
ATOM     27  N   UNL     1       7.577  -0.813  -2.683  1.00  0.00    -0.320 N 
ATOM     28  C   UNL     1       6.672  -0.721  -1.659  1.00  0.00     0.289 CG0
ATOM     29  H   UNL     1       8.158  -0.029  -2.814  1.00  0.00     0.170 HD
ATOM     30  O   UNL     1       6.486   0.399  -1.166  1.00  0.00    -0.268 OA
ATOM     31  G   UNL     1       5.757  -1.926  -1.331  1.00  0.00     0.000 G0
ENDBRANCH  22  27
ENDBRANCH  13  20
ENDBRANCH  10  12
ENDBRANCH   9  10
ENDBRANCH   7   9
ENDBRANCH   6   7
ENDBRANCH   5   6
ENDBRANCH   2   5
BRANCH   3  32
ATOM     32  C   UNL     1       1.876  -0.547  -2.186  1.00  0.00     0.117 C 
BRANCH  32  33
ATOM     33  C   UNL     1       2.066   0.179  -3.509  1.00  0.00     0.042 C 
BRANCH  33  34
ATOM     34  C   UNL     1       3.489   0.166  -4.054  1.00  0.00     0.118 C 
BRANCH  34  35
ATOM     35  N   UNL     1       3.949  -1.149  -4.480  1.00  0.00    -0.352 N 
ATOM     36  C   UNL     1       4.691  -1.491  -5.589  1.00  0.00     0.251 C 
ATOM     37  H   UNL     1       3.693  -1.898  -3.894  1.00  0.00     0.163 HD
ATOM     38  O   UNL     1       4.919  -2.674  -5.823  1.00  0.00    -0.269 OA
BRANCH  36  39
ATOM     39  C   UNL     1       5.138  -0.437  -6.530  1.00  0.00     0.039 A 
ATOM     40  C   UNL     1       5.673   0.770  -6.071  1.00  0.00     0.014 A 
ATOM     41  C   UNL     1       4.902  -0.627  -7.894  1.00  0.00     0.014 A 
ATOM     42  C   UNL     1       5.753   1.857  -6.937  1.00  0.00     0.010 A 
ATOM     43  C   UNL     1       5.055   0.444  -8.775  1.00  0.00     0.010 A 
ATOM     44  C   UNL     1       5.397   1.715  -8.286  1.00  0.00    -0.014 A 
BRANCH  44  45
ATOM     45  C   UNL     1       5.283   2.911  -9.159  1.00  0.00     0.031 A 
ATOM     46  C   UNL     1       3.930   3.340  -9.666  1.00  0.00     0.074 A 
ATOM     47  C   UNL     1       6.379   3.630  -9.461  1.00  0.00     0.049 A 
ATOM     48  N   UNL     1       3.624   4.314 -10.482  1.00  0.00    -0.248 NA
ATOM     49  C   UNL     1       2.764   2.572  -9.194  1.00  0.00     0.031 C 
ATOM     50  C   UNL     1       7.728   3.333  -8.984  1.00  0.00     0.029 A 
ATOM     51  N   UNL     1       6.535   4.754 -10.233  1.00  0.00    -0.354 N 
ATOM     52  C   UNL     1       2.243   4.264 -10.639  1.00  0.00     0.074 A 
ATOM     53  C   UNL     1       1.770   3.144  -9.858  1.00  0.00     0.031 C 
ATOM     54  C   UNL     1       8.572   4.262  -9.456  1.00  0.00     0.029 A 
ATOM     55  C   UNL     1       7.839   5.179 -10.328  1.00  0.00     0.049 A 
ATOM     56  H   UNL     1       5.784   5.213 -10.677  1.00  0.00     0.167 HD
ATOM     57  C   UNL     1       1.444   5.087 -11.360  1.00  0.00     0.034 A 
ATOM     58  C   UNL     1       8.390   6.173 -11.056  1.00  0.00     0.034 A 
ATOM     59  C   UNL     1       1.934   6.212 -12.113  1.00  0.00     0.049 A 
ATOM     60  C   UNL     1       7.490   7.041 -11.897  1.00  0.00     0.074 A 
ATOM     61  C   UNL     1       1.207   7.118 -12.863  1.00  0.00     0.029 A 
ATOM     62  N   UNL     1       3.266   6.592 -12.207  1.00  0.00    -0.354 N 
ATOM     63  N   UNL     1       6.184   6.991 -12.023  1.00  0.00    -0.248 NA
ATOM     64  C   UNL     1       8.126   8.099 -12.694  1.00  0.00     0.031 C 
ATOM     65  C   UNL     1       2.101   8.005 -13.462  1.00  0.00     0.029 A 
ATOM     66  C   UNL     1       3.382   7.704 -13.024  1.00  0.00     0.049 A 
ATOM     67  H   UNL     1       4.016   6.139 -11.759  1.00  0.00     0.167 HD
ATOM     68  C   UNL     1       5.840   8.024 -12.889  1.00  0.00     0.074 A 
ATOM     69  C   UNL     1       7.074   8.694 -13.245  1.00  0.00     0.031 C 
ATOM     70  C   UNL     1       4.615   8.381 -13.350  1.00  0.00     0.034 A 
BRANCH  57  71
ATOM     71  C   UNL     1      -0.043   4.828 -11.382  1.00  0.00     0.023 A 
ATOM     72  C   UNL     1      -0.682   4.516 -12.597  1.00  0.00     0.031 A 
ATOM     73  C   UNL     1      -0.842   5.025 -10.242  1.00  0.00     0.131 A 
ATOM     74  C   UNL     1      -2.080   4.448 -12.653  1.00  0.00     0.055 A 
ATOM     75  C   UNL     1      -2.233   4.915 -10.294  1.00  0.00     0.041 A 
ATOM     76  F   UNL     1      -0.281   5.323  -9.059  1.00  0.00    -0.206 F 
ATOM     77  C   UNL     1      -2.859   4.640 -11.507  1.00  0.00     0.022 A 
BRANCH  74  78
ATOM     78  S   UNL     1      -2.945   4.178 -14.224  1.00  0.00     0.124 S 
ATOM     79  O   UNL     1      -3.694   2.954 -13.947  1.00  0.00    -0.237 OA
ATOM     80  O   UNL     1      -3.751   5.389 -14.342  1.00  0.00    -0.237 OA
ATOM     81  O   UNL     1      -1.868   4.038 -15.198  1.00  0.00    -0.744 OA
ENDBRANCH  74  78
ENDBRANCH  57  71
BRANCH  58  82
ATOM     82  C   UNL     1       9.864   6.393 -10.975  1.00  0.00     0.023 A 
ATOM     83  C   UNL     1      10.765   5.377 -11.345  1.00  0.00     0.031 A 
ATOM     84  C   UNL     1      10.389   7.564 -10.406  1.00  0.00     0.131 A 
ATOM     85  C   UNL     1      12.129   5.513 -11.058  1.00  0.00     0.055 A 
ATOM     86  C   UNL     1      11.760   7.730 -10.196  1.00  0.00     0.041 A 
ATOM     87  F   UNL     1       9.571   8.558 -10.026  1.00  0.00    -0.206 F 
ATOM     88  C   UNL     1      12.635   6.691 -10.502  1.00  0.00     0.022 A 
BRANCH  85  89
ATOM     89  S   UNL     1      13.261   4.107 -11.245  1.00  0.00     0.124 S 
ATOM     90  O   UNL     1      14.222   4.616 -12.217  1.00  0.00    -0.237 OA
ATOM     91  O   UNL     1      13.763   3.946  -9.883  1.00  0.00    -0.237 OA
ATOM     92  O   UNL     1      12.396   3.029 -11.715  1.00  0.00    -0.744 OA
ENDBRANCH  85  89
ENDBRANCH  58  82
BRANCH  70  93
ATOM     93  C   UNL     1       4.501   9.564 -14.280  1.00  0.00     0.023 A 
ATOM     94  C   UNL     1       3.760  10.694 -13.883  1.00  0.00     0.031 A 
ATOM     95  C   UNL     1       4.951   9.495 -15.609  1.00  0.00     0.131 A 
ATOM     96  C   UNL     1       3.439  11.681 -14.821  1.00  0.00     0.055 A 
ATOM     97  C   UNL     1       4.672  10.507 -16.528  1.00  0.00     0.041 A 
ATOM     98  F   UNL     1       5.651   8.432 -16.037  1.00  0.00    -0.206 F 
ATOM     99  C   UNL     1       3.897  11.598 -16.140  1.00  0.00     0.022 A 
BRANCH  96 100
ATOM    100  S   UNL     1       2.332  13.054 -14.393  1.00  0.00     0.124 S 
ATOM    101  O   UNL     1       3.173  14.217 -14.667  1.00  0.00    -0.237 OA
ATOM    102  O   UNL     1       1.223  12.853 -15.320  1.00  0.00    -0.237 OA
ATOM    103  O   UNL     1       2.023  12.831 -12.985  1.00  0.00    -0.744 OA
ENDBRANCH  96 100
ENDBRANCH  70  93
ENDBRANCH  44  45
ENDBRANCH  36  39
ENDBRANCH  34  35
ENDBRANCH  33  34
ENDBRANCH  32  33
ENDBRANCH   3  32
TORSDOF 18
