REMARK SMILES C[C@H](O)[C@@H](NC(=O)c1ccc(Cl)c(S(C)(=O)=O)c1)C(=O)NCCCNC(=O)c1ccc(-c2c3nc(c(-c4cc(S(=O)(=O)[O-])ccc4F)c4ccc([nH]4)c(-c4cc(S(=O)(=O)[O-])ccc4F)c4nc(c(-c5cc(S(=O)(=O)[O-])ccc5F)c5ccc2[nH]5)C=C4)C=C3)cc1
REMARK SMILES IDX 23 1 22 2 21 3 19 4 20 5 4 7 2 8 1 9 3 10 5 12 6 13 7 15
REMARK SMILES IDX 8 16 9 17 18 18 10 19 13 20 11 21 12 22 14 23 15 24 16 25
REMARK SMILES IDX 17 26 24 27 25 28 26 29 27 31 28 32 29 33 90 34 30 35 89 36
REMARK SMILES IDX 31 37 32 38 33 39 83 40 34 41 88 42 82 43 84 44 35 45 87 46
REMARK SMILES IDX 81 47 80 48 36 50 68 51 48 52 67 53 49 54 52 55 66 56 85 57
REMARK SMILES IDX 50 58 51 59 65 61 86 62 53 63 37 64 38 65 46 66 39 67 45 68
REMARK SMILES IDX 47 69 44 70 40 71 41 72 42 73 43 74 69 75 70 76 78 77 71 78
REMARK SMILES IDX 77 79 79 80 76 81 72 82 73 83 74 84 75 85 54 86 55 87 63 88
REMARK SMILES IDX 56 89 62 90 64 91 61 92 57 93 58 94 59 95 60 96
REMARK H PARENT 21 6 3 11 5 14 25 30 84 49 52 60
REMARK Flexibility Score: inf
ROOT
ATOM      1  C   UNL     1       1.229   2.512  -4.067  1.00  0.00     0.042 C 
ENDROOT
BRANCH   1   2
ATOM      2  C   UNL     1      -0.084   2.184  -3.380  1.00  0.00     0.117 C 
BRANCH   2   3
ATOM      3  N   UNL     1      -0.602   0.899  -3.812  1.00  0.00    -0.354 N 
ATOM      4  C   UNL     1      -1.122  -0.121  -3.080  1.00  0.00     0.245 C 
ATOM      5  O   UNL     1      -1.424  -1.161  -3.674  1.00  0.00    -0.273 OA
ATOM      6  H   UNL     1      -0.573   0.742  -4.784  1.00  0.00     0.163 HD
BRANCH   4   7
ATOM      7  C   UNL     1      -1.222  -0.049  -1.549  1.00  0.00     0.200 C 
BRANCH   7   8
ATOM      8  C   UNL     1       0.190  -0.283  -0.941  1.00  0.00     0.143 C 
ATOM      9  C   UNL     1       0.908  -1.521  -1.472  1.00  0.00     0.041 C 
BRANCH   8  10
ATOM     10  O   UNL     1       0.060  -0.404   0.485  1.00  0.00    -0.391 OA
ATOM     11  H   UNL     1      -0.486  -1.178   0.696  1.00  0.00     0.211 HD
ENDBRANCH   8  10
ENDBRANCH   7   8
BRANCH   7  12
ATOM     12  N   UNL     1      -1.797   1.201  -1.000  1.00  0.00    -0.338 N 
ATOM     13  C   UNL     1      -2.944   1.884  -1.314  1.00  0.00     0.252 C 
ATOM     14  H   UNL     1      -1.262   1.614  -0.284  1.00  0.00     0.164 HD
ATOM     15  O   UNL     1      -3.350   2.792  -0.595  1.00  0.00    -0.269 OA
BRANCH  13  16
ATOM     16  C   UNL     1      -3.621   1.657  -2.606  1.00  0.00     0.041 A 
ATOM     17  C   UNL     1      -4.164   0.428  -2.960  1.00  0.00     0.015 A 
ATOM     18  C   UNL     1      -3.639   2.718  -3.518  1.00  0.00     0.035 A 
ATOM     19  C   UNL     1      -4.643   0.243  -4.261  1.00  0.00     0.023 A 
ATOM     20  C   UNL     1      -4.112   2.528  -4.830  1.00  0.00     0.086 A 
ATOM     21  C   UNL     1      -4.601   1.279  -5.211  1.00  0.00     0.059 A 
ATOM     22  Cl  UNL     1      -5.151   0.860  -6.788  1.00  0.00    -0.083 Cl
BRANCH  20  23
ATOM     23  S   UNL     1      -3.816   3.879  -5.946  1.00  0.00     0.177 S 
ATOM     24  C   UNL     1      -4.811   5.211  -5.333  1.00  0.00     0.164 C 
ATOM     25  O   UNL     1      -2.422   4.221  -5.718  1.00  0.00    -0.224 OA
ATOM     26  O   UNL     1      -4.297   3.563  -7.269  1.00  0.00    -0.224 OA
ENDBRANCH  20  23
ENDBRANCH  13  16
ENDBRANCH   7  12
ENDBRANCH   4   7
ENDBRANCH   2   3
ENDBRANCH   1   2
BRANCH   1  27
ATOM     27  C   UNL     1       1.071   2.815  -5.550  1.00  0.00     0.118 C 
BRANCH  27  28
ATOM     28  N   UNL     1       0.309   4.028  -5.809  1.00  0.00    -0.352 N 
ATOM     29  C   UNL     1       0.600   5.073  -6.652  1.00  0.00     0.251 C 
ATOM     30  H   UNL     1      -0.535   4.111  -5.308  1.00  0.00     0.163 HD
ATOM     31  O   UNL     1      -0.047   6.114  -6.618  1.00  0.00    -0.269 OA
BRANCH  29  32
ATOM     32  C   UNL     1       1.731   4.934  -7.585  1.00  0.00     0.039 A 
ATOM     33  C   UNL     1       2.630   5.992  -7.712  1.00  0.00     0.014 A 
ATOM     34  C   UNL     1       1.927   3.737  -8.281  1.00  0.00     0.014 A 
ATOM     35  C   UNL     1       3.787   5.810  -8.462  1.00  0.00     0.010 A 
ATOM     36  C   UNL     1       3.126   3.524  -8.943  1.00  0.00     0.010 A 
ATOM     37  C   UNL     1       4.069   4.557  -9.030  1.00  0.00    -0.014 A 
BRANCH  37  38
ATOM     38  C   UNL     1       5.365   4.302  -9.695  1.00  0.00     0.031 A 
ATOM     39  C   UNL     1       5.400   3.962 -11.156  1.00  0.00     0.074 A 
ATOM     40  C   UNL     1       6.488   4.313  -8.951  1.00  0.00     0.049 A 
ATOM     41  N   UNL     1       6.425   3.657 -11.907  1.00  0.00    -0.248 NA
ATOM     42  C   UNL     1       4.107   3.920 -11.856  1.00  0.00     0.031 C 
ATOM     43  C   UNL     1       6.543   4.562  -7.506  1.00  0.00     0.029 A 
ATOM     44  N   UNL     1       7.797   4.109  -9.298  1.00  0.00    -0.354 N 
ATOM     45  C   UNL     1       5.900   3.374 -13.162  1.00  0.00     0.074 A 
ATOM     46  C   UNL     1       4.461   3.477 -13.051  1.00  0.00     0.031 C 
ATOM     47  C   UNL     1       7.822   4.535  -7.102  1.00  0.00     0.029 A 
ATOM     48  C   UNL     1       8.674   4.227  -8.244  1.00  0.00     0.049 A 
ATOM     49  H   UNL     1       8.085   3.899 -10.216  1.00  0.00     0.167 HD
ATOM     50  C   UNL     1       6.564   3.083 -14.307  1.00  0.00     0.034 A 
ATOM     51  C   UNL     1      10.014   4.099  -8.209  1.00  0.00     0.034 A 
ATOM     52  C   UNL     1       8.002   3.006 -14.387  1.00  0.00     0.049 A 
ATOM     53  C   UNL     1      10.731   3.799  -9.499  1.00  0.00     0.074 A 
ATOM     54  C   UNL     1       8.795   2.773 -15.495  1.00  0.00     0.029 A 
ATOM     55  N   UNL     1       8.863   3.161 -13.306  1.00  0.00    -0.354 N 
ATOM     56  N   UNL     1      10.226   3.595 -10.694  1.00  0.00    -0.248 NA
ATOM     57  C   UNL     1      12.195   3.727  -9.440  1.00  0.00     0.031 C 
ATOM     58  C   UNL     1      10.130   2.733 -15.076  1.00  0.00     0.029 A 
ATOM     59  C   UNL     1      10.177   3.007 -13.717  1.00  0.00     0.049 A 
ATOM     60  H   UNL     1       8.579   3.352 -12.383  1.00  0.00     0.167 HD
ATOM     61  C   UNL     1      11.314   3.395 -11.536  1.00  0.00     0.074 A 
ATOM     62  C   UNL     1      12.501   3.522 -10.712  1.00  0.00     0.031 C 
ATOM     63  C   UNL     1      11.337   3.130 -12.867  1.00  0.00     0.034 A 
BRANCH  50  64
ATOM     64  C   UNL     1       5.734   2.811 -15.538  1.00  0.00     0.023 A 
ATOM     65  C   UNL     1       4.895   3.795 -16.094  1.00  0.00     0.031 A 
ATOM     66  C   UNL     1       5.742   1.540 -16.138  1.00  0.00     0.131 A 
ATOM     67  C   UNL     1       4.041   3.469 -17.158  1.00  0.00     0.055 A 
ATOM     68  C   UNL     1       4.949   1.246 -17.249  1.00  0.00     0.041 A 
ATOM     69  F   UNL     1       6.505   0.554 -15.640  1.00  0.00    -0.206 F 
ATOM     70  C   UNL     1       4.080   2.208 -17.756  1.00  0.00     0.022 A 
BRANCH  67  71
ATOM     71  S   UNL     1       2.779   4.673 -17.656  1.00  0.00     0.124 S 
ATOM     72  O   UNL     1       2.000   4.807 -16.427  1.00  0.00    -0.237 OA
ATOM     73  O   UNL     1       3.579   5.832 -18.034  1.00  0.00    -0.237 OA
ATOM     74  O   UNL     1       2.085   4.007 -18.757  1.00  0.00    -0.744 OA
ENDBRANCH  67  71
ENDBRANCH  50  64
BRANCH  51  75
ATOM     75  C   UNL     1      10.758   4.260  -6.928  1.00  0.00     0.023 A 
ATOM     76  C   UNL     1      11.656   5.322  -6.742  1.00  0.00     0.031 A 
ATOM     77  C   UNL     1      10.599   3.339  -5.877  1.00  0.00     0.131 A 
ATOM     78  C   UNL     1      12.397   5.413  -5.552  1.00  0.00     0.055 A 
ATOM     79  C   UNL     1      11.302   3.461  -4.676  1.00  0.00     0.041 A 
ATOM     80  F   UNL     1       9.742   2.312  -5.997  1.00  0.00    -0.206 F 
ATOM     81  C   UNL     1      12.218   4.496  -4.514  1.00  0.00     0.022 A 
BRANCH  78  82
ATOM     82  S   UNL     1      13.661   6.706  -5.412  1.00  0.00     0.124 S 
ATOM     83  O   UNL     1      14.497   6.434  -6.575  1.00  0.00    -0.237 OA
ATOM     84  O   UNL     1      12.856   7.922  -5.470  1.00  0.00    -0.237 OA
ATOM     85  O   UNL     1      14.283   6.434  -4.118  1.00  0.00    -0.744 OA
ENDBRANCH  78  82
ENDBRANCH  51  75
BRANCH  63  86
ATOM     86  C   UNL     1      12.696   3.000 -13.504  1.00  0.00     0.023 A 
ATOM     87  C   UNL     1      13.542   1.917 -13.214  1.00  0.00     0.031 A 
ATOM     88  C   UNL     1      13.151   3.981 -14.402  1.00  0.00     0.131 A 
ATOM     89  C   UNL     1      14.826   1.869 -13.774  1.00  0.00     0.055 A 
ATOM     90  C   UNL     1      14.408   3.898 -15.000  1.00  0.00     0.041 A 
ATOM     91  F   UNL     1      12.379   5.036 -14.710  1.00  0.00    -0.206 F 
ATOM     92  C   UNL     1      15.258   2.844 -14.677  1.00  0.00     0.022 A 
BRANCH  89  93
ATOM     93  S   UNL     1      15.958   0.558 -13.238  1.00  0.00     0.124 S 
ATOM     94  O   UNL     1      16.047   0.802 -11.802  1.00  0.00    -0.237 OA
ATOM     95  O   UNL     1      15.246  -0.652 -13.635  1.00  0.00    -0.237 OA
ATOM     96  O   UNL     1      17.181   0.832 -13.991  1.00  0.00    -0.744 OA
ENDBRANCH  89  93
ENDBRANCH  63  86
ENDBRANCH  37  38
ENDBRANCH  29  32
ENDBRANCH  27  28
ENDBRANCH   1  27
TORSDOF 18
