REMARK SMILES COc1cccc([C@H]2CC(c3ccc(S(C)(=O)=O)cc3)=NN2c2ccc(C(=O)NCCCNC(=O)c3ccc(-c4c5nc(c(-c6cc(S(=O)(=O)[O-])ccc6F)c6ccc([nH]6)c(-c6cc(S(=O)(=O)[O-])ccc6F)c6nc(c(-c7cc(S(=O)(=O)[O-])ccc7F)c7ccc4[nH]7)C=C6)C=C5)cc3)cc2)c1
REMARK SMILES IDX 31 1 30 2 29 3 27 4 28 5 26 7 23 8 24 9 100 10 25 11 99 12
REMARK SMILES IDX 22 13 8 14 9 15 10 16 21 17 7 18 3 19 4 20 101 21 5 22 6 23
REMARK SMILES IDX 2 24 1 25 11 26 12 27 20 28 13 29 19 30 14 31 15 32 16 33
REMARK SMILES IDX 17 34 18 35 32 36 33 37 34 38 35 40 36 41 37 42 98 43 38 44
REMARK SMILES IDX 97 45 39 46 40 47 41 48 91 49 42 50 96 51 90 52 92 53 43 54
REMARK SMILES IDX 95 55 89 56 88 57 44 59 76 60 56 61 75 62 57 63 60 64 74 65
REMARK SMILES IDX 93 66 58 67 59 68 73 70 94 71 61 72 45 73 46 74 54 75 47 76
REMARK SMILES IDX 53 77 55 78 52 79 48 80 49 81 50 82 51 83 77 84 78 85 86 86
REMARK SMILES IDX 79 87 85 88 87 89 84 90 80 91 81 92 82 93 83 94 62 95 63 96
REMARK SMILES IDX 71 97 64 98 70 99 72 100 69 101 65 102 66 103 67 104 68 105
REMARK H PARENT 29 6 33 39 92 58 60 69
REMARK Flexibility Score: inf
ROOT
ATOM      1  C   UNL     1       5.041   8.587  -5.422  1.00  0.00     0.042 C 
ENDROOT
BRANCH   1   2
ATOM      2  C   UNL     1       3.803   7.695  -5.342  1.00  0.00     0.118 C 
BRANCH   2   3
ATOM      3  N   UNL     1       4.001   6.464  -6.083  1.00  0.00    -0.352 N 
ATOM      4  C   UNL     1       4.329   5.192  -5.694  1.00  0.00     0.251 C 
ATOM      5  O   UNL     1       4.384   4.329  -6.571  1.00  0.00    -0.269 OA
ATOM      6  H   UNL     1       3.876   6.561  -7.055  1.00  0.00     0.163 HD
BRANCH   4   7
ATOM      7  C   UNL     1       4.554   4.798  -4.275  1.00  0.00     0.039 A 
ATOM      8  C   UNL     1       4.828   3.883  -1.613  1.00  0.00     0.060 A 
ATOM      9  C   UNL     1       4.455   3.007  -2.636  1.00  0.00     0.029 A 
ATOM     10  C   UNL     1       5.125   5.204  -1.949  1.00  0.00     0.029 A 
ATOM     11  C   UNL     1       4.298   3.461  -3.947  1.00  0.00     0.016 A 
ATOM     12  C   UNL     1       5.028   5.648  -3.273  1.00  0.00     0.016 A 
BRANCH   8  13
ATOM     13  N   UNL     1       4.894   3.431  -0.308  1.00  0.00    -0.257 N 
ATOM     14  C   UNL     1       4.090   3.954   0.793  1.00  0.00     0.144 C 
ATOM     15  C   UNL     1       4.619   3.159   1.997  1.00  0.00     0.091 C 
ATOM     16  C   UNL     1       5.741   2.407   1.336  1.00  0.00     0.071 C 
ATOM     17  N   UNL     1       5.863   2.562   0.057  1.00  0.00    -0.176 NA
BRANCH  14  18
ATOM     18  C   UNL     1       2.606   3.748   0.531  1.00  0.00    -0.019 A 
ATOM     19  C   UNL     1       0.734   2.290  -0.047  1.00  0.00     0.119 A 
ATOM     20  C   UNL     1      -0.098   3.407  -0.128  1.00  0.00     0.046 A 
ATOM     21  C   UNL     1       2.081   2.465   0.274  1.00  0.00     0.052 A 
ATOM     22  C   UNL     1       0.401   4.683   0.132  1.00  0.00     0.004 A 
ATOM     23  C   UNL     1       1.745   4.854   0.462  1.00  0.00     0.006 A 
BRANCH  19  24
ATOM     24  O   UNL     1       0.128   1.099  -0.338  1.00  0.00    -0.497 OA
ATOM     25  C   UNL     1       0.830  -0.078   0.042  1.00  0.00     0.278 C 
ENDBRANCH  19  24
ENDBRANCH  14  18
BRANCH  16  26
ATOM     26  C   UNL     1       6.664   1.568   2.104  1.00  0.00    -0.002 A 
ATOM     27  C   UNL     1       8.034   1.827   2.001  1.00  0.00     0.011 A 
ATOM     28  C   UNL     1       6.187   0.495   2.860  1.00  0.00     0.011 A 
ATOM     29  C   UNL     1       8.945   1.009   2.666  1.00  0.00     0.021 A 
ATOM     30  C   UNL     1       7.099  -0.343   3.504  1.00  0.00     0.021 A 
ATOM     31  C   UNL     1       8.472  -0.086   3.396  1.00  0.00     0.067 A 
BRANCH  31  32
ATOM     32  S   UNL     1       9.643  -1.167   4.184  1.00  0.00     0.175 S 
ATOM     33  C   UNL     1      10.636  -1.781   2.847  1.00  0.00     0.163 C 
ATOM     34  O   UNL     1      10.472  -0.338   5.035  1.00  0.00    -0.224 OA
ATOM     35  O   UNL     1       8.903  -2.291   4.728  1.00  0.00    -0.224 OA
ENDBRANCH  31  32
ENDBRANCH  16  26
ENDBRANCH   8  13
ENDBRANCH   4   7
ENDBRANCH   2   3
ENDBRANCH   1   2
BRANCH   1  36
ATOM     36  C   UNL     1       5.210   9.258  -6.783  1.00  0.00     0.118 C 
BRANCH  36  37
ATOM     37  N   UNL     1       4.190  10.270  -7.014  1.00  0.00    -0.352 N 
ATOM     38  C   UNL     1       4.324  11.608  -7.286  1.00  0.00     0.251 C 
ATOM     39  H   UNL     1       3.262   9.944  -6.968  1.00  0.00     0.163 HD
ATOM     40  O   UNL     1       3.339  12.336  -7.194  1.00  0.00    -0.269 OA
BRANCH  38  41
ATOM     41  C   UNL     1       5.636  12.173  -7.673  1.00  0.00     0.039 A 
ATOM     42  C   UNL     1       6.000  13.429  -7.178  1.00  0.00     0.014 A 
ATOM     43  C   UNL     1       6.485  11.499  -8.556  1.00  0.00     0.014 A 
ATOM     44  C   UNL     1       7.232  13.986  -7.530  1.00  0.00     0.010 A 
ATOM     45  C   UNL     1       7.740  12.025  -8.854  1.00  0.00     0.010 A 
ATOM     46  C   UNL     1       8.125  13.277  -8.350  1.00  0.00    -0.014 A 
BRANCH  46  47
ATOM     47  C   UNL     1       9.457  13.833  -8.702  1.00  0.00     0.031 A 
ATOM     48  C   UNL     1       9.779  14.170 -10.133  1.00  0.00     0.074 A 
ATOM     49  C   UNL     1      10.394  13.975  -7.744  1.00  0.00     0.049 A 
ATOM     50  N   UNL     1      10.908  14.574 -10.656  1.00  0.00    -0.248 NA
ATOM     51  C   UNL     1       8.691  14.002 -11.108  1.00  0.00     0.031 C 
ATOM     52  C   UNL     1      10.208  13.652  -6.327  1.00  0.00     0.029 A 
ATOM     53  N   UNL     1      11.693  14.414  -7.815  1.00  0.00    -0.354 N 
ATOM     54  C   UNL     1      10.673  14.693 -12.022  1.00  0.00     0.074 A 
ATOM     55  C   UNL     1       9.309  14.264 -12.249  1.00  0.00     0.031 C 
ATOM     56  C   UNL     1      11.344  13.920  -5.663  1.00  0.00     0.029 A 
ATOM     57  C   UNL     1      12.353  14.387  -6.608  1.00  0.00     0.049 A 
ATOM     58  H   UNL     1      12.112  14.719  -8.652  1.00  0.00     0.167 HD
ATOM     59  C   UNL     1      11.512  15.137 -12.992  1.00  0.00     0.034 A 
ATOM     60  C   UNL     1      13.630  14.688  -6.301  1.00  0.00     0.034 A 
ATOM     61  C   UNL     1      12.865  15.572 -12.743  1.00  0.00     0.049 A 
ATOM     62  C   UNL     1      14.550  15.157  -7.399  1.00  0.00     0.074 A 
ATOM     63  C   UNL     1      13.785  16.087 -13.640  1.00  0.00     0.029 A 
ATOM     64  N   UNL     1      13.498  15.537 -11.506  1.00  0.00    -0.354 N 
ATOM     65  N   UNL     1      14.300  15.304  -8.680  1.00  0.00    -0.248 NA
ATOM     66  C   UNL     1      15.920  15.512  -7.008  1.00  0.00     0.031 C 
ATOM     67  C   UNL     1      14.990  16.302 -12.961  1.00  0.00     0.029 A 
ATOM     68  C   UNL     1      14.802  15.994 -11.623  1.00  0.00     0.049 A 
ATOM     69  H   UNL     1      13.081  15.232 -10.668  1.00  0.00     0.167 HD
ATOM     70  C   UNL     1      15.475  15.800  -9.241  1.00  0.00     0.074 A 
ATOM     71  C   UNL     1      16.425  15.938  -8.157  1.00  0.00     0.031 C 
ATOM     72  C   UNL     1      15.742  16.117 -10.533  1.00  0.00     0.034 A 
BRANCH  59  73
ATOM     73  C   UNL     1      10.991  15.146 -14.410  1.00  0.00     0.023 A 
ATOM     74  C   UNL     1       9.897  15.943 -14.792  1.00  0.00     0.031 A 
ATOM     75  C   UNL     1      11.579  14.327 -15.390  1.00  0.00     0.131 A 
ATOM     76  C   UNL     1       9.377  15.846 -16.091  1.00  0.00     0.055 A 
ATOM     77  C   UNL     1      11.109  14.297 -16.705  1.00  0.00     0.041 A 
ATOM     78  F   UNL     1      12.614  13.529 -15.084  1.00  0.00    -0.206 F 
ATOM     79  C   UNL     1       9.992  15.047 -17.058  1.00  0.00     0.022 A 
BRANCH  76  80
ATOM     80  S   UNL     1       7.802  16.666 -16.457  1.00  0.00     0.124 S 
ATOM     81  O   UNL     1       6.908  16.032 -15.490  1.00  0.00    -0.237 OA
ATOM     82  O   UNL     1       8.113  18.070 -16.214  1.00  0.00    -0.237 OA
ATOM     83  O   UNL     1       7.548  16.315 -17.853  1.00  0.00    -0.744 OA
ENDBRANCH  76  80
ENDBRANCH  59  73
BRANCH  60  84
ATOM     84  C   UNL     1      14.124  14.545  -4.902  1.00  0.00     0.023 A 
ATOM     85  C   UNL     1      14.539  15.665  -4.164  1.00  0.00     0.031 A 
ATOM     86  C   UNL     1      14.225  13.280  -4.295  1.00  0.00     0.131 A 
ATOM     87  C   UNL     1      15.080  15.495  -2.880  1.00  0.00     0.055 A 
ATOM     88  C   UNL     1      14.714  13.122  -2.997  1.00  0.00     0.041 A 
ATOM     89  F   UNL     1      13.835  12.177  -4.953  1.00  0.00    -0.206 F 
ATOM     90  C   UNL     1      15.158  14.233  -2.287  1.00  0.00     0.022 A 
BRANCH  87  91
ATOM     91  S   UNL     1      15.758  16.944  -2.026  1.00  0.00     0.124 S 
ATOM     92  O   UNL     1      16.766  17.404  -2.975  1.00  0.00    -0.237 OA
ATOM     93  O   UNL     1      14.578  17.790  -1.883  1.00  0.00    -0.237 OA
ATOM     94  O   UNL     1      16.281  16.390  -0.779  1.00  0.00    -0.744 OA
ENDBRANCH  87  91
ENDBRANCH  60  84
BRANCH  72  95
ATOM     95  C   UNL     1      17.105  16.693 -10.829  1.00  0.00     0.023 A 
ATOM     96  C   UNL     1      18.276  15.927 -10.705  1.00  0.00     0.031 A 
ATOM     97  C   UNL     1      17.230  18.035 -11.231  1.00  0.00     0.131 A 
ATOM     98  C   UNL     1      19.527  16.523 -10.928  1.00  0.00     0.055 A 
ATOM     99  C   UNL     1      18.472  18.606 -11.509  1.00  0.00     0.041 A 
ATOM    100  F   UNL     1      16.144  18.813 -11.363  1.00  0.00    -0.206 F 
ATOM    101  C   UNL     1      19.631  17.852 -11.345  1.00  0.00     0.022 A 
BRANCH  98 102
ATOM    102  S   UNL     1      21.025  15.562 -10.579  1.00  0.00     0.124 S 
ATOM    103  O   UNL     1      20.857  15.239  -9.166  1.00  0.00    -0.237 OA
ATOM    104  O   UNL     1      20.901  14.442 -11.507  1.00  0.00    -0.237 OA
ATOM    105  O   UNL     1      22.110  16.496 -10.877  1.00  0.00    -0.744 OA
ENDBRANCH  98 102
ENDBRANCH  72  95
ENDBRANCH  46  47
ENDBRANCH  38  41
ENDBRANCH  36  37
ENDBRANCH   1  36
TORSDOF 18
