REMARK SMILES Cc1c(Br)cc(C(=O)NCCCNC(=O)c2ccc(-c3c4nc(c(-c5cc(S(=O)(=O)[O-])ccc5F)c5ccc([nH]5)c(-c5cc(S(=O)(=O)[O-])ccc5F)c5nc(c(-c6cc(S(=O)(=O)[O-])ccc6F)c6ccc3[nH]6)C=C5)C=C4)cc2)c(C)c1C
REMARK SMILES IDX 13 1 14 2 15 3 12 5 11 6 10 7 9 8 7 9 8 10 6 12 1 13 2 14
REMARK SMILES IDX 3 15 81 16 4 17 5 18 79 19 82 20 80 21 16 22 17 23 78 24
REMARK SMILES IDX 18 25 77 26 19 27 20 28 21 29 71 30 22 31 76 32 70 33 72 34
REMARK SMILES IDX 23 35 75 36 69 37 68 38 24 40 56 41 36 42 55 43 37 44 40 45
REMARK SMILES IDX 54 46 73 47 38 48 39 49 53 51 74 52 41 53 25 54 26 55 34 56
REMARK SMILES IDX 27 57 33 58 35 59 32 60 28 61 29 62 30 63 31 64 57 65 58 66
REMARK SMILES IDX 66 67 59 68 65 69 67 70 64 71 60 72 61 73 62 74 63 75 42 76
REMARK SMILES IDX 43 77 51 78 44 79 50 80 52 81 49 82 45 83 46 84 47 85 48 86
REMARK H PARENT 13 4 9 11 72 39 40 50
REMARK Flexibility Score: inf
ROOT
ATOM      1  N   UNL     1       1.567   9.644   0.051  1.00  0.00    -0.352 N 
ATOM      2  C   UNL     1       2.287  10.552  -0.685  1.00  0.00     0.251 C 
ATOM      3  O   UNL     1       3.387  10.923  -0.294  1.00  0.00    -0.269 OA
ATOM      4  H   UNL     1       1.872   9.510   0.978  1.00  0.00     0.163 HD
ENDROOT
BRANCH   1   5
ATOM      5  C   UNL     1       0.412   8.853  -0.352  1.00  0.00     0.118 C 
BRANCH   5   6
ATOM      6  C   UNL     1       0.728   7.370  -0.301  1.00  0.00     0.042 C 
BRANCH   6   7
ATOM      7  C   UNL     1       0.892   6.839   1.122  1.00  0.00     0.118 C 
BRANCH   7   8
ATOM      8  N   UNL     1      -0.301   6.157   1.556  1.00  0.00    -0.352 N 
ATOM      9  C   UNL     1      -0.778   4.881   1.601  1.00  0.00     0.251 C 
ATOM     10  O   UNL     1      -1.899   4.830   2.131  1.00  0.00    -0.269 OA
ATOM     11  H   UNL     1      -0.958   6.792   1.923  1.00  0.00     0.163 HD
BRANCH   9  12
ATOM     12  C   UNL     1      -0.151   3.573   1.157  1.00  0.00     0.044 A 
ATOM     13  C   UNL     1       0.823  -0.607   0.204  1.00  0.00     0.046 C 
ATOM     14  C   UNL     1       0.495   0.823   0.552  1.00  0.00    -0.034 A 
ATOM     15  C   UNL     1      -0.522   1.143   1.452  1.00  0.00     0.021 A 
ATOM     16  C   UNL     1       1.191   1.890  -0.075  1.00  0.00    -0.043 A 
ATOM     17  Br  UNL     1      -1.609  -0.164   2.313  1.00  0.00    -0.051 Br
ATOM     18  C   UNL     1      -0.816   2.475   1.748  1.00  0.00     0.030 A 
ATOM     19  C   UNL     1       0.870   3.267   0.221  1.00  0.00    -0.035 A 
ATOM     20  C   UNL     1       2.264   1.583  -1.108  1.00  0.00     0.045 C 
ATOM     21  C   UNL     1       1.640   4.318  -0.520  1.00  0.00     0.045 C 
ENDBRANCH   9  12
ENDBRANCH   7   8
ENDBRANCH   6   7
ENDBRANCH   5   6
ENDBRANCH   1   5
BRANCH   2  22
ATOM     22  C   UNL     1       1.721  11.072  -1.946  1.00  0.00     0.039 A 
ATOM     23  C   UNL     1       2.549  11.210  -3.064  1.00  0.00     0.014 A 
ATOM     24  C   UNL     1       0.372  11.433  -2.011  1.00  0.00     0.014 A 
ATOM     25  C   UNL     1       2.010  11.675  -4.263  1.00  0.00     0.010 A 
ATOM     26  C   UNL     1      -0.179  11.819  -3.223  1.00  0.00     0.010 A 
ATOM     27  C   UNL     1       0.640  11.968  -4.350  1.00  0.00    -0.014 A 
BRANCH  27  28
ATOM     28  C   UNL     1       0.034  12.503  -5.588  1.00  0.00     0.031 A 
ATOM     29  C   UNL     1      -0.503  13.904  -5.587  1.00  0.00     0.074 A 
ATOM     30  C   UNL     1      -0.113  11.708  -6.662  1.00  0.00     0.049 A 
ATOM     31  N   UNL     1      -1.186  14.524  -6.510  1.00  0.00    -0.248 NA
ATOM     32  C   UNL     1      -0.265  14.704  -4.372  1.00  0.00     0.031 C 
ATOM     33  C   UNL     1       0.338  10.319  -6.747  1.00  0.00     0.029 A 
ATOM     34  N   UNL     1      -0.710  11.944  -7.875  1.00  0.00    -0.354 N 
ATOM     35  C   UNL     1      -1.461  15.782  -5.988  1.00  0.00     0.074 A 
ATOM     36  C   UNL     1      -0.934  15.814  -4.643  1.00  0.00     0.031 C 
ATOM     37  C   UNL     1      -0.001   9.824  -7.948  1.00  0.00     0.029 A 
ATOM     38  C   UNL     1      -0.728  10.846  -8.700  1.00  0.00     0.049 A 
ATOM     39  H   UNL     1      -1.088  12.817  -8.129  1.00  0.00     0.167 HD
ATOM     40  C   UNL     1      -2.069  16.826  -6.593  1.00  0.00     0.034 A 
ATOM     41  C   UNL     1      -1.284  10.675  -9.917  1.00  0.00     0.034 A 
ATOM     42  C   UNL     1      -2.573  16.779  -7.938  1.00  0.00     0.049 A 
ATOM     43  C   UNL     1      -1.977  11.842 -10.570  1.00  0.00     0.074 A 
ATOM     44  C   UNL     1      -3.168  17.795  -8.662  1.00  0.00     0.029 A 
ATOM     45  N   UNL     1      -2.539  15.662  -8.761  1.00  0.00    -0.354 N 
ATOM     46  N   UNL     1      -2.164  13.053 -10.097  1.00  0.00    -0.248 NA
ATOM     47  C   UNL     1      -2.524  11.635 -11.917  1.00  0.00     0.031 C 
ATOM     48  C   UNL     1      -3.538  17.280  -9.904  1.00  0.00     0.029 A 
ATOM     49  C   UNL     1      -3.121  15.960  -9.980  1.00  0.00     0.049 A 
ATOM     50  H   UNL     1      -2.158  14.789  -8.514  1.00  0.00     0.167 HD
ATOM     51  C   UNL     1      -2.833  13.757 -11.093  1.00  0.00     0.074 A 
ATOM     52  C   UNL     1      -3.004  12.841 -12.203  1.00  0.00     0.031 C 
ATOM     53  C   UNL     1      -3.265  15.042 -11.085  1.00  0.00     0.034 A 
BRANCH  40  54
ATOM     54  C   UNL     1      -2.190  18.120  -5.834  1.00  0.00     0.023 A 
ATOM     55  C   UNL     1      -3.458  18.636  -5.513  1.00  0.00     0.031 A 
ATOM     56  C   UNL     1      -1.055  18.892  -5.527  1.00  0.00     0.131 A 
ATOM     57  C   UNL     1      -3.560  19.906  -4.931  1.00  0.00     0.055 A 
ATOM     58  C   UNL     1      -1.161  20.138  -4.911  1.00  0.00     0.041 A 
ATOM     59  F   UNL     1       0.176  18.435  -5.809  1.00  0.00    -0.206 F 
ATOM     60  C   UNL     1      -2.420  20.655  -4.622  1.00  0.00     0.022 A 
BRANCH  57  61
ATOM     61  S   UNL     1      -5.177  20.651  -4.591  1.00  0.00     0.124 S 
ATOM     62  O   UNL     1      -5.067  20.976  -3.171  1.00  0.00    -0.237 OA
ATOM     63  O   UNL     1      -5.179  21.797  -5.495  1.00  0.00    -0.237 OA
ATOM     64  O   UNL     1      -6.126  19.590  -4.910  1.00  0.00    -0.744 OA
ENDBRANCH  57  61
ENDBRANCH  40  54
BRANCH  41  65
ATOM     65  C   UNL     1      -1.143   9.352 -10.586  1.00  0.00     0.023 A 
ATOM     66  C   UNL     1      -1.740   8.202 -10.037  1.00  0.00     0.031 A 
ATOM     67  C   UNL     1      -0.291   9.195 -11.690  1.00  0.00     0.131 A 
ATOM     68  C   UNL     1      -1.414   6.939 -10.548  1.00  0.00     0.055 A 
ATOM     69  C   UNL     1      -0.019   7.940 -12.236  1.00  0.00     0.041 A 
ATOM     70  F   UNL     1       0.310  10.264 -12.236  1.00  0.00    -0.206 F 
ATOM     71  C   UNL     1      -0.569   6.801 -11.653  1.00  0.00     0.022 A 
BRANCH  68  72
ATOM     72  S   UNL     1      -1.984   5.428  -9.720  1.00  0.00     0.124 S 
ATOM     73  O   UNL     1      -2.580   4.679 -10.821  1.00  0.00    -0.237 OA
ATOM     74  O   UNL     1      -0.730   4.891  -9.197  1.00  0.00    -0.237 OA
ATOM     75  O   UNL     1      -2.919   5.919  -8.713  1.00  0.00    -0.744 OA
ENDBRANCH  68  72
ENDBRANCH  41  65
BRANCH  53  76
ATOM     76  C   UNL     1      -3.971  15.580 -12.303  1.00  0.00     0.023 A 
ATOM     77  C   UNL     1      -3.390  16.632 -13.037  1.00  0.00     0.031 A 
ATOM     78  C   UNL     1      -5.290  15.202 -12.602  1.00  0.00     0.131 A 
ATOM     79  C   UNL     1      -4.151  17.313 -13.994  1.00  0.00     0.055 A 
ATOM     80  C   UNL     1      -6.028  15.854 -13.590  1.00  0.00     0.041 A 
ATOM     81  F   UNL     1      -5.885  14.211 -11.920  1.00  0.00    -0.206 F 
ATOM     82  C   UNL     1      -5.465  16.927 -14.278  1.00  0.00     0.022 A 
BRANCH  79  83
ATOM     83  S   UNL     1      -3.493  18.776 -14.841  1.00  0.00     0.124 S 
ATOM     84  O   UNL     1      -3.703  18.435 -16.246  1.00  0.00    -0.237 OA
ATOM     85  O   UNL     1      -4.347  19.839 -14.321  1.00  0.00    -0.237 OA
ATOM     86  O   UNL     1      -2.096  18.826 -14.420  1.00  0.00    -0.744 OA
ENDBRANCH  79  83
ENDBRANCH  53  76
ENDBRANCH  27  28
ENDBRANCH   2  22
TORSDOF 13
