REMARK SMILES CC[C@](C)(NC(=O)Cc1cccc(F)c1)C(=O)NCCCNC(=O)c1ccc(-c2c3nc(c(-c4cc(S(=O)(=O)[O-])ccc4F)c4ccc([nH]4)c(-c4cc(S(=O)(=O)[O-])ccc4F)c4nc(c(-c5cc(S(=O)(=O)[O-])ccc5F)c5ccc2[nH]5)C=C4)C=C3)cc1
REMARK SMILES IDX 20 1 19 2 18 3 16 4 17 5 3 7 4 8 2 9 1 10 5 11 6 12 7 14
REMARK SMILES IDX 8 15 9 16 10 17 15 18 11 19 13 20 12 21 14 22 21 23 22 24
REMARK SMILES IDX 23 25 24 27 25 28 26 29 87 30 27 31 86 32 28 33 29 34 30 35
REMARK SMILES IDX 80 36 31 37 85 38 79 39 81 40 32 41 84 42 78 43 77 44 33 46
REMARK SMILES IDX 65 47 45 48 64 49 46 50 49 51 63 52 82 53 47 54 48 55 62 57
REMARK SMILES IDX 83 58 50 59 34 60 35 61 43 62 36 63 42 64 44 65 41 66 37 67
REMARK SMILES IDX 38 68 39 69 40 70 66 71 67 72 75 73 68 74 74 75 76 76 73 77
REMARK SMILES IDX 69 78 70 79 71 80 72 81 51 82 52 83 60 84 53 85 59 86 61 87
REMARK SMILES IDX 58 88 54 89 55 90 56 91 57 92
REMARK H PARENT 18 6 5 13 22 26 81 45 49 56
REMARK Flexibility Score: inf
ROOT
ATOM      1  C   UNL     1       2.846   4.950   3.893  1.00  0.00     0.042 C 
ENDROOT
BRANCH   1   2
ATOM      2  C   UNL     1       2.374   4.732   2.459  1.00  0.00     0.117 C 
BRANCH   2   3
ATOM      3  N   UNL     1       2.967   3.588   1.782  1.00  0.00    -0.354 N 
ATOM      4  C   UNL     1       2.469   2.369   1.420  1.00  0.00     0.245 C 
ATOM      5  O   UNL     1       3.168   1.712   0.641  1.00  0.00    -0.272 OA
ATOM      6  H   UNL     1       3.912   3.719   1.537  1.00  0.00     0.163 HD
BRANCH   4   7
ATOM      7  C   UNL     1       1.043   1.891   1.823  1.00  0.00     0.116 C 
ATOM      8  C   UNL     1       0.844   0.390   1.534  1.00  0.00     0.045 C 
BRANCH   7   9
ATOM      9  C   UNL     1       0.006   2.683   0.962  1.00  0.00     0.035 C 
ATOM     10  C   UNL     1       0.063   2.432  -0.545  1.00  0.00     0.007 C 
ENDBRANCH   7   9
BRANCH   7  11
ATOM     11  N   UNL     1       0.744   2.140   3.257  1.00  0.00    -0.342 N 
ATOM     12  C   UNL     1       1.325   1.651   4.394  1.00  0.00     0.225 C 
ATOM     13  H   UNL     1      -0.000   2.765   3.416  1.00  0.00     0.164 HD
ATOM     14  O   UNL     1       0.608   1.588   5.397  1.00  0.00    -0.275 OA
BRANCH  12  15
ATOM     15  C   UNL     1       2.806   1.319   4.483  1.00  0.00     0.135 C 
BRANCH  15  16
ATOM     16  C   UNL     1       3.227  -0.027   3.964  1.00  0.00    -0.036 A 
ATOM     17  C   UNL     1       4.264  -0.117   3.019  1.00  0.00     0.004 A 
ATOM     18  C   UNL     1       2.612  -1.205   4.406  1.00  0.00     0.043 A 
ATOM     19  C   UNL     1       4.626  -1.347   2.468  1.00  0.00     0.003 A 
ATOM     20  C   UNL     1       2.987  -2.427   3.854  1.00  0.00     0.123 A 
ATOM     21  C   UNL     1       3.978  -2.506   2.881  1.00  0.00     0.039 A 
ATOM     22  F   UNL     1       2.368  -3.547   4.251  1.00  0.00    -0.207 F 
ENDBRANCH  15  16
ENDBRANCH  12  15
ENDBRANCH   7  11
ENDBRANCH   4   7
ENDBRANCH   2   3
ENDBRANCH   1   2
BRANCH   1  23
ATOM     23  C   UNL     1       4.356   4.921   4.096  1.00  0.00     0.118 C 
BRANCH  23  24
ATOM     24  N   UNL     1       5.032   6.026   3.442  1.00  0.00    -0.352 N 
ATOM     25  C   UNL     1       5.677   7.115   3.977  1.00  0.00     0.251 C 
ATOM     26  H   UNL     1       5.026   5.990   2.458  1.00  0.00     0.163 HD
ATOM     27  O   UNL     1       6.003   8.034   3.230  1.00  0.00    -0.269 OA
BRANCH  25  28
ATOM     28  C   UNL     1       5.959   7.203   5.430  1.00  0.00     0.039 A 
ATOM     29  C   UNL     1       5.776   8.432   6.071  1.00  0.00     0.014 A 
ATOM     30  C   UNL     1       6.449   6.111   6.153  1.00  0.00     0.014 A 
ATOM     31  C   UNL     1       6.029   8.550   7.441  1.00  0.00     0.010 A 
ATOM     32  C   UNL     1       6.635   6.212   7.533  1.00  0.00     0.010 A 
ATOM     33  C   UNL     1       6.432   7.434   8.192  1.00  0.00    -0.014 A 
BRANCH  33  34
ATOM     34  C   UNL     1       6.658   7.538   9.658  1.00  0.00     0.031 A 
ATOM     35  C   UNL     1       8.037   7.341  10.230  1.00  0.00     0.074 A 
ATOM     36  C   UNL     1       5.618   7.782  10.481  1.00  0.00     0.049 A 
ATOM     37  N   UNL     1       8.418   7.329  11.482  1.00  0.00    -0.248 NA
ATOM     38  C   UNL     1       9.127   7.108   9.270  1.00  0.00     0.031 C 
ATOM     39  C   UNL     1       4.231   7.974  10.055  1.00  0.00     0.029 A 
ATOM     40  N   UNL     1       5.565   7.912  11.847  1.00  0.00    -0.354 N 
ATOM     41  C   UNL     1       9.785   7.076  11.462  1.00  0.00     0.074 A 
ATOM     42  C   UNL     1      10.158   6.896  10.075  1.00  0.00     0.031 C 
ATOM     43  C   UNL     1       3.471   8.230  11.132  1.00  0.00     0.029 A 
ATOM     44  C   UNL     1       4.304   8.177  12.329  1.00  0.00     0.049 A 
ATOM     45  H   UNL     1       6.356   7.824  12.427  1.00  0.00     0.167 HD
ATOM     46  C   UNL     1      10.652   7.019  12.502  1.00  0.00     0.034 A 
ATOM     47  C   UNL     1       3.863   8.348  13.592  1.00  0.00     0.034 A 
ATOM     48  C   UNL     1      10.280   7.225  13.878  1.00  0.00     0.049 A 
ATOM     49  C   UNL     1       4.840   8.252  14.732  1.00  0.00     0.074 A 
ATOM     50  C   UNL     1      11.095   7.235  14.997  1.00  0.00     0.029 A 
ATOM     51  N   UNL     1       8.987   7.460  14.326  1.00  0.00    -0.354 N 
ATOM     52  N   UNL     1       6.129   8.010  14.693  1.00  0.00    -0.248 NA
ATOM     53  C   UNL     1       4.305   8.449  16.087  1.00  0.00     0.031 C 
ATOM     54  C   UNL     1      10.290   7.422  16.125  1.00  0.00     0.029 A 
ATOM     55  C   UNL     1       8.980   7.591  15.705  1.00  0.00     0.049 A 
ATOM     56  H   UNL     1       8.193   7.524  13.748  1.00  0.00     0.167 HD
ATOM     57  C   UNL     1       6.562   8.044  16.014  1.00  0.00     0.074 A 
ATOM     58  C   UNL     1       5.399   8.332  16.828  1.00  0.00     0.031 C 
ATOM     59  C   UNL     1       7.812   7.861  16.507  1.00  0.00     0.034 A 
BRANCH  46  60
ATOM     60  C   UNL     1      12.093   6.705  12.192  1.00  0.00     0.023 A 
ATOM     61  C   UNL     1      12.910   7.614  11.500  1.00  0.00     0.031 A 
ATOM     62  C   UNL     1      12.661   5.490  12.614  1.00  0.00     0.131 A 
ATOM     63  C   UNL     1      14.240   7.274  11.209  1.00  0.00     0.055 A 
ATOM     64  C   UNL     1      14.002   5.185  12.377  1.00  0.00     0.041 A 
ATOM     65  F   UNL     1      11.919   4.579  13.265  1.00  0.00    -0.206 F 
ATOM     66  C   UNL     1      14.798   6.076  11.663  1.00  0.00     0.022 A 
BRANCH  63  67
ATOM     67  S   UNL     1      15.211   8.386  10.157  1.00  0.00     0.124 S 
ATOM     68  O   UNL     1      14.499   8.285   8.886  1.00  0.00    -0.237 OA
ATOM     69  O   UNL     1      15.098   9.663  10.853  1.00  0.00    -0.237 OA
ATOM     70  O   UNL     1      16.545   7.789  10.167  1.00  0.00    -0.744 OA
ENDBRANCH  63  67
ENDBRANCH  46  60
BRANCH  47  71
ATOM     71  C   UNL     1       2.421   8.616  13.843  1.00  0.00     0.023 A 
ATOM     72  C   UNL     1       1.987   9.879  14.273  1.00  0.00     0.031 A 
ATOM     73  C   UNL     1       1.457   7.612  13.647  1.00  0.00     0.131 A 
ATOM     74  C   UNL     1       0.622  10.102  14.511  1.00  0.00     0.055 A 
ATOM     75  C   UNL     1       0.097   7.848  13.852  1.00  0.00     0.041 A 
ATOM     76  F   UNL     1       1.826   6.392  13.226  1.00  0.00    -0.206 F 
ATOM     77  C   UNL     1      -0.327   9.099  14.292  1.00  0.00     0.022 A 
BRANCH  74  78
ATOM     78  S   UNL     1       0.098  11.724  15.131  1.00  0.00     0.124 S 
ATOM     79  O   UNL     1       0.720  11.753  16.449  1.00  0.00    -0.237 OA
ATOM     80  O   UNL     1       0.661  12.629  14.134  1.00  0.00    -0.237 OA
ATOM     81  O   UNL     1      -1.361  11.633  15.129  1.00  0.00    -0.744 OA
ENDBRANCH  74  78
ENDBRANCH  47  71
BRANCH  59  82
ATOM     82  C   UNL     1       7.999   7.993  17.994  1.00  0.00     0.023 A 
ATOM     83  C   UNL     1       7.553   7.000  18.881  1.00  0.00     0.031 A 
ATOM     84  C   UNL     1       8.677   9.106  18.521  1.00  0.00     0.131 A 
ATOM     85  C   UNL     1       7.772   7.151  20.259  1.00  0.00     0.055 A 
ATOM     86  C   UNL     1       8.929   9.230  19.888  1.00  0.00     0.041 A 
ATOM     87  F   UNL     1       9.125  10.079  17.712  1.00  0.00    -0.206 F 
ATOM     88  C   UNL     1       8.472   8.250  20.765  1.00  0.00     0.022 A 
BRANCH  85  89
ATOM     89  S   UNL     1       7.113   5.897  21.392  1.00  0.00     0.124 S 
ATOM     90  O   UNL     1       5.673   6.077  21.237  1.00  0.00    -0.237 OA
ATOM     91  O   UNL     1       7.662   4.659  20.849  1.00  0.00    -0.237 OA
ATOM     92  O   UNL     1       7.652   6.293  22.692  1.00  0.00    -0.744 OA
ENDBRANCH  85  89
ENDBRANCH  59  82
ENDBRANCH  33  34
ENDBRANCH  25  28
ENDBRANCH  23  24
ENDBRANCH   1  23
TORSDOF 17
