REMARK SMILES O=C(CCCCc1nc(C[C@H]2CCCO2)no1)NCCCNC(=O)c1ccc(-c2c3nc(c(-c4cc(S(=O)(=O)[O-])ccc4F)c4ccc([nH]4)c(-c4cc(S(=O)(=O)[O-])ccc4F)c4nc(c(-c5cc(S(=O)(=O)[O-])ccc5F)c5ccc2[nH]5)C=C4)C=C3)cc1
REMARK SMILES IDX 1 1 2 2 18 3 3 5 4 6 5 7 6 8 7 9 8 10 17 11 9 12 16 13 10 14
REMARK SMILES IDX 11 15 12 16 15 17 13 18 14 19 19 20 20 21 21 22 22 23 23 24
REMARK SMILES IDX 24 26 25 27 26 28 87 29 27 30 86 31 28 32 29 33 30 34 80 35
REMARK SMILES IDX 31 36 85 37 79 38 81 39 32 40 84 41 78 42 77 43 33 45 65 46
REMARK SMILES IDX 45 47 64 48 46 49 49 50 63 51 82 52 47 53 48 54 62 56 83 57
REMARK SMILES IDX 50 58 34 59 35 60 43 61 36 62 42 63 44 64 41 65 37 66 38 67
REMARK SMILES IDX 39 68 40 69 66 70 67 71 75 72 68 73 74 74 76 75 73 76 69 77
REMARK SMILES IDX 70 78 71 79 72 80 51 81 52 82 60 83 53 84 59 85 61 86 58 87
REMARK SMILES IDX 54 88 55 89 56 90 57 91
REMARK H PARENT 18 4 22 25 81 44 49 55
REMARK Flexibility Score: inf
ROOT
ATOM      1  O   UNL     1      11.676  -8.140   1.083  1.00  0.00    -0.275 OA
ATOM      2  C   UNL     1      11.297  -8.483  -0.033  1.00  0.00     0.219 C 
ATOM      3  N   UNL     1      11.622  -9.681  -0.621  1.00  0.00    -0.356 N 
ATOM      4  H   UNL     1      11.221  -9.900  -1.493  1.00  0.00     0.163 HD
ENDROOT
BRANCH   2   5
ATOM      5  C   UNL     1      10.438  -7.589  -0.904  1.00  0.00     0.100 C 
BRANCH   5   6
ATOM      6  C   UNL     1      11.262  -6.837  -1.952  1.00  0.00     0.010 C 
BRANCH   6   7
ATOM      7  C   UNL     1      11.759  -7.660  -3.152  1.00  0.00     0.010 C 
BRANCH   7   8
ATOM      8  C   UNL     1      10.678  -8.393  -3.953  1.00  0.00     0.100 C 
BRANCH   8   9
ATOM      9  C   UNL     1       9.695  -7.465  -4.551  1.00  0.00     0.226 A 
ATOM     10  N   UNL     1       8.521  -7.085  -4.101  1.00  0.00    -0.196 NA
ATOM     11  O   UNL     1      10.037  -6.891  -5.740  1.00  0.00    -0.339 OA
ATOM     12  C   UNL     1       8.099  -6.237  -5.093  1.00  0.00     0.174 A 
ATOM     13  N   UNL     1       8.965  -6.078  -6.104  1.00  0.00    -0.062 NA
BRANCH  12  14
ATOM     14  C   UNL     1       6.772  -5.582  -5.076  1.00  0.00     0.113 C 
BRANCH  14  15
ATOM     15  C   UNL     1       6.798  -4.143  -4.547  1.00  0.00     0.126 C 
ATOM     16  C   UNL     1       7.534  -3.137  -5.424  1.00  0.00     0.035 C 
ATOM     17  O   UNL     1       5.433  -3.664  -4.497  1.00  0.00    -0.378 OA
ATOM     18  C   UNL     1       6.475  -2.731  -6.416  1.00  0.00     0.031 C 
ATOM     19  C   UNL     1       5.233  -2.711  -5.553  1.00  0.00     0.160 C 
ENDBRANCH  14  15
ENDBRANCH  12  14
ENDBRANCH   8   9
ENDBRANCH   7   8
ENDBRANCH   6   7
ENDBRANCH   5   6
ENDBRANCH   2   5
BRANCH   3  20
ATOM     20  C   UNL     1      12.528 -10.635  -0.017  1.00  0.00     0.117 C 
BRANCH  20  21
ATOM     21  C   UNL     1      12.070 -12.075  -0.216  1.00  0.00     0.042 C 
BRANCH  21  22
ATOM     22  C   UNL     1      11.968 -12.530  -1.670  1.00  0.00     0.118 C 
BRANCH  22  23
ATOM     23  N   UNL     1      13.243 -12.536  -2.367  1.00  0.00    -0.352 N 
ATOM     24  C   UNL     1      13.823 -13.520  -3.132  1.00  0.00     0.251 C 
ATOM     25  H   UNL     1      13.772 -11.710  -2.278  1.00  0.00     0.163 HD
ATOM     26  O   UNL     1      14.982 -13.363  -3.519  1.00  0.00    -0.269 OA
BRANCH  24  27
ATOM     27  C   UNL     1      13.093 -14.767  -3.463  1.00  0.00     0.039 A 
ATOM     28  C   UNL     1      13.792 -15.977  -3.429  1.00  0.00     0.014 A 
ATOM     29  C   UNL     1      11.743 -14.761  -3.827  1.00  0.00     0.014 A 
ATOM     30  C   UNL     1      13.127 -17.177  -3.698  1.00  0.00     0.010 A 
ATOM     31  C   UNL     1      11.063 -15.966  -4.017  1.00  0.00     0.010 A 
ATOM     32  C   UNL     1      11.747 -17.190  -3.959  1.00  0.00    -0.014 A 
BRANCH  32  33
ATOM     33  C   UNL     1      11.025 -18.478  -4.160  1.00  0.00     0.031 A 
ATOM     34  C   UNL     1      10.360 -18.793  -5.474  1.00  0.00     0.074 A 
ATOM     35  C   UNL     1      10.949 -19.361  -3.142  1.00  0.00     0.049 A 
ATOM     36  N   UNL     1       9.703 -19.868  -5.833  1.00  0.00    -0.248 NA
ATOM     37  C   UNL     1      10.418 -17.754  -6.512  1.00  0.00     0.031 C 
ATOM     38  C   UNL     1      11.503 -19.152  -1.802  1.00  0.00     0.029 A 
ATOM     39  N   UNL     1      10.383 -20.610  -3.073  1.00  0.00    -0.354 N 
ATOM     40  C   UNL     1       9.269 -19.635  -7.134  1.00  0.00     0.074 A 
ATOM     41  C   UNL     1       9.677 -18.288  -7.472  1.00  0.00     0.031 C 
ATOM     42  C   UNL     1      11.289 -20.250  -1.061  1.00  0.00     0.029 A 
ATOM     43  C   UNL     1      10.545 -21.225  -1.852  1.00  0.00     0.049 A 
ATOM     44  H   UNL     1       9.906 -21.027  -3.826  1.00  0.00     0.167 HD
ATOM     45  C   UNL     1       8.615 -20.474  -7.978  1.00  0.00     0.034 A 
ATOM     46  C   UNL     1      10.141 -22.435  -1.415  1.00  0.00     0.034 A 
ATOM     47  C   UNL     1       8.216 -21.817  -7.628  1.00  0.00     0.049 A 
ATOM     48  C   UNL     1       9.404 -23.343  -2.367  1.00  0.00     0.074 A 
ATOM     49  C   UNL     1       7.594 -22.766  -8.422  1.00  0.00     0.029 A 
ATOM     50  N   UNL     1       8.389 -22.403  -6.380  1.00  0.00    -0.354 N 
ATOM     51  N   UNL     1       9.058 -23.129  -3.616  1.00  0.00    -0.248 NA
ATOM     52  C   UNL     1       9.021 -24.664  -1.853  1.00  0.00     0.031 C 
ATOM     53  C   UNL     1       7.324 -23.892  -7.636  1.00  0.00     0.029 A 
ATOM     54  C   UNL     1       7.857 -23.685  -6.374  1.00  0.00     0.049 A 
ATOM     55  H   UNL     1       8.826 -21.971  -5.611  1.00  0.00     0.167 HD
ATOM     56  C   UNL     1       8.445 -24.304  -4.045  1.00  0.00     0.074 A 
ATOM     57  C   UNL     1       8.495 -25.227  -2.930  1.00  0.00     0.031 C 
ATOM     58  C   UNL     1       7.893 -24.595  -5.252  1.00  0.00     0.034 A 
BRANCH  45  59
ATOM     59  C   UNL     1       8.271 -19.948  -9.354  1.00  0.00     0.023 A 
ATOM     60  C   UNL     1       9.268 -19.553 -10.265  1.00  0.00     0.031 A 
ATOM     61  C   UNL     1       6.930 -19.823  -9.758  1.00  0.00     0.131 A 
ATOM     62  C   UNL     1       8.909 -18.981 -11.495  1.00  0.00     0.055 A 
ATOM     63  C   UNL     1       6.581 -19.334 -11.019  1.00  0.00     0.041 A 
ATOM     64  F   UNL     1       5.931 -20.163  -8.928  1.00  0.00    -0.206 F 
ATOM     65  C   UNL     1       7.573 -18.894 -11.890  1.00  0.00     0.022 A 
BRANCH  62  66
ATOM     66  S   UNL     1      10.206 -18.213 -12.504  1.00  0.00     0.124 S 
ATOM     67  O   UNL     1      10.744 -17.214 -11.582  1.00  0.00    -0.237 OA
ATOM     68  O   UNL     1      11.081 -19.340 -12.806  1.00  0.00    -0.237 OA
ATOM     69  O   UNL     1       9.475 -17.666 -13.645  1.00  0.00    -0.744 OA
ENDBRANCH  62  66
ENDBRANCH  45  59
BRANCH  46  70
ATOM     70  C   UNL     1      10.422 -22.868  -0.015  1.00  0.00     0.023 A 
ATOM     71  C   UNL     1      11.240 -23.977   0.252  1.00  0.00     0.031 A 
ATOM     72  C   UNL     1       9.833 -22.207   1.078  1.00  0.00     0.131 A 
ATOM     73  C   UNL     1      11.405 -24.426   1.572  1.00  0.00     0.055 A 
ATOM     74  C   UNL     1      10.048 -22.620   2.394  1.00  0.00     0.041 A 
ATOM     75  F   UNL     1       9.045 -21.138   0.881  1.00  0.00    -0.206 F 
ATOM     76  C   UNL     1      10.826 -23.746   2.646  1.00  0.00     0.022 A 
BRANCH  73  77
ATOM     77  S   UNL     1      12.310 -25.972   1.858  1.00  0.00     0.124 S 
ATOM     78  O   UNL     1      11.540 -26.919   1.061  1.00  0.00    -0.237 OA
ATOM     79  O   UNL     1      13.639 -25.641   1.356  1.00  0.00    -0.237 OA
ATOM     80  O   UNL     1      12.221 -26.154   3.305  1.00  0.00    -0.744 OA
ENDBRANCH  73  77
ENDBRANCH  46  70
BRANCH  58  81
ATOM     81  C   UNL     1       7.338 -25.990  -5.432  1.00  0.00     0.023 A 
ATOM     82  C   UNL     1       6.255 -26.461  -4.667  1.00  0.00     0.031 A 
ATOM     83  C   UNL     1       7.930 -26.876  -6.350  1.00  0.00     0.131 A 
ATOM     84  C   UNL     1       5.853 -27.801  -4.775  1.00  0.00     0.055 A 
ATOM     85  C   UNL     1       7.475 -28.186  -6.507  1.00  0.00     0.041 A 
ATOM     86  F   UNL     1       8.968 -26.485  -7.106  1.00  0.00    -0.206 F 
ATOM     87  C   UNL     1       6.444 -28.662  -5.703  1.00  0.00     0.022 A 
BRANCH  84  88
ATOM     88  S   UNL     1       4.638 -28.442  -3.589  1.00  0.00     0.124 S 
ATOM     89  O   UNL     1       5.271 -28.131  -2.310  1.00  0.00    -0.237 OA
ATOM     90  O   UNL     1       3.446 -27.666  -3.915  1.00  0.00    -0.237 OA
ATOM     91  O   UNL     1       4.560 -29.865  -3.913  1.00  0.00    -0.744 OA
ENDBRANCH  84  88
ENDBRANCH  58  81
ENDBRANCH  32  33
ENDBRANCH  24  27
ENDBRANCH  22  23
ENDBRANCH  21  22
ENDBRANCH  20  21
ENDBRANCH   3  20
TORSDOF 19
