REMARK SMILES CC(=O)[C@]1(C)CC[C@@H](C(=O)NCCCNC(=O)c2ccc(-c3c4nc(c(-c5cc(S(=O)(=O)[O-])ccc5F)c5ccc([nH]5)c(-c5cc(S(=O)(=O)[O-])ccc5F)c5nc(c(-c6cc(S(=O)(=O)[O-])ccc6F)c6ccc3[nH]6)C=C5)C=C4)cc2)C1(C)C
REMARK SMILES IDX 14 1 13 2 12 3 11 4 9 5 10 6 8 8 4 9 6 10 81 11 5 12 7 13
REMARK SMILES IDX 82 14 83 15 2 16 1 17 3 18 15 19 16 20 17 22 18 23 19 24
REMARK SMILES IDX 80 25 20 26 79 27 21 28 22 29 23 30 73 31 24 32 78 33 72 34
REMARK SMILES IDX 74 35 25 36 77 37 71 38 70 39 26 41 58 42 38 43 57 44 39 45
REMARK SMILES IDX 42 46 56 47 75 48 40 49 41 50 55 52 76 53 43 54 27 55 28 56
REMARK SMILES IDX 36 57 29 58 35 59 37 60 34 61 30 62 31 63 32 64 33 65 59 66
REMARK SMILES IDX 60 67 68 68 61 69 67 70 69 71 66 72 62 73 63 74 64 75 65 76
REMARK SMILES IDX 44 77 45 78 53 79 46 80 52 81 54 82 51 83 47 84 48 85 49 86
REMARK SMILES IDX 50 87
REMARK H PARENT 11 7 15 21 74 40 42 51
REMARK Flexibility Score: inf
ROOT
ATOM      1  C   UNL     1      -4.749  -3.181   0.893  1.00  0.00     0.118 C 
ENDROOT
BRANCH   1   2
ATOM      2  C   UNL     1      -3.401  -2.583   1.271  1.00  0.00     0.042 C 
BRANCH   2   3
ATOM      3  C   UNL     1      -2.398  -3.593   1.824  1.00  0.00     0.117 C 
BRANCH   3   4
ATOM      4  N   UNL     1      -2.042  -4.635   0.879  1.00  0.00    -0.356 N 
ATOM      5  C   UNL     1      -0.866  -5.050   0.353  1.00  0.00     0.223 C 
ATOM      6  O   UNL     1      -0.932  -6.011  -0.424  1.00  0.00    -0.275 OA
ATOM      7  H   UNL     1      -2.817  -5.147   0.552  1.00  0.00     0.163 HD
BRANCH   5   8
ATOM      8  C   UNL     1       0.505  -4.422   0.641  1.00  0.00     0.085 C 
ATOM      9  C   UNL     1       1.321  -2.094   1.167  1.00  0.00     0.032 C 
ATOM     10  C   UNL     1       1.062  -2.892   2.472  1.00  0.00     0.016 C 
ATOM     11  C   UNL     1       0.894  -3.065  -0.035  1.00  0.00    -0.012 C 
ATOM     12  C   UNL     1       0.434  -0.815   1.222  1.00  0.00     0.020 C 
ATOM     13  C   UNL     1       0.907  -4.354   2.107  1.00  0.00     0.015 C 
ATOM     14  C   UNL     1      -0.247  -2.512  -0.922  1.00  0.00     0.013 C 
ATOM     15  C   UNL     1       1.995  -3.360  -1.081  1.00  0.00     0.013 C 
BRANCH   9  16
ATOM     16  C   UNL     1       2.780  -1.553   1.312  1.00  0.00     0.136 C 
ATOM     17  C   UNL     1       3.975  -2.338   0.857  1.00  0.00     0.088 C 
ATOM     18  O   UNL     1       3.003  -0.495   1.917  1.00  0.00    -0.299 OA
ENDBRANCH   9  16
ENDBRANCH   5   8
ENDBRANCH   3   4
ENDBRANCH   2   3
ENDBRANCH   1   2
BRANCH   1  19
ATOM     19  N   UNL     1      -5.606  -3.369   2.052  1.00  0.00    -0.352 N 
ATOM     20  C   UNL     1      -6.608  -2.563   2.538  1.00  0.00     0.251 C 
ATOM     21  H   UNL     1      -5.446  -4.194   2.564  1.00  0.00     0.163 HD
ATOM     22  O   UNL     1      -7.043  -2.766   3.674  1.00  0.00    -0.269 OA
BRANCH  20  23
ATOM     23  C   UNL     1      -7.140  -1.440   1.730  1.00  0.00     0.039 A 
ATOM     24  C   UNL     1      -7.388  -0.212   2.349  1.00  0.00     0.014 A 
ATOM     25  C   UNL     1      -7.411  -1.594   0.368  1.00  0.00     0.014 A 
ATOM     26  C   UNL     1      -7.825   0.878   1.588  1.00  0.00     0.010 A 
ATOM     27  C   UNL     1      -7.759  -0.488  -0.404  1.00  0.00     0.010 A 
ATOM     28  C   UNL     1      -7.966   0.764   0.196  1.00  0.00    -0.014 A 
BRANCH  28  29
ATOM     29  C   UNL     1      -8.316   1.933  -0.656  1.00  0.00     0.031 A 
ATOM     30  C   UNL     1      -9.579   1.921  -1.478  1.00  0.00     0.074 A 
ATOM     31  C   UNL     1      -7.455   2.966  -0.760  1.00  0.00     0.049 A 
ATOM     32  N   UNL     1      -9.991   2.779  -2.376  1.00  0.00    -0.248 NA
ATOM     33  C   UNL     1     -10.480   0.776  -1.282  1.00  0.00     0.031 C 
ATOM     34  C   UNL     1      -6.182   3.080  -0.043  1.00  0.00     0.029 A 
ATOM     35  N   UNL     1      -7.506   4.108  -1.521  1.00  0.00    -0.354 N 
ATOM     36  C   UNL     1     -11.188   2.268  -2.868  1.00  0.00     0.074 A 
ATOM     37  C   UNL     1     -11.405   1.000  -2.204  1.00  0.00     0.031 C 
ATOM     38  C   UNL     1      -5.584   4.231  -0.387  1.00  0.00     0.029 A 
ATOM     39  C   UNL     1      -6.396   4.912  -1.390  1.00  0.00     0.049 A 
ATOM     40  H   UNL     1      -8.266   4.331  -2.106  1.00  0.00     0.167 HD
ATOM     41  C   UNL     1     -12.037   2.817  -3.773  1.00  0.00     0.034 A 
ATOM     42  C   UNL     1      -6.055   6.052  -2.024  1.00  0.00     0.034 A 
ATOM     43  C   UNL     1     -11.816   4.092  -4.410  1.00  0.00     0.049 A 
ATOM     44  C   UNL     1      -6.992   6.618  -3.060  1.00  0.00     0.074 A 
ATOM     45  C   UNL     1     -12.650   4.779  -5.275  1.00  0.00     0.029 A 
ATOM     46  N   UNL     1     -10.673   4.867  -4.264  1.00  0.00    -0.354 N 
ATOM     47  N   UNL     1      -8.150   6.152  -3.468  1.00  0.00    -0.248 NA
ATOM     48  C   UNL     1      -6.577   7.862  -3.722  1.00  0.00     0.031 C 
ATOM     49  C   UNL     1     -11.983   5.930  -5.708  1.00  0.00     0.029 A 
ATOM     50  C   UNL     1     -10.761   6.000  -5.059  1.00  0.00     0.049 A 
ATOM     51  H   UNL     1      -9.911   4.645  -3.681  1.00  0.00     0.167 HD
ATOM     52  C   UNL     1      -8.607   7.055  -4.424  1.00  0.00     0.074 A 
ATOM     53  C   UNL     1      -7.611   8.103  -4.515  1.00  0.00     0.031 C 
ATOM     54  C   UNL     1      -9.747   7.023  -5.159  1.00  0.00     0.034 A 
BRANCH  41  55
ATOM     55  C   UNL     1     -13.269   2.026  -4.144  1.00  0.00     0.023 A 
ATOM     56  C   UNL     1     -14.266   1.723  -3.201  1.00  0.00     0.031 A 
ATOM     57  C   UNL     1     -13.442   1.556  -5.459  1.00  0.00     0.131 A 
ATOM     58  C   UNL     1     -15.353   0.913  -3.566  1.00  0.00     0.055 A 
ATOM     59  C   UNL     1     -14.566   0.818  -5.835  1.00  0.00     0.041 A 
ATOM     60  F   UNL     1     -12.515   1.798  -6.399  1.00  0.00    -0.206 F 
ATOM     61  C   UNL     1     -15.523   0.479  -4.882  1.00  0.00     0.022 A 
BRANCH  58  62
ATOM     62  S   UNL     1     -16.468   0.323  -2.263  1.00  0.00     0.124 S 
ATOM     63  O   UNL     1     -15.544  -0.395  -1.387  1.00  0.00    -0.237 OA
ATOM     64  O   UNL     1     -17.017   1.565  -1.732  1.00  0.00    -0.237 OA
ATOM     65  O   UNL     1     -17.418  -0.523  -2.982  1.00  0.00    -0.744 OA
ENDBRANCH  58  62
ENDBRANCH  41  55
BRANCH  42  66
ATOM     66  C   UNL     1      -4.753   6.719  -1.732  1.00  0.00     0.023 A 
ATOM     67  C   UNL     1      -4.709   7.999  -1.157  1.00  0.00     0.031 A 
ATOM     68  C   UNL     1      -3.533   6.102  -2.061  1.00  0.00     0.131 A 
ATOM     69  C   UNL     1      -3.474   8.638  -0.967  1.00  0.00     0.055 A 
ATOM     70  C   UNL     1      -2.305   6.720  -1.821  1.00  0.00     0.041 A 
ATOM     71  F   UNL     1      -3.518   4.877  -2.611  1.00  0.00    -0.206 F 
ATOM     72  C   UNL     1      -2.271   8.002  -1.282  1.00  0.00     0.022 A 
BRANCH  69  73
ATOM     73  S   UNL     1      -3.466  10.353  -0.377  1.00  0.00     0.124 S 
ATOM     74  O   UNL     1      -4.260  11.023  -1.401  1.00  0.00    -0.237 OA
ATOM     75  O   UNL     1      -4.089  10.224   0.936  1.00  0.00    -0.237 OA
ATOM     76  O   UNL     1      -2.047  10.701  -0.361  1.00  0.00    -0.744 OA
ENDBRANCH  69  73
ENDBRANCH  42  66
BRANCH  54  77
ATOM     77  C   UNL     1      -9.979   8.168  -6.112  1.00  0.00     0.023 A 
ATOM     78  C   UNL     1      -9.184   8.340  -7.259  1.00  0.00     0.031 A 
ATOM     79  C   UNL     1     -11.007   9.096  -5.872  1.00  0.00     0.131 A 
ATOM     80  C   UNL     1      -9.402   9.441  -8.100  1.00  0.00     0.055 A 
ATOM     81  C   UNL     1     -11.256  10.158  -6.743  1.00  0.00     0.041 A 
ATOM     82  F   UNL     1     -11.794   8.979  -4.790  1.00  0.00    -0.206 F 
ATOM     83  C   UNL     1     -10.444  10.341  -7.859  1.00  0.00     0.022 A 
BRANCH  80  84
ATOM     84  S   UNL     1      -8.262   9.722  -9.482  1.00  0.00     0.124 S 
ATOM     85  O   UNL     1      -6.992   9.921  -8.791  1.00  0.00    -0.237 OA
ATOM     86  O   UNL     1      -8.384   8.485 -10.247  1.00  0.00    -0.237 OA
ATOM     87  O   UNL     1      -8.804  10.911 -10.139  1.00  0.00    -0.744 OA
ENDBRANCH  80  84
ENDBRANCH  54  77
ENDBRANCH  28  29
ENDBRANCH  20  23
ENDBRANCH   1  19
TORSDOF 14
