REMARK SMILES CCc1ccccc1NC(=O)c1cc(S(=O)(=O)N2CCC[C@H](C(=O)NCCCNC(=O)c3ccc(-c4c5nc(c(-c6cc(S(=O)(=O)[O-])ccc6F)c6ccc([nH]6)c(-c6cc(S(=O)(=O)[O-])ccc6F)c6nc(c(-c7cc(S(=O)(=O)[O-])ccc7F)c7ccc4[nH]7)C=C6)C=C5)cc3)C2)ccc1F
REMARK SMILES IDX 26 1 25 2 23 3 24 4 22 6 18 7 19 8 95 9 20 10 21 11 15 12
REMARK SMILES IDX 16 13 17 14 14 15 12 16 13 17 98 18 97 19 99 20 96 21 10 22
REMARK SMILES IDX 9 23 11 25 8 26 3 27 4 28 5 29 7 30 6 31 2 32 1 33 27 34
REMARK SMILES IDX 28 35 29 36 30 37 31 39 32 40 33 41 94 42 34 43 93 44 35 45
REMARK SMILES IDX 36 46 37 47 87 48 38 49 92 50 86 51 88 52 39 53 91 54 85 55
REMARK SMILES IDX 84 56 40 58 72 59 52 60 71 61 53 62 56 63 70 64 89 65 54 66
REMARK SMILES IDX 55 67 69 69 90 70 57 71 41 72 42 73 50 74 43 75 49 76 51 77
REMARK SMILES IDX 48 78 44 79 45 80 46 81 47 82 73 83 74 84 82 85 75 86 81 87
REMARK SMILES IDX 83 88 80 89 76 90 77 91 78 92 79 93 58 94 59 95 67 96 60 97
REMARK SMILES IDX 66 98 68 99 65 100 61 101 62 102 63 103 64 104
REMARK H PARENT 25 5 9 24 29 38 88 57 56 68
REMARK Flexibility Score: inf
ROOT
ATOM      1  C   UNL     1      10.335  -4.891  -7.982  1.00  0.00     0.117 C 
ENDROOT
BRANCH   1   2
ATOM      2  N   UNL     1       9.994  -5.149  -9.367  1.00  0.00    -0.356 N 
ATOM      3  C   UNL     1       8.813  -5.217 -10.024  1.00  0.00     0.224 C 
ATOM      4  O   UNL     1       8.877  -5.452 -11.238  1.00  0.00    -0.275 OA
ATOM      5  H   UNL     1      10.777  -5.305  -9.944  1.00  0.00     0.163 HD
BRANCH   3   6
ATOM      6  C   UNL     1       7.437  -5.050  -9.380  1.00  0.00     0.093 C 
ATOM      7  N   UNL     1       7.338  -4.001  -7.080  1.00  0.00    -0.197 NA
ATOM      8  C   UNL     1       6.894  -5.262  -6.455  1.00  0.00     0.102 C 
ATOM      9  C   UNL     1       7.242  -3.799  -8.546  1.00  0.00     0.116 C 
ATOM     10  C   UNL     1       7.165  -6.492  -7.301  1.00  0.00     0.018 C 
ATOM     11  C   UNL     1       6.847  -6.315  -8.770  1.00  0.00     0.016 C 
BRANCH   7  12
ATOM     12  S   UNL     1       7.241  -2.596  -6.125  1.00  0.00     0.243 S 
ATOM     13  O   UNL     1       7.920  -1.533  -6.828  1.00  0.00    -0.207 OA
ATOM     14  O   UNL     1       7.589  -2.958  -4.766  1.00  0.00    -0.207 OA
BRANCH  12  15
ATOM     15  C   UNL     1       5.519  -2.140  -6.084  1.00  0.00     0.083 A 
ATOM     16  C   UNL     1       3.844  -0.677  -5.165  1.00  0.00     0.077 A 
ATOM     17  C   UNL     1       5.185  -1.050  -5.276  1.00  0.00     0.038 A 
ATOM     18  C   UNL     1       2.864  -1.307  -5.932  1.00  0.00     0.136 A 
ATOM     19  C   UNL     1       3.195  -2.401  -6.722  1.00  0.00     0.041 A 
ATOM     20  F   UNL     1       1.583  -0.920  -5.875  1.00  0.00    -0.206 F 
ATOM     21  C   UNL     1       4.520  -2.835  -6.778  1.00  0.00     0.025 A 
BRANCH  16  22
ATOM     22  C   UNL     1       3.488   0.321  -4.154  1.00  0.00     0.258 C 
ATOM     23  N   UNL     1       2.612   0.024  -3.131  1.00  0.00    -0.322 N 
ATOM     24  H   UNL     1       2.381   0.795  -2.565  1.00  0.00     0.170 HD
ATOM     25  O   UNL     1       3.980   1.444  -4.249  1.00  0.00    -0.269 OA
BRANCH  23  26
ATOM     26  C   UNL     1       1.985  -1.184  -2.745  1.00  0.00     0.044 A 
ATOM     27  C   UNL     1       0.788  -1.129  -2.003  1.00  0.00    -0.025 A 
ATOM     28  C   UNL     1       0.080  -2.321  -1.748  1.00  0.00     0.006 A 
ATOM     29  C   UNL     1       0.567  -3.554  -2.172  1.00  0.00     0.000 A 
ATOM     30  C   UNL     1       2.508  -2.444  -3.066  1.00  0.00     0.026 A 
ATOM     31  C   UNL     1       1.798  -3.618  -2.804  1.00  0.00     0.002 A 
BRANCH  27  32
ATOM     32  C   UNL     1       0.243   0.145  -1.397  1.00  0.00     0.034 C 
ATOM     33  C   UNL     1       0.838   0.361  -0.011  1.00  0.00     0.009 C 
ENDBRANCH  27  32
ENDBRANCH  23  26
ENDBRANCH  16  22
ENDBRANCH  12  15
ENDBRANCH   7  12
ENDBRANCH   3   6
ENDBRANCH   1   2
BRANCH   1  34
ATOM     34  C   UNL     1      10.706  -6.167  -7.242  1.00  0.00     0.042 C 
BRANCH  34  35
ATOM     35  C   UNL     1      12.195  -6.448  -7.250  1.00  0.00     0.118 C 
BRANCH  35  36
ATOM     36  N   UNL     1      12.942  -5.489  -6.450  1.00  0.00    -0.352 N 
ATOM     37  C   UNL     1      13.778  -5.685  -5.378  1.00  0.00     0.251 C 
ATOM     38  H   UNL     1      12.829  -4.549  -6.719  1.00  0.00     0.163 HD
ATOM     39  O   UNL     1      14.160  -4.710  -4.736  1.00  0.00    -0.269 OA
BRANCH  37  40
ATOM     40  C   UNL     1      14.191  -7.049  -4.979  1.00  0.00     0.039 A 
ATOM     41  C   UNL     1      14.342  -7.333  -3.619  1.00  0.00     0.014 A 
ATOM     42  C   UNL     1      14.445  -8.043  -5.926  1.00  0.00     0.014 A 
ATOM     43  C   UNL     1      14.689  -8.624  -3.214  1.00  0.00     0.010 A 
ATOM     44  C   UNL     1      14.675  -9.353  -5.518  1.00  0.00     0.010 A 
ATOM     45  C   UNL     1      14.819  -9.655  -4.158  1.00  0.00    -0.014 A 
BRANCH  45  46
ATOM     46  C   UNL     1      15.136 -11.045  -3.740  1.00  0.00     0.031 A 
ATOM     47  C   UNL     1      16.400 -11.708  -4.222  1.00  0.00     0.074 A 
ATOM     48  C   UNL     1      14.262 -11.721  -2.968  1.00  0.00     0.049 A 
ATOM     49  N   UNL     1      16.833 -12.923  -4.004  1.00  0.00    -0.248 NA
ATOM     50  C   UNL     1      17.274 -10.911  -5.097  1.00  0.00     0.031 C 
ATOM     51  C   UNL     1      12.977 -11.200  -2.492  1.00  0.00     0.029 A 
ATOM     52  N   UNL     1      14.318 -12.987  -2.445  1.00  0.00    -0.354 N 
ATOM     53  C   UNL     1      18.017 -13.040  -4.726  1.00  0.00     0.074 A 
ATOM     54  C   UNL     1      18.190 -11.799  -5.449  1.00  0.00     0.031 C 
ATOM     55  C   UNL     1      12.390 -12.122  -1.712  1.00  0.00     0.029 A 
ATOM     56  C   UNL     1      13.229 -13.314  -1.669  1.00  0.00     0.049 A 
ATOM     57  H   UNL     1      15.067 -13.604  -2.609  1.00  0.00     0.167 HD
ATOM     58  C   UNL     1      18.894 -14.073  -4.759  1.00  0.00     0.034 A 
ATOM     59  C   UNL     1      12.942 -14.447  -0.999  1.00  0.00     0.034 A 
ATOM     60  C   UNL     1      18.712 -15.294  -4.011  1.00  0.00     0.049 A 
ATOM     61  C   UNL     1      13.936 -15.579  -1.043  1.00  0.00     0.074 A 
ATOM     62  C   UNL     1      19.558 -16.385  -3.919  1.00  0.00     0.029 A 
ATOM     63  N   UNL     1      17.602 -15.586  -3.226  1.00  0.00    -0.354 N 
ATOM     64  N   UNL     1      15.080 -15.651  -1.684  1.00  0.00    -0.248 NA
ATOM     65  C   UNL     1      13.607 -16.774  -0.258  1.00  0.00     0.031 C 
ATOM     66  C   UNL     1      18.932 -17.361  -3.135  1.00  0.00     0.029 A 
ATOM     67  C   UNL     1      17.730 -16.850  -2.671  1.00  0.00     0.049 A 
ATOM     68  H   UNL     1      16.837 -14.983  -3.085  1.00  0.00     0.167 HD
ATOM     69  C   UNL     1      15.619 -16.892  -1.358  1.00  0.00     0.074 A 
ATOM     70  C   UNL     1      14.687 -17.518  -0.442  1.00  0.00     0.031 C 
ATOM     71  C   UNL     1      16.778 -17.466  -1.776  1.00  0.00     0.034 A 
BRANCH  58  72
ATOM     72  C   UNL     1      20.111 -13.926  -5.644  1.00  0.00     0.023 A 
ATOM     73  C   UNL     1      21.061 -12.911  -5.434  1.00  0.00     0.031 A 
ATOM     74  C   UNL     1      20.307 -14.790  -6.737  1.00  0.00     0.131 A 
ATOM     75  C   UNL     1      22.113 -12.732  -6.346  1.00  0.00     0.055 A 
ATOM     76  C   UNL     1      21.405 -14.661  -7.591  1.00  0.00     0.041 A 
ATOM     77  F   UNL     1      19.425 -15.765  -7.005  1.00  0.00    -0.206 F 
ATOM     78  C   UNL     1      22.307 -13.617  -7.408  1.00  0.00     0.022 A 
BRANCH  75  79
ATOM     79  S   UNL     1      23.131 -11.236  -6.213  1.00  0.00     0.124 S 
ATOM     80  O   UNL     1      22.128 -10.184  -6.361  1.00  0.00    -0.237 OA
ATOM     81  O   UNL     1      23.721 -11.374  -4.886  1.00  0.00    -0.237 OA
ATOM     82  O   UNL     1      24.067 -11.357  -7.329  1.00  0.00    -0.744 OA
ENDBRANCH  75  79
ENDBRANCH  58  72
BRANCH  59  83
ATOM     83  C   UNL     1      11.671 -14.570  -0.229  1.00  0.00     0.023 A 
ATOM     84  C   UNL     1      11.682 -14.722   1.167  1.00  0.00     0.031 A 
ATOM     85  C   UNL     1      10.425 -14.574  -0.881  1.00  0.00     0.131 A 
ATOM     86  C   UNL     1      10.478 -14.921   1.860  1.00  0.00     0.055 A 
ATOM     87  C   UNL     1       9.226 -14.718  -0.181  1.00  0.00     0.041 A 
ATOM     88  F   UNL     1      10.355 -14.425  -2.213  1.00  0.00    -0.206 F 
ATOM     89  C   UNL     1       9.249 -14.907   1.197  1.00  0.00     0.022 A 
BRANCH  86  90
ATOM     90  S   UNL     1      10.547 -15.287   3.636  1.00  0.00     0.124 S 
ATOM     91  O   UNL     1      11.388 -16.478   3.662  1.00  0.00    -0.237 OA
ATOM     92  O   UNL     1      11.142 -14.068   4.173  1.00  0.00    -0.237 OA
ATOM     93  O   UNL     1       9.146 -15.504   3.992  1.00  0.00    -0.744 OA
ENDBRANCH  86  90
ENDBRANCH  59  83
BRANCH  71  94
ATOM     94  C   UNL     1      17.101 -18.827  -1.210  1.00  0.00     0.023 A 
ATOM     95  C   UNL     1      16.302 -19.950  -1.489  1.00  0.00     0.031 A 
ATOM     96  C   UNL     1      18.201 -18.996  -0.350  1.00  0.00     0.131 A 
ATOM     97  C   UNL     1      16.567 -21.171  -0.853  1.00  0.00     0.055 A 
ATOM     98  C   UNL     1      18.503 -20.232   0.222  1.00  0.00     0.041 A 
ATOM     99  F   UNL     1      18.998 -17.959  -0.047  1.00  0.00    -0.206 F 
ATOM    100  C   UNL     1      17.673 -21.324  -0.013  1.00  0.00     0.022 A 
BRANCH  97 101
ATOM    101  S   UNL     1      15.373 -22.523  -1.042  1.00  0.00     0.124 S 
ATOM    102  O   UNL     1      14.138 -21.904  -0.572  1.00  0.00    -0.237 OA
ATOM    103  O   UNL     1      15.442 -22.803  -2.472  1.00  0.00    -0.237 OA
ATOM    104  O   UNL     1      15.907 -23.575  -0.178  1.00  0.00    -0.744 OA
ENDBRANCH  97 101
ENDBRANCH  71  94
ENDBRANCH  45  46
ENDBRANCH  37  40
ENDBRANCH  35  36
ENDBRANCH  34  35
ENDBRANCH   1  34
TORSDOF 18
