REMARK SMILES COc1ccccc1C(=O)N/C(=C/c1ccc2c(c1)OCO2)C(=O)Nc1ccc(C(=O)NCCCNC(=O)c2ccc(-c3c4nc(c(-c5cc(S(=O)(=O)[O-])ccc5F)c5ccc([nH]5)c(-c5cc(S(=O)(=O)[O-])ccc5F)c5nc(c(-c6cc(S(=O)(=O)[O-])ccc6F)c6ccc3[nH]6)C=C5)C=C4)cc2)cc1
REMARK SMILES IDX 33 1 32 2 30 3 31 4 29 6 26 7 27 8 103 9 28 10 102 11 25 12
REMARK SMILES IDX 23 13 24 14 12 16 13 17 11 18 9 19 10 20 8 22 3 23 4 24 5 25
REMARK SMILES IDX 7 26 6 27 2 28 1 29 14 30 15 31 19 32 16 33 18 34 17 35
REMARK SMILES IDX 20 36 22 37 21 38 34 39 35 40 36 41 37 42 38 44 39 45 40 46
REMARK SMILES IDX 101 47 41 48 100 49 42 50 43 51 44 52 94 53 45 54 99 55
REMARK SMILES IDX 93 56 95 57 46 58 98 59 92 60 91 61 47 63 79 64 59 65 78 66
REMARK SMILES IDX 60 67 63 68 77 69 96 70 61 71 62 72 76 74 97 75 64 76 48 77
REMARK SMILES IDX 49 78 57 79 50 80 56 81 58 82 55 83 51 84 52 85 53 86 54 87
REMARK SMILES IDX 80 88 81 89 89 90 82 91 88 92 90 93 87 94 83 95 84 96 85 97
REMARK SMILES IDX 86 98 65 99 66 100 74 101 67 102 73 103 75 104 72 105 68 106
REMARK SMILES IDX 69 107 70 108 71 109
REMARK H PARENT 32 5 25 15 11 21 36 43 95 62 63 73
REMARK Flexibility Score: inf
ROOT
ATOM      1  C   UNL     1      -1.377   4.092   4.099  1.00  0.00     0.118 C 
ENDROOT
BRANCH   1   2
ATOM      2  N   UNL     1      -2.753   3.643   4.211  1.00  0.00    -0.352 N 
ATOM      3  C   UNL     1      -3.505   2.758   3.479  1.00  0.00     0.251 C 
ATOM      4  O   UNL     1      -4.697   2.652   3.771  1.00  0.00    -0.269 OA
ATOM      5  H   UNL     1      -3.244   4.056   4.958  1.00  0.00     0.163 HD
BRANCH   3   6
ATOM      6  C   UNL     1      -2.918   1.834   2.466  1.00  0.00     0.039 A 
ATOM      7  C   UNL     1      -1.630  -0.254   1.082  1.00  0.00     0.041 A 
ATOM      8  C   UNL     1      -2.891  -0.454   1.655  1.00  0.00     0.027 A 
ATOM      9  C   UNL     1      -1.122   1.041   1.029  1.00  0.00     0.027 A 
ATOM     10  C   UNL     1      -3.516   0.573   2.367  1.00  0.00     0.016 A 
ATOM     11  C   UNL     1      -1.786   2.090   1.690  1.00  0.00     0.016 A 
BRANCH   7  12
ATOM     12  N   UNL     1      -0.953  -1.413   0.671  1.00  0.00    -0.321 N 
ATOM     13  C   UNL     1       0.365  -1.767   0.573  1.00  0.00     0.272 C 
ATOM     14  O   UNL     1       0.620  -2.938   0.266  1.00  0.00    -0.267 OA
ATOM     15  H   UNL     1      -1.564  -2.133   0.391  1.00  0.00     0.170 HD
BRANCH  13  16
ATOM     16  C   UNL     1       1.513  -0.870   0.959  1.00  0.00     0.108 C 
ATOM     17  C   UNL     1       1.662  -0.445   2.238  1.00  0.00     0.040 C 
BRANCH  16  18
ATOM     18  N   UNL     1       2.572  -0.657   0.091  1.00  0.00    -0.317 N 
ATOM     19  C   UNL     1       2.866  -1.079  -1.188  1.00  0.00     0.259 C 
ATOM     20  O   UNL     1       4.005  -0.871  -1.617  1.00  0.00    -0.269 OA
ATOM     21  H   UNL     1       3.270  -0.076   0.472  1.00  0.00     0.170 HD
BRANCH  19  22
ATOM     22  C   UNL     1       1.917  -1.770  -2.080  1.00  0.00     0.082 A 
ATOM     23  C   UNL     1       0.657  -1.268  -2.423  1.00  0.00     0.131 A 
ATOM     24  C   UNL     1      -0.207  -2.052  -3.195  1.00  0.00     0.047 A 
ATOM     25  C   UNL     1       0.214  -3.280  -3.711  1.00  0.00     0.004 A 
ATOM     26  C   UNL     1       2.352  -2.986  -2.637  1.00  0.00     0.018 A 
ATOM     27  C   UNL     1       1.504  -3.736  -3.453  1.00  0.00     0.001 A 
BRANCH  23  28
ATOM     28  O   UNL     1       0.137  -0.073  -2.004  1.00  0.00    -0.496 OA
ATOM     29  C   UNL     1       0.966   1.054  -2.279  1.00  0.00     0.278 C 
ENDBRANCH  23  28
ENDBRANCH  19  22
ENDBRANCH  16  18
BRANCH  17  30
ATOM     30  C   UNL     1       0.740  -0.731   3.348  1.00  0.00    -0.019 A 
ATOM     31  C   UNL     1       0.188   0.343   4.080  1.00  0.00     0.012 A 
ATOM     32  C   UNL     1       0.290  -2.038   3.573  1.00  0.00     0.058 A 
ATOM     33  C   UNL     1      -0.931   0.146   4.896  1.00  0.00     0.051 A 
ATOM     34  C   UNL     1      -0.854  -2.188   4.319  1.00  0.00     0.166 A 
ATOM     35  C   UNL     1      -1.464  -1.123   4.940  1.00  0.00     0.165 A 
ATOM     36  O   UNL     1      -1.580  -3.334   4.421  1.00  0.00    -0.454 OA
ATOM     37  O   UNL     1      -2.658  -1.474   5.492  1.00  0.00    -0.454 OA
ATOM     38  C   UNL     1      -2.813  -2.797   4.938  1.00  0.00     0.468 C 
ENDBRANCH  17  30
ENDBRANCH  13  16
ENDBRANCH   7  12
ENDBRANCH   3   6
ENDBRANCH   1   2
BRANCH   1  39
ATOM     39  C   UNL     1      -1.309   5.373   3.275  1.00  0.00     0.042 C 
BRANCH  39  40
ATOM     40  C   UNL     1      -1.738   6.595   4.081  1.00  0.00     0.118 C 
BRANCH  40  41
ATOM     41  N   UNL     1      -0.667   7.072   4.947  1.00  0.00    -0.352 N 
ATOM     42  C   UNL     1      -0.049   8.305   4.965  1.00  0.00     0.251 C 
ATOM     43  H   UNL     1      -0.338   6.424   5.611  1.00  0.00     0.163 HD
ATOM     44  O   UNL     1       0.981   8.458   5.603  1.00  0.00    -0.269 OA
BRANCH  42  45
ATOM     45  C   UNL     1      -0.628   9.419   4.180  1.00  0.00     0.039 A 
ATOM     46  C   UNL     1       0.214  10.197   3.381  1.00  0.00     0.014 A 
ATOM     47  C   UNL     1      -2.002   9.671   4.208  1.00  0.00     0.014 A 
ATOM     48  C   UNL     1      -0.337  11.165   2.537  1.00  0.00     0.010 A 
ATOM     49  C   UNL     1      -2.555  10.581   3.312  1.00  0.00     0.010 A 
ATOM     50  C   UNL     1      -1.730  11.327   2.457  1.00  0.00    -0.014 A 
BRANCH  50  51
ATOM     51  C   UNL     1      -2.352  12.238   1.462  1.00  0.00     0.031 A 
ATOM     52  C   UNL     1      -3.170  13.413   1.917  1.00  0.00     0.074 A 
ATOM     53  C   UNL     1      -2.258  11.948   0.149  1.00  0.00     0.049 A 
ATOM     54  N   UNL     1      -3.879  14.254   1.208  1.00  0.00    -0.248 NA
ATOM     55  C   UNL     1      -3.220  13.651   3.365  1.00  0.00     0.031 C 
ATOM     56  C   UNL     1      -1.521  10.815  -0.415  1.00  0.00     0.029 A 
ATOM     57  N   UNL     1      -2.794  12.573  -0.948  1.00  0.00    -0.354 N 
ATOM     58  C   UNL     1      -4.470  15.117   2.125  1.00  0.00     0.074 A 
ATOM     59  C   UNL     1      -4.088  14.648   3.442  1.00  0.00     0.031 C 
ATOM     60  C   UNL     1      -1.628  10.843  -1.753  1.00  0.00     0.029 A 
ATOM     61  C   UNL     1      -2.485  11.959  -2.139  1.00  0.00     0.049 A 
ATOM     62  H   UNL     1      -3.348  13.384  -0.889  1.00  0.00     0.167 HD
ATOM     63  C   UNL     1      -5.238  16.210   1.890  1.00  0.00     0.034 A 
ATOM     64  C   UNL     1      -2.864  12.249  -3.399  1.00  0.00     0.034 A 
ATOM     65  C   UNL     1      -5.610  16.658   0.569  1.00  0.00     0.049 A 
ATOM     66  C   UNL     1      -3.782  13.418  -3.634  1.00  0.00     0.074 A 
ATOM     67  C   UNL     1      -6.320  17.790   0.207  1.00  0.00     0.029 A 
ATOM     68  N   UNL     1      -5.321  15.981  -0.611  1.00  0.00    -0.354 N 
ATOM     69  N   UNL     1      -4.287  14.259  -2.763  1.00  0.00    -0.248 NA
ATOM     70  C   UNL     1      -4.186  13.670  -5.023  1.00  0.00     0.031 C 
ATOM     71  C   UNL     1      -6.525  17.757  -1.178  1.00  0.00     0.029 A 
ATOM     72  C   UNL     1      -5.882  16.643  -1.694  1.00  0.00     0.049 A 
ATOM     73  H   UNL     1      -4.795  15.151  -0.669  1.00  0.00     0.167 HD
ATOM     74  C   UNL     1      -5.056  15.153  -3.501  1.00  0.00     0.074 A 
ATOM     75  C   UNL     1      -4.937  14.755  -4.890  1.00  0.00     0.031 C 
ATOM     76  C   UNL     1      -5.788  16.213  -3.070  1.00  0.00     0.034 A 
BRANCH  63  77
ATOM     77  C   UNL     1      -5.747  16.965   3.097  1.00  0.00     0.023 A 
ATOM     78  C   UNL     1      -4.866  17.545   4.027  1.00  0.00     0.031 A 
ATOM     79  C   UNL     1      -7.126  17.052   3.359  1.00  0.00     0.131 A 
ATOM     80  C   UNL     1      -5.363  18.084   5.223  1.00  0.00     0.055 A 
ATOM     81  C   UNL     1      -7.619  17.676   4.507  1.00  0.00     0.041 A 
ATOM     82  F   UNL     1      -8.018  16.505   2.519  1.00  0.00    -0.206 F 
ATOM     83  C   UNL     1      -6.735  18.176   5.459  1.00  0.00     0.022 A 
BRANCH  80  84
ATOM     84  S   UNL     1      -4.183  18.482   6.544  1.00  0.00     0.124 S 
ATOM     85  O   UNL     1      -3.485  17.209   6.710  1.00  0.00    -0.237 OA
ATOM     86  O   UNL     1      -3.405  19.565   5.955  1.00  0.00    -0.237 OA
ATOM     87  O   UNL     1      -5.040  18.864   7.665  1.00  0.00    -0.744 OA
ENDBRANCH  80  84
ENDBRANCH  63  77
BRANCH  64  88
ATOM     88  C   UNL     1      -2.384  11.413  -4.534  1.00  0.00     0.023 A 
ATOM     89  C   UNL     1      -1.498  11.939  -5.486  1.00  0.00     0.031 A 
ATOM     90  C   UNL     1      -2.806  10.080  -4.686  1.00  0.00     0.131 A 
ATOM     91  C   UNL     1      -1.079  11.145  -6.564  1.00  0.00     0.055 A 
ATOM     92  C   UNL     1      -2.353   9.280  -5.737  1.00  0.00     0.041 A 
ATOM     93  F   UNL     1      -3.646   9.528  -3.797  1.00  0.00    -0.206 F 
ATOM     94  C   UNL     1      -1.489   9.815  -6.688  1.00  0.00     0.022 A 
BRANCH  91  95
ATOM     95  S   UNL     1      -0.013  11.889  -7.828  1.00  0.00     0.124 S 
ATOM     96  O   UNL     1      -0.868  12.950  -8.350  1.00  0.00    -0.237 OA
ATOM     97  O   UNL     1       1.137  12.319  -7.040  1.00  0.00    -0.237 OA
ATOM     98  O   UNL     1       0.245  10.784  -8.748  1.00  0.00    -0.744 OA
ENDBRANCH  91  95
ENDBRANCH  64  88
BRANCH  76  99
ATOM     99  C   UNL     1      -6.504  17.020  -4.124  1.00  0.00     0.023 A 
ATOM    100  C   UNL     1      -7.592  16.492  -4.841  1.00  0.00     0.031 A 
ATOM    101  C   UNL     1      -6.088  18.330  -4.421  1.00  0.00     0.131 A 
ATOM    102  C   UNL     1      -8.199  17.254  -5.851  1.00  0.00     0.055 A 
ATOM    103  C   UNL     1      -6.732  19.104  -5.387  1.00  0.00     0.041 A 
ATOM    104  F   UNL     1      -5.051  18.881  -3.770  1.00  0.00    -0.206 F 
ATOM    105  C   UNL     1      -7.787  18.563  -6.116  1.00  0.00     0.022 A 
BRANCH 102 106
ATOM    106  S   UNL     1      -9.492  16.487  -6.866  1.00  0.00     0.124 S 
ATOM    107  O   UNL     1      -8.768  15.388  -7.497  1.00  0.00    -0.237 OA
ATOM    108  O   UNL     1     -10.489  16.106  -5.871  1.00  0.00    -0.237 OA
ATOM    109  O   UNL     1      -9.900  17.560  -7.771  1.00  0.00    -0.744 OA
ENDBRANCH 102 106
ENDBRANCH  76  99
ENDBRANCH  50  51
ENDBRANCH  42  45
ENDBRANCH  40  41
ENDBRANCH  39  40
ENDBRANCH   1  39
TORSDOF 19
