REMARK SMILES Cc1ccc2c(=O)c3cccc(CC(=O)NCCCNC(=O)c4ccc(-c5c6nc(c(-c7cc(S(=O)(=O)[O-])ccc7F)c7ccc([nH]7)c(-c7cc(S(=O)(=O)[O-])ccc7F)c7nc(c(-c8cc(S(=O)(=O)[O-])ccc8F)c8ccc5[nH]8)C=C7)C=C6)cc4)c3oc2c1C
REMARK SMILES IDX 19 1 18 2 17 3 16 4 14 5 15 6 13 8 12 9 1 10 2 11 3 12 89 13
REMARK SMILES IDX 4 14 88 15 90 16 5 17 87 18 6 19 86 20 7 21 8 22 9 23 11 24
REMARK SMILES IDX 10 25 20 26 21 27 22 29 23 30 24 31 85 32 25 33 84 34 26 35
REMARK SMILES IDX 27 36 28 37 78 38 29 39 83 40 77 41 79 42 30 43 82 44 76 45
REMARK SMILES IDX 75 46 31 48 63 49 43 50 62 51 44 52 47 53 61 54 80 55 45 56
REMARK SMILES IDX 46 57 60 59 81 60 48 61 32 62 33 63 41 64 34 65 40 66 42 67
REMARK SMILES IDX 39 68 35 69 36 70 37 71 38 72 64 73 65 74 73 75 66 76 72 77
REMARK SMILES IDX 74 78 71 79 67 80 68 81 69 82 70 83 49 84 50 85 58 86 51 87
REMARK SMILES IDX 57 88 59 89 56 90 52 91 53 92 54 93 55 94
REMARK H PARENT 16 7 20 28 79 47 47 58
REMARK Flexibility Score: inf
ROOT
ATOM      1  C   UNL     1       2.808   3.079   8.142  1.00  0.00     0.118 C 
ENDROOT
BRANCH   1   2
ATOM      2  C   UNL     1       1.293   3.035   8.303  1.00  0.00     0.042 C 
BRANCH   2   3
ATOM      3  C   UNL     1       0.595   4.327   7.897  1.00  0.00     0.117 C 
BRANCH   3   4
ATOM      4  N   UNL     1       0.691   4.580   6.472  1.00  0.00    -0.356 N 
ATOM      5  C   UNL     1      -0.240   4.394   5.491  1.00  0.00     0.224 C 
ATOM      6  O   UNL     1       0.056   4.726   4.341  1.00  0.00    -0.275 OA
ATOM      7  H   UNL     1       1.555   4.939   6.167  1.00  0.00     0.163 HD
BRANCH   5   8
ATOM      8  C   UNL     1      -1.629   3.883   5.833  1.00  0.00     0.139 C 
BRANCH   8   9
ATOM      9  C   UNL     1      -1.688   2.462   6.348  1.00  0.00     0.005 A 
ATOM     10  C   UNL     1       0.938   0.084  -0.068  1.00  0.00     0.045 C 
ATOM     11  C   UNL     1       0.447  -0.153   1.336  1.00  0.00    -0.044 A 
ATOM     12  C   UNL     1       0.435  -1.479   1.805  1.00  0.00     0.005 A 
ATOM     13  C   UNL     1       0.060   0.895   2.204  1.00  0.00    -0.005 A 
ATOM     14  C   UNL     1       0.011  -1.777   3.097  1.00  0.00     0.016 A 
ATOM     15  C   UNL     1      -0.386   0.580   3.508  1.00  0.00     0.141 A 
ATOM     16  C   UNL     1       0.104   2.344   1.790  1.00  0.00     0.049 C 
ATOM     17  C   UNL     1      -0.406  -0.746   3.937  1.00  0.00     0.066 A 
ATOM     18  O   UNL     1      -0.791   1.628   4.307  1.00  0.00    -0.455 OA
ATOM     19  C   UNL     1      -0.883  -1.050   5.289  1.00  0.00     0.200 A 
ATOM     20  C   UNL     1      -1.253   1.369   5.576  1.00  0.00     0.142 A 
ATOM     21  O   UNL     1      -0.944  -2.202   5.705  1.00  0.00    -0.288 OA
ATOM     22  C   UNL     1      -1.313   0.083   6.114  1.00  0.00     0.066 A 
ATOM     23  C   UNL     1      -1.790  -0.139   7.409  1.00  0.00     0.016 A 
ATOM     24  C   UNL     1      -2.209   2.221   7.635  1.00  0.00     0.008 A 
ATOM     25  C   UNL     1      -2.244   0.933   8.168  1.00  0.00     0.001 A 
ENDBRANCH   8   9
ENDBRANCH   5   8
ENDBRANCH   3   4
ENDBRANCH   2   3
ENDBRANCH   1   2
BRANCH   1  26
ATOM     26  N   UNL     1       3.451   4.034   9.038  1.00  0.00    -0.352 N 
ATOM     27  C   UNL     1       4.428   3.839   9.988  1.00  0.00     0.251 C 
ATOM     28  H   UNL     1       3.136   4.963   8.950  1.00  0.00     0.163 HD
ATOM     29  O   UNL     1       4.718   4.756  10.752  1.00  0.00    -0.269 OA
BRANCH  27  30
ATOM     30  C   UNL     1       5.091   2.523  10.110  1.00  0.00     0.039 A 
ATOM     31  C   UNL     1       5.473   1.810   8.974  1.00  0.00     0.014 A 
ATOM     32  C   UNL     1       5.307   1.980  11.380  1.00  0.00     0.014 A 
ATOM     33  C   UNL     1       5.869   0.483   9.095  1.00  0.00     0.010 A 
ATOM     34  C   UNL     1       5.808   0.679  11.503  1.00  0.00     0.010 A 
ATOM     35  C   UNL     1       6.033  -0.104  10.360  1.00  0.00    -0.014 A 
BRANCH  35  36
ATOM     36  C   UNL     1       6.431  -1.534  10.458  1.00  0.00     0.031 A 
ATOM     37  C   UNL     1       5.521  -2.548  11.101  1.00  0.00     0.074 A 
ATOM     38  C   UNL     1       7.600  -1.930   9.915  1.00  0.00     0.049 A 
ATOM     39  N   UNL     1       5.699  -3.836  11.247  1.00  0.00    -0.248 NA
ATOM     40  C   UNL     1       4.251  -2.055  11.658  1.00  0.00     0.031 C 
ATOM     41  C   UNL     1       8.558  -1.038   9.261  1.00  0.00     0.029 A 
ATOM     42  N   UNL     1       8.173  -3.172   9.802  1.00  0.00    -0.354 N 
ATOM     43  C   UNL     1       4.577  -4.304  11.924  1.00  0.00     0.074 A 
ATOM     44  C   UNL     1       3.743  -3.155  12.198  1.00  0.00     0.031 C 
ATOM     45  C   UNL     1       9.570  -1.765   8.770  1.00  0.00     0.029 A 
ATOM     46  C   UNL     1       9.380  -3.164   9.142  1.00  0.00     0.049 A 
ATOM     47  H   UNL     1       7.760  -3.991  10.160  1.00  0.00     0.167 HD
ATOM     48  C   UNL     1       4.266  -5.577  12.266  1.00  0.00     0.034 A 
ATOM     49  C   UNL     1      10.250  -4.161   8.877  1.00  0.00     0.034 A 
ATOM     50  C   UNL     1       5.098  -6.714  11.960  1.00  0.00     0.049 A 
ATOM     51  C   UNL     1       9.896  -5.563   9.297  1.00  0.00     0.074 A 
ATOM     52  C   UNL     1       4.850  -8.048  12.231  1.00  0.00     0.029 A 
ATOM     53  N   UNL     1       6.326  -6.662  11.315  1.00  0.00    -0.354 N 
ATOM     54  N   UNL     1       8.809  -5.994   9.891  1.00  0.00    -0.248 NA
ATOM     55  C   UNL     1      10.877  -6.618   9.009  1.00  0.00     0.031 C 
ATOM     56  C   UNL     1       5.959  -8.790  11.829  1.00  0.00     0.029 A 
ATOM     57  C   UNL     1       6.862  -7.936  11.215  1.00  0.00     0.049 A 
ATOM     58  H   UNL     1       6.754  -5.841  10.980  1.00  0.00     0.167 HD
ATOM     59  C   UNL     1       8.963  -7.371  10.025  1.00  0.00     0.074 A 
ATOM     60  C   UNL     1      10.238  -7.704   9.426  1.00  0.00     0.031 C 
ATOM     61  C   UNL     1       8.124  -8.271  10.597  1.00  0.00     0.034 A 
BRANCH  48  62
ATOM     62  C   UNL     1       2.972  -5.844  13.001  1.00  0.00     0.023 A 
ATOM     63  C   UNL     1       3.002  -6.438  14.279  1.00  0.00     0.031 A 
ATOM     64  C   UNL     1       1.721  -5.660  12.386  1.00  0.00     0.131 A 
ATOM     65  C   UNL     1       1.811  -6.868  14.877  1.00  0.00     0.055 A 
ATOM     66  C   UNL     1       0.532  -6.044  13.010  1.00  0.00     0.041 A 
ATOM     67  F   UNL     1       1.635  -5.101  11.168  1.00  0.00    -0.206 F 
ATOM     68  C   UNL     1       0.575  -6.666  14.254  1.00  0.00     0.022 A 
BRANCH  65  69
ATOM     69  S   UNL     1       1.824  -7.780  16.445  1.00  0.00     0.124 S 
ATOM     70  O   UNL     1       1.003  -6.923  17.297  1.00  0.00    -0.237 OA
ATOM     71  O   UNL     1       1.212  -9.050  16.065  1.00  0.00    -0.237 OA
ATOM     72  O   UNL     1       3.237  -7.841  16.804  1.00  0.00    -0.744 OA
ENDBRANCH  65  69
ENDBRANCH  48  62
BRANCH  49  73
ATOM     73  C   UNL     1      11.510  -3.842   8.142  1.00  0.00     0.023 A 
ATOM     74  C   UNL     1      12.434  -2.918   8.666  1.00  0.00     0.031 A 
ATOM     75  C   UNL     1      11.747  -4.353   6.856  1.00  0.00     0.131 A 
ATOM     76  C   UNL     1      13.497  -2.467   7.874  1.00  0.00     0.055 A 
ATOM     77  C   UNL     1      12.857  -3.965   6.102  1.00  0.00     0.041 A 
ATOM     78  F   UNL     1      10.890  -5.227   6.306  1.00  0.00    -0.206 F 
ATOM     79  C   UNL     1      13.726  -3.000   6.602  1.00  0.00     0.022 A 
BRANCH  76  80
ATOM     80  S   UNL     1      14.519  -1.065   8.404  1.00  0.00     0.124 S 
ATOM     81  O   UNL     1      15.855  -1.650   8.424  1.00  0.00    -0.237 OA
ATOM     82  O   UNL     1      14.269  -0.096   7.339  1.00  0.00    -0.237 OA
ATOM     83  O   UNL     1      13.966  -0.708   9.707  1.00  0.00    -0.744 OA
ENDBRANCH  76  80
ENDBRANCH  49  73
BRANCH  61  84
ATOM     84  C   UNL     1       8.518  -9.731  10.610  1.00  0.00     0.023 A 
ATOM     85  C   UNL     1       7.695 -10.683   9.976  1.00  0.00     0.031 A 
ATOM     86  C   UNL     1       9.594 -10.197  11.385  1.00  0.00     0.131 A 
ATOM     87  C   UNL     1       7.925 -12.049  10.175  1.00  0.00     0.055 A 
ATOM     88  C   UNL     1       9.855 -11.560  11.532  1.00  0.00     0.041 A 
ATOM     89  F   UNL     1      10.401  -9.332  12.021  1.00  0.00    -0.206 F 
ATOM     90  C   UNL     1       9.007 -12.493  10.941  1.00  0.00     0.022 A 
BRANCH  87  91
ATOM     91  S   UNL     1       6.769 -13.296   9.542  1.00  0.00     0.124 S 
ATOM     92  O   UNL     1       7.629 -14.089   8.667  1.00  0.00    -0.237 OA
ATOM     93  O   UNL     1       6.338 -13.965  10.767  1.00  0.00    -0.237 OA
ATOM     94  O   UNL     1       5.744 -12.513   8.860  1.00  0.00    -0.744 OA
ENDBRANCH  87  91
ENDBRANCH  61  84
ENDBRANCH  35  36
ENDBRANCH  27  30
ENDBRANCH   1  26
TORSDOF 14
