REMARK SMILES O=C(NCCCNC(=O)[C@@]12C[C@H]3C[C@@H](C1)C[C@](n1cc([N+](=O)[O-])cn1)(C3)C2)c1ccc(-c2c3nc(c(-c4cc(S(=O)(=O)[O-])ccc4F)c4ccc([nH]4)c(-c4cc(S(=O)(=O)[O-])ccc4F)c4nc(c(-c5cc(S(=O)(=O)[O-])ccc5F)c5ccc2[nH]5)C=C4)C=C3)cc1
REMARK SMILES IDX 4 1 3 2 1 3 2 4 28 6 29 7 90 8 30 9 89 10 31 11 32 12 33 13
REMARK SMILES IDX 83 14 34 15 88 16 82 17 84 18 35 19 87 20 81 21 80 22 36 24
REMARK SMILES IDX 68 25 48 26 67 27 49 28 52 29 66 30 85 31 50 32 51 33 65 35
REMARK SMILES IDX 86 36 53 37 37 38 38 39 46 40 39 41 45 42 47 43 44 44 40 45
REMARK SMILES IDX 41 46 42 47 43 48 69 49 70 50 78 51 71 52 77 53 79 54 76 55
REMARK SMILES IDX 72 56 73 57 74 58 75 59 54 60 55 61 63 62 56 63 62 64 64 65
REMARK SMILES IDX 61 66 57 67 58 68 59 69 60 70 5 71 6 72 7 73 8 74 9 76 10 77
REMARK SMILES IDX 11 78 15 79 27 80 12 81 14 82 17 83 13 84 26 85 16 86 18 87
REMARK SMILES IDX 19 88 25 89 20 90 24 91 21 92 22 93 23 94
REMARK H PARENT 3 5 84 23 52 34 7 75
REMARK Flexibility Score: inf
ROOT
ATOM      1  C   UNL     1       4.686  -0.740  -0.227  1.00  0.00     0.118 C 
ENDROOT
BRANCH   1   2
ATOM      2  N   UNL     1       3.338  -0.441  -0.673  1.00  0.00    -0.352 N 
ATOM      3  O   UNL     1       1.272   0.345  -0.818  1.00  0.00    -0.269 OA
ATOM      4  C   UNL     1       2.293   0.259  -0.133  1.00  0.00     0.251 C 
ATOM      5  H   UNL     1       3.130  -0.825  -1.556  1.00  0.00     0.163 HD
BRANCH   4   6
ATOM      6  C   UNL     1       2.303   0.846   1.232  1.00  0.00     0.039 A 
ATOM      7  C   UNL     1       3.454   1.188   1.942  1.00  0.00     0.014 A 
ATOM      8  C   UNL     1       1.049   1.088   1.818  1.00  0.00     0.014 A 
ATOM      9  C   UNL     1       3.364   1.663   3.246  1.00  0.00     0.010 A 
ATOM     10  C   UNL     1       0.950   1.613   3.103  1.00  0.00     0.010 A 
ATOM     11  C   UNL     1       2.112   1.885   3.825  1.00  0.00    -0.014 A 
BRANCH  11  12
ATOM     12  C   UNL     1       2.068   2.687   5.049  1.00  0.00     0.031 A 
ATOM     13  C   UNL     1       2.591   4.072   4.864  1.00  0.00     0.074 A 
ATOM     14  C   UNL     1       1.445   2.332   6.190  1.00  0.00     0.049 A 
ATOM     15  N   UNL     1       3.596   4.636   5.449  1.00  0.00    -0.248 NA
ATOM     16  C   UNL     1       2.012   4.875   3.772  1.00  0.00     0.031 C 
ATOM     17  C   UNL     1       0.648   1.128   6.417  1.00  0.00     0.029 A 
ATOM     18  N   UNL     1       1.286   3.037   7.351  1.00  0.00    -0.354 N 
ATOM     19  C   UNL     1       3.615   5.948   4.982  1.00  0.00     0.074 A 
ATOM     20  C   UNL     1       2.778   5.964   3.816  1.00  0.00     0.031 C 
ATOM     21  C   UNL     1      -0.088   1.291   7.538  1.00  0.00     0.029 A 
ATOM     22  C   UNL     1       0.256   2.561   8.161  1.00  0.00     0.049 A 
ATOM     23  H   UNL     1       1.847   3.809   7.593  1.00  0.00     0.167 HD
ATOM     24  C   UNL     1       4.091   6.967   5.751  1.00  0.00     0.034 A 
ATOM     25  C   UNL     1      -0.335   3.191   9.213  1.00  0.00     0.034 A 
ATOM     26  C   UNL     1       4.963   6.466   6.795  1.00  0.00     0.049 A 
ATOM     27  C   UNL     1       0.608   4.227   9.700  1.00  0.00     0.074 A 
ATOM     28  C   UNL     1       6.091   5.664   6.812  1.00  0.00     0.029 A 
ATOM     29  N   UNL     1       4.524   6.493   8.102  1.00  0.00    -0.354 N 
ATOM     30  N   UNL     1       1.748   3.952  10.270  1.00  0.00    -0.248 NA
ATOM     31  C   UNL     1       0.497   5.575   9.162  1.00  0.00     0.031 C 
ATOM     32  C   UNL     1       5.957   4.859   7.982  1.00  0.00     0.029 A 
ATOM     33  C   UNL     1       4.802   5.268   8.650  1.00  0.00     0.049 A 
ATOM     34  H   UNL     1       4.092   7.251   8.557  1.00  0.00     0.167 HD
ATOM     35  C   UNL     1       2.630   4.902   9.780  1.00  0.00     0.074 A 
ATOM     36  C   UNL     1       1.782   5.939   9.198  1.00  0.00     0.031 C 
ATOM     37  C   UNL     1       3.960   4.622   9.637  1.00  0.00     0.034 A 
BRANCH  24  38
ATOM     38  C   UNL     1       3.426   8.335   5.838  1.00  0.00     0.023 A 
ATOM     39  C   UNL     1       3.945   9.216   6.804  1.00  0.00     0.031 A 
ATOM     40  C   UNL     1       2.158   8.686   5.319  1.00  0.00     0.131 A 
ATOM     41  C   UNL     1       3.143  10.225   7.363  1.00  0.00     0.055 A 
ATOM     42  C   UNL     1       1.398   9.749   5.819  1.00  0.00     0.041 A 
ATOM     43  F   UNL     1       1.540   7.993   4.358  1.00  0.00    -0.206 F 
ATOM     44  C   UNL     1       1.866  10.492   6.886  1.00  0.00     0.022 A 
BRANCH  41  45
ATOM     45  S   UNL     1       3.720  10.994   8.895  1.00  0.00     0.124 S 
ATOM     46  O   UNL     1       3.932   9.817   9.731  1.00  0.00    -0.237 OA
ATOM     47  O   UNL     1       4.920  11.691   8.445  1.00  0.00    -0.237 OA
ATOM     48  O   UNL     1       2.604  11.853   9.283  1.00  0.00    -0.744 OA
ENDBRANCH  41  45
ENDBRANCH  24  38
BRANCH  25  49
ATOM     49  C   UNL     1      -1.764   3.118   9.636  1.00  0.00     0.023 A 
ATOM     50  C   UNL     1      -2.213   3.538  10.909  1.00  0.00     0.031 A 
ATOM     51  C   UNL     1      -2.767   2.834   8.680  1.00  0.00     0.131 A 
ATOM     52  C   UNL     1      -3.600   3.647  11.178  1.00  0.00     0.055 A 
ATOM     53  C   UNL     1      -4.132   2.929   8.955  1.00  0.00     0.041 A 
ATOM     54  F   UNL     1      -2.455   2.537   7.409  1.00  0.00    -0.206 F 
ATOM     55  C   UNL     1      -4.555   3.345  10.205  1.00  0.00     0.022 A 
BRANCH  52  56
ATOM     56  S   UNL     1      -4.194   4.289  12.778  1.00  0.00     0.124 S 
ATOM     57  O   UNL     1      -3.877   3.200  13.689  1.00  0.00    -0.237 OA
ATOM     58  O   UNL     1      -3.417   5.517  12.933  1.00  0.00    -0.237 OA
ATOM     59  O   UNL     1      -5.624   4.503  12.549  1.00  0.00    -0.744 OA
ENDBRANCH  52  56
ENDBRANCH  25  49
BRANCH  37  60
ATOM     60  C   UNL     1       4.539   3.431  10.368  1.00  0.00     0.023 A 
ATOM     61  C   UNL     1       4.050   2.109  10.281  1.00  0.00     0.031 A 
ATOM     62  C   UNL     1       5.709   3.644  11.120  1.00  0.00     0.131 A 
ATOM     63  C   UNL     1       4.716   1.066  10.953  1.00  0.00     0.055 A 
ATOM     64  C   UNL     1       6.377   2.606  11.767  1.00  0.00     0.041 A 
ATOM     65  F   UNL     1       6.245   4.873  11.217  1.00  0.00    -0.206 F 
ATOM     66  C   UNL     1       5.876   1.313  11.694  1.00  0.00     0.022 A 
BRANCH  63  67
ATOM     67  S   UNL     1       4.070  -0.636  10.894  1.00  0.00     0.124 S 
ATOM     68  O   UNL     1       2.639  -0.472  11.122  1.00  0.00    -0.237 OA
ATOM     69  O   UNL     1       4.457  -1.073   9.554  1.00  0.00    -0.237 OA
ATOM     70  O   UNL     1       4.787  -1.308  11.980  1.00  0.00    -0.744 OA
ENDBRANCH  63  67
ENDBRANCH  37  60
ENDBRANCH  11  12
ENDBRANCH   4   6
ENDBRANCH   1   2
BRANCH   1  71
ATOM     71  C   UNL     1       4.778  -1.648   0.999  1.00  0.00     0.042 C 
BRANCH  71  72
ATOM     72  C   UNL     1       4.042  -2.968   0.824  1.00  0.00     0.117 C 
BRANCH  72  73
ATOM     73  N   UNL     1       4.676  -3.755  -0.207  1.00  0.00    -0.356 N 
ATOM     74  C   UNL     1       5.643  -4.695  -0.122  1.00  0.00     0.226 C 
ATOM     75  H   UNL     1       4.351  -3.579  -1.120  1.00  0.00     0.163 HD
ATOM     76  O   UNL     1       6.249  -4.939  -1.170  1.00  0.00    -0.274 OA
BRANCH  74  77
ATOM     77  C   UNL     1       5.931  -5.460   1.183  1.00  0.00     0.052 C 
ATOM     78  C   UNL     1       6.614  -4.634   2.290  1.00  0.00     0.020 C 
ATOM     79  C   UNL     1       4.661  -6.174   1.706  1.00  0.00     0.020 C 
ATOM     80  C   UNL     1       6.926  -6.568   0.803  1.00  0.00     0.047 C 
ATOM     81  C   UNL     1       6.934  -5.533   3.505  1.00  0.00    -0.007 C 
ATOM     82  C   UNL     1       4.979  -7.023   2.946  1.00  0.00    -0.007 C 
ATOM     83  C   UNL     1       7.254  -7.531   1.972  1.00  0.00     0.065 C 
ATOM     84  C   UNL     1       5.617  -6.133   4.024  1.00  0.00     0.007 C 
ATOM     85  C   UNL     1       7.895  -6.672   3.095  1.00  0.00     0.034 C 
ATOM     86  C   UNL     1       5.953  -8.141   2.543  1.00  0.00     0.034 C 
BRANCH  83  87
ATOM     87  N   UNL     1       8.131  -8.577   1.400  1.00  0.00    -0.259 N 
ATOM     88  C   UNL     1       7.809  -9.222   0.213  1.00  0.00     0.195 A 
ATOM     89  N   UNL     1       9.475  -8.506   1.563  1.00  0.00    -0.173 NA
ATOM     90  C   UNL     1       8.926  -9.030  -0.577  1.00  0.00     0.307 A 
ATOM     91  C   UNL     1       9.949  -8.702   0.325  1.00  0.00     0.220 A 
BRANCH  90  92
ATOM     92  N   UNL     1       8.974  -9.048  -2.004  1.00  0.00     0.066 N 
ATOM     93  O   UNL     1      10.094  -8.998  -2.527  1.00  0.00    -0.258 OA
ATOM     94  O   UNL     1       7.891  -9.074  -2.604  1.00  0.00    -0.258 OA
ENDBRANCH  90  92
ENDBRANCH  83  87
ENDBRANCH  74  77
ENDBRANCH  72  73
ENDBRANCH  71  72
ENDBRANCH   1  71
TORSDOF 15
