REMARK SMILES C[C@@H]1Cc2ccccc2N1C(=O)CSc1ncc(C(=O)NCCCNC(=O)c2ccc(-c3c4nc(c(-c5cc(S(=O)(=O)[O-])ccc5F)c5ccc([nH]5)c(-c5cc(S(=O)(=O)[O-])ccc5F)c5nc(c(-c6cc(S(=O)(=O)[O-])ccc6F)c6ccc3[nH]6)C=C5)C=C4)cc2)n1-c1ccc(F)cc1
REMARK SMILES IDX 22 1 21 2 19 3 20 4 18 6 15 7 16 8 91 9 17 10 14 11 13 12
REMARK SMILES IDX 11 13 12 14 10 15 1 16 2 17 3 18 4 19 9 20 5 21 8 22 6 23
REMARK SMILES IDX 7 24 92 25 93 26 98 27 94 28 97 29 95 30 96 31 23 32 24 33
REMARK SMILES IDX 25 34 26 35 27 37 28 38 29 39 90 40 30 41 89 42 31 43 32 44
REMARK SMILES IDX 33 45 83 46 34 47 88 48 82 49 84 50 35 51 87 52 81 53 80 54
REMARK SMILES IDX 36 56 68 57 48 58 67 59 49 60 52 61 66 62 85 63 50 64 51 65
REMARK SMILES IDX 65 67 86 68 53 69 37 70 38 71 46 72 39 73 45 74 47 75 44 76
REMARK SMILES IDX 40 77 41 78 42 79 43 80 69 81 70 82 78 83 71 84 77 85 79 86
REMARK SMILES IDX 76 87 72 88 73 89 74 90 75 91 54 92 55 93 63 94 56 95 62 96
REMARK SMILES IDX 64 97 61 98 57 99 58 100 59 101 60 102
REMARK H PARENT 21 5 25 36 84 55 52 66
REMARK Flexibility Score: inf
ROOT
ATOM      1  C   UNL     1      -5.892   3.816   4.301  1.00  0.00     0.118 C 
ENDROOT
BRANCH   1   2
ATOM      2  N   UNL     1      -5.222   5.099   4.422  1.00  0.00    -0.351 N 
ATOM      3  C   UNL     1      -3.922   5.535   4.465  1.00  0.00     0.269 C 
ATOM      4  O   UNL     1      -3.816   6.753   4.512  1.00  0.00    -0.268 OA
ATOM      5  H   UNL     1      -5.862   5.844   4.489  1.00  0.00     0.163 HD
BRANCH   3   6
ATOM      6  C   UNL     1      -2.781   4.644   4.420  1.00  0.00     0.132 A 
ATOM      7  C   UNL     1      -0.677   3.925   4.145  1.00  0.00     0.173 A 
ATOM      8  N   UNL     1      -1.387   2.833   4.248  1.00  0.00    -0.230 NA
ATOM      9  N   UNL     1      -1.452   5.070   4.271  1.00  0.00    -0.283 N 
ATOM     10  C   UNL     1      -2.666   3.265   4.468  1.00  0.00     0.146 A 
BRANCH   7  11
ATOM     11  S   UNL     1       1.052   3.914   4.299  1.00  0.00    -0.078 SA
BRANCH  11  12
ATOM     12  C   UNL     1       1.632   3.660   2.609  1.00  0.00     0.178 C 
BRANCH  12  13
ATOM     13  C   UNL     1       1.090   2.443   1.897  1.00  0.00     0.237 C 
ATOM     14  O   UNL     1       0.456   2.647   0.850  1.00  0.00    -0.274 OA
BRANCH  13  15
ATOM     15  N   UNL     1       1.353   1.158   2.327  1.00  0.00    -0.308 N 
ATOM     16  C   UNL     1      -0.817   0.050   1.614  1.00  0.00     0.032 C 
ATOM     17  C   UNL     1       0.713  -0.001   1.645  1.00  0.00     0.092 C 
ATOM     18  C   UNL     1       1.178  -1.273   2.380  1.00  0.00     0.063 C 
ATOM     19  C   UNL     1       2.059  -0.720   3.450  1.00  0.00    -0.022 A 
ATOM     20  C   UNL     1       2.196   0.665   3.349  1.00  0.00     0.047 A 
ATOM     21  C   UNL     1       2.698  -1.456   4.442  1.00  0.00     0.006 A 
ATOM     22  C   UNL     1       3.083   1.310   4.195  1.00  0.00     0.026 A 
ATOM     23  C   UNL     1       3.522  -0.787   5.342  1.00  0.00     0.000 A 
ATOM     24  C   UNL     1       3.729   0.587   5.206  1.00  0.00     0.002 A 
ENDBRANCH  13  15
ENDBRANCH  12  13
ENDBRANCH  11  12
ENDBRANCH   7  11
BRANCH   9  25
ATOM     25  C   UNL     1      -0.928   6.390   4.361  1.00  0.00     0.049 A 
ATOM     26  C   UNL     1      -0.086   6.867   3.345  1.00  0.00     0.030 A 
ATOM     27  C   UNL     1      -1.121   7.135   5.531  1.00  0.00     0.030 A 
ATOM     28  C   UNL     1       0.600   8.068   3.522  1.00  0.00     0.041 A 
ATOM     29  C   UNL     1      -0.435   8.340   5.696  1.00  0.00     0.041 A 
ATOM     30  C   UNL     1       0.428   8.787   4.699  1.00  0.00     0.123 A 
ATOM     31  F   UNL     1       1.115   9.922   4.880  1.00  0.00    -0.207 F 
ENDBRANCH   9  25
ENDBRANCH   3   6
ENDBRANCH   1   2
BRANCH   1  32
ATOM     32  C   UNL     1      -6.639   3.442   5.583  1.00  0.00     0.042 C 
BRANCH  32  33
ATOM     33  C   UNL     1      -7.768   4.414   5.941  1.00  0.00     0.118 C 
BRANCH  33  34
ATOM     34  N   UNL     1      -8.736   4.610   4.879  1.00  0.00    -0.352 N 
ATOM     35  C   UNL     1      -9.845   3.945   4.435  1.00  0.00     0.251 C 
ATOM     36  H   UNL     1      -8.549   5.418   4.348  1.00  0.00     0.163 HD
ATOM     37  O   UNL     1     -10.438   4.481   3.494  1.00  0.00    -0.269 OA
BRANCH  35  38
ATOM     38  C   UNL     1     -10.344   2.642   4.955  1.00  0.00     0.039 A 
ATOM     39  C   UNL     1      -9.813   1.938   6.036  1.00  0.00     0.014 A 
ATOM     40  C   UNL     1     -11.426   2.073   4.256  1.00  0.00     0.014 A 
ATOM     41  C   UNL     1     -10.284   0.666   6.352  1.00  0.00     0.010 A 
ATOM     42  C   UNL     1     -11.917   0.812   4.582  1.00  0.00     0.010 A 
ATOM     43  C   UNL     1     -11.310   0.085   5.601  1.00  0.00    -0.014 A 
BRANCH  43  44
ATOM     44  C   UNL     1     -11.733  -1.270   5.954  1.00  0.00     0.031 A 
ATOM     45  C   UNL     1     -12.304  -1.450   7.322  1.00  0.00     0.074 A 
ATOM     46  C   UNL     1     -11.731  -2.297   5.082  1.00  0.00     0.049 A 
ATOM     47  N   UNL     1     -11.869  -2.189   8.292  1.00  0.00    -0.248 NA
ATOM     48  C   UNL     1     -13.469  -0.627   7.673  1.00  0.00     0.031 C 
ATOM     49  C   UNL     1     -11.527  -2.251   3.631  1.00  0.00     0.029 A 
ATOM     50  N   UNL     1     -12.027  -3.607   5.311  1.00  0.00    -0.354 N 
ATOM     51  C   UNL     1     -12.798  -2.059   9.329  1.00  0.00     0.074 A 
ATOM     52  C   UNL     1     -13.685  -0.992   8.937  1.00  0.00     0.031 C 
ATOM     53  C   UNL     1     -11.939  -3.420   3.089  1.00  0.00     0.029 A 
ATOM     54  C   UNL     1     -12.278  -4.339   4.162  1.00  0.00     0.049 A 
ATOM     55  H   UNL     1     -12.059  -3.998   6.214  1.00  0.00     0.167 HD
ATOM     56  C   UNL     1     -12.874  -2.940  10.370  1.00  0.00     0.034 A 
ATOM     57  C   UNL     1     -12.811  -5.582   4.092  1.00  0.00     0.034 A 
ATOM     58  C   UNL     1     -11.698  -3.758  10.462  1.00  0.00     0.049 A 
ATOM     59  C   UNL     1     -12.662  -6.234   5.414  1.00  0.00     0.074 A 
ATOM     60  C   UNL     1     -10.363  -3.523  10.716  1.00  0.00     0.029 A 
ATOM     61  N   UNL     1     -11.764  -5.038   9.973  1.00  0.00    -0.354 N 
ATOM     62  N   UNL     1     -11.527  -6.621   5.923  1.00  0.00    -0.248 NA
ATOM     63  C   UNL     1     -13.758  -6.097   6.361  1.00  0.00     0.031 C 
ATOM     64  C   UNL     1      -9.664  -4.476   9.923  1.00  0.00     0.029 A 
ATOM     65  C   UNL     1     -10.614  -5.258   9.261  1.00  0.00     0.049 A 
ATOM     66  H   UNL     1     -12.499  -5.679  10.107  1.00  0.00     0.167 HD
ATOM     67  C   UNL     1     -11.639  -6.343   7.277  1.00  0.00     0.074 A 
ATOM     68  C   UNL     1     -13.068  -6.138   7.503  1.00  0.00     0.031 C 
ATOM     69  C   UNL     1     -10.547  -6.029   8.036  1.00  0.00     0.034 A 
BRANCH  56  70
ATOM     70  C   UNL     1     -14.137  -3.257  11.139  1.00  0.00     0.023 A 
ATOM     71  C   UNL     1     -15.415  -2.874  10.694  1.00  0.00     0.031 A 
ATOM     72  C   UNL     1     -14.114  -4.152  12.232  1.00  0.00     0.131 A 
ATOM     73  C   UNL     1     -16.583  -3.342  11.312  1.00  0.00     0.055 A 
ATOM     74  C   UNL     1     -15.282  -4.674  12.806  1.00  0.00     0.041 A 
ATOM     75  F   UNL     1     -12.954  -4.596  12.740  1.00  0.00    -0.206 F 
ATOM     76  C   UNL     1     -16.527  -4.268  12.347  1.00  0.00     0.022 A 
BRANCH  73  77
ATOM     77  S   UNL     1     -18.206  -2.747  10.764  1.00  0.00     0.124 S 
ATOM     78  O   UNL     1     -18.814  -3.970  10.250  1.00  0.00    -0.237 OA
ATOM     79  O   UNL     1     -18.771  -2.234  12.010  1.00  0.00    -0.237 OA
ATOM     80  O   UNL     1     -17.877  -1.729   9.771  1.00  0.00    -0.744 OA
ENDBRANCH  73  77
ENDBRANCH  56  70
BRANCH  57  81
ATOM     81  C   UNL     1     -13.833  -6.023   3.117  1.00  0.00     0.023 A 
ATOM     82  C   UNL     1     -14.755  -5.088   2.609  1.00  0.00     0.031 A 
ATOM     83  C   UNL     1     -14.109  -7.384   2.912  1.00  0.00     0.131 A 
ATOM     84  C   UNL     1     -15.922  -5.516   1.966  1.00  0.00     0.055 A 
ATOM     85  C   UNL     1     -15.270  -7.810   2.255  1.00  0.00     0.041 A 
ATOM     86  F   UNL     1     -13.289  -8.326   3.403  1.00  0.00    -0.206 F 
ATOM     87  C   UNL     1     -16.190  -6.874   1.790  1.00  0.00     0.022 A 
BRANCH  84  88
ATOM     88  S   UNL     1     -17.156  -4.307   1.413  1.00  0.00     0.124 S 
ATOM     89  O   UNL     1     -17.448  -4.763   0.056  1.00  0.00    -0.237 OA
ATOM     90  O   UNL     1     -18.223  -4.505   2.386  1.00  0.00    -0.237 OA
ATOM     91  O   UNL     1     -16.447  -3.033   1.495  1.00  0.00    -0.744 OA
ENDBRANCH  84  88
ENDBRANCH  57  81
BRANCH  69  92
ATOM     92  C   UNL     1      -9.163  -6.227   7.455  1.00  0.00     0.023 A 
ATOM     93  C   UNL     1      -8.205  -6.867   8.264  1.00  0.00     0.031 A 
ATOM     94  C   UNL     1      -8.706  -5.613   6.274  1.00  0.00     0.131 A 
ATOM     95  C   UNL     1      -6.850  -6.843   7.912  1.00  0.00     0.055 A 
ATOM     96  C   UNL     1      -7.362  -5.656   5.888  1.00  0.00     0.041 A 
ATOM     97  F   UNL     1      -9.519  -4.877   5.505  1.00  0.00    -0.206 F 
ATOM     98  C   UNL     1      -6.423  -6.258   6.717  1.00  0.00     0.022 A 
BRANCH  95  99
ATOM     99  S   UNL     1      -5.589  -7.424   9.075  1.00  0.00     0.124 S 
ATOM    100  O   UNL     1      -5.012  -8.561   8.364  1.00  0.00    -0.237 OA
ATOM    101  O   UNL     1      -4.719  -6.256   9.198  1.00  0.00    -0.237 OA
ATOM    102  O   UNL     1      -6.344  -7.758  10.279  1.00  0.00    -0.744 OA
ENDBRANCH  95  99
ENDBRANCH  69  92
ENDBRANCH  43  44
ENDBRANCH  35  38
ENDBRANCH  33  34
ENDBRANCH  32  33
ENDBRANCH   1  32
TORSDOF 18
