REMARK SMILES CC(C)(C[S@](=O)c1cccc(Cl)c1)C(=O)NCCCNC(=O)c1ccc(-c2c3nc(c(-c4cc(S(=O)(=O)[O-])ccc4F)c4ccc([nH]4)c(-c4cc(S(=O)(=O)[O-])ccc4F)c4nc(c(-c5cc(S(=O)(=O)[O-])ccc5F)c5ccc2[nH]5)C=C4)C=C3)cc1
REMARK SMILES IDX 18 1 17 2 16 3 14 4 15 5 2 7 1 8 3 9 4 10 5 11 6 12 7 13
REMARK SMILES IDX 8 14 13 15 9 16 11 17 10 18 12 19 19 20 20 21 21 22 22 24
REMARK SMILES IDX 23 25 24 26 85 27 25 28 84 29 26 30 27 31 28 32 78 33 29 34
REMARK SMILES IDX 83 35 77 36 79 37 30 38 82 39 76 40 75 41 31 43 63 44 43 45
REMARK SMILES IDX 62 46 44 47 47 48 61 49 80 50 45 51 46 52 60 54 81 55 48 56
REMARK SMILES IDX 32 57 33 58 41 59 34 60 40 61 42 62 39 63 35 64 36 65 37 66
REMARK SMILES IDX 38 67 64 68 65 69 73 70 66 71 72 72 74 73 71 74 67 75 68 76
REMARK SMILES IDX 69 77 70 78 49 79 50 80 58 81 51 82 57 83 59 84 56 85 52 86
REMARK SMILES IDX 53 87 54 88 55 89
REMARK H PARENT 16 6 20 23 79 42 47 53
REMARK Flexibility Score: inf
ROOT
ATOM      1  C   UNL     1      -3.989   0.736   2.059  1.00  0.00     0.042 C 
ENDROOT
BRANCH   1   2
ATOM      2  C   UNL     1      -4.905   0.895   0.855  1.00  0.00     0.117 C 
BRANCH   2   3
ATOM      3  N   UNL     1      -4.286   1.539  -0.294  1.00  0.00    -0.356 N 
ATOM      4  C   UNL     1      -4.036   1.128  -1.567  1.00  0.00     0.226 C 
ATOM      5  O   UNL     1      -3.752   2.016  -2.378  1.00  0.00    -0.274 OA
ATOM      6  H   UNL     1      -3.987   2.460  -0.114  1.00  0.00     0.163 HD
BRANCH   4   7
ATOM      7  C   UNL     1      -4.133  -0.336  -2.021  1.00  0.00     0.055 C 
ATOM      8  C   UNL     1      -3.735  -0.476  -3.510  1.00  0.00     0.022 C 
ATOM      9  C   UNL     1      -5.636  -0.724  -2.023  1.00  0.00     0.022 C 
BRANCH   7  10
ATOM     10  C   UNL     1      -3.332  -1.320  -1.153  1.00  0.00     0.126 C 
BRANCH  10  11
ATOM     11  S   UNL     1      -1.526  -1.240  -0.902  1.00  0.00     0.054 S 
ATOM     12  O   UNL     1      -1.289  -0.897   0.538  1.00  0.00    -0.254 OA
BRANCH  11  13
ATOM     13  C   UNL     1      -0.907   0.162  -1.825  1.00  0.00     0.040 A 
ATOM     14  C   UNL     1      -0.290  -0.055  -3.065  1.00  0.00     0.018 A 
ATOM     15  C   UNL     1      -0.946   1.455  -1.300  1.00  0.00     0.038 A 
ATOM     16  C   UNL     1       0.161   1.023  -3.829  1.00  0.00     0.003 A 
ATOM     17  C   UNL     1      -0.512   2.531  -2.073  1.00  0.00     0.042 A 
ATOM     18  C   UNL     1       0.025   2.322  -3.342  1.00  0.00     0.020 A 
ATOM     19  Cl  UNL     1      -0.667   4.135  -1.467  1.00  0.00    -0.084 Cl
ENDBRANCH  11  13
ENDBRANCH  10  11
ENDBRANCH   7  10
ENDBRANCH   4   7
ENDBRANCH   2   3
ENDBRANCH   1   2
BRANCH   1  20
ATOM     20  C   UNL     1      -3.492   2.039   2.668  1.00  0.00     0.118 C 
BRANCH  20  21
ATOM     21  N   UNL     1      -4.576   2.858   3.196  1.00  0.00    -0.352 N 
ATOM     22  C   UNL     1      -4.922   3.160   4.490  1.00  0.00     0.251 C 
ATOM     23  H   UNL     1      -5.157   3.262   2.511  1.00  0.00     0.163 HD
ATOM     24  O   UNL     1      -6.017   3.691   4.700  1.00  0.00    -0.269 OA
BRANCH  22  25
ATOM     25  C   UNL     1      -4.025   2.843   5.624  1.00  0.00     0.039 A 
ATOM     26  C   UNL     1      -4.583   2.402   6.829  1.00  0.00     0.014 A 
ATOM     27  C   UNL     1      -2.642   3.011   5.528  1.00  0.00     0.014 A 
ATOM     28  C   UNL     1      -3.753   2.059   7.901  1.00  0.00     0.010 A 
ATOM     29  C   UNL     1      -1.812   2.585   6.563  1.00  0.00     0.010 A 
ATOM     30  C   UNL     1      -2.357   2.106   7.764  1.00  0.00    -0.014 A 
BRANCH  30  31
ATOM     31  C   UNL     1      -1.448   1.675   8.862  1.00  0.00     0.031 A 
ATOM     32  C   UNL     1      -0.491   2.663   9.478  1.00  0.00     0.074 A 
ATOM     33  C   UNL     1      -1.440   0.388   9.264  1.00  0.00     0.049 A 
ATOM     34  N   UNL     1       0.454   2.462  10.362  1.00  0.00    -0.248 NA
ATOM     35  C   UNL     1      -0.596   4.057   9.020  1.00  0.00     0.031 C 
ATOM     36  C   UNL     1      -2.304  -0.669   8.733  1.00  0.00     0.029 A 
ATOM     37  N   UNL     1      -0.674  -0.255  10.205  1.00  0.00    -0.354 N 
ATOM     38  C   UNL     1       1.057   3.699  10.562  1.00  0.00     0.074 A 
ATOM     39  C   UNL     1       0.417   4.628   9.654  1.00  0.00     0.031 C 
ATOM     40  C   UNL     1      -2.039  -1.818   9.376  1.00  0.00     0.029 A 
ATOM     41  C   UNL     1      -0.949  -1.599  10.321  1.00  0.00     0.049 A 
ATOM     42  H   UNL     1       0.008   0.202  10.747  1.00  0.00     0.167 HD
ATOM     43  C   UNL     1       2.032   4.039  11.441  1.00  0.00     0.034 A 
ATOM     44  C   UNL     1      -0.376  -2.550  11.086  1.00  0.00     0.034 A 
ATOM     45  C   UNL     1       2.661   3.106  12.344  1.00  0.00     0.049 A 
ATOM     46  C   UNL     1       0.759  -2.160  12.005  1.00  0.00     0.074 A 
ATOM     47  C   UNL     1       3.648   3.346  13.284  1.00  0.00     0.029 A 
ATOM     48  N   UNL     1       2.365   1.750  12.419  1.00  0.00    -0.354 N 
ATOM     49  N   UNL     1       1.299  -0.979  12.197  1.00  0.00    -0.248 NA
ATOM     50  C   UNL     1       1.353  -3.231  12.816  1.00  0.00     0.031 C 
ATOM     51  C   UNL     1       3.993   2.130  13.881  1.00  0.00     0.029 A 
ATOM     52  C   UNL     1       3.166   1.142  13.374  1.00  0.00     0.049 A 
ATOM     53  H   UNL     1       1.687   1.290  11.875  1.00  0.00     0.167 HD
ATOM     54  C   UNL     1       2.264  -1.161  13.186  1.00  0.00     0.074 A 
ATOM     55  C   UNL     1       2.221  -2.559  13.556  1.00  0.00     0.031 C 
ATOM     56  C   UNL     1       3.106  -0.253  13.742  1.00  0.00     0.034 A 
BRANCH  43  57
ATOM     57  C   UNL     1       2.482   5.481  11.458  1.00  0.00     0.023 A 
ATOM     58  C   UNL     1       1.601   6.519  11.811  1.00  0.00     0.031 A 
ATOM     59  C   UNL     1       3.798   5.827  11.107  1.00  0.00     0.131 A 
ATOM     60  C   UNL     1       2.025   7.854  11.738  1.00  0.00     0.055 A 
ATOM     61  C   UNL     1       4.238   7.153  11.117  1.00  0.00     0.041 A 
ATOM     62  F   UNL     1       4.680   4.883  10.741  1.00  0.00    -0.206 F 
ATOM     63  C   UNL     1       3.345   8.177  11.420  1.00  0.00     0.022 A 
BRANCH  60  64
ATOM     64  S   UNL     1       0.788   9.165  11.933  1.00  0.00     0.124 S 
ATOM     65  O   UNL     1      -0.132   8.868  10.838  1.00  0.00    -0.237 OA
ATOM     66  O   UNL     1       0.279   8.923  13.278  1.00  0.00    -0.237 OA
ATOM     67  O   UNL     1       1.563  10.394  11.771  1.00  0.00    -0.744 OA
ENDBRANCH  60  64
ENDBRANCH  43  57
BRANCH  44  68
ATOM     68  C   UNL     1      -0.837  -3.969  11.023  1.00  0.00     0.023 A 
ATOM     69  C   UNL     1      -1.347  -4.610  12.164  1.00  0.00     0.031 A 
ATOM     70  C   UNL     1      -0.696  -4.733   9.851  1.00  0.00     0.131 A 
ATOM     71  C   UNL     1      -1.626  -5.984  12.132  1.00  0.00     0.055 A 
ATOM     72  C   UNL     1      -1.042  -6.085   9.804  1.00  0.00     0.041 A 
ATOM     73  F   UNL     1      -0.213  -4.176   8.729  1.00  0.00    -0.206 F 
ATOM     74  C   UNL     1      -1.492  -6.724  10.955  1.00  0.00     0.022 A 
BRANCH  71  75
ATOM     75  S   UNL     1      -2.038  -6.820  13.688  1.00  0.00     0.124 S 
ATOM     76  O   UNL     1      -0.886  -6.484  14.518  1.00  0.00    -0.237 OA
ATOM     77  O   UNL     1      -3.299  -6.182  14.050  1.00  0.00    -0.237 OA
ATOM     78  O   UNL     1      -2.140  -8.226  13.302  1.00  0.00    -0.744 OA
ENDBRANCH  71  75
ENDBRANCH  44  68
BRANCH  56  79
ATOM     79  C   UNL     1       3.997  -0.734  14.862  1.00  0.00     0.023 A 
ATOM     80  C   UNL     1       5.022  -1.672  14.649  1.00  0.00     0.031 A 
ATOM     81  C   UNL     1       3.809  -0.245  16.167  1.00  0.00     0.131 A 
ATOM     82  C   UNL     1       5.782  -2.135  15.735  1.00  0.00     0.055 A 
ATOM     83  C   UNL     1       4.610  -0.660  17.231  1.00  0.00     0.041 A 
ATOM     84  F   UNL     1       2.843   0.651  16.429  1.00  0.00    -0.206 F 
ATOM     85  C   UNL     1       5.594  -1.621  17.021  1.00  0.00     0.022 A 
BRANCH  82  86
ATOM     86  S   UNL     1       6.960  -3.486  15.461  1.00  0.00     0.124 S 
ATOM     87  O   UNL     1       6.096  -4.545  14.950  1.00  0.00    -0.237 OA
ATOM     88  O   UNL     1       7.889  -2.901  14.499  1.00  0.00    -0.237 OA
ATOM     89  O   UNL     1       7.519  -3.729  16.790  1.00  0.00    -0.744 OA
ENDBRANCH  82  86
ENDBRANCH  56  79
ENDBRANCH  30  31
ENDBRANCH  22  25
ENDBRANCH  20  21
ENDBRANCH   1  20
TORSDOF 16
