REMARK SMILES C[C@@](O)(CNC(=O)CC1([NH3+])CCC1)C(=O)NCCCNC(=O)c1ccc(-c2c3nc(c(-c4cc(S(=O)(=O)[O-])ccc4F)c4ccc([nH]4)c(-c4cc(S(=O)(=O)[O-])ccc4F)c4nc(c(-c5cc(S(=O)(=O)[O-])ccc5F)c5ccc2[nH]5)C=C4)C=C3)cc1
REMARK SMILES IDX 17 1 16 2 14 3 15 4 2 6 1 7 3 8 4 10 5 11 6 12 7 14 8 15
REMARK SMILES IDX 9 16 11 17 13 18 12 19 10 20 18 24 19 25 20 26 21 27 22 29
REMARK SMILES IDX 23 30 24 31 85 32 25 33 84 34 26 35 27 36 28 37 78 38 29 39
REMARK SMILES IDX 83 40 77 41 79 42 30 43 82 44 76 45 75 46 31 48 63 49 43 50
REMARK SMILES IDX 62 51 44 52 47 53 61 54 80 55 45 56 46 57 60 59 81 60 48 61
REMARK SMILES IDX 32 62 33 63 41 64 34 65 40 66 42 67 39 68 35 69 36 70 37 71
REMARK SMILES IDX 38 72 64 73 65 74 73 75 66 76 72 77 74 78 71 79 67 80 68 81
REMARK SMILES IDX 69 82 70 83 49 84 50 85 58 86 51 87 57 88 59 89 56 90 52 91
REMARK SMILES IDX 53 92 54 93 55 94
REMARK H PARENT 16 5 3 9 5 13 10 21 10 22 10 23 20 28 79 47 47 58
REMARK Flexibility Score: inf
ROOT
ATOM      1  C   UNL     1       0.680   4.718  -0.863  1.00  0.00     0.117 C 
ENDROOT
BRANCH   1   2
ATOM      2  N   UNL     1       0.856   3.875   0.319  1.00  0.00    -0.353 N 
ATOM      3  C   UNL     1       1.066   2.527   0.457  1.00  0.00     0.253 C 
ATOM      4  O   UNL     1       1.773   2.196   1.417  1.00  0.00    -0.272 OA
ATOM      5  H   UNL     1       0.816   4.365   1.172  1.00  0.00     0.163 HD
BRANCH   3   6
ATOM      6  C   UNL     1       0.445   1.444  -0.480  1.00  0.00     0.157 C 
ATOM      7  C   UNL     1       1.218   0.123  -0.276  1.00  0.00     0.055 C 
BRANCH   6   8
ATOM      8  O   UNL     1       0.624   1.802  -1.857  1.00  0.00    -0.378 OA
ATOM      9  H   UNL     1       0.232   1.117  -2.423  1.00  0.00     0.212 HD
ENDBRANCH   6   8
BRANCH   6  10
ATOM     10  C   UNL     1      -1.079   1.186  -0.246  1.00  0.00     0.160 C 
BRANCH  10  11
ATOM     11  N   UNL     1      -1.459   0.551   1.017  1.00  0.00    -0.352 N 
ATOM     12  C   UNL     1      -2.433   0.825   1.930  1.00  0.00     0.226 C 
ATOM     13  H   UNL     1      -0.903  -0.227   1.252  1.00  0.00     0.163 HD
ATOM     14  O   UNL     1      -2.669  -0.046   2.773  1.00  0.00    -0.275 OA
BRANCH  12  15
ATOM     15  C   UNL     1      -3.202   2.135   1.943  1.00  0.00     0.168 C 
BRANCH  15  16
ATOM     16  C   UNL     1      -2.354   3.362   2.218  1.00  0.00     0.103 C 
ATOM     17  C   UNL     1      -2.731   4.548   3.172  1.00  0.00     0.069 C 
ATOM     18  C   UNL     1      -1.134   3.149   3.160  1.00  0.00     0.069 C 
ATOM     19  C   UNL     1      -1.229   4.621   3.574  1.00  0.00     0.013 C 
BRANCH  16  20
ATOM     20  N   UNL     1      -1.972   4.045   0.982  1.00  0.00    -0.352 N 
ATOM     21  H   UNL     1      -2.796   4.167   0.392  1.00  0.00     0.344 HD
ATOM     22  H   UNL     1      -1.278   3.486   0.486  1.00  0.00     0.344 HD
ATOM     23  H   UNL     1      -1.577   4.958   1.206  1.00  0.00     0.344 HD
ENDBRANCH  16  20
ENDBRANCH  15  16
ENDBRANCH  12  15
ENDBRANCH  10  11
ENDBRANCH   6  10
ENDBRANCH   3   6
ENDBRANCH   1   2
BRANCH   1  24
ATOM     24  C   UNL     1      -0.216   5.974  -0.717  1.00  0.00     0.042 C 
BRANCH  24  25
ATOM     25  C   UNL     1      -0.174   6.752   0.611  1.00  0.00     0.118 C 
BRANCH  25  26
ATOM     26  N   UNL     1       0.050   8.176   0.407  1.00  0.00    -0.352 N 
ATOM     27  C   UNL     1      -0.707   9.292   0.662  1.00  0.00     0.251 C 
ATOM     28  H   UNL     1       0.925   8.380   0.005  1.00  0.00     0.163 HD
ATOM     29  O   UNL     1      -0.281  10.365   0.229  1.00  0.00    -0.269 OA
BRANCH  27  30
ATOM     30  C   UNL     1      -2.002   9.286   1.399  1.00  0.00     0.039 A 
ATOM     31  C   UNL     1      -2.987  10.182   0.960  1.00  0.00     0.014 A 
ATOM     32  C   UNL     1      -2.231   8.565   2.574  1.00  0.00     0.014 A 
ATOM     33  C   UNL     1      -4.184  10.345   1.671  1.00  0.00     0.010 A 
ATOM     34  C   UNL     1      -3.455   8.699   3.266  1.00  0.00     0.010 A 
ATOM     35  C   UNL     1      -4.444   9.598   2.831  1.00  0.00    -0.014 A 
BRANCH  35  36
ATOM     36  C   UNL     1      -5.741   9.793   3.558  1.00  0.00     0.031 A 
ATOM     37  C   UNL     1      -5.789  10.412   4.934  1.00  0.00     0.074 A 
ATOM     38  C   UNL     1      -6.903   9.449   2.963  1.00  0.00     0.049 A 
ATOM     39  N   UNL     1      -6.830  10.729   5.667  1.00  0.00    -0.248 NA
ATOM     40  C   UNL     1      -4.499  10.698   5.574  1.00  0.00     0.031 C 
ATOM     41  C   UNL     1      -7.016   8.822   1.645  1.00  0.00     0.029 A 
ATOM     42  N   UNL     1      -8.209   9.588   3.375  1.00  0.00    -0.354 N 
ATOM     43  C   UNL     1      -6.324  11.252   6.854  1.00  0.00     0.074 A 
ATOM     44  C   UNL     1      -4.880  11.151   6.760  1.00  0.00     0.031 C 
ATOM     45  C   UNL     1      -8.314   8.660   1.345  1.00  0.00     0.029 A 
ATOM     46  C   UNL     1      -9.132   9.132   2.460  1.00  0.00     0.049 A 
ATOM     47  H   UNL     1      -8.460   9.977   4.244  1.00  0.00     0.167 HD
ATOM     48  C   UNL     1      -6.991  11.781   7.913  1.00  0.00     0.034 A 
ATOM     49  C   UNL     1     -10.480   9.086   2.504  1.00  0.00     0.034 A 
ATOM     50  C   UNL     1      -8.432  11.873   8.006  1.00  0.00     0.049 A 
ATOM     51  C   UNL     1     -11.203   9.639   3.707  1.00  0.00     0.074 A 
ATOM     52  C   UNL     1      -9.197  12.447   9.009  1.00  0.00     0.029 A 
ATOM     53  N   UNL     1      -9.330  11.358   7.078  1.00  0.00    -0.354 N 
ATOM     54  N   UNL     1     -10.706  10.190   4.789  1.00  0.00    -0.248 NA
ATOM     55  C   UNL     1     -12.671   9.575   3.686  1.00  0.00     0.031 C 
ATOM     56  C   UNL     1     -10.547  12.201   8.734  1.00  0.00     0.029 A 
ATOM     57  C   UNL     1     -10.636  11.558   7.511  1.00  0.00     0.049 A 
ATOM     58  H   UNL     1      -9.078  10.915   6.236  1.00  0.00     0.167 HD
ATOM     59  C   UNL     1     -11.802  10.560   5.566  1.00  0.00     0.074 A 
ATOM     60  C   UNL     1     -12.985  10.186   4.819  1.00  0.00     0.031 C 
ATOM     61  C   UNL     1     -11.822  11.162   6.784  1.00  0.00     0.034 A 
BRANCH  48  62
ATOM     62  C   UNL     1      -6.163  12.268   9.085  1.00  0.00     0.023 A 
ATOM     63  C   UNL     1      -5.220  13.302   8.950  1.00  0.00     0.031 A 
ATOM     64  C   UNL     1      -6.298  11.669  10.352  1.00  0.00     0.131 A 
ATOM     65  C   UNL     1      -4.387  13.640  10.029  1.00  0.00     0.055 A 
ATOM     66  C   UNL     1      -5.530  12.075  11.447  1.00  0.00     0.041 A 
ATOM     67  F   UNL     1      -7.170  10.668  10.547  1.00  0.00    -0.206 F 
ATOM     68  C   UNL     1      -4.553  13.052  11.284  1.00  0.00     0.022 A 
BRANCH  65  69
ATOM     69  S   UNL     1      -2.969  14.729   9.720  1.00  0.00     0.124 S 
ATOM     70  O   UNL     1      -2.283  14.022   8.641  1.00  0.00    -0.237 OA
ATOM     71  O   UNL     1      -3.612  15.986   9.353  1.00  0.00    -0.237 OA
ATOM     72  O   UNL     1      -2.259  14.739  10.996  1.00  0.00    -0.744 OA
ENDBRANCH  65  69
ENDBRANCH  48  62
BRANCH  49  73
ATOM     73  C   UNL     1     -11.242   8.467   1.379  1.00  0.00     0.023 A 
ATOM     74  C   UNL     1     -12.111   9.223   0.575  1.00  0.00     0.031 A 
ATOM     75  C   UNL     1     -11.125   7.091   1.110  1.00  0.00     0.131 A 
ATOM     76  C   UNL     1     -12.851   8.592  -0.439  1.00  0.00     0.055 A 
ATOM     77  C   UNL     1     -11.822   6.479   0.068  1.00  0.00     0.041 A 
ATOM     78  F   UNL     1     -10.310   6.322   1.850  1.00  0.00    -0.206 F 
ATOM     79  C   UNL     1     -12.699   7.229  -0.708  1.00  0.00     0.022 A 
BRANCH  76  80
ATOM     80  S   UNL     1     -14.069   9.565  -1.368  1.00  0.00     0.124 S 
ATOM     81  O   UNL     1     -14.972  10.000  -0.309  1.00  0.00    -0.237 OA
ATOM     82  O   UNL     1     -13.236  10.601  -1.968  1.00  0.00    -0.237 OA
ATOM     83  O   UNL     1     -14.630   8.598  -2.309  1.00  0.00    -0.744 OA
ENDBRANCH  76  80
ENDBRANCH  49  73
BRANCH  61  84
ATOM     84  C   UNL     1     -13.177  11.486   7.375  1.00  0.00     0.023 A 
ATOM     85  C   UNL     1     -14.093  10.482   7.738  1.00  0.00     0.031 A 
ATOM     86  C   UNL     1     -13.566  12.826   7.565  1.00  0.00     0.131 A 
ATOM     87  C   UNL     1     -15.367  10.831   8.216  1.00  0.00     0.055 A 
ATOM     88  C   UNL     1     -14.809  13.166   8.103  1.00  0.00     0.041 A 
ATOM     89  F   UNL     1     -12.740  13.831   7.231  1.00  0.00    -0.206 F 
ATOM     90  C   UNL     1     -15.723  12.166   8.418  1.00  0.00     0.022 A 
BRANCH  87  91
ATOM     91  S   UNL     1     -16.596   9.519   8.470  1.00  0.00     0.124 S 
ATOM     92  O   UNL     1     -16.668   8.911   7.146  1.00  0.00    -0.237 OA
ATOM     93  O   UNL     1     -15.976   8.708   9.512  1.00  0.00    -0.237 OA
ATOM     94  O   UNL     1     -17.794  10.247   8.883  1.00  0.00    -0.744 OA
ENDBRANCH  87  91
ENDBRANCH  61  84
ENDBRANCH  35  36
ENDBRANCH  27  30
ENDBRANCH  25  26
ENDBRANCH  24  25
ENDBRANCH   1  24
TORSDOF 19
