REMARK SMILES CCOc1ccc(-n2ncc(C(=O)NCCCNC(=O)c3ccc(-c4c5nc(c(-c6cc(S(=O)(=O)[O-])ccc6F)c6ccc([nH]6)c(-c6cc(S(=O)(=O)[O-])ccc6F)c6nc(c(-c7cc(S(=O)(=O)[O-])ccc7F)c7ccc4[nH]7)C=C6)C=C5)cc3)c2C)nn1
REMARK SMILES IDX 16 1 15 2 14 3 12 4 13 5 11 7 8 8 9 9 84 10 10 11 85 12 7 13
REMARK SMILES IDX 4 14 5 15 87 16 6 17 86 18 3 19 2 20 1 21 17 22 18 23 19 24
REMARK SMILES IDX 20 26 21 27 22 28 83 29 23 30 82 31 24 32 25 33 26 34 76 35
REMARK SMILES IDX 27 36 81 37 75 38 77 39 28 40 80 41 74 42 73 43 29 45 61 46
REMARK SMILES IDX 41 47 60 48 42 49 45 50 59 51 78 52 43 53 44 54 58 56 79 57
REMARK SMILES IDX 46 58 30 59 31 60 39 61 32 62 38 63 40 64 37 65 33 66 34 67
REMARK SMILES IDX 35 68 36 69 62 70 63 71 71 72 64 73 70 74 72 75 69 76 65 77
REMARK SMILES IDX 66 78 67 79 68 80 47 81 48 82 56 83 49 84 55 85 57 86 54 87
REMARK SMILES IDX 50 88 51 89 52 90 53 91
REMARK H PARENT 14 6 18 25 77 44 45 55
REMARK Flexibility Score: inf
ROOT
ATOM      1  C   UNL     1      11.444   4.749  -1.980  1.00  0.00     0.042 C 
ENDROOT
BRANCH   1   2
ATOM      2  C   UNL     1      11.225   3.686  -0.898  1.00  0.00     0.118 C 
BRANCH   2   3
ATOM      3  N   UNL     1      10.728   4.266   0.338  1.00  0.00    -0.352 N 
ATOM      4  C   UNL     1       9.471   4.423   0.855  1.00  0.00     0.254 C 
ATOM      5  O   UNL     1       9.400   4.935   1.980  1.00  0.00    -0.269 OA
ATOM      6  H   UNL     1      11.440   4.618   0.921  1.00  0.00     0.163 HD
BRANCH   4   7
ATOM      7  C   UNL     1       8.277   3.964   0.156  1.00  0.00     0.081 A 
ATOM      8  N   UNL     1       6.183   3.285  -0.236  1.00  0.00    -0.217 N 
ATOM      9  N   UNL     1       6.872   3.018  -1.379  1.00  0.00    -0.174 NA
ATOM     10  C   UNL     1       6.999   3.868   0.720  1.00  0.00     0.056 A 
ATOM     11  C   UNL     1       8.079   3.530  -1.165  1.00  0.00     0.149 A 
ATOM     12  C   UNL     1       6.570   4.201   2.110  1.00  0.00     0.068 C 
BRANCH   8  13
ATOM     13  C   UNL     1       4.805   2.936  -0.178  1.00  0.00     0.176 A 
ATOM     14  C   UNL     1       2.176   2.314  -0.186  1.00  0.00     0.233 A 
ATOM     15  C   UNL     1       3.021   1.558  -0.971  1.00  0.00     0.074 A 
ATOM     16  N   UNL     1       2.608   3.336   0.579  1.00  0.00    -0.110 NA
ATOM     17  C   UNL     1       4.368   1.876  -0.968  1.00  0.00     0.057 A 
ATOM     18  N   UNL     1       3.947   3.638   0.600  1.00  0.00    -0.127 NA
BRANCH  14  19
ATOM     19  O   UNL     1       0.826   2.082  -0.250  1.00  0.00    -0.477 OA
BRANCH  19  20
ATOM     20  C   UNL     1       0.423   1.179   0.782  1.00  0.00     0.228 C 
ATOM     21  C   UNL     1       0.584  -0.265   0.326  1.00  0.00     0.049 C 
ENDBRANCH  19  20
ENDBRANCH  14  19
ENDBRANCH   8  13
ENDBRANCH   4   7
ENDBRANCH   2   3
ENDBRANCH   1   2
BRANCH   1  22
ATOM     22  C   UNL     1      12.806   5.415  -1.833  1.00  0.00     0.118 C 
BRANCH  22  23
ATOM     23  N   UNL     1      13.903   4.496  -2.164  1.00  0.00    -0.352 N 
ATOM     24  C   UNL     1      15.266   4.722  -2.113  1.00  0.00     0.251 C 
ATOM     25  H   UNL     1      13.631   3.598  -2.463  1.00  0.00     0.163 HD
ATOM     26  O   UNL     1      16.038   4.008  -2.742  1.00  0.00    -0.269 OA
BRANCH  24  27
ATOM     27  C   UNL     1      15.763   5.822  -1.271  1.00  0.00     0.039 A 
ATOM     28  C   UNL     1      16.804   6.666  -1.671  1.00  0.00     0.014 A 
ATOM     29  C   UNL     1      15.117   6.011  -0.054  1.00  0.00     0.014 A 
ATOM     30  C   UNL     1      17.134   7.753  -0.861  1.00  0.00     0.010 A 
ATOM     31  C   UNL     1      15.310   7.172   0.637  1.00  0.00     0.010 A 
ATOM     32  C   UNL     1      16.368   8.002   0.287  1.00  0.00    -0.014 A 
BRANCH  32  33
ATOM     33  C   UNL     1      16.513   9.209   1.092  1.00  0.00     0.031 A 
ATOM     34  C   UNL     1      16.162  10.446   0.344  1.00  0.00     0.074 A 
ATOM     35  C   UNL     1      16.601   9.145   2.442  1.00  0.00     0.049 A 
ATOM     36  N   UNL     1      16.963  11.361  -0.093  1.00  0.00    -0.248 NA
ATOM     37  C   UNL     1      14.790  10.573  -0.186  1.00  0.00     0.031 C 
ATOM     38  C   UNL     1      16.602   7.944   3.288  1.00  0.00     0.029 A 
ATOM     39  N   UNL     1      16.571  10.141   3.365  1.00  0.00    -0.354 N 
ATOM     40  C   UNL     1      16.138  12.326  -0.665  1.00  0.00     0.074 A 
ATOM     41  C   UNL     1      14.912  11.647  -0.969  1.00  0.00     0.031 C 
ATOM     42  C   UNL     1      16.327   8.284   4.568  1.00  0.00     0.029 A 
ATOM     43  C   UNL     1      16.281   9.732   4.670  1.00  0.00     0.049 A 
ATOM     44  H   UNL     1      16.741  11.082   3.132  1.00  0.00     0.167 HD
ATOM     45  C   UNL     1      16.403  13.655  -0.509  1.00  0.00     0.034 A 
ATOM     46  C   UNL     1      15.990  10.527   5.742  1.00  0.00     0.034 A 
ATOM     47  C   UNL     1      17.751  13.841  -0.003  1.00  0.00     0.049 A 
ATOM     48  C   UNL     1      16.494  11.883   5.398  1.00  0.00     0.074 A 
ATOM     49  C   UNL     1      19.008  13.447  -0.424  1.00  0.00     0.029 A 
ATOM     50  N   UNL     1      17.896  14.159   1.333  1.00  0.00    -0.354 N 
ATOM     51  N   UNL     1      17.762  12.146   5.223  1.00  0.00    -0.248 NA
ATOM     52  C   UNL     1      15.578  12.792   4.723  1.00  0.00     0.031 C 
ATOM     53  C   UNL     1      19.686  13.054   0.769  1.00  0.00     0.029 A 
ATOM     54  C   UNL     1      18.862  13.338   1.861  1.00  0.00     0.049 A 
ATOM     55  H   UNL     1      17.395  14.851   1.821  1.00  0.00     0.167 HD
ATOM     56  C   UNL     1      17.811  12.940   4.086  1.00  0.00     0.074 A 
ATOM     57  C   UNL     1      16.429  13.376   3.872  1.00  0.00     0.031 C 
ATOM     58  C   UNL     1      18.892  12.911   3.248  1.00  0.00     0.034 A 
BRANCH  45  59
ATOM     59  C   UNL     1      15.354  14.749  -0.375  1.00  0.00     0.023 A 
ATOM     60  C   UNL     1      15.838  16.046  -0.119  1.00  0.00     0.031 A 
ATOM     61  C   UNL     1      13.963  14.576  -0.188  1.00  0.00     0.131 A 
ATOM     62  C   UNL     1      15.013  17.031   0.448  1.00  0.00     0.055 A 
ATOM     63  C   UNL     1      13.130  15.583   0.313  1.00  0.00     0.041 A 
ATOM     64  F   UNL     1      13.328  13.420  -0.400  1.00  0.00    -0.206 F 
ATOM     65  C   UNL     1      13.661  16.806   0.676  1.00  0.00     0.022 A 
BRANCH  62  66
ATOM     66  S   UNL     1      15.798  18.538   1.067  1.00  0.00     0.124 S 
ATOM     67  O   UNL     1      16.797  17.987   1.976  1.00  0.00    -0.237 OA
ATOM     68  O   UNL     1      16.305  19.137  -0.163  1.00  0.00    -0.237 OA
ATOM     69  O   UNL     1      14.697  19.255   1.704  1.00  0.00    -0.744 OA
ENDBRANCH  62  66
ENDBRANCH  45  59
BRANCH  46  70
ATOM     70  C   UNL     1      15.015  10.269   6.852  1.00  0.00     0.023 A 
ATOM     71  C   UNL     1      15.017  10.971   8.083  1.00  0.00     0.031 A 
ATOM     72  C   UNL     1      13.882   9.463   6.598  1.00  0.00     0.131 A 
ATOM     73  C   UNL     1      13.926  10.847   8.986  1.00  0.00     0.055 A 
ATOM     74  C   UNL     1      12.809   9.349   7.488  1.00  0.00     0.041 A 
ATOM     75  F   UNL     1      13.736   8.819   5.429  1.00  0.00    -0.206 F 
ATOM     76  C   UNL     1      12.822  10.049   8.682  1.00  0.00     0.022 A 
BRANCH  73  77
ATOM     77  S   UNL     1      13.879  11.787  10.554  1.00  0.00     0.124 S 
ATOM     78  O   UNL     1      14.962  11.177  11.317  1.00  0.00    -0.237 OA
ATOM     79  O   UNL     1      14.091  13.159  10.108  1.00  0.00    -0.237 OA
ATOM     80  O   UNL     1      12.538  11.518  11.077  1.00  0.00    -0.744 OA
ENDBRANCH  73  77
ENDBRANCH  46  70
BRANCH  58  81
ATOM     81  C   UNL     1      20.162  12.227   3.722  1.00  0.00     0.023 A 
ATOM     82  C   UNL     1      20.275  10.868   4.104  1.00  0.00     0.031 A 
ATOM     83  C   UNL     1      21.346  12.983   3.654  1.00  0.00     0.131 A 
ATOM     84  C   UNL     1      21.542  10.324   4.407  1.00  0.00     0.055 A 
ATOM     85  C   UNL     1      22.597  12.435   3.930  1.00  0.00     0.041 A 
ATOM     86  F   UNL     1      21.309  14.270   3.273  1.00  0.00    -0.206 F 
ATOM     87  C   UNL     1      22.699  11.105   4.314  1.00  0.00     0.022 A 
BRANCH  84  88
ATOM     88  S   UNL     1      21.717   8.592   4.952  1.00  0.00     0.124 S 
ATOM     89  O   UNL     1      20.684   8.447   5.970  1.00  0.00    -0.237 OA
ATOM     90  O   UNL     1      21.504   7.847   3.713  1.00  0.00    -0.237 OA
ATOM     91  O   UNL     1      23.088   8.533   5.464  1.00  0.00    -0.744 OA
ENDBRANCH  84  88
ENDBRANCH  58  81
ENDBRANCH  32  33
ENDBRANCH  24  27
ENDBRANCH  22  23
ENDBRANCH   1  22
TORSDOF 16
