REMARK SMILES O=C(COCCNC(=O)Nc1cccc(F)c1)NCCCNC(=O)c1ccc(-c2c3nc(c(-c4cc(S(=O)(=O)[O-])ccc4F)c4ccc([nH]4)c(-c4cc(S(=O)(=O)[O-])ccc4F)c4nc(c(-c5cc(S(=O)(=O)[O-])ccc5F)c5ccc2[nH]5)C=C4)C=C3)cc1
REMARK SMILES IDX 19 1 18 2 1 3 2 4 3 6 4 7 5 8 6 9 7 10 8 11 9 13 10 14 11 16
REMARK SMILES IDX 12 17 17 18 13 19 15 20 14 21 16 22 20 23 21 24 22 25 23 26
REMARK SMILES IDX 24 28 25 29 26 30 87 31 27 32 86 33 28 34 29 35 30 36 80 37
REMARK SMILES IDX 31 38 85 39 79 40 81 41 32 42 84 43 78 44 77 45 33 47 65 48
REMARK SMILES IDX 45 49 64 50 46 51 49 52 63 53 82 54 47 55 48 56 62 58 83 59
REMARK SMILES IDX 50 60 34 61 35 62 43 63 36 64 42 65 44 66 41 67 37 68 38 69
REMARK SMILES IDX 39 70 40 71 66 72 67 73 75 74 68 75 74 76 76 77 73 78 69 79
REMARK SMILES IDX 70 80 71 81 72 82 51 83 52 84 60 85 53 86 59 87 61 88 58 89
REMARK SMILES IDX 54 90 55 91 56 92 57 93
REMARK H PARENT 18 5 7 12 10 15 22 27 81 46 49 57
REMARK Flexibility Score: inf
ROOT
ATOM      1  C   UNL     1       2.072   1.640  -2.005  1.00  0.00     0.117 C 
ENDROOT
BRANCH   1   2
ATOM      2  N   UNL     1       2.798   0.892  -1.006  1.00  0.00    -0.354 N 
ATOM      3  O   UNL     1       1.190   1.020   0.637  1.00  0.00    -0.272 OA
ATOM      4  C   UNL     1       2.274   0.613   0.239  1.00  0.00     0.245 C 
ATOM      5  H   UNL     1       3.703   0.570  -1.221  1.00  0.00     0.163 HD
BRANCH   4   6
ATOM      6  C   UNL     1       3.199  -0.259   1.091  1.00  0.00     0.260 C 
BRANCH   6   7
ATOM      7  O   UNL     1       3.889  -1.286   0.392  1.00  0.00    -0.370 OA
BRANCH   7   8
ATOM      8  C   UNL     1       3.061  -2.170  -0.366  1.00  0.00     0.182 C 
BRANCH   8   9
ATOM      9  C   UNL     1       2.323  -3.217   0.466  1.00  0.00     0.146 C 
BRANCH   9  10
ATOM     10  N   UNL     1       1.081  -2.775   1.097  1.00  0.00    -0.336 N 
ATOM     11  C   UNL     1      -0.228  -2.851   0.783  1.00  0.00     0.319 C 
ATOM     12  H   UNL     1       1.236  -2.313   1.953  1.00  0.00     0.165 HD
ATOM     13  O   UNL     1      -1.021  -2.190   1.456  1.00  0.00    -0.249 OA
ATOM     14  N   UNL     1      -0.699  -3.531  -0.282  1.00  0.00    -0.308 N 
ATOM     15  H   UNL     1      -1.561  -3.198  -0.623  1.00  0.00     0.171 HD
BRANCH  14  16
ATOM     16  C   UNL     1      -0.188  -4.620  -0.989  1.00  0.00     0.045 A 
ATOM     17  C   UNL     1       0.520  -5.653  -0.364  1.00  0.00     0.026 A 
ATOM     18  C   UNL     1      -0.379  -4.643  -2.369  1.00  0.00     0.065 A 
ATOM     19  C   UNL     1       1.187  -6.608  -1.134  1.00  0.00     0.005 A 
ATOM     20  C   UNL     1       0.292  -5.595  -3.125  1.00  0.00     0.125 A 
ATOM     21  C   UNL     1       1.098  -6.557  -2.523  1.00  0.00     0.039 A 
ATOM     22  F   UNL     1       0.201  -5.556  -4.460  1.00  0.00    -0.207 F 
ENDBRANCH  14  16
ENDBRANCH   9  10
ENDBRANCH   8   9
ENDBRANCH   7   8
ENDBRANCH   6   7
ENDBRANCH   4   6
ENDBRANCH   1   2
BRANCH   1  23
ATOM     23  C   UNL     1       2.334   3.135  -1.903  1.00  0.00     0.042 C 
BRANCH  23  24
ATOM     24  C   UNL     1       3.805   3.514  -2.028  1.00  0.00     0.118 C 
BRANCH  24  25
ATOM     25  N   UNL     1       4.375   3.165  -3.321  1.00  0.00    -0.352 N 
ATOM     26  C   UNL     1       5.087   3.938  -4.205  1.00  0.00     0.251 C 
ATOM     27  H   UNL     1       4.228   2.234  -3.605  1.00  0.00     0.163 HD
ATOM     28  O   UNL     1       5.346   3.489  -5.317  1.00  0.00    -0.269 OA
BRANCH  26  29
ATOM     29  C   UNL     1       5.514   5.307  -3.834  1.00  0.00     0.039 A 
ATOM     30  C   UNL     1       5.414   6.321  -4.790  1.00  0.00     0.014 A 
ATOM     31  C   UNL     1       6.033   5.592  -2.568  1.00  0.00     0.014 A 
ATOM     32  C   UNL     1       5.787   7.626  -4.460  1.00  0.00     0.010 A 
ATOM     33  C   UNL     1       6.331   6.907  -2.216  1.00  0.00     0.010 A 
ATOM     34  C   UNL     1       6.224   7.937  -3.162  1.00  0.00    -0.014 A 
BRANCH  34  35
ATOM     35  C   UNL     1       6.604   9.326  -2.794  1.00  0.00     0.031 A 
ATOM     36  C   UNL     1       8.025   9.639  -2.404  1.00  0.00     0.074 A 
ATOM     37  C   UNL     1       5.672  10.300  -2.787  1.00  0.00     0.049 A 
ATOM     38  N   UNL     1       8.540  10.772  -2.004  1.00  0.00    -0.248 NA
ATOM     39  C   UNL     1       8.988   8.526  -2.448  1.00  0.00     0.031 C 
ATOM     40  C   UNL     1       4.258  10.117  -3.121  1.00  0.00     0.029 A 
ATOM     41  N   UNL     1       5.772  11.637  -2.494  1.00  0.00    -0.354 N 
ATOM     42  C   UNL     1       9.880  10.508  -1.740  1.00  0.00     0.074 A 
ATOM     43  C   UNL     1      10.085   9.095  -1.971  1.00  0.00     0.031 C 
ATOM     44  C   UNL     1       3.634  11.304  -3.054  1.00  0.00     0.029 A 
ATOM     45  C   UNL     1       4.587  12.324  -2.627  1.00  0.00     0.049 A 
ATOM     46  H   UNL     1       6.614  12.065  -2.214  1.00  0.00     0.167 HD
ATOM     47  C   UNL     1      10.856  11.370  -1.367  1.00  0.00     0.034 A 
ATOM     48  C   UNL     1       4.298  13.625  -2.422  1.00  0.00     0.034 A 
ATOM     49  C   UNL     1      10.651  12.782  -1.173  1.00  0.00     0.049 A 
ATOM     50  C   UNL     1       5.392  14.557  -1.974  1.00  0.00     0.074 A 
ATOM     51  C   UNL     1      11.587  13.749  -0.854  1.00  0.00     0.029 A 
ATOM     52  N   UNL     1       9.428  13.430  -1.280  1.00  0.00    -0.354 N 
ATOM     53  N   UNL     1       6.657  14.291  -1.746  1.00  0.00    -0.248 NA
ATOM     54  C   UNL     1       5.022  15.961  -1.749  1.00  0.00     0.031 C 
ATOM     55  C   UNL     1      10.923  14.970  -0.707  1.00  0.00     0.029 A 
ATOM     56  C   UNL     1       9.582  14.778  -1.000  1.00  0.00     0.049 A 
ATOM     57  H   UNL     1       8.578  12.996  -1.520  1.00  0.00     0.167 HD
ATOM     58  C   UNL     1       7.236  15.498  -1.365  1.00  0.00     0.074 A 
ATOM     59  C   UNL     1       6.186  16.495  -1.402  1.00  0.00     0.031 C 
ATOM     60  C   UNL     1       8.522  15.756  -1.021  1.00  0.00     0.034 A 
BRANCH  47  61
ATOM     61  C   UNL     1      12.236  10.811  -1.138  1.00  0.00     0.023 A 
ATOM     62  C   UNL     1      13.008  10.306  -2.197  1.00  0.00     0.031 A 
ATOM     63  C   UNL     1      12.796  10.809   0.151  1.00  0.00     0.131 A 
ATOM     64  C   UNL     1      14.282   9.778  -1.942  1.00  0.00     0.055 A 
ATOM     65  C   UNL     1      14.090  10.342   0.388  1.00  0.00     0.041 A 
ATOM     66  F   UNL     1      12.094  11.265   1.201  1.00  0.00    -0.206 F 
ATOM     67  C   UNL     1      14.838   9.816  -0.661  1.00  0.00     0.022 A 
BRANCH  64  68
ATOM     68  S   UNL     1      15.174   8.968  -3.296  1.00  0.00     0.124 S 
ATOM     69  O   UNL     1      14.313   7.820  -3.570  1.00  0.00    -0.237 OA
ATOM     70  O   UNL     1      15.203  10.004  -4.323  1.00  0.00    -0.237 OA
ATOM     71  O   UNL     1      16.470   8.641  -2.705  1.00  0.00    -0.744 OA
ENDBRANCH  64  68
ENDBRANCH  47  61
BRANCH  48  72
ATOM     72  C   UNL     1       2.909  14.120  -2.629  1.00  0.00     0.023 A 
ATOM     73  C   UNL     1       2.600  14.981  -3.693  1.00  0.00     0.031 A 
ATOM     74  C   UNL     1       1.869  13.732  -1.766  1.00  0.00     0.131 A 
ATOM     75  C   UNL     1       1.285  15.444  -3.857  1.00  0.00     0.055 A 
ATOM     76  C   UNL     1       0.555  14.164  -1.955  1.00  0.00     0.041 A 
ATOM     77  F   UNL     1       2.114  12.904  -0.739  1.00  0.00    -0.206 F 
ATOM     78  C   UNL     1       0.258  15.030  -3.003  1.00  0.00     0.022 A 
BRANCH  75  79
ATOM     79  S   UNL     1       0.933  16.619  -5.193  1.00  0.00     0.124 S 
ATOM     80  O   UNL     1       1.714  17.780  -4.779  1.00  0.00    -0.237 OA
ATOM     81  O   UNL     1       1.419  15.902  -6.367  1.00  0.00    -0.237 OA
ATOM     82  O   UNL     1      -0.517  16.785  -5.126  1.00  0.00    -0.744 OA
ENDBRANCH  75  79
ENDBRANCH  48  72
BRANCH  60  83
ATOM     83  C   UNL     1       8.878  17.174  -0.667  1.00  0.00     0.023 A 
ATOM     84  C   UNL     1       8.469  17.748   0.548  1.00  0.00     0.031 A 
ATOM     85  C   UNL     1       9.692  17.935  -1.524  1.00  0.00     0.131 A 
ATOM     86  C   UNL     1       8.861  19.056   0.866  1.00  0.00     0.055 A 
ATOM     87  C   UNL     1      10.115  19.220  -1.183  1.00  0.00     0.041 A 
ATOM     88  F   UNL     1      10.113  17.428  -2.694  1.00  0.00    -0.206 F 
ATOM     89  C   UNL     1       9.697  19.788   0.017  1.00  0.00     0.022 A 
BRANCH  86  90
ATOM     90  S   UNL     1       8.249  19.803   2.401  1.00  0.00     0.124 S 
ATOM     91  O   UNL     1       6.816  19.895   2.141  1.00  0.00    -0.237 OA
ATOM     92  O   UNL     1       8.652  18.828   3.409  1.00  0.00    -0.237 OA
ATOM     93  O   UNL     1       8.952  21.083   2.463  1.00  0.00    -0.744 OA
ENDBRANCH  86  90
ENDBRANCH  60  83
ENDBRANCH  34  35
ENDBRANCH  26  29
ENDBRANCH  24  25
ENDBRANCH  23  24
ENDBRANCH   1  23
TORSDOF 18
