REMARK SMILES C[C@@H](c1ccccc1)[C@@H]1[NH2+][C@@H](C(=O)NCCCNC(=O)c2ccc(-c3c4nc(c(-c5cc(S(=O)(=O)[O-])ccc5F)c5ccc([nH]5)c(-c5cc(S(=O)(=O)[O-])ccc5F)c5nc(c(-c6cc(S(=O)(=O)[O-])ccc6F)c6ccc3[nH]6)C=C5)C=C4)cc2)CS1
REMARK SMILES IDX 16 1 15 2 14 3 12 4 13 5 11 7 9 8 10 9 85 10 84 13 2 14 1 15
REMARK SMILES IDX 3 16 4 17 8 18 5 19 7 20 6 21 17 22 18 23 19 24 20 26 21 27
REMARK SMILES IDX 22 28 83 29 23 30 82 31 24 32 25 33 26 34 76 35 27 36 81 37
REMARK SMILES IDX 75 38 77 39 28 40 80 41 74 42 73 43 29 45 61 46 41 47 60 48
REMARK SMILES IDX 42 49 45 50 59 51 78 52 43 53 44 54 58 56 79 57 46 58 30 59
REMARK SMILES IDX 31 60 39 61 32 62 38 63 40 64 37 65 33 66 34 67 35 68 36 69
REMARK SMILES IDX 62 70 63 71 71 72 64 73 70 74 72 75 69 76 65 77 66 78 67 79
REMARK SMILES IDX 68 80 47 81 48 82 56 83 49 84 55 85 57 86 54 87 50 88 51 89
REMARK SMILES IDX 52 90 53 91
REMARK H PARENT 14 6 10 11 10 12 18 25 77 44 45 55
REMARK Flexibility Score: inf
ROOT
ATOM      1  C   UNL     1      -3.247  -5.164  -0.991  1.00  0.00     0.042 C 
ENDROOT
BRANCH   1   2
ATOM      2  C   UNL     1      -2.409  -4.977  -2.255  1.00  0.00     0.118 C 
BRANCH   2   3
ATOM      3  N   UNL     1      -3.013  -4.060  -3.202  1.00  0.00    -0.351 N 
ATOM      4  C   UNL     1      -2.702  -2.760  -3.479  1.00  0.00     0.279 C 
ATOM      5  O   UNL     1      -3.345  -2.215  -4.380  1.00  0.00    -0.268 OA
ATOM      6  H   UNL     1      -3.760  -4.431  -3.724  1.00  0.00     0.163 HD
BRANCH   4   7
ATOM      7  C   UNL     1      -1.546  -2.045  -2.741  1.00  0.00     0.283 C 
ATOM      8  C   UNL     1      -0.931  -1.038  -0.646  1.00  0.00     0.249 C 
ATOM      9  N   UNL     1      -1.724  -2.115  -1.263  1.00  0.00    -0.324 N 
ATOM     10  S   UNL     1      -1.340   0.407  -1.672  1.00  0.00    -0.092 SA
ATOM     11  H   UNL     1      -2.709  -1.994  -1.029  1.00  0.00     0.347 HD
ATOM     12  H   UNL     1      -1.412  -3.021  -0.916  1.00  0.00     0.347 HD
ATOM     13  C   UNL     1      -1.438  -0.577  -3.188  1.00  0.00     0.151 C 
BRANCH   8  14
ATOM     14  C   UNL     1       0.611  -1.297  -0.554  1.00  0.00     0.085 C 
ATOM     15  C   UNL     1       1.382  -0.040  -0.098  1.00  0.00     0.020 C 
BRANCH  14  16
ATOM     16  C   UNL     1       0.940  -2.502   0.329  1.00  0.00    -0.038 A 
ATOM     17  C   UNL     1       0.946  -3.787  -0.239  1.00  0.00     0.004 A 
ATOM     18  C   UNL     1       1.242  -2.386   1.695  1.00  0.00     0.004 A 
ATOM     19  C   UNL     1       1.234  -4.916   0.529  1.00  0.00     0.000 A 
ATOM     20  C   UNL     1       1.552  -3.514   2.460  1.00  0.00     0.000 A 
ATOM     21  C   UNL     1       1.543  -4.779   1.879  1.00  0.00     0.000 A 
ENDBRANCH  14  16
ENDBRANCH   8  14
ENDBRANCH   4   7
ENDBRANCH   2   3
ENDBRANCH   1   2
BRANCH   1  22
ATOM     22  C   UNL     1      -4.633  -5.768  -1.221  1.00  0.00     0.118 C 
BRANCH  22  23
ATOM     23  N   UNL     1      -4.582  -7.105  -1.788  1.00  0.00    -0.352 N 
ATOM     24  C   UNL     1      -5.172  -8.275  -1.384  1.00  0.00     0.251 C 
ATOM     25  H   UNL     1      -4.030  -7.185  -2.599  1.00  0.00     0.163 HD
ATOM     26  O   UNL     1      -4.832  -9.320  -1.943  1.00  0.00    -0.269 OA
BRANCH  24  27
ATOM     27  C   UNL     1      -6.177  -8.317  -0.294  1.00  0.00     0.039 A 
ATOM     28  C   UNL     1      -6.178  -9.426   0.559  1.00  0.00     0.014 A 
ATOM     29  C   UNL     1      -7.156  -7.330  -0.136  1.00  0.00     0.014 A 
ATOM     30  C   UNL     1      -7.119  -9.523   1.588  1.00  0.00     0.010 A 
ATOM     31  C   UNL     1      -8.056  -7.396   0.932  1.00  0.00     0.010 A 
ATOM     32  C   UNL     1      -8.052  -8.495   1.804  1.00  0.00    -0.014 A 
BRANCH  32  33
ATOM     33  C   UNL     1      -9.014  -8.578   2.937  1.00  0.00     0.031 A 
ATOM     34  C   UNL     1     -10.493  -8.718   2.682  1.00  0.00     0.074 A 
ATOM     35  C   UNL     1      -8.553  -8.522   4.203  1.00  0.00     0.049 A 
ATOM     36  N   UNL     1     -11.475  -8.819   3.543  1.00  0.00    -0.248 NA
ATOM     37  C   UNL     1     -10.925  -8.726   1.277  1.00  0.00     0.031 C 
ATOM     38  C   UNL     1      -7.148  -8.352   4.581  1.00  0.00     0.029 A 
ATOM     39  N   UNL     1      -9.209  -8.610   5.405  1.00  0.00    -0.354 N 
ATOM     40  C   UNL     1     -12.639  -8.909   2.786  1.00  0.00     0.074 A 
ATOM     41  C   UNL     1     -12.243  -8.784   1.399  1.00  0.00     0.031 C 
ATOM     42  C   UNL     1      -7.045  -8.386   5.919  1.00  0.00     0.029 A 
ATOM     43  C   UNL     1      -8.375  -8.543   6.498  1.00  0.00     0.049 A 
ATOM     44  H   UNL     1     -10.186  -8.712   5.479  1.00  0.00     0.167 HD
ATOM     45  C   UNL     1     -13.915  -9.105   3.205  1.00  0.00     0.034 A 
ATOM     46  C   UNL     1      -8.649  -8.604   7.816  1.00  0.00     0.034 A 
ATOM     47  C   UNL     1     -14.301  -9.229   4.591  1.00  0.00     0.049 A 
ATOM     48  C   UNL     1     -10.079  -8.801   8.254  1.00  0.00     0.074 A 
ATOM     49  C   UNL     1     -15.562  -9.443   5.122  1.00  0.00     0.029 A 
ATOM     50  N   UNL     1     -13.429  -9.150   5.670  1.00  0.00    -0.354 N 
ATOM     51  N   UNL     1     -11.161  -8.923   7.520  1.00  0.00    -0.248 NA
ATOM     52  C   UNL     1     -10.320  -8.888   9.700  1.00  0.00     0.031 C 
ATOM     53  C   UNL     1     -15.461  -9.441   6.518  1.00  0.00     0.029 A 
ATOM     54  C   UNL     1     -14.127  -9.294   6.860  1.00  0.00     0.049 A 
ATOM     55  H   UNL     1     -12.457  -9.012   5.599  1.00  0.00     0.167 HD
ATOM     56  C   UNL     1     -12.204  -9.134   8.418  1.00  0.00     0.074 A 
ATOM     57  C   UNL     1     -11.616  -9.150   9.741  1.00  0.00     0.031 C 
ATOM     58  C   UNL     1     -13.530  -9.299   8.174  1.00  0.00     0.034 A 
BRANCH  45  59
ATOM     59  C   UNL     1     -14.989  -9.184   2.145  1.00  0.00     0.023 A 
ATOM     60  C   UNL     1     -15.012 -10.226   1.202  1.00  0.00     0.031 A 
ATOM     61  C   UNL     1     -15.995  -8.205   2.069  1.00  0.00     0.131 A 
ATOM     62  C   UNL     1     -15.979 -10.231   0.185  1.00  0.00     0.055 A 
ATOM     63  C   UNL     1     -17.000  -8.257   1.100  1.00  0.00     0.041 A 
ATOM     64  F   UNL     1     -16.015  -7.176   2.930  1.00  0.00    -0.206 F 
ATOM     65  C   UNL     1     -16.989  -9.268   0.143  1.00  0.00     0.022 A 
BRANCH  62  66
ATOM     66  S   UNL     1     -15.828 -11.447  -1.152  1.00  0.00     0.124 S 
ATOM     67  O   UNL     1     -14.535 -11.088  -1.730  1.00  0.00    -0.237 OA
ATOM     68  O   UNL     1     -15.875 -12.716  -0.432  1.00  0.00    -0.237 OA
ATOM     69  O   UNL     1     -16.983 -11.169  -2.001  1.00  0.00    -0.744 OA
ENDBRANCH  62  66
ENDBRANCH  45  59
BRANCH  46  70
ATOM     70  C   UNL     1      -7.561  -8.485   8.830  1.00  0.00     0.023 A 
ATOM     71  C   UNL     1      -7.272  -9.544   9.705  1.00  0.00     0.031 A 
ATOM     72  C   UNL     1      -6.846  -7.285   8.989  1.00  0.00     0.131 A 
ATOM     73  C   UNL     1      -6.343  -9.364  10.741  1.00  0.00     0.055 A 
ATOM     74  C   UNL     1      -5.879  -7.130   9.984  1.00  0.00     0.041 A 
ATOM     75  F   UNL     1      -7.078  -6.242   8.176  1.00  0.00    -0.206 F 
ATOM     76  C   UNL     1      -5.636  -8.167  10.879  1.00  0.00     0.022 A 
BRANCH  73  77
ATOM     77  S   UNL     1      -6.157 -10.678  11.977  1.00  0.00     0.124 S 
ATOM     78  O   UNL     1      -7.530 -10.851  12.437  1.00  0.00    -0.237 OA
ATOM     79  O   UNL     1      -5.605 -11.767  11.179  1.00  0.00    -0.237 OA
ATOM     80  O   UNL     1      -5.239 -10.096  12.955  1.00  0.00    -0.744 OA
ENDBRANCH  73  77
ENDBRANCH  46  70
BRANCH  58  81
ATOM     81  C   UNL     1     -14.413  -9.556   9.371  1.00  0.00     0.023 A 
ATOM     82  C   UNL     1     -14.605  -8.583  10.368  1.00  0.00     0.031 A 
ATOM     83  C   UNL     1     -15.029 -10.808   9.542  1.00  0.00     0.131 A 
ATOM     84  C   UNL     1     -15.328  -8.902  11.527  1.00  0.00     0.055 A 
ATOM     85  C   UNL     1     -15.801 -11.099  10.668  1.00  0.00     0.041 A 
ATOM     86  F   UNL     1     -14.880 -11.775   8.623  1.00  0.00    -0.206 F 
ATOM     87  C   UNL     1     -15.939 -10.150  11.677  1.00  0.00     0.022 A 
BRANCH  84  88
ATOM     88  S   UNL     1     -15.357  -7.705  12.891  1.00  0.00     0.124 S 
ATOM     89  O   UNL     1     -13.935  -7.502  13.148  1.00  0.00    -0.237 OA
ATOM     90  O   UNL     1     -16.065  -6.576  12.297  1.00  0.00    -0.237 OA
ATOM     91  O   UNL     1     -16.084  -8.407  13.947  1.00  0.00    -0.744 OA
ENDBRANCH  84  88
ENDBRANCH  58  81
ENDBRANCH  32  33
ENDBRANCH  24  27
ENDBRANCH  22  23
ENDBRANCH   1  22
TORSDOF 15
