REMARK SMILES O=C(NCCCNC(=O)[C@@H]1C=C[C@H](NC(=O)c2ccc(Cl)cc2[N+](=O)[O-])C1)c1ccc(-c2c3nc(c(-c4cc(S(=O)(=O)[O-])ccc4F)c4ccc([nH]4)c(-c4cc(S(=O)(=O)[O-])ccc4F)c4nc(c(-c5cc(S(=O)(=O)[O-])ccc5F)c5ccc2[nH]5)C=C4)C=C3)cc1
REMARK SMILES IDX 5 1 4 2 3 3 1 4 2 5 28 7 29 8 90 9 30 10 89 11 31 12 32 13
REMARK SMILES IDX 33 14 83 15 34 16 88 17 82 18 84 19 35 20 87 21 81 22 80 23
REMARK SMILES IDX 36 25 68 26 48 27 67 28 49 29 52 30 66 31 85 32 50 33 51 34
REMARK SMILES IDX 65 36 86 37 53 38 37 39 38 40 46 41 39 42 45 43 47 44 44 45
REMARK SMILES IDX 40 46 41 47 42 48 43 49 69 50 70 51 78 52 71 53 77 54 79 55
REMARK SMILES IDX 76 56 72 57 73 58 74 59 75 60 54 61 55 62 63 63 56 64 62 65
REMARK SMILES IDX 64 66 61 67 57 68 58 69 59 70 60 71 6 72 7 73 8 74 9 76
REMARK SMILES IDX 10 77 11 78 27 79 12 80 13 81 14 82 15 83 16 85 17 86 18 87
REMARK SMILES IDX 23 88 19 89 22 90 20 91 21 92 24 93 25 94 26 95
REMARK H PARENT 3 6 84 24 52 35 7 75 14 84
REMARK Flexibility Score: inf
ROOT
ATOM      1  C   UNL     1       5.774  -2.821   3.294  1.00  0.00     0.042 C 
ENDROOT
BRANCH   1   2
ATOM      2  C   UNL     1       6.822  -2.160   4.188  1.00  0.00     0.118 C 
BRANCH   2   3
ATOM      3  N   UNL     1       7.020  -0.756   3.859  1.00  0.00    -0.352 N 
ATOM      4  O   UNL     1       6.918   1.471   4.138  1.00  0.00    -0.269 OA
ATOM      5  C   UNL     1       6.892   0.359   4.654  1.00  0.00     0.251 C 
ATOM      6  H   UNL     1       7.285  -0.577   2.928  1.00  0.00     0.163 HD
BRANCH   5   7
ATOM      7  C   UNL     1       6.710   0.221   6.118  1.00  0.00     0.039 A 
ATOM      8  C   UNL     1       7.455  -0.704   6.853  1.00  0.00     0.014 A 
ATOM      9  C   UNL     1       5.805   1.064   6.771  1.00  0.00     0.014 A 
ATOM     10  C   UNL     1       7.207  -0.873   8.213  1.00  0.00     0.010 A 
ATOM     11  C   UNL     1       5.619   0.951   8.153  1.00  0.00     0.010 A 
ATOM     12  C   UNL     1       6.303  -0.033   8.883  1.00  0.00    -0.014 A 
BRANCH  12  13
ATOM     13  C   UNL     1       6.139  -0.159  10.356  1.00  0.00     0.031 A 
ATOM     14  C   UNL     1       4.825  -0.571  10.960  1.00  0.00     0.074 A 
ATOM     15  C   UNL     1       7.198   0.092  11.151  1.00  0.00     0.049 A 
ATOM     16  N   UNL     1       4.509  -0.729  12.221  1.00  0.00    -0.248 NA
ATOM     17  C   UNL     1       3.720  -0.828  10.027  1.00  0.00     0.031 C 
ATOM     18  C   UNL     1       8.522   0.503  10.678  1.00  0.00     0.029 A 
ATOM     19  N   UNL     1       7.339   0.028  12.513  1.00  0.00    -0.354 N 
ATOM     20  C   UNL     1       3.167  -1.094  12.237  1.00  0.00     0.074 A 
ATOM     21  C   UNL     1       2.721  -1.087  10.858  1.00  0.00     0.031 C 
ATOM     22  C   UNL     1       9.351   0.608  11.726  1.00  0.00     0.029 A 
ATOM     23  C   UNL     1       8.603   0.346  12.951  1.00  0.00     0.049 A 
ATOM     24  H   UNL     1       6.605  -0.222  13.120  1.00  0.00     0.167 HD
ATOM     25  C   UNL     1       2.387  -1.415  13.301  1.00  0.00     0.034 A 
ATOM     26  C   UNL     1       9.104   0.441  14.197  1.00  0.00     0.034 A 
ATOM     27  C   UNL     1       2.851  -1.403  14.670  1.00  0.00     0.049 A 
ATOM     28  C   UNL     1       8.201   0.149  15.365  1.00  0.00     0.074 A 
ATOM     29  C   UNL     1       2.156  -1.740  15.820  1.00  0.00     0.029 A 
ATOM     30  N   UNL     1       4.123  -1.018  15.081  1.00  0.00    -0.354 N 
ATOM     31  N   UNL     1       6.941  -0.218  15.363  1.00  0.00    -0.248 NA
ATOM     32  C   UNL     1       8.790   0.282  16.702  1.00  0.00     0.031 C 
ATOM     33  C   UNL     1       2.975  -1.478  16.924  1.00  0.00     0.029 A 
ATOM     34  C   UNL     1       4.216  -1.067  16.465  1.00  0.00     0.049 A 
ATOM     35  H   UNL     1       4.852  -0.749  14.476  1.00  0.00     0.167 HD
ATOM     36  C   UNL     1       6.593  -0.386  16.700  1.00  0.00     0.074 A 
ATOM     37  C   UNL     1       7.783  -0.096  17.475  1.00  0.00     0.031 C 
ATOM     38  C   UNL     1       5.400  -0.753  17.235  1.00  0.00     0.034 A 
BRANCH  25  39
ATOM     39  C   UNL     1       0.938  -1.755  13.023  1.00  0.00     0.023 A 
ATOM     40  C   UNL     1       0.572  -2.849  12.219  1.00  0.00     0.031 A 
ATOM     41  C   UNL     1      -0.094  -0.951  13.541  1.00  0.00     0.131 A 
ATOM     42  C   UNL     1      -0.775  -3.056  11.883  1.00  0.00     0.055 A 
ATOM     43  C   UNL     1      -1.440  -1.215  13.278  1.00  0.00     0.041 A 
ATOM     44  F   UNL     1       0.188   0.121  14.299  1.00  0.00    -0.206 F 
ATOM     45  C   UNL     1      -1.787  -2.262  12.429  1.00  0.00     0.022 A 
BRANCH  42  46
ATOM     46  S   UNL     1      -1.170  -4.265  10.589  1.00  0.00     0.124 S 
ATOM     47  O   UNL     1      -0.356  -3.785   9.474  1.00  0.00    -0.237 OA
ATOM     48  O   UNL     1      -0.748  -5.524  11.191  1.00  0.00    -0.237 OA
ATOM     49  O   UNL     1      -2.612  -4.113  10.404  1.00  0.00    -0.744 OA
ENDBRANCH  42  46
ENDBRANCH  25  39
BRANCH  26  50
ATOM     50  C   UNL     1      10.521   0.858  14.403  1.00  0.00     0.023 A 
ATOM     51  C   UNL     1      11.455  -0.011  14.987  1.00  0.00     0.031 A 
ATOM     52  C   UNL     1      10.956   2.143  14.029  1.00  0.00     0.131 A 
ATOM     53  C   UNL     1      12.769   0.428  15.213  1.00  0.00     0.055 A 
ATOM     54  C   UNL     1      12.278   2.553  14.203  1.00  0.00     0.041 A 
ATOM     55  F   UNL     1      10.103   3.013  13.466  1.00  0.00    -0.206 F 
ATOM     56  C   UNL     1      13.191   1.697  14.809  1.00  0.00     0.022 A 
BRANCH  53  57
ATOM     57  S   UNL     1      13.904  -0.660  16.117  1.00  0.00     0.124 S 
ATOM     58  O   UNL     1      13.199  -0.839  17.381  1.00  0.00    -0.237 OA
ATOM     59  O   UNL     1      13.965  -1.828  15.245  1.00  0.00    -0.237 OA
ATOM     60  O   UNL     1      15.135   0.123  16.194  1.00  0.00    -0.744 OA
ENDBRANCH  53  57
ENDBRANCH  26  50
BRANCH  38  61
ATOM     61  C   UNL     1       5.342  -0.900  18.738  1.00  0.00     0.023 A 
ATOM     62  C   UNL     1       5.508   0.198  19.600  1.00  0.00     0.031 A 
ATOM     63  C   UNL     1       5.140  -2.167  19.316  1.00  0.00     0.131 A 
ATOM     64  C   UNL     1       5.530   0.001  20.990  1.00  0.00     0.055 A 
ATOM     65  C   UNL     1       5.094  -2.346  20.699  1.00  0.00     0.041 A 
ATOM     66  F   UNL     1       4.982  -3.254  18.543  1.00  0.00    -0.206 F 
ATOM     67  C   UNL     1       5.304  -1.262  21.544  1.00  0.00     0.022 A 
BRANCH  64  68
ATOM     68  S   UNL     1       5.961   1.398  22.063  1.00  0.00     0.124 S 
ATOM     69  O   UNL     1       7.283   1.766  21.566  1.00  0.00    -0.237 OA
ATOM     70  O   UNL     1       4.889   2.348  21.787  1.00  0.00    -0.237 OA
ATOM     71  O   UNL     1       5.944   0.818  23.405  1.00  0.00    -0.744 OA
ENDBRANCH  64  68
ENDBRANCH  38  61
ENDBRANCH  12  13
ENDBRANCH   5   7
ENDBRANCH   2   3
ENDBRANCH   1   2
BRANCH   1  72
ATOM     72  C   UNL     1       6.216  -2.993   1.845  1.00  0.00     0.117 C 
BRANCH  72  73
ATOM     73  N   UNL     1       7.342  -3.901   1.752  1.00  0.00    -0.356 N 
ATOM     74  C   UNL     1       7.452  -5.195   1.353  1.00  0.00     0.227 C 
ATOM     75  H   UNL     1       8.197  -3.501   2.033  1.00  0.00     0.163 HD
ATOM     76  O   UNL     1       8.579  -5.692   1.439  1.00  0.00    -0.274 OA
BRANCH  74  77
ATOM     77  C   UNL     1       6.311  -5.936   0.640  1.00  0.00     0.103 C 
ATOM     78  C   UNL     1       4.928  -5.935   1.213  1.00  0.00    -0.016 C 
ATOM     79  C   UNL     1       6.598  -7.458   0.550  1.00  0.00     0.047 C 
ATOM     80  C   UNL     1       4.553  -7.146   1.633  1.00  0.00    -0.006 C 
ATOM     81  C   UNL     1       5.632  -8.153   1.526  1.00  0.00     0.106 C 
BRANCH  81  82
ATOM     82  N   UNL     1       6.266  -8.542   2.784  1.00  0.00    -0.346 N 
ATOM     83  C   UNL     1       6.053  -8.339   4.123  1.00  0.00     0.258 C 
ATOM     84  H   UNL     1       7.062  -9.101   2.628  1.00  0.00     0.164 HD
ATOM     85  O   UNL     1       6.713  -8.958   4.954  1.00  0.00    -0.269 OA
BRANCH  83  86
ATOM     86  C   UNL     1       5.057  -7.385   4.624  1.00  0.00     0.117 A 
ATOM     87  C   UNL     1       3.698  -7.691   4.475  1.00  0.00     0.022 A 
ATOM     88  C   UNL     1       5.420  -6.213   5.297  1.00  0.00     0.283 A 
ATOM     89  C   UNL     1       2.727  -6.745   4.816  1.00  0.00     0.022 A 
ATOM     90  C   UNL     1       4.443  -5.284   5.690  1.00  0.00     0.107 A 
ATOM     91  C   UNL     1       3.108  -5.534   5.391  1.00  0.00     0.047 A 
ATOM     92  Cl  UNL     1       1.934  -4.310   5.663  1.00  0.00    -0.084 Cl
BRANCH  88  93
ATOM     93  N   UNL     1       6.816  -5.861   5.534  1.00  0.00     0.063 N 
ATOM     94  O   UNL     1       7.067  -5.213   6.560  1.00  0.00    -0.258 OA
ATOM     95  O   UNL     1       7.637  -6.111   4.645  1.00  0.00    -0.258 OA
ENDBRANCH  88  93
ENDBRANCH  83  86
ENDBRANCH  81  82
ENDBRANCH  74  77
ENDBRANCH  72  73
ENDBRANCH   1  72
TORSDOF 16
