REMARK SMILES CC(C)(C)OC(=O)c1ccc(C[C@H]([NH3+])C(=O)NCCCNC(=O)c2ccc(-c3c4nc(c(-c5cc(S(=O)(=O)[O-])ccc5F)c5ccc([nH]5)c(-c5cc(S(=O)(=O)[O-])ccc5F)c5nc(c(-c6cc(S(=O)(=O)[O-])ccc6F)c6ccc3[nH]6)C=C5)C=C4)cc2)cc1
REMARK SMILES IDX 18 1 17 2 15 3 16 4 13 6 12 7 11 8 8 9 9 10 88 11 10 12
REMARK SMILES IDX 87 13 6 14 7 15 5 16 2 17 1 18 3 19 4 20 14 21 19 25 20 26
REMARK SMILES IDX 21 27 22 28 23 30 24 31 25 32 86 33 26 34 85 35 27 36 28 37
REMARK SMILES IDX 29 38 79 39 30 40 84 41 78 42 80 43 31 44 83 45 77 46 76 47
REMARK SMILES IDX 32 49 64 50 44 51 63 52 45 53 48 54 62 55 81 56 46 57 47 58
REMARK SMILES IDX 61 60 82 61 49 62 33 63 34 64 42 65 35 66 41 67 43 68 40 69
REMARK SMILES IDX 36 70 37 71 38 72 39 73 65 74 66 75 74 76 67 77 73 78 75 79
REMARK SMILES IDX 72 80 68 81 69 82 70 83 71 84 50 85 51 86 59 87 52 88 58 89
REMARK SMILES IDX 60 90 57 91 53 92 54 93 55 94 56 95
REMARK H PARENT 17 5 14 22 14 23 14 24 21 29 80 48 48 59
REMARK Flexibility Score: inf
ROOT
ATOM      1  C   UNL     1       1.409   8.685   7.401  1.00  0.00     0.118 C 
ENDROOT
BRANCH   1   2
ATOM      2  N   UNL     1       2.592   9.354   6.888  1.00  0.00    -0.351 N 
ATOM      3  C   UNL     1       3.197   9.301   5.668  1.00  0.00     0.278 C 
ATOM      4  O   UNL     1       4.208   9.991   5.506  1.00  0.00    -0.268 OA
ATOM      5  H   UNL     1       3.033   9.951   7.535  1.00  0.00     0.163 HD
BRANCH   3   6
ATOM      6  C   UNL     1       2.659   8.409   4.530  1.00  0.00     0.275 C 
BRANCH   6   7
ATOM      7  C   UNL     1       1.239   8.821   4.087  1.00  0.00     0.111 C 
BRANCH   7   8
ATOM      8  C   UNL     1       1.212   9.791   2.923  1.00  0.00    -0.041 A 
ATOM      9  C   UNL     1       1.160  11.548   0.734  1.00  0.00     0.060 A 
ATOM     10  C   UNL     1       1.904  11.868   1.873  1.00  0.00     0.016 A 
ATOM     11  C   UNL     1       0.418  10.363   0.698  1.00  0.00     0.016 A 
ATOM     12  C   UNL     1       1.917  11.002   2.967  1.00  0.00     0.005 A 
ATOM     13  C   UNL     1       0.446   9.491   1.788  1.00  0.00     0.005 A 
BRANCH   9  14
ATOM     14  C   UNL     1       1.238  12.454  -0.433  1.00  0.00     0.338 C 
ATOM     15  O   UNL     1       2.205  13.168  -0.656  1.00  0.00    -0.246 OA
BRANCH  14  16
ATOM     16  O   UNL     1       0.107  12.360  -1.168  1.00  0.00    -0.456 OA
BRANCH  16  17
ATOM     17  C   UNL     1      -0.005  13.069  -2.427  1.00  0.00     0.104 C 
ATOM     18  C   UNL     1      -1.446  12.819  -2.896  1.00  0.00     0.056 C 
ATOM     19  C   UNL     1       0.962  12.468  -3.452  1.00  0.00     0.056 C 
ATOM     20  C   UNL     1       0.195  14.582  -2.268  1.00  0.00     0.056 C 
ENDBRANCH  16  17
ENDBRANCH  14  16
ENDBRANCH   9  14
ENDBRANCH   7   8
ENDBRANCH   6   7
BRANCH   6  21
ATOM     21  N   UNL     1       2.762   6.981   4.915  1.00  0.00    -0.347 N 
ATOM     22  H   UNL     1       2.188   6.809   5.740  1.00  0.00     0.345 HD
ATOM     23  H   UNL     1       3.734   6.755   5.123  1.00  0.00     0.345 HD
ATOM     24  H   UNL     1       2.434   6.397   4.145  1.00  0.00     0.345 HD
ENDBRANCH   6  21
ENDBRANCH   3   6
ENDBRANCH   1   2
BRANCH   1  25
ATOM     25  C   UNL     1       1.736   7.722   8.535  1.00  0.00     0.042 C 
BRANCH  25  26
ATOM     26  C   UNL     1       2.295   8.391   9.787  1.00  0.00     0.118 C 
BRANCH  26  27
ATOM     27  N   UNL     1       1.382   9.371  10.353  1.00  0.00    -0.352 N 
ATOM     28  C   UNL     1       0.793   9.441  11.590  1.00  0.00     0.251 C 
ATOM     29  H   UNL     1       1.147  10.110   9.746  1.00  0.00     0.163 HD
ATOM     30  O   UNL     1      -0.105  10.261  11.766  1.00  0.00    -0.269 OA
BRANCH  28  31
ATOM     31  C   UNL     1       1.205   8.542  12.693  1.00  0.00     0.039 A 
ATOM     32  C   UNL     1       0.226   8.090  13.584  1.00  0.00     0.014 A 
ATOM     33  C   UNL     1       2.540   8.181  12.894  1.00  0.00     0.014 A 
ATOM     34  C   UNL     1       0.578   7.242  14.636  1.00  0.00     0.010 A 
ATOM     35  C   UNL     1       2.877   7.266  13.891  1.00  0.00     0.010 A 
ATOM     36  C   UNL     1       1.902   6.797  14.782  1.00  0.00    -0.014 A 
BRANCH  36  37
ATOM     37  C   UNL     1       2.266   5.849  15.867  1.00  0.00     0.031 A 
ATOM     38  C   UNL     1       3.220   6.260  16.957  1.00  0.00     0.074 A 
ATOM     39  C   UNL     1       1.767   4.597  15.842  1.00  0.00     0.049 A 
ATOM     40  N   UNL     1       3.640   5.575  17.990  1.00  0.00    -0.248 NA
ATOM     41  C   UNL     1       3.806   7.603  16.850  1.00  0.00     0.031 C 
ATOM     42  C   UNL     1       0.899   4.055  14.793  1.00  0.00     0.029 A 
ATOM     43  N   UNL     1       1.916   3.554  16.720  1.00  0.00    -0.354 N 
ATOM     44  C   UNL     1       4.551   6.396  18.647  1.00  0.00     0.074 A 
ATOM     45  C   UNL     1       4.668   7.603  17.856  1.00  0.00     0.031 C 
ATOM     46  C   UNL     1       0.571   2.792  15.103  1.00  0.00     0.029 A 
ATOM     47  C   UNL     1       1.222   2.424  16.356  1.00  0.00     0.049 A 
ATOM     48  H   UNL     1       2.469   3.609  17.533  1.00  0.00     0.167 HD
ATOM     49  C   UNL     1       5.209   6.175  19.813  1.00  0.00     0.034 A 
ATOM     50  C   UNL     1       1.115   1.228  16.967  1.00  0.00     0.034 A 
ATOM     51  C   UNL     1       5.064   4.972  20.598  1.00  0.00     0.049 A 
ATOM     52  C   UNL     1       1.804   1.024  18.289  1.00  0.00     0.074 A 
ATOM     53  C   UNL     1       5.620   4.671  21.830  1.00  0.00     0.029 A 
ATOM     54  N   UNL     1       4.313   3.864  20.224  1.00  0.00    -0.354 N 
ATOM     55  N   UNL     1       2.593   1.844  18.944  1.00  0.00    -0.248 NA
ATOM     56  C   UNL     1       1.564  -0.255  18.966  1.00  0.00     0.031 C 
ATOM     57  C   UNL     1       5.255   3.362  22.170  1.00  0.00     0.029 A 
ATOM     58  C   UNL     1       4.412   2.870  21.187  1.00  0.00     0.049 A 
ATOM     59  H   UNL     1       3.787   3.794  19.394  1.00  0.00     0.167 HD
ATOM     60  C   UNL     1       2.927   1.186  20.124  1.00  0.00     0.074 A 
ATOM     61  C   UNL     1       2.232  -0.086  20.098  1.00  0.00     0.031 C 
ATOM     62  C   UNL     1       3.732   1.596  21.138  1.00  0.00     0.034 A 
BRANCH  49  63
ATOM     63  C   UNL     1       6.161   7.251  20.287  1.00  0.00     0.023 A 
ATOM     64  C   UNL     1       5.717   8.550  20.595  1.00  0.00     0.031 A 
ATOM     65  C   UNL     1       7.538   6.988  20.393  1.00  0.00     0.131 A 
ATOM     66  C   UNL     1       6.646   9.555  20.905  1.00  0.00     0.055 A 
ATOM     67  C   UNL     1       8.449   7.972  20.787  1.00  0.00     0.041 A 
ATOM     68  F   UNL     1       8.028   5.774  20.096  1.00  0.00    -0.206 F 
ATOM     69  C   UNL     1       8.007   9.269  21.028  1.00  0.00     0.022 A 
BRANCH  66  70
ATOM     70  S   UNL     1       6.067  11.273  20.987  1.00  0.00     0.124 S 
ATOM     71  O   UNL     1       5.489  11.453  19.657  1.00  0.00    -0.237 OA
ATOM     72  O   UNL     1       5.121  11.234  22.095  1.00  0.00    -0.237 OA
ATOM     73  O   UNL     1       7.289  12.035  21.235  1.00  0.00    -0.744 OA
ENDBRANCH  66  70
ENDBRANCH  49  63
BRANCH  50  74
ATOM     74  C   UNL     1       0.310   0.141  16.343  1.00  0.00     0.023 A 
ATOM     75  C   UNL     1      -0.891  -0.298  16.922  1.00  0.00     0.031 A 
ATOM     76  C   UNL     1       0.740  -0.481  15.158  1.00  0.00     0.131 A 
ATOM     77  C   UNL     1      -1.603  -1.356  16.336  1.00  0.00     0.055 A 
ATOM     78  C   UNL     1       0.007  -1.504  14.555  1.00  0.00     0.041 A 
ATOM     79  F   UNL     1       1.874  -0.086  14.557  1.00  0.00    -0.206 F 
ATOM     80  C   UNL     1      -1.167  -1.955  15.151  1.00  0.00     0.022 A 
BRANCH  77  81
ATOM     81  S   UNL     1      -3.084  -1.979  17.177  1.00  0.00     0.124 S 
ATOM     82  O   UNL     1      -2.543  -2.390  18.468  1.00  0.00    -0.237 OA
ATOM     83  O   UNL     1      -3.943  -0.800  17.188  1.00  0.00    -0.237 OA
ATOM     84  O   UNL     1      -3.534  -3.067  16.312  1.00  0.00    -0.744 OA
ENDBRANCH  77  81
ENDBRANCH  50  74
BRANCH  62  85
ATOM     85  C   UNL     1       3.873   0.659  22.313  1.00  0.00     0.023 A 
ATOM     86  C   UNL     1       4.491  -0.598  22.185  1.00  0.00     0.031 A 
ATOM     87  C   UNL     1       3.344   1.011  23.567  1.00  0.00     0.131 A 
ATOM     88  C   UNL     1       4.501  -1.486  23.271  1.00  0.00     0.055 A 
ATOM     89  C   UNL     1       3.414   0.148  24.662  1.00  0.00     0.041 A 
ATOM     90  F   UNL     1       2.741   2.197  23.747  1.00  0.00    -0.206 F 
ATOM     91  C   UNL     1       3.979  -1.115  24.513  1.00  0.00     0.022 A 
BRANCH  88  92
ATOM     92  S   UNL     1       5.096  -3.179  23.005  1.00  0.00     0.124 S 
ATOM     93  O   UNL     1       4.261  -3.623  21.894  1.00  0.00    -0.237 OA
ATOM     94  O   UNL     1       6.507  -2.967  22.698  1.00  0.00    -0.237 OA
ATOM     95  O   UNL     1       4.832  -3.840  24.282  1.00  0.00    -0.744 OA
ENDBRANCH  88  92
ENDBRANCH  62  85
ENDBRANCH  36  37
ENDBRANCH  28  31
ENDBRANCH  26  27
ENDBRANCH  25  26
ENDBRANCH   1  25
TORSDOF 19
