REMARK SMILES C[C@H]([NH2+]C[C@@]1(C)CCCO1)C(=O)NCCCNC(=O)c1ccc(-c2c3nc(c(-c4cc(S(=O)(=O)[O-])ccc4F)c4ccc([nH]4)c(-c4cc(S(=O)(=O)[O-])ccc4F)c4nc(c(-c5cc(S(=O)(=O)[O-])ccc5F)c5ccc2[nH]5)C=C4)C=C3)cc1
REMARK SMILES IDX 15 1 14 2 13 3 11 4 12 5 2 7 1 8 3 9 4 12 5 13 6 14 7 15
REMARK SMILES IDX 10 16 8 17 9 18 16 19 17 20 18 21 19 23 20 24 21 25 82 26
REMARK SMILES IDX 22 27 81 28 23 29 24 30 25 31 75 32 26 33 80 34 74 35 76 36
REMARK SMILES IDX 27 37 79 38 73 39 72 40 28 42 60 43 40 44 59 45 41 46 44 47
REMARK SMILES IDX 58 48 77 49 42 50 43 51 57 53 78 54 45 55 29 56 30 57 38 58
REMARK SMILES IDX 31 59 37 60 39 61 36 62 32 63 33 64 34 65 35 66 61 67 62 68
REMARK SMILES IDX 70 69 63 70 69 71 71 72 68 73 64 74 65 75 66 76 67 77 46 78
REMARK SMILES IDX 47 79 55 80 48 81 54 82 56 83 53 84 49 85 50 86 51 87 52 88
REMARK H PARENT 13 6 3 10 3 11 17 22 76 41 44 52
REMARK Flexibility Score: inf
ROOT
ATOM      1  C   UNL     1      -1.213  -2.629  -0.111  1.00  0.00     0.042 C 
ENDROOT
BRANCH   1   2
ATOM      2  C   UNL     1      -0.884  -1.906  -1.411  1.00  0.00     0.118 C 
BRANCH   2   3
ATOM      3  N   UNL     1      -1.425  -0.561  -1.464  1.00  0.00    -0.351 N 
ATOM      4  C   UNL     1      -0.805   0.654  -1.417  1.00  0.00     0.277 C 
ATOM      5  O   UNL     1      -1.515   1.659  -1.534  1.00  0.00    -0.268 OA
ATOM      6  H   UNL     1      -2.405  -0.517  -1.546  1.00  0.00     0.163 HD
BRANCH   4   7
ATOM      7  C   UNL     1       0.728   0.780  -1.264  1.00  0.00     0.269 C 
ATOM      8  C   UNL     1       1.463   0.191  -2.469  1.00  0.00     0.086 C 
BRANCH   7   9
ATOM      9  N   UNL     1       1.134   0.264   0.047  1.00  0.00    -0.334 N 
ATOM     10  H   UNL     1       0.919  -0.733   0.070  1.00  0.00     0.347 HD
ATOM     11  H   UNL     1       0.620   0.816   0.733  1.00  0.00     0.347 HD
BRANCH   9  12
ATOM     12  C   UNL     1       2.545   0.425   0.386  1.00  0.00     0.296 C 
BRANCH  12  13
ATOM     13  C   UNL     1       2.989  -0.553   1.522  1.00  0.00     0.114 C 
ATOM     14  C   UNL     1       3.941  -1.617   0.957  1.00  0.00     0.048 C 
ATOM     15  C   UNL     1       3.600   0.185   2.714  1.00  0.00     0.043 C 
ATOM     16  O   UNL     1       1.854  -1.290   2.051  1.00  0.00    -0.369 OA
ATOM     17  C   UNL     1       3.225  -0.692   3.884  1.00  0.00     0.032 C 
ATOM     18  C   UNL     1       1.849  -1.173   3.481  1.00  0.00     0.161 C 
ENDBRANCH  12  13
ENDBRANCH   9  12
ENDBRANCH   7   9
ENDBRANCH   4   7
ENDBRANCH   2   3
ENDBRANCH   1   2
BRANCH   1  19
ATOM     19  C   UNL     1      -2.699  -2.895   0.105  1.00  0.00     0.118 C 
BRANCH  19  20
ATOM     20  N   UNL     1      -3.275  -3.740  -0.931  1.00  0.00    -0.352 N 
ATOM     21  C   UNL     1      -3.901  -4.956  -0.847  1.00  0.00     0.251 C 
ATOM     22  H   UNL     1      -3.204  -3.377  -1.843  1.00  0.00     0.163 HD
ATOM     23  O   UNL     1      -4.127  -5.574  -1.892  1.00  0.00    -0.269 OA
BRANCH  21  24
ATOM     24  C   UNL     1      -4.289  -5.543   0.455  1.00  0.00     0.039 A 
ATOM     25  C   UNL     1      -4.209  -6.931   0.616  1.00  0.00     0.014 A 
ATOM     26  C   UNL     1      -4.785  -4.757   1.500  1.00  0.00     0.014 A 
ATOM     27  C   UNL     1      -4.580  -7.518   1.828  1.00  0.00     0.010 A 
ATOM     28  C   UNL     1      -5.074  -5.335   2.736  1.00  0.00     0.010 A 
ATOM     29  C   UNL     1      -4.992  -6.723   2.909  1.00  0.00    -0.014 A 
BRANCH  29  30
ATOM     30  C   UNL     1      -5.370  -7.338   4.210  1.00  0.00     0.031 A 
ATOM     31  C   UNL     1      -6.781  -7.215   4.725  1.00  0.00     0.074 A 
ATOM     32  C   UNL     1      -4.436  -7.973   4.945  1.00  0.00     0.049 A 
ATOM     33  N   UNL     1      -7.296  -7.652   5.846  1.00  0.00    -0.248 NA
ATOM     34  C   UNL     1      -7.729  -6.476   3.878  1.00  0.00     0.031 C 
ATOM     35  C   UNL     1      -3.025  -8.117   4.578  1.00  0.00     0.029 A 
ATOM     36  N   UNL     1      -4.529  -8.617   6.153  1.00  0.00    -0.354 N 
ATOM     37  C   UNL     1      -8.622  -7.229   5.846  1.00  0.00     0.074 A 
ATOM     38  C   UNL     1      -8.809  -6.444   4.644  1.00  0.00     0.031 C 
ATOM     39  C   UNL     1      -2.395  -8.831   5.524  1.00  0.00     0.029 A 
ATOM     40  C   UNL     1      -3.342  -9.165   6.582  1.00  0.00     0.049 A 
ATOM     41  H   UNL     1      -5.368  -8.682   6.665  1.00  0.00     0.167 HD
ATOM     42  C   UNL     1      -9.600  -7.492   6.749  1.00  0.00     0.034 A 
ATOM     43  C   UNL     1      -3.050  -9.856   7.702  1.00  0.00     0.034 A 
ATOM     44  C   UNL     1      -9.401  -8.289   7.937  1.00  0.00     0.049 A 
ATOM     45  C   UNL     1      -4.154 -10.144   8.687  1.00  0.00     0.074 A 
ATOM     46  C   UNL     1     -10.328  -8.653   8.899  1.00  0.00     0.029 A 
ATOM     47  N   UNL     1      -8.189  -8.844   8.328  1.00  0.00    -0.354 N 
ATOM     48  N   UNL     1      -5.415  -9.778   8.648  1.00  0.00    -0.248 NA
ATOM     49  C   UNL     1      -3.798 -10.958   9.855  1.00  0.00     0.031 C 
ATOM     50  C   UNL     1      -9.665  -9.375   9.898  1.00  0.00     0.029 A 
ATOM     51  C   UNL     1      -8.340  -9.530   9.524  1.00  0.00     0.049 A 
ATOM     52  H   UNL     1      -7.345  -8.763   7.828  1.00  0.00     0.167 HD
ATOM     53  C   UNL     1      -6.009 -10.349   9.770  1.00  0.00     0.074 A 
ATOM     54  C   UNL     1      -4.972 -11.098  10.451  1.00  0.00     0.031 C 
ATOM     55  C   UNL     1      -7.295 -10.265  10.199  1.00  0.00     0.034 A 
BRANCH  42  56
ATOM     56  C   UNL     1     -10.963  -6.889   6.491  1.00  0.00     0.023 A 
ATOM     57  C   UNL     1     -11.712  -7.219   5.346  1.00  0.00     0.031 A 
ATOM     58  C   UNL     1     -11.507  -5.944   7.379  1.00  0.00     0.131 A 
ATOM     59  C   UNL     1     -12.916  -6.551   5.078  1.00  0.00     0.055 A 
ATOM     60  C   UNL     1     -12.748  -5.346   7.150  1.00  0.00     0.041 A 
ATOM     61  F   UNL     1     -10.833  -5.572   8.479  1.00  0.00    -0.206 F 
ATOM     62  C   UNL     1     -13.453  -5.635   5.985  1.00  0.00     0.022 A 
BRANCH  59  63
ATOM     63  S   UNL     1     -13.692  -6.782   3.454  1.00  0.00     0.124 S 
ATOM     64  O   UNL     1     -12.633  -6.330   2.555  1.00  0.00    -0.237 OA
ATOM     65  O   UNL     1     -13.975  -8.213   3.441  1.00  0.00    -0.237 OA
ATOM     66  O   UNL     1     -14.867  -5.914   3.509  1.00  0.00    -0.744 OA
ENDBRANCH  59  63
ENDBRANCH  42  56
BRANCH  43  67
ATOM     67  C   UNL     1      -1.660 -10.335   7.953  1.00  0.00     0.023 A 
ATOM     68  C   UNL     1      -1.365 -11.706   7.998  1.00  0.00     0.031 A 
ATOM     69  C   UNL     1      -0.615  -9.426   8.196  1.00  0.00     0.131 A 
ATOM     70  C   UNL     1      -0.069 -12.133   8.329  1.00  0.00     0.055 A 
ATOM     71  C   UNL     1       0.684  -9.855   8.473  1.00  0.00     0.041 A 
ATOM     72  F   UNL     1      -0.842  -8.104   8.157  1.00  0.00    -0.206 F 
ATOM     73  C   UNL     1       0.960 -11.216   8.555  1.00  0.00     0.022 A 
BRANCH  70  74
ATOM     74  S   UNL     1       0.233 -13.909   8.545  1.00  0.00     0.124 S 
ATOM     75  O   UNL     1      -0.724 -14.248   9.592  1.00  0.00    -0.237 OA
ATOM     76  O   UNL     1      -0.061 -14.428   7.213  1.00  0.00    -0.237 OA
ATOM     77  O   UNL     1       1.639 -13.969   8.938  1.00  0.00    -0.744 OA
ENDBRANCH  70  74
ENDBRANCH  43  67
BRANCH  55  78
ATOM     78  C   UNL     1      -7.652 -11.050  11.439  1.00  0.00     0.023 A 
ATOM     79  C   UNL     1      -7.094 -10.751  12.694  1.00  0.00     0.031 A 
ATOM     80  C   UNL     1      -8.534 -12.143  11.352  1.00  0.00     0.131 A 
ATOM     81  C   UNL     1      -7.361 -11.579  13.794  1.00  0.00     0.055 A 
ATOM     82  C   UNL     1      -8.850 -12.922  12.466  1.00  0.00     0.041 A 
ATOM     83  F   UNL     1      -9.097 -12.477  10.180  1.00  0.00    -0.206 F 
ATOM     84  C   UNL     1      -8.248 -12.654  13.692  1.00  0.00     0.022 A 
BRANCH  81  85
ATOM     85  S   UNL     1      -6.436 -11.310  15.331  1.00  0.00     0.124 S 
ATOM     86  O   UNL     1      -5.053 -11.380  14.870  1.00  0.00    -0.237 OA
ATOM     87  O   UNL     1      -6.902  -9.991  15.748  1.00  0.00    -0.237 OA
ATOM     88  O   UNL     1      -6.861 -12.416  16.186  1.00  0.00    -0.744 OA
ENDBRANCH  81  85
ENDBRANCH  55  78
ENDBRANCH  29  30
ENDBRANCH  21  24
ENDBRANCH  19  20
ENDBRANCH   1  19
TORSDOF 16
