REMARK SMILES CC1(C)[C@H](C(=O)Nc2ccccc2C(N)=O)[C@@H]1C(=O)NCCCNC(=O)c1ccc(-c2c3nc(c(-c4cc(S(=O)(=O)[O-])ccc4F)c4ccc([nH]4)c(-c4cc(S(=O)(=O)[O-])ccc4F)c4nc(c(-c5cc(S(=O)(=O)[O-])ccc5F)c5ccc2[nH]5)C=C4)C=C3)cc1
REMARK SMILES IDX 22 1 21 2 20 3 18 4 19 5 17 7 1 8 2 9 3 10 4 11 5 12 6 13
REMARK SMILES IDX 7 14 8 16 9 17 13 18 10 19 12 20 11 21 14 22 15 23 16 24
REMARK SMILES IDX 23 27 24 28 25 29 26 31 27 32 28 33 89 34 29 35 88 36 30 37
REMARK SMILES IDX 31 38 32 39 82 40 33 41 87 42 81 43 83 44 34 45 86 46 80 47
REMARK SMILES IDX 79 48 35 50 67 51 47 52 66 53 48 54 51 55 65 56 84 57 49 58
REMARK SMILES IDX 50 59 64 61 85 62 52 63 36 64 37 65 45 66 38 67 44 68 46 69
REMARK SMILES IDX 43 70 39 71 40 72 41 73 42 74 68 75 69 76 77 77 70 78 76 79
REMARK SMILES IDX 78 80 75 81 71 82 72 83 73 84 74 85 53 86 54 87 62 88 55 89
REMARK SMILES IDX 61 90 63 91 60 92 56 93 57 94 58 95 59 96
REMARK H PARENT 20 6 7 15 15 25 15 26 24 30 83 49 51 60
REMARK Flexibility Score: inf
ROOT
ATOM      1  C   UNL     1      -5.385   0.952   0.444  1.00  0.00     0.042 C 
ENDROOT
BRANCH   1   2
ATOM      2  C   UNL     1      -3.928   1.035   0.046  1.00  0.00     0.117 C 
BRANCH   2   3
ATOM      3  N   UNL     1      -3.071   1.261   1.187  1.00  0.00    -0.356 N 
ATOM      4  C   UNL     1      -1.968   0.565   1.569  1.00  0.00     0.224 C 
ATOM      5  O   UNL     1      -1.522   0.741   2.698  1.00  0.00    -0.275 OA
ATOM      6  H   UNL     1      -3.318   2.020   1.763  1.00  0.00     0.163 HD
BRANCH   4   7
ATOM      7  C   UNL     1      -1.339  -0.425   0.648  1.00  0.00     0.098 C 
ATOM      8  C   UNL     1       0.975  -1.628   0.320  1.00  0.00     0.013 C 
ATOM      9  C   UNL     1       0.181  -0.332   0.427  1.00  0.00    -0.011 C 
ATOM     10  C   UNL     1       0.906   0.675   1.277  1.00  0.00     0.013 C 
ATOM     11  C   UNL     1      -0.771  -0.135  -0.734  1.00  0.00     0.098 C 
BRANCH  11  12
ATOM     12  C   UNL     1      -1.372   0.903  -1.611  1.00  0.00     0.228 C 
ATOM     13  O   UNL     1      -2.145   0.486  -2.481  1.00  0.00    -0.274 OA
ATOM     14  N   UNL     1      -1.321   2.259  -1.473  1.00  0.00    -0.325 N 
ATOM     15  H   UNL     1      -2.004   2.740  -1.994  1.00  0.00     0.169 HD
BRANCH  14  16
ATOM     16  C   UNL     1      -0.488   3.089  -0.738  1.00  0.00     0.053 A 
ATOM     17  C   UNL     1      -1.142   4.061   0.032  1.00  0.00     0.027 A 
ATOM     18  C   UNL     1       0.912   3.020  -0.754  1.00  0.00     0.063 A 
ATOM     19  C   UNL     1      -0.421   4.855   0.916  1.00  0.00     0.002 A 
ATOM     20  C   UNL     1       1.632   3.839   0.131  1.00  0.00     0.016 A 
ATOM     21  C   UNL     1       0.963   4.723   0.987  1.00  0.00     0.001 A 
BRANCH  18  22
ATOM     22  C   UNL     1       1.624   2.175  -1.756  1.00  0.00     0.250 C 
ATOM     23  N   UNL     1       2.835   1.648  -1.403  1.00  0.00    -0.366 N 
ATOM     24  O   UNL     1       1.169   1.945  -2.869  1.00  0.00    -0.269 OA
ATOM     25  H   UNL     1       3.209   1.828  -0.510  1.00  0.00     0.159 HD
ATOM     26  H   UNL     1       3.333   1.088  -2.042  1.00  0.00     0.159 HD
ENDBRANCH  18  22
ENDBRANCH  14  16
ENDBRANCH  11  12
ENDBRANCH   4   7
ENDBRANCH   2   3
ENDBRANCH   1   2
BRANCH   1  27
ATOM     27  C   UNL     1      -5.896   2.211   1.125  1.00  0.00     0.118 C 
BRANCH  27  28
ATOM     28  N   UNL     1      -5.835   3.399   0.278  1.00  0.00    -0.352 N 
ATOM     29  C   UNL     1      -6.854   4.145  -0.269  1.00  0.00     0.251 C 
ATOM     30  H   UNL     1      -4.926   3.714   0.067  1.00  0.00     0.163 HD
ATOM     31  O   UNL     1      -6.597   5.022  -1.088  1.00  0.00    -0.269 OA
BRANCH  29  32
ATOM     32  C   UNL     1      -8.250   3.846   0.109  1.00  0.00     0.039 A 
ATOM     33  C   UNL     1      -9.225   3.747  -0.883  1.00  0.00     0.014 A 
ATOM     34  C   UNL     1      -8.573   3.587   1.441  1.00  0.00     0.014 A 
ATOM     35  C   UNL     1     -10.499   3.285  -0.546  1.00  0.00     0.010 A 
ATOM     36  C   UNL     1      -9.788   2.993   1.747  1.00  0.00     0.010 A 
ATOM     37  C   UNL     1     -10.772   2.846   0.760  1.00  0.00    -0.014 A 
BRANCH  37  38
ATOM     38  C   UNL     1     -12.081   2.241   1.123  1.00  0.00     0.031 A 
ATOM     39  C   UNL     1     -12.912   2.856   2.217  1.00  0.00     0.074 A 
ATOM     40  C   UNL     1     -12.479   1.100   0.526  1.00  0.00     0.049 A 
ATOM     41  N   UNL     1     -14.041   2.442   2.732  1.00  0.00    -0.248 NA
ATOM     42  C   UNL     1     -12.378   4.072   2.849  1.00  0.00     0.031 C 
ATOM     43  C   UNL     1     -11.724   0.371  -0.496  1.00  0.00     0.029 A 
ATOM     44  N   UNL     1     -13.614   0.347   0.696  1.00  0.00    -0.354 N 
ATOM     45  C   UNL     1     -14.336   3.333   3.760  1.00  0.00     0.074 A 
ATOM     46  C   UNL     1     -13.223   4.252   3.849  1.00  0.00     0.031 C 
ATOM     47  C   UNL     1     -12.434  -0.698  -0.889  1.00  0.00     0.029 A 
ATOM     48  C   UNL     1     -13.666  -0.765  -0.112  1.00  0.00     0.049 A 
ATOM     49  H   UNL     1     -14.324   0.581   1.337  1.00  0.00     0.167 HD
ATOM     50  C   UNL     1     -15.447   3.398   4.535  1.00  0.00     0.034 A 
ATOM     51  C   UNL     1     -14.596  -1.736  -0.209  1.00  0.00     0.034 A 
ATOM     52  C   UNL     1     -16.550   2.477   4.416  1.00  0.00     0.049 A 
ATOM     53  C   UNL     1     -15.821  -1.653   0.664  1.00  0.00     0.074 A 
ATOM     54  C   UNL     1     -17.759   2.490   5.088  1.00  0.00     0.029 A 
ATOM     55  N   UNL     1     -16.574   1.367   3.578  1.00  0.00    -0.354 N 
ATOM     56  N   UNL     1     -16.125  -0.758   1.576  1.00  0.00    -0.248 NA
ATOM     57  C   UNL     1     -16.832  -2.701   0.485  1.00  0.00     0.031 C 
ATOM     58  C   UNL     1     -18.474   1.343   4.723  1.00  0.00     0.029 A 
ATOM     59  C   UNL     1     -17.756   0.663   3.751  1.00  0.00     0.049 A 
ATOM     60  H   UNL     1     -15.855   1.117   2.954  1.00  0.00     0.167 HD
ATOM     61  C   UNL     1     -17.376  -1.124   2.065  1.00  0.00     0.074 A 
ATOM     62  C   UNL     1     -17.774  -2.309   1.330  1.00  0.00     0.031 C 
ATOM     63  C   UNL     1     -18.129  -0.533   3.029  1.00  0.00     0.034 A 
BRANCH  50  64
ATOM     64  C   UNL     1     -15.492   4.480   5.592  1.00  0.00     0.023 A 
ATOM     65  C   UNL     1     -15.393   5.845   5.263  1.00  0.00     0.031 A 
ATOM     66  C   UNL     1     -15.575   4.142   6.954  1.00  0.00     0.131 A 
ATOM     67  C   UNL     1     -15.270   6.805   6.278  1.00  0.00     0.055 A 
ATOM     68  C   UNL     1     -15.556   5.112   7.958  1.00  0.00     0.041 A 
ATOM     69  F   UNL     1     -15.649   2.857   7.338  1.00  0.00    -0.206 F 
ATOM     70  C   UNL     1     -15.380   6.452   7.624  1.00  0.00     0.022 A 
BRANCH  67  71
ATOM     71  S   UNL     1     -14.770   8.488   5.819  1.00  0.00     0.124 S 
ATOM     72  O   UNL     1     -13.518   8.239   5.106  1.00  0.00    -0.237 OA
ATOM     73  O   UNL     1     -15.891   8.939   5.003  1.00  0.00    -0.237 OA
ATOM     74  O   UNL     1     -14.619   9.165   7.105  1.00  0.00    -0.744 OA
ENDBRANCH  67  71
ENDBRANCH  50  64
BRANCH  51  75
ATOM     75  C   UNL     1     -14.396  -2.870  -1.158  1.00  0.00     0.023 A 
ATOM     76  C   UNL     1     -15.239  -3.051  -2.266  1.00  0.00     0.031 A 
ATOM     77  C   UNL     1     -13.353  -3.794  -0.966  1.00  0.00     0.131 A 
ATOM     78  C   UNL     1     -15.043  -4.147  -3.122  1.00  0.00     0.055 A 
ATOM     79  C   UNL     1     -13.130  -4.851  -1.849  1.00  0.00     0.041 A 
ATOM     80  F   UNL     1     -12.515  -3.664   0.075  1.00  0.00    -0.206 F 
ATOM     81  C   UNL     1     -13.984  -5.038  -2.930  1.00  0.00     0.022 A 
BRANCH  78  82
ATOM     82  S   UNL     1     -16.232  -4.431  -4.463  1.00  0.00     0.124 S 
ATOM     83  O   UNL     1     -17.479  -4.597  -3.724  1.00  0.00    -0.237 OA
ATOM     84  O   UNL     1     -16.108  -3.205  -5.244  1.00  0.00    -0.237 OA
ATOM     85  O   UNL     1     -15.728  -5.637  -5.116  1.00  0.00    -0.744 OA
ENDBRANCH  78  82
ENDBRANCH  51  75
BRANCH  63  86
ATOM     86  C   UNL     1     -19.479  -1.146   3.318  1.00  0.00     0.023 A 
ATOM     87  C   UNL     1     -19.606  -2.438   3.858  1.00  0.00     0.031 A 
ATOM     88  C   UNL     1     -20.657  -0.429   3.039  1.00  0.00     0.131 A 
ATOM     89  C   UNL     1     -20.880  -2.996   4.043  1.00  0.00     0.055 A 
ATOM     90  C   UNL     1     -21.921  -0.961   3.294  1.00  0.00     0.041 A 
ATOM     91  F   UNL     1     -20.597   0.807   2.517  1.00  0.00    -0.206 F 
ATOM     92  C   UNL     1     -22.038  -2.258   3.785  1.00  0.00     0.022 A 
BRANCH  89  93
ATOM     93  S   UNL     1     -21.005  -4.741   4.520  1.00  0.00     0.124 S 
ATOM     94  O   UNL     1     -20.279  -5.402   3.440  1.00  0.00    -0.237 OA
ATOM     95  O   UNL     1     -20.357  -4.755   5.827  1.00  0.00    -0.237 OA
ATOM     96  O   UNL     1     -22.445  -4.989   4.540  1.00  0.00    -0.744 OA
ENDBRANCH  89  93
ENDBRANCH  63  86
ENDBRANCH  37  38
ENDBRANCH  29  32
ENDBRANCH  27  28
ENDBRANCH   1  27
TORSDOF 16
