REMARK SMILES C[N@H+]1Cc2ccccc2C[C@@H]1C(=O)NCCC(=O)NCC(=O)NCCCNC(=O)c1ccc(-c2c3nc(c(-c4cc(S(=O)(=O)[O-])ccc4F)c4ccc([nH]4)c(-c4cc(S(=O)(=O)[O-])ccc4F)c4nc(c(-c5cc(S(=O)(=O)[O-])ccc5F)c5ccc2[nH]5)C=C4)C=C3)cc1
REMARK SMILES IDX 24 1 23 2 21 3 22 4 20 6 19 7 17 8 18 9 16 11 15 12 14 13
REMARK SMILES IDX 12 14 13 15 11 17 1 18 2 19 3 20 4 22 10 23 5 24 9 25 6 26
REMARK SMILES IDX 8 27 7 28 25 29 26 30 27 31 28 32 29 34 30 35 31 36 92 37
REMARK SMILES IDX 32 38 91 39 33 40 34 41 35 42 85 43 36 44 90 45 84 46 86 47
REMARK SMILES IDX 37 48 89 49 83 50 82 51 38 53 70 54 50 55 69 56 51 57 54 58
REMARK SMILES IDX 68 59 87 60 52 61 53 62 67 64 88 65 55 66 39 67 40 68 48 69
REMARK SMILES IDX 41 70 47 71 49 72 46 73 42 74 43 75 44 76 45 77 71 78 72 79
REMARK SMILES IDX 80 80 73 81 79 82 81 83 78 84 74 85 75 86 76 87 77 88 56 89
REMARK SMILES IDX 57 90 65 91 58 92 64 93 66 94 63 95 59 96 60 97 61 98 62 99
REMARK H PARENT 23 5 19 10 14 16 2 21 27 33 86 52 54 63
REMARK Flexibility Score: inf
ROOT
ATOM      1  C   UNL     1      -4.741   3.941   2.322  1.00  0.00     0.117 C 
ENDROOT
BRANCH   1   2
ATOM      2  N   UNL     1      -5.842   3.442   1.512  1.00  0.00    -0.355 N 
ATOM      3  C   UNL     1      -6.307   3.751   0.269  1.00  0.00     0.239 C 
ATOM      4  O   UNL     1      -7.255   3.073  -0.146  1.00  0.00    -0.273 OA
ATOM      5  H   UNL     1      -6.360   2.732   1.956  1.00  0.00     0.163 HD
BRANCH   3   6
ATOM      6  C   UNL     1      -5.606   4.738  -0.682  1.00  0.00     0.216 C 
BRANCH   6   7
ATOM      7  N   UNL     1      -4.921   5.868  -0.081  1.00  0.00    -0.347 N 
ATOM      8  C   UNL     1      -3.599   6.192  -0.065  1.00  0.00     0.222 C 
ATOM      9  O   UNL     1      -3.251   7.179   0.583  1.00  0.00    -0.275 OA
ATOM     10  H   UNL     1      -5.507   6.502   0.392  1.00  0.00     0.164 HD
BRANCH   8  11
ATOM     11  C   UNL     1      -2.574   5.342  -0.787  1.00  0.00     0.121 C 
BRANCH  11  12
ATOM     12  C   UNL     1      -1.995   4.228   0.089  1.00  0.00     0.126 C 
BRANCH  12  13
ATOM     13  N   UNL     1      -2.809   3.017   0.056  1.00  0.00    -0.350 N 
ATOM     14  C   UNL     1      -2.694   1.937  -0.760  1.00  0.00     0.278 C 
ATOM     15  O   UNL     1      -3.681   1.679  -1.460  1.00  0.00    -0.268 OA
ATOM     16  H   UNL     1      -3.541   2.978   0.713  1.00  0.00     0.163 HD
BRANCH  14  17
ATOM     17  C   UNL     1      -1.503   0.959  -0.677  1.00  0.00     0.278 C 
ATOM     18  C   UNL     1      -3.142  -0.791  -0.012  1.00  0.00     0.333 C 
ATOM     19  N   UNL     1      -1.808  -0.221   0.197  1.00  0.00    -0.323 N 
ATOM     20  C   UNL     1      -0.798  -1.272  -0.050  1.00  0.00     0.299 C 
ATOM     21  H   UNL     1      -1.784   0.117   1.159  1.00  0.00     0.348 HD
ATOM     22  C   UNL     1       0.632  -0.778  -0.004  1.00  0.00     0.010 A 
ATOM     23  C   UNL     1      -0.201   1.591  -0.172  1.00  0.00     0.111 C 
ATOM     24  C   UNL     1       1.689  -1.697   0.049  1.00  0.00     0.010 A 
ATOM     25  C   UNL     1       0.923   0.593  -0.076  1.00  0.00    -0.033 A 
ATOM     26  C   UNL     1       3.012  -1.254   0.069  1.00  0.00     0.001 A 
ATOM     27  C   UNL     1       2.251   1.033  -0.022  1.00  0.00     0.004 A 
ATOM     28  C   UNL     1       3.292   0.111   0.045  1.00  0.00     0.000 A 
ENDBRANCH  14  17
ENDBRANCH  12  13
ENDBRANCH  11  12
ENDBRANCH   8  11
ENDBRANCH   6   7
ENDBRANCH   3   6
ENDBRANCH   1   2
BRANCH   1  29
ATOM     29  C   UNL     1      -5.191   4.609   3.604  1.00  0.00     0.042 C 
BRANCH  29  30
ATOM     30  C   UNL     1      -5.652   3.609   4.651  1.00  0.00     0.118 C 
BRANCH  30  31
ATOM     31  N   UNL     1      -4.561   2.790   5.175  1.00  0.00    -0.352 N 
ATOM     32  C   UNL     1      -3.942   2.796   6.405  1.00  0.00     0.251 C 
ATOM     33  H   UNL     1      -4.209   2.122   4.543  1.00  0.00     0.163 HD
ATOM     34  O   UNL     1      -2.919   2.133   6.566  1.00  0.00    -0.269 OA
BRANCH  32  35
ATOM     35  C   UNL     1      -4.476   3.620   7.511  1.00  0.00     0.039 A 
ATOM     36  C   UNL     1      -3.590   4.306   8.345  1.00  0.00     0.014 A 
ATOM     37  C   UNL     1      -5.850   3.730   7.719  1.00  0.00     0.014 A 
ATOM     38  C   UNL     1      -4.089   5.183   9.314  1.00  0.00     0.010 A 
ATOM     39  C   UNL     1      -6.341   4.693   8.590  1.00  0.00     0.010 A 
ATOM     40  C   UNL     1      -5.468   5.431   9.402  1.00  0.00    -0.014 A 
BRANCH  40  41
ATOM     41  C   UNL     1      -6.034   6.441  10.337  1.00  0.00     0.031 A 
ATOM     42  C   UNL     1      -7.062   6.021  11.355  1.00  0.00     0.074 A 
ATOM     43  C   UNL     1      -5.709   7.742  10.200  1.00  0.00     0.049 A 
ATOM     44  N   UNL     1      -7.805   6.759  12.139  1.00  0.00    -0.248 NA
ATOM     45  C   UNL     1      -7.324   4.577  11.467  1.00  0.00     0.031 C 
ATOM     46  C   UNL     1      -4.771   8.284   9.213  1.00  0.00     0.029 A 
ATOM     47  N   UNL     1      -6.145   8.851  10.881  1.00  0.00    -0.354 N 
ATOM     48  C   UNL     1      -8.643   5.873  12.810  1.00  0.00     0.074 A 
ATOM     49  C   UNL     1      -8.364   4.554  12.284  1.00  0.00     0.031 C 
ATOM     50  C   UNL     1      -4.686   9.615   9.369  1.00  0.00     0.029 A 
ATOM     51  C   UNL     1      -5.598  10.030  10.428  1.00  0.00     0.049 A 
ATOM     52  H   UNL     1      -6.788   8.808  11.625  1.00  0.00     0.167 HD
ATOM     53  C   UNL     1      -9.540   6.130  13.795  1.00  0.00     0.034 A 
ATOM     54  C   UNL     1      -5.821  11.304  10.809  1.00  0.00     0.034 A 
ATOM     55  C   UNL     1      -9.777   7.447  14.333  1.00  0.00     0.049 A 
ATOM     56  C   UNL     1      -6.809  11.567  11.916  1.00  0.00     0.074 A 
ATOM     57  C   UNL     1     -10.614   7.818  15.370  1.00  0.00     0.029 A 
ATOM     58  N   UNL     1      -9.170   8.611  13.877  1.00  0.00    -0.354 N 
ATOM     59  N   UNL     1      -7.564  10.713  12.569  1.00  0.00    -0.248 NA
ATOM     60  C   UNL     1      -6.966  12.962  12.346  1.00  0.00     0.031 C 
ATOM     61  C   UNL     1     -10.553   9.210  15.507  1.00  0.00     0.029 A 
ATOM     62  C   UNL     1      -9.627   9.701  14.600  1.00  0.00     0.049 A 
ATOM     63  H   UNL     1      -8.510   8.655  13.147  1.00  0.00     0.167 HD
ATOM     64  C   UNL     1      -8.267  11.467  13.503  1.00  0.00     0.074 A 
ATOM     65  C   UNL     1      -7.833  12.840  13.340  1.00  0.00     0.031 C 
ATOM     66  C   UNL     1      -9.188  11.064  14.416  1.00  0.00     0.034 A 
BRANCH  53  67
ATOM     67  C   UNL     1     -10.329   4.961  14.335  1.00  0.00     0.023 A 
ATOM     68  C   UNL     1      -9.698   3.875  14.966  1.00  0.00     0.031 A 
ATOM     69  C   UNL     1     -11.726   4.907  14.179  1.00  0.00     0.131 A 
ATOM     70  C   UNL     1     -10.444   2.745  15.332  1.00  0.00     0.055 A 
ATOM     71  C   UNL     1     -12.475   3.818  14.629  1.00  0.00     0.041 A 
ATOM     72  F   UNL     1     -12.385   5.904  13.568  1.00  0.00    -0.206 F 
ATOM     73  C   UNL     1     -11.832   2.719  15.193  1.00  0.00     0.022 A 
BRANCH  70  74
ATOM     74  S   UNL     1      -9.552   1.252  15.848  1.00  0.00     0.124 S 
ATOM     75  O   UNL     1      -8.751   0.965  14.660  1.00  0.00    -0.237 OA
ATOM     76  O   UNL     1      -8.815   1.712  17.019  1.00  0.00    -0.237 OA
ATOM     77  O   UNL     1     -10.619   0.291  16.118  1.00  0.00    -0.744 OA
ENDBRANCH  70  74
ENDBRANCH  53  67
BRANCH  54  78
ATOM     78  C   UNL     1      -5.109  12.429  10.139  1.00  0.00     0.023 A 
ATOM     79  C   UNL     1      -4.184  13.218  10.840  1.00  0.00     0.031 A 
ATOM     80  C   UNL     1      -5.368  12.753   8.795  1.00  0.00     0.131 A 
ATOM     81  C   UNL     1      -3.586  14.321  10.210  1.00  0.00     0.055 A 
ATOM     82  C   UNL     1      -4.732  13.820   8.158  1.00  0.00     0.041 A 
ATOM     83  F   UNL     1      -6.237  12.024   8.077  1.00  0.00    -0.206 F 
ATOM     84  C   UNL     1      -3.845  14.620   8.871  1.00  0.00     0.022 A 
BRANCH  81  85
ATOM     85  S   UNL     1      -2.522  15.411  11.195  1.00  0.00     0.124 S 
ATOM     86  O   UNL     1      -3.425  15.824  12.263  1.00  0.00    -0.237 OA
ATOM     87  O   UNL     1      -1.441  14.510  11.582  1.00  0.00    -0.237 OA
ATOM     88  O   UNL     1      -2.147  16.463  10.253  1.00  0.00    -0.744 OA
ENDBRANCH  81  85
ENDBRANCH  54  78
BRANCH  66  89
ATOM     89  C   UNL     1      -9.747  12.121  15.334  1.00  0.00     0.023 A 
ATOM     90  C   UNL     1     -10.589  13.141  14.859  1.00  0.00     0.031 A 
ATOM     91  C   UNL     1      -9.424  12.108  16.702  1.00  0.00     0.131 A 
ATOM     92  C   UNL     1     -11.040  14.137  15.737  1.00  0.00     0.055 A 
ATOM     93  C   UNL     1      -9.920  13.071  17.581  1.00  0.00     0.041 A 
ATOM     94  F   UNL     1      -8.623  11.156  17.206  1.00  0.00    -0.206 F 
ATOM     95  C   UNL     1     -10.723  14.100  17.098  1.00  0.00     0.022 A 
BRANCH  92  96
ATOM     96  S   UNL     1     -11.982  15.532  15.061  1.00  0.00     0.124 S 
ATOM     97  O   UNL     1     -11.039  16.100  14.103  1.00  0.00    -0.237 OA
ATOM     98  O   UNL     1     -13.151  14.872  14.490  1.00  0.00    -0.237 OA
ATOM     99  O   UNL     1     -12.252  16.363  16.233  1.00  0.00    -0.744 OA
ENDBRANCH  92  96
ENDBRANCH  66  89
ENDBRANCH  40  41
ENDBRANCH  32  35
ENDBRANCH  30  31
ENDBRANCH  29  30
ENDBRANCH   1  29
TORSDOF 18
