REMARK SMILES O=C(COc1ccc(/C=C/C(=O)c2ccc(F)cc2F)cc1[N+](=O)[O-])NCCCNC(=O)c1ccc(-c2c3nc(c(-c4cc(S(=O)(=O)[O-])ccc4F)c4ccc([nH]4)c(-c4cc(S(=O)(=O)[O-])ccc4F)c4nc(c(-c5cc(S(=O)(=O)[O-])ccc5F)c5ccc2[nH]5)C=C4)C=C3)cc1
REMARK SMILES IDX 27 1 26 2 1 3 2 4 3 6 4 7 5 8 6 9 22 10 7 11 21 12 8 13
REMARK SMILES IDX 23 14 24 15 25 16 9 17 10 18 11 19 12 20 13 21 14 22 19 23
REMARK SMILES IDX 15 24 18 25 20 26 16 27 17 28 28 29 29 30 30 31 31 32 32 34
REMARK SMILES IDX 33 35 34 36 95 37 35 38 94 39 36 40 37 41 38 42 88 43 39 44
REMARK SMILES IDX 93 45 87 46 89 47 40 48 92 49 86 50 85 51 41 53 73 54 53 55
REMARK SMILES IDX 72 56 54 57 57 58 71 59 90 60 55 61 56 62 70 64 91 65 58 66
REMARK SMILES IDX 42 67 43 68 51 69 44 70 50 71 52 72 49 73 45 74 46 75 47 76
REMARK SMILES IDX 48 77 74 78 75 79 83 80 76 81 82 82 84 83 81 84 77 85 78 86
REMARK SMILES IDX 79 87 80 88 59 89 60 90 68 91 61 92 67 93 69 94 66 95 62 96
REMARK SMILES IDX 63 97 64 98 65 99
REMARK H PARENT 26 5 30 33 89 52 57 63
REMARK Flexibility Score: inf
ROOT
ATOM      1  C   UNL     1       2.022   1.363   1.982  1.00  0.00     0.117 C 
ENDROOT
BRANCH   1   2
ATOM      2  N   UNL     1       2.795   0.618   1.005  1.00  0.00    -0.353 N 
ATOM      3  O   UNL     1       1.114  -0.794   0.304  1.00  0.00    -0.271 OA
ATOM      4  C   UNL     1       2.240  -0.326   0.167  1.00  0.00     0.257 C 
ATOM      5  H   UNL     1       3.761   0.795   0.938  1.00  0.00     0.163 HD
BRANCH   4   6
ATOM      6  C   UNL     1       3.159  -0.750  -0.983  1.00  0.00     0.329 C 
BRANCH   6   7
ATOM      7  O   UNL     1       3.896   0.349  -1.538  1.00  0.00    -0.477 OA
BRANCH   7   8
ATOM      8  C   UNL     1       3.261   0.918  -2.609  1.00  0.00     0.197 A 
ATOM      9  C   UNL     1       3.536   0.423  -3.887  1.00  0.00     0.054 A 
ATOM     10  C   UNL     1       2.428   2.031  -2.496  1.00  0.00     0.311 A 
ATOM     11  C   UNL     1       2.944   1.008  -5.019  1.00  0.00     0.012 A 
ATOM     12  C   UNL     1       1.802   2.597  -3.611  1.00  0.00     0.098 A 
ATOM     13  C   UNL     1       2.067   2.092  -4.886  1.00  0.00    -0.018 A 
BRANCH  10  14
ATOM     14  N   UNL     1       2.230   2.703  -1.232  1.00  0.00     0.066 N 
ATOM     15  O   UNL     1       1.059   2.912  -0.886  1.00  0.00    -0.258 OA
ATOM     16  O   UNL     1       3.241   3.062  -0.612  1.00  0.00    -0.258 OA
ENDBRANCH  10  14
BRANCH  13  17
ATOM     17  C   UNL     1       1.391   2.749  -6.008  1.00  0.00     0.012 C 
ATOM     18  C   UNL     1       1.994   3.108  -7.150  1.00  0.00     0.053 C 
BRANCH  18  19
ATOM     19  C   UNL     1       1.295   3.887  -8.207  1.00  0.00     0.188 C 
ATOM     20  O   UNL     1       1.574   3.702  -9.388  1.00  0.00    -0.289 OA
BRANCH  19  21
ATOM     21  C   UNL     1       0.252   4.873  -7.845  1.00  0.00     0.058 A 
ATOM     22  C   UNL     1      -0.911   4.937  -8.625  1.00  0.00     0.018 A 
ATOM     23  C   UNL     1       0.411   5.759  -6.774  1.00  0.00     0.137 A 
ATOM     24  C   UNL     1      -1.915   5.853  -8.302  1.00  0.00     0.040 A 
ATOM     25  C   UNL     1      -0.587   6.673  -6.449  1.00  0.00     0.079 A 
ATOM     26  F   UNL     1       1.533   5.760  -6.040  1.00  0.00    -0.206 F 
ATOM     27  C   UNL     1      -1.745   6.707  -7.215  1.00  0.00     0.126 A 
ATOM     28  F   UNL     1      -2.712   7.580  -6.908  1.00  0.00    -0.207 F 
ENDBRANCH  19  21
ENDBRANCH  18  19
ENDBRANCH  13  17
ENDBRANCH   7   8
ENDBRANCH   6   7
ENDBRANCH   4   6
ENDBRANCH   1   2
BRANCH   1  29
ATOM     29  C   UNL     1       2.507   1.199   3.412  1.00  0.00     0.042 C 
BRANCH  29  30
ATOM     30  C   UNL     1       3.983   1.499   3.646  1.00  0.00     0.118 C 
BRANCH  30  31
ATOM     31  N   UNL     1       4.392   2.853   3.299  1.00  0.00    -0.352 N 
ATOM     32  C   UNL     1       5.138   3.765   4.012  1.00  0.00     0.251 C 
ATOM     33  H   UNL     1       4.088   3.165   2.416  1.00  0.00     0.163 HD
ATOM     34  O   UNL     1       5.320   4.887   3.543  1.00  0.00    -0.269 OA
BRANCH  32  35
ATOM     35  C   UNL     1       5.680   3.433   5.354  1.00  0.00     0.039 A 
ATOM     36  C   UNL     1       5.617   4.404   6.359  1.00  0.00     0.014 A 
ATOM     37  C   UNL     1       6.243   2.187   5.638  1.00  0.00     0.014 A 
ATOM     38  C   UNL     1       6.032   4.096   7.659  1.00  0.00     0.010 A 
ATOM     39  C   UNL     1       6.574   1.852   6.952  1.00  0.00     0.010 A 
ATOM     40  C   UNL     1       6.468   2.801   7.980  1.00  0.00    -0.014 A 
BRANCH  40  41
ATOM     41  C   UNL     1       6.804   2.426   9.382  1.00  0.00     0.031 A 
ATOM     42  C   UNL     1       8.198   1.982   9.742  1.00  0.00     0.074 A 
ATOM     43  C   UNL     1       5.837   2.423  10.322  1.00  0.00     0.049 A 
ATOM     44  N   UNL     1       8.665   1.564  10.891  1.00  0.00    -0.248 NA
ATOM     45  C   UNL     1       9.187   1.974   8.655  1.00  0.00     0.031 C 
ATOM     46  C   UNL     1       4.432   2.772  10.092  1.00  0.00     0.029 A 
ATOM     47  N   UNL     1       5.883   2.112  11.659  1.00  0.00    -0.354 N 
ATOM     48  C   UNL     1       9.995   1.227  10.663  1.00  0.00     0.074 A 
ATOM     49  C   UNL     1      10.238   1.431   9.250  1.00  0.00     0.031 C 
ATOM     50  C   UNL     1       3.761   2.685  11.252  1.00  0.00     0.029 A 
ATOM     51  C   UNL     1       4.672   2.238  12.300  1.00  0.00     0.049 A 
ATOM     52  H   UNL     1       6.706   1.824  12.116  1.00  0.00     0.167 HD
ATOM     53  C   UNL     1      10.934   0.812  11.551  1.00  0.00     0.034 A 
ATOM     54  C   UNL     1       4.331   2.018  13.585  1.00  0.00     0.034 A 
ATOM     55  C   UNL     1      10.685   0.634  12.961  1.00  0.00     0.049 A 
ATOM     56  C   UNL     1       5.393   1.574  14.557  1.00  0.00     0.074 A 
ATOM     57  C   UNL     1      11.578   0.276  13.958  1.00  0.00     0.029 A 
ATOM     58  N   UNL     1       9.451   0.797  13.579  1.00  0.00    -0.354 N 
ATOM     59  N   UNL     1       6.661   1.315  14.335  1.00  0.00    -0.248 NA
ATOM     60  C   UNL     1       4.980   1.408  15.957  1.00  0.00     0.031 C 
ATOM     61  C   UNL     1      10.874   0.168  15.163  1.00  0.00     0.029 A 
ATOM     62  C   UNL     1       9.556   0.525  14.935  1.00  0.00     0.049 A 
ATOM     63  H   UNL     1       8.623   1.066  13.120  1.00  0.00     0.167 HD
ATOM     64  C   UNL     1       7.202   0.984  15.574  1.00  0.00     0.074 A 
ATOM     65  C   UNL     1       6.128   1.094  16.539  1.00  0.00     0.031 C 
ATOM     66  C   UNL     1       8.474   0.625  15.887  1.00  0.00     0.034 A 
BRANCH  53  67
ATOM     67  C   UNL     1      12.311   0.506  11.009  1.00  0.00     0.023 A 
ATOM     68  C   UNL     1      13.104   1.500  10.406  1.00  0.00     0.031 A 
ATOM     69  C   UNL     1      12.827  -0.801  11.063  1.00  0.00     0.131 A 
ATOM     70  C   UNL     1      14.326   1.156   9.809  1.00  0.00     0.055 A 
ATOM     71  C   UNL     1      14.083  -1.120  10.542  1.00  0.00     0.041 A 
ATOM     72  F   UNL     1      12.111  -1.796  11.610  1.00  0.00    -0.206 F 
ATOM     73  C   UNL     1      14.833  -0.142   9.895  1.00  0.00     0.022 A 
BRANCH  70  74
ATOM     74  S   UNL     1      15.170   2.396   8.790  1.00  0.00     0.124 S 
ATOM     75  O   UNL     1      14.161   2.675   7.771  1.00  0.00    -0.237 OA
ATOM     76  O   UNL     1      15.428   3.468   9.745  1.00  0.00    -0.237 OA
ATOM     77  O   UNL     1      16.356   1.692   8.306  1.00  0.00    -0.744 OA
ENDBRANCH  70  74
ENDBRANCH  53  67
BRANCH  54  78
ATOM     78  C   UNL     1       2.925   2.216  14.039  1.00  0.00     0.023 A 
ATOM     79  C   UNL     1       2.597   3.234  14.949  1.00  0.00     0.031 A 
ATOM     80  C   UNL     1       1.895   1.365  13.601  1.00  0.00     0.131 A 
ATOM     81  C   UNL     1       1.283   3.347  15.429  1.00  0.00     0.055 A 
ATOM     82  C   UNL     1       0.580   1.512  14.044  1.00  0.00     0.041 A 
ATOM     83  F   UNL     1       2.155   0.382  12.725  1.00  0.00    -0.206 F 
ATOM     84  C   UNL     1       0.270   2.500  14.974  1.00  0.00     0.022 A 
BRANCH  81  85
ATOM     85  S   UNL     1       0.932   4.571  16.720  1.00  0.00     0.124 S 
ATOM     86  O   UNL     1       1.848   4.159  17.778  1.00  0.00    -0.237 OA
ATOM     87  O   UNL     1       1.255   5.824  16.045  1.00  0.00    -0.237 OA
ATOM     88  O   UNL     1      -0.486   4.367  17.006  1.00  0.00    -0.744 OA
ENDBRANCH  81  85
ENDBRANCH  54  78
BRANCH  66  89
ATOM     89  C   UNL     1       8.770   0.369  17.344  1.00  0.00     0.023 A 
ATOM     90  C   UNL     1       8.206  -0.720  18.033  1.00  0.00     0.031 A 
ATOM     91  C   UNL     1       9.604   1.245  18.060  1.00  0.00     0.131 A 
ATOM     92  C   UNL     1       8.433  -0.868  19.410  1.00  0.00     0.055 A 
ATOM     93  C   UNL     1       9.873   1.059  19.416  1.00  0.00     0.041 A 
ATOM     94  F   UNL     1      10.168   2.301  17.452  1.00  0.00    -0.206 F 
ATOM     95  C   UNL     1       9.274   0.007  20.103  1.00  0.00     0.022 A 
BRANCH  92  96
ATOM     96  S   UNL     1       7.531  -2.161  20.307  1.00  0.00     0.124 S 
ATOM     97  O   UNL     1       6.142  -1.822  20.016  1.00  0.00    -0.237 OA
ATOM     98  O   UNL     1       8.033  -3.381  19.683  1.00  0.00    -0.237 OA
ATOM     99  O   UNL     1       7.939  -1.964  21.697  1.00  0.00    -0.744 OA
ENDBRANCH  92  96
ENDBRANCH  66  89
ENDBRANCH  40  41
ENDBRANCH  32  35
ENDBRANCH  30  31
ENDBRANCH  29  30
ENDBRANCH   1  29
TORSDOF 19
