REMARK SMILES O=C(NCCCNC(=O)[C@H]1[C@H]2CC[C@H](C2)[C@@H]1C(=O)N1CCN(c2cccc(Cl)c2)CC1)c1ccc(-c2c3nc(c(-c4cc(S(=O)(=O)[O-])ccc4F)c4ccc([nH]4)c(-c4cc(S(=O)(=O)[O-])ccc4F)c4nc(c(-c5cc(S(=O)(=O)[O-])ccc5F)c5ccc2[nH]5)C=C4)C=C3)cc1
REMARK SMILES IDX 4 1 3 2 1 3 2 4 32 6 33 7 94 8 34 9 93 10 35 11 36 12 37 13
REMARK SMILES IDX 87 14 38 15 92 16 86 17 88 18 39 19 91 20 85 21 84 22 40 24
REMARK SMILES IDX 72 25 52 26 71 27 53 28 56 29 70 30 89 31 54 32 55 33 69 35
REMARK SMILES IDX 90 36 57 37 41 38 42 39 50 40 43 41 49 42 51 43 48 44 44 45
REMARK SMILES IDX 45 46 46 47 47 48 73 49 74 50 82 51 75 52 81 53 83 54 80 55
REMARK SMILES IDX 76 56 77 57 78 58 79 59 58 60 59 61 67 62 60 63 66 64 68 65
REMARK SMILES IDX 65 66 61 67 62 68 63 69 64 70 5 71 6 72 7 73 8 74 9 76 10 77
REMARK SMILES IDX 11 78 16 79 12 80 15 81 14 82 13 83 17 84 18 85 19 86 20 87
REMARK SMILES IDX 31 88 21 89 30 90 22 91 23 92 24 93 29 94 25 95 27 96 26 97
REMARK SMILES IDX 28 98
REMARK H PARENT 3 5 88 23 56 34 7 75
REMARK Flexibility Score: inf
ROOT
ATOM      1  C   UNL     1       9.798   6.184  -4.936  1.00  0.00     0.118 C 
ENDROOT
BRANCH   1   2
ATOM      2  N   UNL     1      10.223   5.025  -5.711  1.00  0.00    -0.352 N 
ATOM      3  O   UNL     1      10.439   3.758  -7.558  1.00  0.00    -0.269 OA
ATOM      4  C   UNL     1      10.373   4.882  -7.072  1.00  0.00     0.251 C 
ATOM      5  H   UNL     1      10.435   4.223  -5.181  1.00  0.00     0.163 HD
BRANCH   4   6
ATOM      6  C   UNL     1      10.437   6.079  -7.941  1.00  0.00     0.039 A 
ATOM      7  C   UNL     1      11.084   7.230  -7.499  1.00  0.00     0.014 A 
ATOM      8  C   UNL     1       9.885   6.047  -9.225  1.00  0.00     0.014 A 
ATOM      9  C   UNL     1      11.006   8.399  -8.235  1.00  0.00     0.010 A 
ATOM     10  C   UNL     1       9.957   7.183 -10.040  1.00  0.00     0.010 A 
ATOM     11  C   UNL     1      10.503   8.377  -9.543  1.00  0.00    -0.014 A 
BRANCH  11  12
ATOM     12  C   UNL     1      10.683   9.588 -10.383  1.00  0.00     0.031 A 
ATOM     13  C   UNL     1       9.509  10.315 -10.973  1.00  0.00     0.074 A 
ATOM     14  C   UNL     1      11.939  10.049 -10.567  1.00  0.00     0.049 A 
ATOM     15  N   UNL     1       9.503  11.380 -11.732  1.00  0.00    -0.248 NA
ATOM     16  C   UNL     1       8.173   9.774 -10.687  1.00  0.00     0.031 C 
ATOM     17  C   UNL     1      13.154   9.418 -10.034  1.00  0.00     0.029 A 
ATOM     18  N   UNL     1      12.412  11.159 -11.217  1.00  0.00    -0.354 N 
ATOM     19  C   UNL     1       8.168  11.627 -12.036  1.00  0.00     0.074 A 
ATOM     20  C   UNL     1       7.396  10.580 -11.398  1.00  0.00     0.031 C 
ATOM     21  C   UNL     1      14.214  10.185 -10.315  1.00  0.00     0.029 A 
ATOM     22  C   UNL     1      13.779  11.299 -11.143  1.00  0.00     0.049 A 
ATOM     23  H   UNL     1      11.829  11.796 -11.691  1.00  0.00     0.167 HD
ATOM     24  C   UNL     1       7.646  12.635 -12.777  1.00  0.00     0.034 A 
ATOM     25  C   UNL     1      14.604  12.197 -11.713  1.00  0.00     0.034 A 
ATOM     26  C   UNL     1       8.443  13.669 -13.397  1.00  0.00     0.049 A 
ATOM     27  C   UNL     1      13.997  13.271 -12.573  1.00  0.00     0.074 A 
ATOM     28  C   UNL     1       8.015  14.750 -14.149  1.00  0.00     0.029 A 
ATOM     29  N   UNL     1       9.830  13.747 -13.348  1.00  0.00    -0.354 N 
ATOM     30  N   UNL     1      12.731  13.489 -12.845  1.00  0.00    -0.248 NA
ATOM     31  C   UNL     1      14.925  14.214 -13.202  1.00  0.00     0.031 C 
ATOM     32  C   UNL     1       9.142  15.434 -14.617  1.00  0.00     0.029 A 
ATOM     33  C   UNL     1      10.273  14.836 -14.085  1.00  0.00     0.049 A 
ATOM     34  H   UNL     1      10.413  13.121 -12.862  1.00  0.00     0.167 HD
ATOM     35  C   UNL     1      12.712  14.614 -13.661  1.00  0.00     0.074 A 
ATOM     36  C   UNL     1      14.089  15.040 -13.813  1.00  0.00     0.031 C 
ATOM     37  C   UNL     1      11.652  15.239 -14.235  1.00  0.00     0.034 A 
BRANCH  24  38
ATOM     38  C   UNL     1       6.152  12.642 -13.002  1.00  0.00     0.023 A 
ATOM     39  C   UNL     1       5.238  12.816 -11.948  1.00  0.00     0.031 A 
ATOM     40  C   UNL     1       5.634  12.475 -14.300  1.00  0.00     0.131 A 
ATOM     41  C   UNL     1       3.858  12.765 -12.202  1.00  0.00     0.055 A 
ATOM     42  C   UNL     1       4.262  12.502 -14.556  1.00  0.00     0.041 A 
ATOM     43  F   UNL     1       6.456  12.281 -15.343  1.00  0.00    -0.206 F 
ATOM     44  C   UNL     1       3.364  12.636 -13.502  1.00  0.00     0.022 A 
BRANCH  41  45
ATOM     45  S   UNL     1       2.715  12.748 -10.793  1.00  0.00     0.124 S 
ATOM     46  O   UNL     1       3.158  11.559 -10.066  1.00  0.00    -0.237 OA
ATOM     47  O   UNL     1       2.987  14.027 -10.148  1.00  0.00    -0.237 OA
ATOM     48  O   UNL     1       1.399  12.630 -11.418  1.00  0.00    -0.744 OA
ENDBRANCH  41  45
ENDBRANCH  24  38
BRANCH  25  49
ATOM     49  C   UNL     1      16.081  12.086 -11.539  1.00  0.00     0.023 A 
ATOM     50  C   UNL     1      16.821  13.117 -10.944  1.00  0.00     0.031 A 
ATOM     51  C   UNL     1      16.782  10.958 -12.006  1.00  0.00     0.131 A 
ATOM     52  C   UNL     1      18.220  13.026 -10.880  1.00  0.00     0.055 A 
ATOM     53  C   UNL     1      18.166  10.840 -11.877  1.00  0.00     0.041 A 
ATOM     54  F   UNL     1      16.125   9.939 -12.585  1.00  0.00    -0.206 F 
ATOM     55  C   UNL     1      18.896  11.888 -11.326  1.00  0.00     0.022 A 
BRANCH  52  56
ATOM     56  S   UNL     1      19.155  14.470 -10.309  1.00  0.00     0.124 S 
ATOM     57  O   UNL     1      18.681  15.508 -11.218  1.00  0.00    -0.237 OA
ATOM     58  O   UNL     1      18.718  14.584  -8.922  1.00  0.00    -0.237 OA
ATOM     59  O   UNL     1      20.548  14.067 -10.493  1.00  0.00    -0.744 OA
ENDBRANCH  52  56
ENDBRANCH  25  49
BRANCH  37  60
ATOM     60  C   UNL     1      11.953  16.481 -15.037  1.00  0.00     0.023 A 
ATOM     61  C   UNL     1      12.697  16.430 -16.229  1.00  0.00     0.031 A 
ATOM     62  C   UNL     1      11.511  17.736 -14.585  1.00  0.00     0.131 A 
ATOM     63  C   UNL     1      13.032  17.619 -16.893  1.00  0.00     0.055 A 
ATOM     64  C   UNL     1      11.788  18.909 -15.288  1.00  0.00     0.041 A 
ATOM     65  F   UNL     1      10.801  17.843 -13.450  1.00  0.00    -0.206 F 
ATOM     66  C   UNL     1      12.566  18.856 -16.441  1.00  0.00     0.022 A 
BRANCH  63  67
ATOM     67  S   UNL     1      14.177  17.538 -18.297  1.00  0.00     0.124 S 
ATOM     68  O   UNL     1      15.357  16.930 -17.692  1.00  0.00    -0.237 OA
ATOM     69  O   UNL     1      13.447  16.704 -19.247  1.00  0.00    -0.237 OA
ATOM     70  O   UNL     1      14.332  18.936 -18.693  1.00  0.00    -0.744 OA
ENDBRANCH  63  67
ENDBRANCH  37  60
ENDBRANCH  11  12
ENDBRANCH   4   6
ENDBRANCH   1   2
BRANCH   1  71
ATOM     71  C   UNL     1       8.290   6.242  -4.817  1.00  0.00     0.042 C 
BRANCH  71  72
ATOM     72  C   UNL     1       7.756   5.179  -3.877  1.00  0.00     0.117 C 
BRANCH  72  73
ATOM     73  N   UNL     1       8.157   5.396  -2.498  1.00  0.00    -0.356 N 
ATOM     74  C   UNL     1       7.514   5.643  -1.340  1.00  0.00     0.224 C 
ATOM     75  H   UNL     1       9.134   5.353  -2.381  1.00  0.00     0.163 HD
ATOM     76  O   UNL     1       8.243   5.739  -0.341  1.00  0.00    -0.275 OA
BRANCH  74  77
ATOM     77  C   UNL     1       6.027   5.885  -1.163  1.00  0.00     0.094 C 
ATOM     78  C   UNL     1       5.634   7.383  -1.174  1.00  0.00     0.002 C 
ATOM     79  C   UNL     1       4.964   5.214  -2.059  1.00  0.00     0.094 C 
ATOM     80  C   UNL     1       5.851   8.024  -2.542  1.00  0.00     0.005 C 
ATOM     81  C   UNL     1       4.112   7.282  -1.156  1.00  0.00     0.009 C 
ATOM     82  C   UNL     1       4.053   6.408  -2.410  1.00  0.00     0.002 C 
ATOM     83  C   UNL     1       4.793   7.331  -3.413  1.00  0.00     0.005 C 
BRANCH  79  84
ATOM     84  C   UNL     1       4.479   3.950  -1.346  1.00  0.00     0.226 C 
ATOM     85  O   UNL     1       5.088   2.893  -1.551  1.00  0.00    -0.275 OA
ATOM     86  N   UNL     1       3.599   4.053  -0.299  1.00  0.00    -0.339 N 
ATOM     87  C   UNL     1       3.809   3.187   0.865  1.00  0.00     0.141 C 
ATOM     88  C   UNL     1       2.231   4.556  -0.426  1.00  0.00     0.141 C 
ATOM     89  C   UNL     1       3.411   3.922   2.158  1.00  0.00     0.138 C 
ATOM     90  C   UNL     1       1.748   5.249   0.857  1.00  0.00     0.138 C 
ATOM     91  N   UNL     1       2.026   4.399   2.028  1.00  0.00    -0.368 N 
BRANCH  91  92
ATOM     92  C   UNL     1       1.215   4.584   3.128  1.00  0.00     0.038 A 
ATOM     93  C   UNL     1      -0.151   4.284   3.012  1.00  0.00     0.026 A 
ATOM     94  C   UNL     1       1.685   5.066   4.353  1.00  0.00     0.046 A 
ATOM     95  C   UNL     1      -1.030   4.457   4.077  1.00  0.00     0.004 A 
ATOM     96  C   UNL     1       0.802   5.252   5.419  1.00  0.00     0.043 A 
ATOM     97  C   UNL     1      -0.551   4.948   5.287  1.00  0.00     0.020 A 
ATOM     98  Cl  UNL     1       1.388   5.875   6.914  1.00  0.00    -0.084 Cl
ENDBRANCH  91  92
ENDBRANCH  79  84
ENDBRANCH  74  77
ENDBRANCH  72  73
ENDBRANCH  71  72
ENDBRANCH   1  71
TORSDOF 15
