REMARK SMILES CC(C)(C)OC(=O)N1C[C@H](Cc2ccccc2)[C@H](C(=O)NCCCNC(=O)c2ccc(-c3c4nc(c(-c5cc(S(=O)(=O)[O-])ccc5F)c5ccc([nH]5)c(-c5cc(S(=O)(=O)[O-])ccc5F)c5nc(c(-c6cc(S(=O)(=O)[O-])ccc6F)c6ccc3[nH]6)C=C5)C=C4)cc2)C1
REMARK SMILES IDX 23 1 22 2 21 3 19 4 20 5 18 7 8 8 9 9 91 10 10 11 6 12 7 13
REMARK SMILES IDX 5 14 2 15 1 16 3 17 4 18 11 19 12 20 13 21 17 22 14 23 16 24
REMARK SMILES IDX 15 25 24 26 25 27 26 28 27 30 28 31 29 32 90 33 30 34 89 35
REMARK SMILES IDX 31 36 32 37 33 38 83 39 34 40 88 41 82 42 84 43 35 44 87 45
REMARK SMILES IDX 81 46 80 47 36 49 68 50 48 51 67 52 49 53 52 54 66 55 85 56
REMARK SMILES IDX 50 57 51 58 65 60 86 61 53 62 37 63 38 64 46 65 39 66 45 67
REMARK SMILES IDX 47 68 44 69 40 70 41 71 42 72 43 73 69 74 70 75 78 76 71 77
REMARK SMILES IDX 77 78 79 79 76 80 72 81 73 82 74 83 75 84 54 85 55 86 63 87
REMARK SMILES IDX 56 88 62 89 64 90 61 91 57 92 58 93 59 94 60 95
REMARK H PARENT 21 6 25 29 84 48 52 59
REMARK Flexibility Score: inf
ROOT
ATOM      1  C   UNL     1      -0.523   0.117   5.728  1.00  0.00     0.042 C 
ENDROOT
BRANCH   1   2
ATOM      2  C   UNL     1      -0.950   1.573   5.502  1.00  0.00     0.117 C 
BRANCH   2   3
ATOM      3  N   UNL     1      -0.471   2.471   6.550  1.00  0.00    -0.356 N 
ATOM      4  C   UNL     1       0.403   3.510   6.587  1.00  0.00     0.225 C 
ATOM      5  O   UNL     1       0.553   4.048   7.691  1.00  0.00    -0.275 OA
ATOM      6  H   UNL     1      -0.873   2.280   7.429  1.00  0.00     0.163 HD
BRANCH   4   7
ATOM      7  C   UNL     1       1.210   4.041   5.402  1.00  0.00     0.103 C 
ATOM      8  N   UNL     1       1.024   3.688   3.091  1.00  0.00    -0.307 N 
ATOM      9  C   UNL     1       2.422   3.456   3.390  1.00  0.00     0.128 C 
ATOM     10  C   UNL     1       0.370   4.383   4.173  1.00  0.00     0.137 C 
ATOM     11  C   UNL     1       2.443   3.224   4.902  1.00  0.00     0.027 C 
BRANCH   8  12
ATOM     12  C   UNL     1       0.342   3.275   1.977  1.00  0.00     0.410 C 
ATOM     13  O   UNL     1      -0.760   3.711   1.673  1.00  0.00    -0.224 OA
BRANCH  12  14
ATOM     14  O   UNL     1       1.002   2.285   1.334  1.00  0.00    -0.444 OA
BRANCH  14  15
ATOM     15  C   UNL     1       0.472   1.634   0.150  1.00  0.00     0.106 C 
ATOM     16  C   UNL     1       1.194   0.279   0.092  1.00  0.00     0.056 C 
ATOM     17  C   UNL     1       0.857   2.476  -1.066  1.00  0.00     0.056 C 
ATOM     18  C   UNL     1      -1.038   1.362   0.190  1.00  0.00     0.056 C 
ENDBRANCH  14  15
ENDBRANCH  12  14
ENDBRANCH   8  12
BRANCH  11  19
ATOM     19  C   UNL     1       2.371   1.734   5.218  1.00  0.00     0.041 C 
BRANCH  19  20
ATOM     20  C   UNL     1       3.506   0.847   4.777  1.00  0.00    -0.048 A 
ATOM     21  C   UNL     1       3.271  -0.124   3.789  1.00  0.00     0.004 A 
ATOM     22  C   UNL     1       4.751   0.886   5.410  1.00  0.00     0.004 A 
ATOM     23  C   UNL     1       4.255  -1.051   3.453  1.00  0.00     0.000 A 
ATOM     24  C   UNL     1       5.736  -0.045   5.071  1.00  0.00     0.000 A 
ATOM     25  C   UNL     1       5.486  -1.015   4.100  1.00  0.00     0.000 A 
ENDBRANCH  19  20
ENDBRANCH  11  19
ENDBRANCH   4   7
ENDBRANCH   2   3
ENDBRANCH   1   2
BRANCH   1  26
ATOM     26  C   UNL     1      -1.200  -0.583   6.897  1.00  0.00     0.118 C 
BRANCH  26  27
ATOM     27  N   UNL     1      -2.498  -1.119   6.535  1.00  0.00    -0.352 N 
ATOM     28  C   UNL     1      -2.889  -2.412   6.276  1.00  0.00     0.251 C 
ATOM     29  H   UNL     1      -3.216  -0.449   6.464  1.00  0.00     0.163 HD
ATOM     30  O   UNL     1      -3.982  -2.591   5.742  1.00  0.00    -0.269 OA
BRANCH  28  31
ATOM     31  C   UNL     1      -2.026  -3.580   6.598  1.00  0.00     0.039 A 
ATOM     32  C   UNL     1      -2.065  -4.690   5.745  1.00  0.00     0.014 A 
ATOM     33  C   UNL     1      -1.244  -3.642   7.754  1.00  0.00     0.014 A 
ATOM     34  C   UNL     1      -1.295  -5.825   6.025  1.00  0.00     0.010 A 
ATOM     35  C   UNL     1      -0.409  -4.738   7.987  1.00  0.00     0.010 A 
ATOM     36  C   UNL     1      -0.436  -5.852   7.136  1.00  0.00    -0.014 A 
BRANCH  36  37
ATOM     37  C   UNL     1       0.410  -7.045   7.426  1.00  0.00     0.031 A 
ATOM     38  C   UNL     1       0.208  -7.834   8.695  1.00  0.00     0.074 A 
ATOM     39  C   UNL     1       1.387  -7.399   6.568  1.00  0.00     0.049 A 
ATOM     40  N   UNL     1       0.870  -8.873   9.141  1.00  0.00    -0.248 NA
ATOM     41  C   UNL     1      -0.860  -7.375   9.595  1.00  0.00     0.031 C 
ATOM     42  C   UNL     1       1.716  -6.695   5.326  1.00  0.00     0.029 A 
ATOM     43  N   UNL     1       2.288  -8.435   6.607  1.00  0.00    -0.354 N 
ATOM     44  C   UNL     1       0.309  -9.182  10.377  1.00  0.00     0.074 A 
ATOM     45  C   UNL     1      -0.704  -8.180  10.635  1.00  0.00     0.031 C 
ATOM     46  C   UNL     1       2.722  -7.335   4.710  1.00  0.00     0.029 A 
ATOM     47  C   UNL     1       3.142  -8.468   5.528  1.00  0.00     0.049 A 
ATOM     48  H   UNL     1       2.319  -9.094   7.338  1.00  0.00     0.167 HD
ATOM     49  C   UNL     1       0.594 -10.216  11.210  1.00  0.00     0.034 A 
ATOM     50  C   UNL     1       4.155  -9.308   5.234  1.00  0.00     0.034 A 
ATOM     51  C   UNL     1       1.595 -11.219  10.933  1.00  0.00     0.049 A 
ATOM     52  C   UNL     1       4.461 -10.443   6.176  1.00  0.00     0.074 A 
ATOM     53  C   UNL     1       1.920 -12.342  11.675  1.00  0.00     0.029 A 
ATOM     54  N   UNL     1       2.441 -11.217   9.831  1.00  0.00    -0.354 N 
ATOM     55  N   UNL     1       3.884 -10.752   7.314  1.00  0.00    -0.248 NA
ATOM     56  C   UNL     1       5.549 -11.350   5.787  1.00  0.00     0.031 C 
ATOM     57  C   UNL     1       3.003 -12.980  11.058  1.00  0.00     0.029 A 
ATOM     58  C   UNL     1       3.308 -12.299   9.891  1.00  0.00     0.049 A 
ATOM     59  H   UNL     1       2.428 -10.545   9.111  1.00  0.00     0.167 HD
ATOM     60  C   UNL     1       4.523 -11.903   7.764  1.00  0.00     0.074 A 
ATOM     61  C   UNL     1       5.516 -12.244   6.765  1.00  0.00     0.031 C 
ATOM     62  C   UNL     1       4.308 -12.617   8.899  1.00  0.00     0.034 A 
BRANCH  49  63
ATOM     63  C   UNL     1      -0.175 -10.295  12.509  1.00  0.00     0.023 A 
ATOM     64  C   UNL     1      -1.571 -10.465  12.534  1.00  0.00     0.031 A 
ATOM     65  C   UNL     1       0.491 -10.171  13.741  1.00  0.00     0.131 A 
ATOM     66  C   UNL     1      -2.263 -10.422  13.754  1.00  0.00     0.055 A 
ATOM     67  C   UNL     1      -0.194 -10.214  14.958  1.00  0.00     0.041 A 
ATOM     68  F   UNL     1       1.820  -9.989  13.785  1.00  0.00    -0.206 F 
ATOM     69  C   UNL     1      -1.582 -10.323  14.969  1.00  0.00     0.022 A 
BRANCH  66  70
ATOM     70  S   UNL     1      -4.075 -10.345  13.720  1.00  0.00     0.124 S 
ATOM     71  O   UNL     1      -4.304  -9.136  12.932  1.00  0.00    -0.237 OA
ATOM     72  O   UNL     1      -4.432 -11.604  13.076  1.00  0.00    -0.237 OA
ATOM     73  O   UNL     1      -4.441 -10.239  15.130  1.00  0.00    -0.744 OA
ENDBRANCH  66  70
ENDBRANCH  49  63
BRANCH  50  74
ATOM     74  C   UNL     1       4.962  -9.108   3.996  1.00  0.00     0.023 A 
ATOM     75  C   UNL     1       4.938 -10.051   2.955  1.00  0.00     0.031 A 
ATOM     76  C   UNL     1       5.796  -7.985   3.850  1.00  0.00     0.131 A 
ATOM     77  C   UNL     1       5.763  -9.875   1.834  1.00  0.00     0.055 A 
ATOM     78  C   UNL     1       6.577  -7.790   2.710  1.00  0.00     0.041 A 
ATOM     79  F   UNL     1       5.851  -7.051   4.812  1.00  0.00    -0.206 F 
ATOM     80  C   UNL     1       6.573  -8.745   1.698  1.00  0.00     0.022 A 
BRANCH  77  81
ATOM     81  S   UNL     1       5.819 -11.185   0.581  1.00  0.00     0.124 S 
ATOM     82  O   UNL     1       6.254 -12.333   1.369  1.00  0.00    -0.237 OA
ATOM     83  O   UNL     1       4.437 -11.214   0.113  1.00  0.00    -0.237 OA
ATOM     84  O   UNL     1       6.792 -10.688  -0.389  1.00  0.00    -0.744 OA
ENDBRANCH  77  81
ENDBRANCH  50  74
BRANCH  62  85
ATOM     85  C   UNL     1       5.146 -13.858   9.094  1.00  0.00     0.023 A 
ATOM     86  C   UNL     1       6.534 -13.786   9.306  1.00  0.00     0.031 A 
ATOM     87  C   UNL     1       4.549 -15.130   9.047  1.00  0.00     0.131 A 
ATOM     88  C   UNL     1       7.288 -14.965   9.402  1.00  0.00     0.055 A 
ATOM     89  C   UNL     1       5.296 -16.299   9.204  1.00  0.00     0.041 A 
ATOM     90  F   UNL     1       3.228 -15.258   8.845  1.00  0.00    -0.206 F 
ATOM     91  C   UNL     1       6.676 -16.221   9.369  1.00  0.00     0.022 A 
BRANCH  88  92
ATOM     92  S   UNL     1       9.096 -14.839   9.476  1.00  0.00     0.124 S 
ATOM     93  O   UNL     1       9.401 -14.124   8.242  1.00  0.00    -0.237 OA
ATOM     94  O   UNL     1       9.307 -14.095  10.714  1.00  0.00    -0.237 OA
ATOM     95  O   UNL     1       9.537 -16.233   9.510  1.00  0.00    -0.744 OA
ENDBRANCH  88  92
ENDBRANCH  62  85
ENDBRANCH  36  37
ENDBRANCH  28  31
ENDBRANCH  26  27
ENDBRANCH   1  26
TORSDOF 18
