REMARK SMILES CSCC[C@H](NC(=O)N[C@@H]1CCCCC1(C)C)C(=O)NCCCNC(=O)c1ccc(-c2c3nc(c(-c4cc(S(=O)(=O)[O-])ccc4F)c4ccc([nH]4)c(-c4cc(S(=O)(=O)[O-])ccc4F)c4nc(c(-c5cc(S(=O)(=O)[O-])ccc5F)c5ccc2[nH]5)C=C4)C=C3)cc1
REMARK SMILES IDX 22 1 21 2 20 3 18 4 19 5 5 7 4 8 3 9 2 10 1 11 6 12 7 13
REMARK SMILES IDX 8 15 9 16 10 18 11 19 15 20 12 21 14 22 16 23 17 24 13 25
REMARK SMILES IDX 23 26 24 27 25 28 26 30 27 31 28 32 89 33 29 34 88 35 30 36
REMARK SMILES IDX 31 37 32 38 82 39 33 40 87 41 81 42 83 43 34 44 86 45 80 46
REMARK SMILES IDX 79 47 35 49 67 50 47 51 66 52 48 53 51 54 65 55 84 56 49 57
REMARK SMILES IDX 50 58 64 60 85 61 52 62 36 63 37 64 45 65 38 66 44 67 46 68
REMARK SMILES IDX 43 69 39 70 40 71 41 72 42 73 68 74 69 75 77 76 70 77 76 78
REMARK SMILES IDX 78 79 75 80 71 81 72 82 73 83 74 84 53 85 54 86 62 87 55 88
REMARK SMILES IDX 61 89 63 90 60 91 56 92 57 93 58 94 59 95
REMARK H PARENT 20 6 6 14 9 17 24 29 83 48 51 59
REMARK Flexibility Score: inf
ROOT
ATOM      1  C   UNL     1       0.127   5.406   4.782  1.00  0.00     0.042 C 
ENDROOT
BRANCH   1   2
ATOM      2  C   UNL     1       1.040   4.357   4.191  1.00  0.00     0.117 C 
BRANCH   2   3
ATOM      3  N   UNL     1       0.699   2.703   4.618  1.00  0.00    -0.354 N 
ATOM      4  C   UNL     1       1.365   0.930   4.176  1.00  0.00     0.242 C 
ATOM      5  O   UNL     1       1.673  -0.027   4.901  1.00  0.00    -0.273 OA
ATOM      6  H   UNL     1      -0.039   2.651   5.267  1.00  0.00     0.163 HD
BRANCH   4   7
ATOM      7  C   UNL     1       1.632   0.760   2.160  1.00  0.00     0.174 C 
BRANCH   7   8
ATOM      8  C   UNL     1       3.025   0.473   1.486  1.00  0.00     0.046 C 
BRANCH   8   9
ATOM      9  C   UNL     1       2.928   0.170  -0.024  1.00  0.00     0.072 C 
BRANCH   9  10
ATOM     10  S   UNL     1       2.749   1.639  -1.118  1.00  0.00    -0.165 SA
ATOM     11  C   UNL     1       1.055   1.417  -1.756  1.00  0.00     0.085 C 
ENDBRANCH   9  10
ENDBRANCH   8   9
ENDBRANCH   7   8
BRANCH   7  12
ATOM     12  N   UNL     1       0.972   2.251   1.302  1.00  0.00    -0.326 N 
ATOM     13  C   UNL     1      -0.055   3.319   1.606  1.00  0.00     0.315 C 
ATOM     14  H   UNL     1       1.394   2.386   0.423  1.00  0.00     0.166 HD
ATOM     15  O   UNL     1      -0.176   4.271   0.834  1.00  0.00    -0.249 OA
ATOM     16  N   UNL     1      -0.934   3.257   2.825  1.00  0.00    -0.335 N 
ATOM     17  H   UNL     1      -1.460   4.070   3.004  1.00  0.00     0.165 HD
BRANCH  16  18
ATOM     18  C   UNL     1      -1.139   2.091   3.854  1.00  0.00     0.089 C 
ATOM     19  C   UNL     1      -0.731   1.696   5.699  1.00  0.00     0.025 C 
ATOM     20  C   UNL     1      -0.072   1.425   3.034  1.00  0.00    -0.015 C 
ATOM     21  C   UNL     1       1.090   1.737   6.412  1.00  0.00     0.002 C 
ATOM     22  C   UNL     1       1.870   2.405   3.262  1.00  0.00     0.008 C 
ATOM     23  C   UNL     1      -0.501  -0.272   3.571  1.00  0.00     0.013 C 
ATOM     24  C   UNL     1      -1.024   0.983   1.534  1.00  0.00     0.013 C 
ATOM     25  C   UNL     1       2.523   2.307   5.195  1.00  0.00     0.001 C 
ENDBRANCH  16  18
ENDBRANCH   7  12
ENDBRANCH   4   7
ENDBRANCH   2   3
ENDBRANCH   1   2
BRANCH   1  26
ATOM     26  C   UNL     1       0.103   5.506   6.280  1.00  0.00     0.118 C 
BRANCH  26  27
ATOM     27  N   UNL     1       1.402   5.470   6.938  1.00  0.00    -0.352 N 
ATOM     28  C   UNL     1       1.922   6.332   7.880  1.00  0.00     0.251 C 
ATOM     29  H   UNL     1       1.990   4.727   6.673  1.00  0.00     0.163 HD
ATOM     30  O   UNL     1       3.052   6.161   8.324  1.00  0.00    -0.269 OA
BRANCH  28  31
ATOM     31  C   UNL     1       1.114   7.500   8.277  1.00  0.00     0.039 A 
ATOM     32  C   UNL     1       1.670   8.774   8.172  1.00  0.00     0.014 A 
ATOM     33  C   UNL     1      -0.243   7.332   8.547  1.00  0.00     0.014 A 
ATOM     34  C   UNL     1       0.829   9.884   8.211  1.00  0.00     0.010 A 
ATOM     35  C   UNL     1      -1.088   8.418   8.409  1.00  0.00     0.010 A 
ATOM     36  C   UNL     1      -0.564   9.710   8.255  1.00  0.00    -0.014 A 
BRANCH  36  37
ATOM     37  C   UNL     1      -1.499  10.860   8.179  1.00  0.00     0.031 A 
ATOM     38  C   UNL     1      -2.489  11.070   9.293  1.00  0.00     0.074 A 
ATOM     39  C   UNL     1      -1.514  11.652   7.088  1.00  0.00     0.049 A 
ATOM     40  N   UNL     1      -3.458  11.942   9.389  1.00  0.00    -0.248 NA
ATOM     41  C   UNL     1      -2.417  10.131  10.424  1.00  0.00     0.031 C 
ATOM     42  C   UNL     1      -0.655  11.495   5.910  1.00  0.00     0.029 A 
ATOM     43  N   UNL     1      -2.284  12.748   6.787  1.00  0.00    -0.354 N 
ATOM     44  C   UNL     1      -4.122  11.633  10.571  1.00  0.00     0.074 A 
ATOM     45  C   UNL     1      -3.515  10.432  11.095  1.00  0.00     0.031 C 
ATOM     46  C   UNL     1      -0.912  12.486   5.041  1.00  0.00     0.029 A 
ATOM     47  C   UNL     1      -1.985  13.321   5.572  1.00  0.00     0.049 A 
ATOM     48  H   UNL     1      -2.985  13.092   7.386  1.00  0.00     0.167 HD
ATOM     49  C   UNL     1      -5.117  12.314  11.189  1.00  0.00     0.034 A 
ATOM     50  C   UNL     1      -2.518  14.396   4.959  1.00  0.00     0.034 A 
ATOM     51  C   UNL     1      -5.680  13.530  10.662  1.00  0.00     0.049 A 
ATOM     52  C   UNL     1      -3.616  15.152   5.665  1.00  0.00     0.074 A 
ATOM     53  C   UNL     1      -6.638  14.352  11.224  1.00  0.00     0.029 A 
ATOM     54  N   UNL     1      -5.333  14.098   9.441  1.00  0.00    -0.354 N 
ATOM     55  N   UNL     1      -4.188  14.891   6.819  1.00  0.00    -0.248 NA
ATOM     56  C   UNL     1      -4.129  16.352   4.995  1.00  0.00     0.031 C 
ATOM     57  C   UNL     1      -6.921  15.377  10.313  1.00  0.00     0.029 A 
ATOM     58  C   UNL     1      -6.080  15.243   9.218  1.00  0.00     0.049 A 
ATOM     59  H   UNL     1      -4.654  13.739   8.825  1.00  0.00     0.167 HD
ATOM     60  C   UNL     1      -5.111  15.912   7.026  1.00  0.00     0.074 A 
ATOM     61  C   UNL     1      -5.005  16.799   5.883  1.00  0.00     0.031 C 
ATOM     62  C   UNL     1      -5.964  16.105   8.064  1.00  0.00     0.034 A 
BRANCH  49  63
ATOM     63  C   UNL     1      -5.650  11.735  12.480  1.00  0.00     0.023 A 
ATOM     64  C   UNL     1      -4.816  11.522  13.594  1.00  0.00     0.031 A 
ATOM     65  C   UNL     1      -6.988  11.316  12.575  1.00  0.00     0.131 A 
ATOM     66  C   UNL     1      -5.294  10.807  14.702  1.00  0.00     0.055 A 
ATOM     67  C   UNL     1      -7.485  10.697  13.725  1.00  0.00     0.041 A 
ATOM     68  F   UNL     1      -7.829  11.470  11.541  1.00  0.00    -0.206 F 
ATOM     69  C   UNL     1      -6.631  10.418  14.788  1.00  0.00     0.022 A 
BRANCH  66  70
ATOM     70  S   UNL     1      -4.095  10.223  15.933  1.00  0.00     0.124 S 
ATOM     71  O   UNL     1      -3.196   9.418  15.109  1.00  0.00    -0.237 OA
ATOM     72  O   UNL     1      -3.542  11.469  16.451  1.00  0.00    -0.237 OA
ATOM     73  O   UNL     1      -4.914   9.463  16.875  1.00  0.00    -0.744 OA
ENDBRANCH  66  70
ENDBRANCH  49  63
BRANCH  50  74
ATOM     74  C   UNL     1      -2.022  14.827   3.620  1.00  0.00     0.023 A 
ATOM     75  C   UNL     1      -1.354  16.051   3.450  1.00  0.00     0.031 A 
ATOM     76  C   UNL     1      -2.222  14.025   2.482  1.00  0.00     0.131 A 
ATOM     77  C   UNL     1      -0.943  16.455   2.170  1.00  0.00     0.055 A 
ATOM     78  C   UNL     1      -1.769  14.409   1.218  1.00  0.00     0.041 A 
ATOM     79  F   UNL     1      -2.849  12.842   2.587  1.00  0.00    -0.206 F 
ATOM     80  C   UNL     1      -1.134  15.636   1.055  1.00  0.00     0.022 A 
BRANCH  77  81
ATOM     81  S   UNL     1      -0.208  18.102   1.968  1.00  0.00     0.124 S 
ATOM     82  O   UNL     1      -1.281  18.966   2.448  1.00  0.00    -0.237 OA
ATOM     83  O   UNL     1       0.973  18.013   2.820  1.00  0.00    -0.237 OA
ATOM     84  O   UNL     1       0.064  18.181   0.535  1.00  0.00    -0.744 OA
ENDBRANCH  77  81
ENDBRANCH  50  74
BRANCH  62  85
ATOM     85  C   UNL     1      -6.819  17.347   8.027  1.00  0.00     0.023 A 
ATOM     86  C   UNL     1      -7.828  17.523   7.065  1.00  0.00     0.031 A 
ATOM     87  C   UNL     1      -6.621  18.367   8.975  1.00  0.00     0.131 A 
ATOM     88  C   UNL     1      -8.566  18.715   7.039  1.00  0.00     0.055 A 
ATOM     89  C   UNL     1      -7.402  19.522   8.985  1.00  0.00     0.041 A 
ATOM     90  F   UNL     1      -5.670  18.251   9.916  1.00  0.00    -0.206 F 
ATOM     91  C   UNL     1      -8.373  19.707   8.005  1.00  0.00     0.022 A 
BRANCH  88  92
ATOM     92  S   UNL     1      -9.721  18.994   5.669  1.00  0.00     0.124 S 
ATOM     93  O   UNL     1      -8.841  18.898   4.508  1.00  0.00    -0.237 OA
ATOM     94  O   UNL     1     -10.675  17.903   5.838  1.00  0.00    -0.237 OA
ATOM     95  O   UNL     1     -10.253  20.329   5.936  1.00  0.00    -0.744 OA
ENDBRANCH  88  92
ENDBRANCH  62  85
ENDBRANCH  36  37
ENDBRANCH  28  31
ENDBRANCH  26  27
ENDBRANCH   1  26
TORSDOF 18
