REMARK SMILES Cc1ccccc1OC1(C(=O)NCCCNC(=O)c2ccc(-c3c4nc(c(-c5cc(S(=O)(=O)[O-])ccc5F)c5ccc([nH]5)c(-c5cc(S(=O)(=O)[O-])ccc5F)c5nc(c(-c6cc(S(=O)(=O)[O-])ccc6F)c6ccc3[nH]6)C=C5)C=C4)cc2)CCN(C(=O)[C@H]2CCCCO2)CC1
REMARK SMILES IDX 14 1 13 2 12 3 10 4 11 5 9 7 82 8 94 9 83 10 93 11 84 12
REMARK SMILES IDX 85 13 86 14 8 15 7 16 1 17 2 18 3 19 4 20 6 21 5 22 87 23
REMARK SMILES IDX 88 24 92 25 89 26 91 27 90 28 15 29 16 30 17 31 18 33 19 34
REMARK SMILES IDX 20 35 81 36 21 37 80 38 22 39 23 40 24 41 74 42 25 43 79 44
REMARK SMILES IDX 73 45 75 46 26 47 78 48 72 49 71 50 27 52 59 53 39 54 58 55
REMARK SMILES IDX 40 56 43 57 57 58 76 59 41 60 42 61 56 63 77 64 44 65 28 66
REMARK SMILES IDX 29 67 37 68 30 69 36 70 38 71 35 72 31 73 32 74 33 75 34 76
REMARK SMILES IDX 60 77 61 78 69 79 62 80 68 81 70 82 67 83 63 84 64 85 65 86
REMARK SMILES IDX 66 87 45 88 46 89 54 90 47 91 53 92 55 93 52 94 48 95 49 96
REMARK SMILES IDX 50 97 51 98
REMARK H PARENT 12 6 16 32 75 51 43 62
REMARK Flexibility Score: inf
ROOT
ATOM      1  C   UNL     1       8.720  -3.983  -2.291  1.00  0.00     0.042 C 
ENDROOT
BRANCH   1   2
ATOM      2  C   UNL     1       7.539  -4.225  -3.226  1.00  0.00     0.118 C 
BRANCH   2   3
ATOM      3  N   UNL     1       7.128  -5.623  -3.298  1.00  0.00    -0.353 N 
ATOM      4  C   UNL     1       6.189  -6.385  -2.670  1.00  0.00     0.264 C 
ATOM      5  O   UNL     1       6.030  -7.508  -3.173  1.00  0.00    -0.270 OA
ATOM      6  H   UNL     1       7.653  -6.137  -3.953  1.00  0.00     0.163 HD
BRANCH   4   7
ATOM      7  C   UNL     1       5.418  -5.967  -1.355  1.00  0.00     0.190 C 
ATOM      8  C   UNL     1       6.427  -6.038  -0.214  1.00  0.00     0.080 C 
ATOM      9  C   UNL     1       4.618  -4.687  -1.581  1.00  0.00     0.080 C 
ATOM     10  C   UNL     1       6.823  -4.722   0.420  1.00  0.00     0.124 C 
ATOM     11  C   UNL     1       5.084  -3.436  -0.844  1.00  0.00     0.124 C 
ATOM     12  N   UNL     1       5.835  -3.657   0.389  1.00  0.00    -0.340 N 
ATOM     13  C   UNL     1       5.965  -2.680   1.387  1.00  0.00     0.251 C 
ATOM     14  O   UNL     1       6.849  -2.767   2.247  1.00  0.00    -0.272 OA
BRANCH   7  15
ATOM     15  O   UNL     1       4.474  -7.079  -1.240  1.00  0.00    -0.477 OA
BRANCH  15  16
ATOM     16  C   UNL     1       3.590  -7.471  -0.284  1.00  0.00     0.123 A 
ATOM     17  C   UNL     1       3.789  -5.717   1.609  1.00  0.00     0.048 C 
ATOM     18  C   UNL     1       3.237  -6.945   0.967  1.00  0.00    -0.009 A 
ATOM     19  C   UNL     1       2.279  -7.625   1.761  1.00  0.00     0.007 A 
ATOM     20  C   UNL     1       1.645  -8.781   1.323  1.00  0.00     0.001 A 
ATOM     21  C   UNL     1       2.932  -8.646  -0.701  1.00  0.00     0.047 A 
ATOM     22  C   UNL     1       1.970  -9.293   0.081  1.00  0.00     0.004 A 
ENDBRANCH  15  16
ENDBRANCH   7  15
BRANCH  13  23
ATOM     23  C   UNL     1       4.914  -1.546   1.452  1.00  0.00     0.207 C 
ATOM     24  C   UNL     1       3.653  -2.129   2.111  1.00  0.00     0.042 C 
ATOM     25  O   UNL     1       5.442  -0.466   2.233  1.00  0.00    -0.368 OA
ATOM     26  C   UNL     1       2.650  -1.063   2.529  1.00  0.00     0.006 C 
ATOM     27  C   UNL     1       4.508   0.583   2.447  1.00  0.00     0.161 C 
ATOM     28  C   UNL     1       3.344   0.066   3.274  1.00  0.00     0.029 C 
ENDBRANCH  13  23
ENDBRANCH   4   7
ENDBRANCH   2   3
ENDBRANCH   1   2
BRANCH   1  29
ATOM     29  C   UNL     1      10.002  -3.577  -3.003  1.00  0.00     0.118 C 
BRANCH  29  30
ATOM     30  N   UNL     1      10.414  -2.183  -2.766  1.00  0.00    -0.352 N 
ATOM     31  C   UNL     1      11.562  -1.551  -3.201  1.00  0.00     0.251 C 
ATOM     32  H   UNL     1       9.795  -1.635  -2.232  1.00  0.00     0.163 HD
ATOM     33  O   UNL     1      11.802  -0.380  -2.966  1.00  0.00    -0.269 OA
BRANCH  31  34
ATOM     34  C   UNL     1      12.455  -2.326  -4.097  1.00  0.00     0.039 A 
ATOM     35  C   UNL     1      12.485  -1.933  -5.438  1.00  0.00     0.014 A 
ATOM     36  C   UNL     1      12.872  -3.595  -3.701  1.00  0.00     0.014 A 
ATOM     37  C   UNL     1      12.668  -2.905  -6.413  1.00  0.00     0.010 A 
ATOM     38  C   UNL     1      12.953  -4.574  -4.671  1.00  0.00     0.010 A 
ATOM     39  C   UNL     1      12.773  -4.241  -6.021  1.00  0.00    -0.014 A 
BRANCH  39  40
ATOM     40  C   UNL     1      12.542  -5.343  -6.951  1.00  0.00     0.031 A 
ATOM     41  C   UNL     1      13.667  -6.178  -7.411  1.00  0.00     0.074 A 
ATOM     42  C   UNL     1      11.302  -5.598  -7.427  1.00  0.00     0.049 A 
ATOM     43  N   UNL     1      13.736  -6.721  -8.580  1.00  0.00    -0.248 NA
ATOM     44  C   UNL     1      14.840  -6.430  -6.585  1.00  0.00     0.031 C 
ATOM     45  C   UNL     1      10.881  -6.753  -8.216  1.00  0.00     0.029 A 
ATOM     46  N   UNL     1      10.217  -4.731  -7.483  1.00  0.00    -0.354 N 
ATOM     47  C   UNL     1      14.792  -7.602  -8.566  1.00  0.00     0.074 A 
ATOM     48  C   UNL     1      15.483  -7.337  -7.324  1.00  0.00     0.031 C 
ATOM     49  C   UNL     1       9.757  -6.441  -8.879  1.00  0.00     0.029 A 
ATOM     50  C   UNL     1       9.471  -5.040  -8.631  1.00  0.00     0.049 A 
ATOM     51  H   UNL     1      10.007  -4.024  -6.831  1.00  0.00     0.167 HD
ATOM     52  C   UNL     1      14.895  -8.560  -9.530  1.00  0.00     0.034 A 
ATOM     53  C   UNL     1       9.237  -4.101  -9.592  1.00  0.00     0.034 A 
ATOM     54  C   UNL     1      13.810  -8.473 -10.506  1.00  0.00     0.049 A 
ATOM     55  C   UNL     1       9.865  -4.434 -10.929  1.00  0.00     0.074 A 
ATOM     56  C   UNL     1      12.624  -9.175 -10.652  1.00  0.00     0.029 A 
ATOM     57  N   UNL     1      13.716  -7.367 -11.346  1.00  0.00    -0.354 N 
ATOM     58  N   UNL     1      10.733  -5.391 -11.114  1.00  0.00    -0.248 NA
ATOM     59  C   UNL     1       9.582  -3.697 -12.156  1.00  0.00     0.031 C 
ATOM     60  C   UNL     1      11.787  -8.446 -11.535  1.00  0.00     0.029 A 
ATOM     61  C   UNL     1      12.474  -7.319 -11.953  1.00  0.00     0.049 A 
ATOM     62  H   UNL     1      14.434  -6.710 -11.489  1.00  0.00     0.167 HD
ATOM     63  C   UNL     1      11.157  -5.385 -12.421  1.00  0.00     0.074 A 
ATOM     64  C   UNL     1      10.374  -4.330 -13.040  1.00  0.00     0.031 C 
ATOM     65  C   UNL     1      12.128  -6.239 -12.871  1.00  0.00     0.034 A 
BRANCH  52  66
ATOM     66  C   UNL     1      15.794  -9.767  -9.381  1.00  0.00     0.023 A 
ATOM     67  C   UNL     1      15.385 -11.014  -9.896  1.00  0.00     0.031 A 
ATOM     68  C   UNL     1      17.030  -9.767  -8.706  1.00  0.00     0.131 A 
ATOM     69  C   UNL     1      16.110 -12.190  -9.628  1.00  0.00     0.055 A 
ATOM     70  C   UNL     1      17.713 -10.944  -8.373  1.00  0.00     0.041 A 
ATOM     71  F   UNL     1      17.648  -8.622  -8.380  1.00  0.00    -0.206 F 
ATOM     72  C   UNL     1      17.243 -12.169  -8.820  1.00  0.00     0.022 A 
BRANCH  69  73
ATOM     73  S   UNL     1      15.562 -13.753 -10.369  1.00  0.00     0.124 S 
ATOM     74  O   UNL     1      14.199 -13.877  -9.864  1.00  0.00    -0.237 OA
ATOM     75  O   UNL     1      15.701 -13.481 -11.795  1.00  0.00    -0.237 OA
ATOM     76  O   UNL     1      16.509 -14.731  -9.835  1.00  0.00    -0.744 OA
ENDBRANCH  69  73
ENDBRANCH  52  66
BRANCH  53  77
ATOM     77  C   UNL     1       9.043  -2.735  -9.030  1.00  0.00     0.023 A 
ATOM     78  C   UNL     1       7.932  -2.542  -8.180  1.00  0.00     0.031 A 
ATOM     79  C   UNL     1      10.093  -1.810  -8.962  1.00  0.00     0.131 A 
ATOM     80  C   UNL     1       7.964  -1.554  -7.186  1.00  0.00     0.055 A 
ATOM     81  C   UNL     1      10.099  -0.792  -8.001  1.00  0.00     0.041 A 
ATOM     82  F   UNL     1      11.187  -1.960  -9.724  1.00  0.00    -0.206 F 
ATOM     83  C   UNL     1       9.056  -0.691  -7.077  1.00  0.00     0.022 A 
BRANCH  80  84
ATOM     84  S   UNL     1       6.698  -1.554  -5.880  1.00  0.00     0.124 S 
ATOM     85  O   UNL     1       5.800  -0.492  -6.313  1.00  0.00    -0.237 OA
ATOM     86  O   UNL     1       6.153  -2.907  -5.936  1.00  0.00    -0.237 OA
ATOM     87  O   UNL     1       7.468  -1.282  -4.666  1.00  0.00    -0.744 OA
ENDBRANCH  80  84
ENDBRANCH  53  77
BRANCH  65  88
ATOM     88  C   UNL     1      12.773  -6.203 -14.244  1.00  0.00     0.023 A 
ATOM     89  C   UNL     1      12.729  -5.087 -15.093  1.00  0.00     0.031 A 
ATOM     90  C   UNL     1      13.521  -7.305 -14.728  1.00  0.00     0.131 A 
ATOM     91  C   UNL     1      13.300  -5.123 -16.380  1.00  0.00     0.055 A 
ATOM     92  C   UNL     1      14.162  -7.308 -15.972  1.00  0.00     0.041 A 
ATOM     93  F   UNL     1      13.666  -8.430 -14.012  1.00  0.00    -0.206 F 
ATOM     94  C   UNL     1      14.036  -6.220 -16.818  1.00  0.00     0.022 A 
BRANCH  91  95
ATOM     95  S   UNL     1      12.990  -3.729 -17.496  1.00  0.00     0.124 S 
ATOM     96  O   UNL     1      11.537  -3.782 -17.642  1.00  0.00    -0.237 OA
ATOM     97  O   UNL     1      13.508  -2.597 -16.736  1.00  0.00    -0.237 OA
ATOM     98  O   UNL     1      13.747  -4.072 -18.697  1.00  0.00    -0.744 OA
ENDBRANCH  91  95
ENDBRANCH  65  88
ENDBRANCH  39  40
ENDBRANCH  31  34
ENDBRANCH  29  30
ENDBRANCH   1  29
TORSDOF 16
