REMARK SMILES O=C(NCCCNC(=O)[C@H]1[NH2+]CC[C@H]1c1cccc(Oc2ccccc2)c1)c1ccc(-c2c3nc(c(-c4cc(S(=O)(=O)[O-])ccc4F)c4ccc([nH]4)c(-c4cc(S(=O)(=O)[O-])ccc4F)c4nc(c(-c5cc(S(=O)(=O)[O-])ccc5F)c5ccc2[nH]5)C=C4)C=C3)cc1
REMARK SMILES IDX 5 1 4 2 3 3 1 4 2 5 28 7 29 8 90 9 30 10 89 11 31 12 32 13
REMARK SMILES IDX 33 14 83 15 34 16 88 17 82 18 84 19 35 20 87 21 81 22 80 23
REMARK SMILES IDX 36 25 68 26 48 27 67 28 49 29 52 30 66 31 85 32 50 33 51 34
REMARK SMILES IDX 65 36 86 37 53 38 37 39 38 40 46 41 39 42 45 43 47 44 44 45
REMARK SMILES IDX 40 46 41 47 42 48 43 49 69 50 70 51 78 52 71 53 77 54 79 55
REMARK SMILES IDX 76 56 72 57 73 58 74 59 75 60 54 61 55 62 63 63 56 64 62 65
REMARK SMILES IDX 64 66 61 67 57 68 58 69 59 70 60 71 6 72 7 73 8 74 9 76
REMARK SMILES IDX 10 77 11 78 14 79 12 80 13 83 15 84 16 85 27 86 17 87 19 88
REMARK SMILES IDX 18 89 20 90 21 91 22 92 26 93 23 94 25 95 24 96
REMARK H PARENT 3 6 84 24 52 35 7 75 11 81 11 82
REMARK Flexibility Score: inf
ROOT
ATOM      1  C   UNL     1       4.647  -0.827   2.398  1.00  0.00     0.042 C 
ENDROOT
BRANCH   1   2
ATOM      2  C   UNL     1       4.424  -0.891   0.891  1.00  0.00     0.118 C 
BRANCH   2   3
ATOM      3  N   UNL     1       3.008  -0.956   0.552  1.00  0.00    -0.352 N 
ATOM      4  O   UNL     1       1.012  -0.161  -0.122  1.00  0.00    -0.269 OA
ATOM      5  C   UNL     1       2.239  -0.050  -0.132  1.00  0.00     0.251 C 
ATOM      6  H   UNL     1       2.537  -1.766   0.856  1.00  0.00     0.163 HD
BRANCH   5   7
ATOM      7  C   UNL     1       2.878   1.058  -0.871  1.00  0.00     0.039 A 
ATOM      8  C   UNL     1       3.996   0.825  -1.679  1.00  0.00     0.014 A 
ATOM      9  C   UNL     1       2.333   2.340  -0.779  1.00  0.00     0.014 A 
ATOM     10  C   UNL     1       4.635   1.891  -2.305  1.00  0.00     0.010 A 
ATOM     11  C   UNL     1       2.933   3.397  -1.468  1.00  0.00     0.010 A 
ATOM     12  C   UNL     1       4.101   3.184  -2.219  1.00  0.00    -0.014 A 
BRANCH  12  13
ATOM     13  C   UNL     1       4.736   4.307  -2.953  1.00  0.00     0.031 A 
ATOM     14  C   UNL     1       5.338   5.462  -2.206  1.00  0.00     0.074 A 
ATOM     15  C   UNL     1       4.734   4.295  -4.299  1.00  0.00     0.049 A 
ATOM     16  N   UNL     1       5.831   6.582  -2.669  1.00  0.00    -0.248 NA
ATOM     17  C   UNL     1       5.375   5.345  -0.742  1.00  0.00     0.031 C 
ATOM     18  C   UNL     1       4.186   3.220  -5.130  1.00  0.00     0.029 A 
ATOM     19  N   UNL     1       5.193   5.216  -5.207  1.00  0.00    -0.354 N 
ATOM     20  C   UNL     1       6.219   7.317  -1.554  1.00  0.00     0.074 A 
ATOM     21  C   UNL     1       5.867   6.525  -0.393  1.00  0.00     0.031 C 
ATOM     22  C   UNL     1       4.343   3.541  -6.422  1.00  0.00     0.029 A 
ATOM     23  C   UNL     1       4.936   4.871  -6.512  1.00  0.00     0.049 A 
ATOM     24  H   UNL     1       5.660   6.043  -4.948  1.00  0.00     0.167 HD
ATOM     25  C   UNL     1       6.817   8.535  -1.509  1.00  0.00     0.034 A 
ATOM     26  C   UNL     1       5.111   5.563  -7.654  1.00  0.00     0.034 A 
ATOM     27  C   UNL     1       7.146   9.307  -2.686  1.00  0.00     0.049 A 
ATOM     28  C   UNL     1       5.712   6.940  -7.584  1.00  0.00     0.074 A 
ATOM     29  C   UNL     1       7.776  10.537  -2.764  1.00  0.00     0.029 A 
ATOM     30  N   UNL     1       6.854   8.931  -3.993  1.00  0.00    -0.354 N 
ATOM     31  N   UNL     1       6.084   7.622  -6.525  1.00  0.00    -0.248 NA
ATOM     32  C   UNL     1       5.923   7.638  -8.857  1.00  0.00     0.031 C 
ATOM     33  C   UNL     1       7.793  10.938  -4.104  1.00  0.00     0.029 A 
ATOM     34  C   UNL     1       7.258   9.921  -4.878  1.00  0.00     0.049 A 
ATOM     35  H   UNL     1       6.423   8.085  -4.253  1.00  0.00     0.167 HD
ATOM     36  C   UNL     1       6.603   8.819  -7.008  1.00  0.00     0.074 A 
ATOM     37  C   UNL     1       6.494   8.765  -8.452  1.00  0.00     0.031 C 
ATOM     38  C   UNL     1       7.136   9.859  -6.317  1.00  0.00     0.034 A 
BRANCH  25  39
ATOM     39  C   UNL     1       7.090   9.123  -0.143  1.00  0.00     0.023 A 
ATOM     40  C   UNL     1       7.932   8.484   0.786  1.00  0.00     0.031 A 
ATOM     41  C   UNL     1       6.454  10.310   0.262  1.00  0.00     0.131 A 
ATOM     42  C   UNL     1       8.034   8.976   2.096  1.00  0.00     0.055 A 
ATOM     43  C   UNL     1       6.636  10.848   1.538  1.00  0.00     0.041 A 
ATOM     44  F   UNL     1       5.622  10.959  -0.569  1.00  0.00    -0.206 F 
ATOM     45  C   UNL     1       7.412  10.169   2.471  1.00  0.00     0.022 A 
BRANCH  42  46
ATOM     46  S   UNL     1       8.831   7.934   3.350  1.00  0.00     0.124 S 
ATOM     47  O   UNL     1       8.068   6.693   3.232  1.00  0.00    -0.237 OA
ATOM     48  O   UNL     1      10.211   7.883   2.886  1.00  0.00    -0.237 OA
ATOM     49  O   UNL     1       8.615   8.670   4.595  1.00  0.00    -0.744 OA
ENDBRANCH  42  46
ENDBRANCH  25  39
BRANCH  26  50
ATOM     50  C   UNL     1       4.666   4.972  -8.946  1.00  0.00     0.023 A 
ATOM     51  C   UNL     1       5.589   4.599  -9.934  1.00  0.00     0.031 A 
ATOM     52  C   UNL     1       3.299   4.750  -9.199  1.00  0.00     0.131 A 
ATOM     53  C   UNL     1       5.133   4.041 -11.138  1.00  0.00     0.055 A 
ATOM     54  C   UNL     1       2.854   4.152 -10.378  1.00  0.00     0.041 A 
ATOM     55  F   UNL     1       2.377   5.082  -8.281  1.00  0.00    -0.206 F 
ATOM     56  C   UNL     1       3.774   3.801 -11.360  1.00  0.00     0.022 A 
BRANCH  53  57
ATOM     57  S   UNL     1       6.342   3.673 -12.438  1.00  0.00     0.124 S 
ATOM     58  O   UNL     1       6.904   4.992 -12.704  1.00  0.00    -0.237 OA
ATOM     59  O   UNL     1       7.224   2.721 -11.772  1.00  0.00    -0.237 OA
ATOM     60  O   UNL     1       5.526   3.114 -13.514  1.00  0.00    -0.744 OA
ENDBRANCH  53  57
ENDBRANCH  26  50
BRANCH  38  61
ATOM     61  C   UNL     1       7.706  11.002  -7.121  1.00  0.00     0.023 A 
ATOM     62  C   UNL     1       6.891  11.881  -7.856  1.00  0.00     0.031 A 
ATOM     63  C   UNL     1       9.095  11.223  -7.128  1.00  0.00     0.131 A 
ATOM     64  C   UNL     1       7.478  12.921  -8.595  1.00  0.00     0.055 A 
ATOM     65  C   UNL     1       9.667  12.290  -7.820  1.00  0.00     0.041 A 
ATOM     66  F   UNL     1       9.919  10.409  -6.447  1.00  0.00    -0.206 F 
ATOM     67  C   UNL     1       8.858  13.142  -8.565  1.00  0.00     0.022 A 
BRANCH  64  68
ATOM     68  S   UNL     1       6.421  13.953  -9.648  1.00  0.00     0.124 S 
ATOM     69  O   UNL     1       5.869  12.971 -10.576  1.00  0.00    -0.237 OA
ATOM     70  O   UNL     1       5.482  14.523  -8.688  1.00  0.00    -0.237 OA
ATOM     71  O   UNL     1       7.356  14.908 -10.241  1.00  0.00    -0.744 OA
ENDBRANCH  64  68
ENDBRANCH  38  61
ENDBRANCH  12  13
ENDBRANCH   5   7
ENDBRANCH   2   3
ENDBRANCH   1   2
BRANCH   1  72
ATOM     72  C   UNL     1       4.295  -2.128   3.105  1.00  0.00     0.118 C 
BRANCH  72  73
ATOM     73  N   UNL     1       5.232  -3.181   2.760  1.00  0.00    -0.351 N 
ATOM     74  C   UNL     1       6.083  -3.917   3.521  1.00  0.00     0.278 C 
ATOM     75  H   UNL     1       5.255  -3.401   1.801  1.00  0.00     0.163 HD
ATOM     76  O   UNL     1       6.717  -4.808   2.943  1.00  0.00    -0.268 OA
BRANCH  74  77
ATOM     77  C   UNL     1       6.219  -3.742   5.037  1.00  0.00     0.280 C 
ATOM     78  N   UNL     1       6.503  -2.353   5.475  1.00  0.00    -0.335 N 
ATOM     79  C   UNL     1       5.135  -4.336   5.966  1.00  0.00     0.093 C 
ATOM     80  C   UNL     1       5.689  -2.097   6.661  1.00  0.00     0.262 C 
ATOM     81  H   UNL     1       6.257  -1.696   4.735  1.00  0.00     0.346 HD
ATOM     82  H   UNL     1       7.494  -2.236   5.685  1.00  0.00     0.346 HD
ATOM     83  C   UNL     1       5.351  -3.472   7.215  1.00  0.00     0.076 C 
BRANCH  79  84
ATOM     84  C   UNL     1       3.710  -4.432   5.430  1.00  0.00    -0.034 A 
ATOM     85  C   UNL     1       2.619  -3.731   5.962  1.00  0.00     0.004 A 
ATOM     86  C   UNL     1       3.460  -5.306   4.351  1.00  0.00     0.051 A 
ATOM     87  C   UNL     1       1.338  -3.879   5.420  1.00  0.00     0.004 A 
ATOM     88  C   UNL     1       2.188  -5.439   3.782  1.00  0.00     0.127 A 
ATOM     89  C   UNL     1       1.126  -4.724   4.332  1.00  0.00     0.047 A 
BRANCH  88  90
ATOM     90  O   UNL     1       1.862  -6.229   2.698  1.00  0.00    -0.457 OA
BRANCH  90  91
ATOM     91  C   UNL     1       2.876  -6.779   1.953  1.00  0.00     0.127 A 
ATOM     92  C   UNL     1       3.096  -6.293   0.664  1.00  0.00     0.047 A 
ATOM     93  C   UNL     1       3.616  -7.861   2.435  1.00  0.00     0.047 A 
ATOM     94  C   UNL     1       4.107  -6.849  -0.121  1.00  0.00     0.004 A 
ATOM     95  C   UNL     1       4.642  -8.398   1.659  1.00  0.00     0.004 A 
ATOM     96  C   UNL     1       4.889  -7.890   0.383  1.00  0.00     0.000 A 
ENDBRANCH  90  91
ENDBRANCH  88  90
ENDBRANCH  79  84
ENDBRANCH  74  77
ENDBRANCH  72  73
ENDBRANCH   1  72
TORSDOF 16
