REMARK SMILES Cc1cc(Br)c(C)c([C@@H]2[NH2+][C@H](C(=O)NCCCNC(=O)c3ccc(-c4c5nc(c(-c6cc(S(=O)(=O)[O-])ccc6F)c6ccc([nH]6)c(-c6cc(S(=O)(=O)[O-])ccc6F)c6nc(c(-c7cc(S(=O)(=O)[O-])ccc7F)c7ccc4[nH]7)C=C6)C=C5)cc3)CS2)c1O
REMARK SMILES IDX 16 1 15 2 14 3 12 4 13 5 11 7 9 8 10 9 85 10 84 13 8 14 1 15
REMARK SMILES IDX 2 16 3 17 86 18 4 19 5 20 6 21 7 22 87 23 17 25 18 26 19 27
REMARK SMILES IDX 20 29 21 30 22 31 83 32 23 33 82 34 24 35 25 36 26 37 76 38
REMARK SMILES IDX 27 39 81 40 75 41 77 42 28 43 80 44 74 45 73 46 29 48 61 49
REMARK SMILES IDX 41 50 60 51 42 52 45 53 59 54 78 55 43 56 44 57 58 59 79 60
REMARK SMILES IDX 46 61 30 62 31 63 39 64 32 65 38 66 40 67 37 68 33 69 34 70
REMARK SMILES IDX 35 71 36 72 62 73 63 74 71 75 64 76 70 77 72 78 69 79 65 80
REMARK SMILES IDX 66 81 67 82 68 83 47 84 48 85 56 86 49 87 55 88 57 89 54 90
REMARK SMILES IDX 50 91 51 92 52 93 53 94
REMARK H PARENT 14 6 10 11 10 12 87 24 18 28 77 47 45 58
REMARK Flexibility Score: inf
ROOT
ATOM      1  C   UNL     1       1.780   2.192   2.173  1.00  0.00     0.042 C 
ENDROOT
BRANCH   1   2
ATOM      2  C   UNL     1       3.123   1.813   1.549  1.00  0.00     0.118 C 
BRANCH   2   3
ATOM      3  N   UNL     1       3.121   1.431   0.141  1.00  0.00    -0.351 N 
ATOM      4  C   UNL     1       3.512   2.074  -0.997  1.00  0.00     0.279 C 
ATOM      5  O   UNL     1       3.890   1.301  -1.894  1.00  0.00    -0.268 OA
ATOM      6  H   UNL     1       2.765   0.527  -0.021  1.00  0.00     0.163 HD
BRANCH   4   7
ATOM      7  C   UNL     1       3.413   3.588  -1.313  1.00  0.00     0.283 C 
ATOM      8  C   UNL     1       1.169   4.512  -1.077  1.00  0.00     0.278 C 
ATOM      9  N   UNL     1       2.146   3.932  -2.005  1.00  0.00    -0.320 N 
ATOM     10  S   UNL     1       2.120   5.175   0.342  1.00  0.00    -0.087 SA
ATOM     11  H   UNL     1       2.344   4.606  -2.744  1.00  0.00     0.348 HD
ATOM     12  H   UNL     1       1.750   3.075  -2.394  1.00  0.00     0.348 HD
ATOM     13  C   UNL     1       3.722   4.622  -0.263  1.00  0.00     0.151 C 
BRANCH   8  14
ATOM     14  C   UNL     1      -0.046   3.648  -0.694  1.00  0.00     0.066 A 
ATOM     15  C   UNL     1      -1.205  -0.022  -0.947  1.00  0.00     0.048 C 
ATOM     16  C   UNL     1      -1.216   1.451  -0.645  1.00  0.00    -0.008 A 
ATOM     17  C   UNL     1      -2.290   2.027   0.018  1.00  0.00     0.023 A 
ATOM     18  C   UNL     1      -0.141   2.272  -1.018  1.00  0.00     0.128 A 
ATOM     19  C   UNL     1      -2.274   3.387   0.326  1.00  0.00     0.021 A 
ATOM     20  Br  UNL     1      -3.818   4.048   1.227  1.00  0.00    -0.051 Br
ATOM     21  C   UNL     1      -1.172   4.216  -0.013  1.00  0.00    -0.023 A 
ATOM     22  C   UNL     1      -1.246   5.677   0.375  1.00  0.00     0.046 C 
BRANCH  18  23
ATOM     23  O   UNL     1       0.809   1.650  -1.774  1.00  0.00    -0.507 OA
ATOM     24  H   UNL     1       0.725   0.739  -1.975  1.00  0.00     0.293 HD
ENDBRANCH  18  23
ENDBRANCH   8  14
ENDBRANCH   4   7
ENDBRANCH   2   3
ENDBRANCH   1   2
BRANCH   1  25
ATOM     25  C   UNL     1       0.734   1.088   2.333  1.00  0.00     0.118 C 
BRANCH  25  26
ATOM     26  N   UNL     1       0.889   0.320   3.555  1.00  0.00    -0.352 N 
ATOM     27  C   UNL     1      -0.017   0.040   4.555  1.00  0.00     0.251 C 
ATOM     28  H   UNL     1       1.786  -0.062   3.692  1.00  0.00     0.163 HD
ATOM     29  O   UNL     1       0.400  -0.522   5.568  1.00  0.00    -0.269 OA
BRANCH  27  30
ATOM     30  C   UNL     1      -1.460   0.408   4.469  1.00  0.00     0.039 A 
ATOM     31  C   UNL     1      -2.227   0.210   3.318  1.00  0.00     0.014 A 
ATOM     32  C   UNL     1      -2.093   0.876   5.629  1.00  0.00     0.014 A 
ATOM     33  C   UNL     1      -3.588   0.565   3.304  1.00  0.00     0.010 A 
ATOM     34  C   UNL     1      -3.461   1.195   5.622  1.00  0.00     0.010 A 
ATOM     35  C   UNL     1      -4.222   1.075   4.450  1.00  0.00    -0.014 A 
BRANCH  35  36
ATOM     36  C   UNL     1      -5.665   1.476   4.432  1.00  0.00     0.031 A 
ATOM     37  C   UNL     1      -6.067   2.920   4.622  1.00  0.00     0.074 A 
ATOM     38  C   UNL     1      -6.634   0.553   4.264  1.00  0.00     0.049 A 
ATOM     39  N   UNL     1      -7.266   3.449   4.647  1.00  0.00    -0.248 NA
ATOM     40  C   UNL     1      -4.983   3.894   4.815  1.00  0.00     0.031 C 
ATOM     41  C   UNL     1      -6.402  -0.879   4.086  1.00  0.00     0.029 A 
ATOM     42  N   UNL     1      -8.005   0.675   4.222  1.00  0.00    -0.354 N 
ATOM     43  C   UNL     1      -7.081   4.813   4.854  1.00  0.00     0.074 A 
ATOM     44  C   UNL     1      -5.656   5.023   4.993  1.00  0.00     0.031 C 
ATOM     45  C   UNL     1      -7.583  -1.498   3.935  1.00  0.00     0.029 A 
ATOM     46  C   UNL     1      -8.667  -0.521   4.055  1.00  0.00     0.049 A 
ATOM     47  H   UNL     1      -8.470   1.539   4.304  1.00  0.00     0.167 HD
ATOM     48  C   UNL     1      -8.007   5.803   4.904  1.00  0.00     0.034 A 
ATOM     49  C   UNL     1      -9.986  -0.813   4.014  1.00  0.00     0.034 A 
ATOM     50  C   UNL     1      -9.427   5.599   4.760  1.00  0.00     0.049 A 
ATOM     51  C   UNL     1     -11.003   0.299   4.119  1.00  0.00     0.074 A 
ATOM     52  C   UNL     1     -10.428   6.557   4.755  1.00  0.00     0.029 A 
ATOM     53  N   UNL     1     -10.054   4.372   4.604  1.00  0.00    -0.354 N 
ATOM     54  N   UNL     1     -10.804   1.591   4.233  1.00  0.00    -0.248 NA
ATOM     55  C   UNL     1     -12.425  -0.080   4.083  1.00  0.00     0.031 C 
ATOM     56  C   UNL     1     -11.659   5.907   4.670  1.00  0.00     0.029 A 
ATOM     57  C   UNL     1     -11.428   4.548   4.536  1.00  0.00     0.049 A 
ATOM     58  H   UNL     1      -9.591   3.505   4.548  1.00  0.00     0.167 HD
ATOM     59  C   UNL     1     -12.069   2.178   4.253  1.00  0.00     0.074 A 
ATOM     60  C   UNL     1     -13.027   1.103   4.116  1.00  0.00     0.031 C 
ATOM     61  C   UNL     1     -12.397   3.489   4.377  1.00  0.00     0.034 A 
BRANCH  48  62
ATOM     62  C   UNL     1      -7.537   7.226   5.102  1.00  0.00     0.023 A 
ATOM     63  C   UNL     1      -7.950   7.956   6.234  1.00  0.00     0.031 A 
ATOM     64  C   UNL     1      -6.819   7.904   4.101  1.00  0.00     0.131 A 
ATOM     65  C   UNL     1      -7.676   9.328   6.317  1.00  0.00     0.055 A 
ATOM     66  C   UNL     1      -6.509   9.260   4.210  1.00  0.00     0.041 A 
ATOM     67  F   UNL     1      -6.408   7.256   2.999  1.00  0.00    -0.206 F 
ATOM     68  C   UNL     1      -6.952   9.981   5.315  1.00  0.00     0.022 A 
BRANCH  65  69
ATOM     69  S   UNL     1      -8.316  10.331   7.686  1.00  0.00     0.124 S 
ATOM     70  O   UNL     1      -7.083  10.862   8.269  1.00  0.00    -0.237 OA
ATOM     71  O   UNL     1      -9.142  11.314   6.984  1.00  0.00    -0.237 OA
ATOM     72  O   UNL     1      -9.036   9.380   8.517  1.00  0.00    -0.744 OA
ENDBRANCH  65  69
ENDBRANCH  48  62
BRANCH  49  73
ATOM     73  C   UNL     1     -10.410  -2.233   3.817  1.00  0.00     0.023 A 
ATOM     74  C   UNL     1     -10.066  -3.229   4.750  1.00  0.00     0.031 A 
ATOM     75  C   UNL     1     -11.078  -2.631   2.646  1.00  0.00     0.131 A 
ATOM     76  C   UNL     1     -10.320  -4.576   4.459  1.00  0.00     0.055 A 
ATOM     77  C   UNL     1     -11.399  -3.966   2.396  1.00  0.00     0.041 A 
ATOM     78  F   UNL     1     -11.423  -1.720   1.722  1.00  0.00    -0.206 F 
ATOM     79  C   UNL     1     -11.001  -4.949   3.297  1.00  0.00     0.022 A 
BRANCH  76  80
ATOM     80  S   UNL     1      -9.651  -5.896   5.509  1.00  0.00     0.124 S 
ATOM     81  O   UNL     1     -10.859  -6.612   5.906  1.00  0.00    -0.237 OA
ATOM     82  O   UNL     1      -8.776  -6.601   4.576  1.00  0.00    -0.237 OA
ATOM     83  O   UNL     1      -8.966  -5.174   6.576  1.00  0.00    -0.744 OA
ENDBRANCH  76  80
ENDBRANCH  49  73
BRANCH  61  84
ATOM     84  C   UNL     1     -13.856   3.892   4.364  1.00  0.00     0.023 A 
ATOM     85  C   UNL     1     -14.337   4.765   3.367  1.00  0.00     0.031 A 
ATOM     86  C   UNL     1     -14.721   3.556   5.420  1.00  0.00     0.131 A 
ATOM     87  C   UNL     1     -15.623   5.312   3.474  1.00  0.00     0.055 A 
ATOM     88  C   UNL     1     -16.020   4.063   5.495  1.00  0.00     0.041 A 
ATOM     89  F   UNL     1     -14.311   2.739   6.403  1.00  0.00    -0.206 F 
ATOM     90  C   UNL     1     -16.471   4.958   4.529  1.00  0.00     0.022 A 
BRANCH  87  91
ATOM     91  S   UNL     1     -16.208   6.574   2.309  1.00  0.00     0.124 S 
ATOM     92  O   UNL     1     -17.384   5.929   1.729  1.00  0.00    -0.237 OA
ATOM     93  O   UNL     1     -16.489   7.703   3.192  1.00  0.00    -0.237 OA
ATOM     94  O   UNL     1     -15.086   6.757   1.394  1.00  0.00    -0.744 OA
ENDBRANCH  87  91
ENDBRANCH  61  84
ENDBRANCH  35  36
ENDBRANCH  27  30
ENDBRANCH  25  26
ENDBRANCH   1  25
TORSDOF 15
