REMARK SMILES Cc1cc(Cl)c2c(c1)C=C(C(=O)NCCCNC(=O)c1ccc(-c3c4nc(c(-c5cc(S(=O)(=O)[O-])ccc5F)c5ccc([nH]5)c(-c5cc(S(=O)(=O)[O-])ccc5F)c5nc(c(-c6cc(S(=O)(=O)[O-])ccc6F)c6ccc3[nH]6)C=C5)C=C4)cc1)[C@@H](C(F)(F)F)O2
REMARK SMILES IDX 16 1 15 2 14 3 13 4 11 5 12 6 10 8 1 9 2 10 3 11 8 12 4 13
REMARK SMILES IDX 7 14 5 15 6 16 9 17 88 18 83 19 84 20 85 21 86 22 87 23
REMARK SMILES IDX 17 24 18 25 19 27 20 28 21 29 82 30 22 31 81 32 23 33 24 34
REMARK SMILES IDX 25 35 75 36 26 37 80 38 74 39 76 40 27 41 79 42 73 43 72 44
REMARK SMILES IDX 28 46 60 47 40 48 59 49 41 50 44 51 58 52 77 53 42 54 43 55
REMARK SMILES IDX 57 57 78 58 45 59 29 60 30 61 38 62 31 63 37 64 39 65 36 66
REMARK SMILES IDX 32 67 33 68 34 69 35 70 61 71 62 72 70 73 63 74 69 75 71 76
REMARK SMILES IDX 68 77 64 78 65 79 66 80 67 81 46 82 47 83 55 84 48 85 54 86
REMARK SMILES IDX 56 87 53 88 49 89 50 90 51 91 52 92
REMARK H PARENT 13 7 17 26 76 45 44 56
REMARK Flexibility Score: inf
ROOT
ATOM      1  C   UNL     1      -1.509   1.138  11.009  1.00  0.00     0.118 C 
ENDROOT
BRANCH   1   2
ATOM      2  C   UNL     1      -1.231   0.190   9.849  1.00  0.00     0.042 C 
BRANCH   2   3
ATOM      3  C   UNL     1      -2.252   0.332   8.731  1.00  0.00     0.118 C 
BRANCH   3   4
ATOM      4  N   UNL     1      -1.991   1.496   7.896  1.00  0.00    -0.352 N 
ATOM      5  C   UNL     1      -1.548   1.735   6.640  1.00  0.00     0.251 C 
ATOM      6  O   UNL     1      -1.495   2.927   6.317  1.00  0.00    -0.270 OA
ATOM      7  H   UNL     1      -2.189   2.333   8.373  1.00  0.00     0.163 HD
BRANCH   5   8
ATOM      8  C   UNL     1      -1.142   0.687   5.659  1.00  0.00     0.067 C 
ATOM      9  C   UNL     1       0.968   0.098  -0.134  1.00  0.00     0.044 C 
ATOM     10  C   UNL     1       0.541  -0.346   1.233  1.00  0.00    -0.049 A 
ATOM     11  C   UNL     1       0.610  -1.702   1.578  1.00  0.00     0.028 A 
ATOM     12  C   UNL     1       0.132   0.586   2.197  1.00  0.00     0.015 A 
ATOM     13  C   UNL     1       0.258  -2.120   2.861  1.00  0.00     0.084 A 
ATOM     14  C   UNL     1      -0.228   0.168   3.484  1.00  0.00     0.019 A 
ATOM     15  Cl  UNL     1       0.354  -3.803   3.235  1.00  0.00    -0.080 Cl
ATOM     16  C   UNL     1      -0.168  -1.188   3.812  1.00  0.00     0.146 A 
ATOM     17  C   UNL     1      -0.625   1.136   4.501  1.00  0.00     0.025 C 
ATOM     18  O   UNL     1      -0.463  -1.636   5.070  1.00  0.00    -0.474 OA
ATOM     19  C   UNL     1      -1.311  -0.787   5.885  1.00  0.00     0.314 C 
BRANCH  19  20
ATOM     20  C   UNL     1      -2.776  -1.242   5.739  1.00  0.00     0.429 C 
ATOM     21  F   UNL     1      -2.961  -2.453   6.319  1.00  0.00    -0.167 F 
ATOM     22  F   UNL     1      -3.649  -0.394   6.335  1.00  0.00    -0.167 F 
ATOM     23  F   UNL     1      -3.160  -1.347   4.446  1.00  0.00    -0.167 F 
ENDBRANCH  19  20
ENDBRANCH   5   8
ENDBRANCH   3   4
ENDBRANCH   2   3
ENDBRANCH   1   2
BRANCH   1  24
ATOM     24  N   UNL     1      -2.788   0.845  11.650  1.00  0.00    -0.352 N 
ATOM     25  C   UNL     1      -3.057   0.232  12.847  1.00  0.00     0.251 C 
ATOM     26  H   UNL     1      -3.582   1.133  11.143  1.00  0.00     0.163 HD
ATOM     27  O   UNL     1      -4.192  -0.192  13.065  1.00  0.00    -0.269 OA
BRANCH  25  28
ATOM     28  C   UNL     1      -1.995   0.083  13.860  1.00  0.00     0.039 A 
ATOM     29  C   UNL     1      -1.921  -1.092  14.611  1.00  0.00     0.014 A 
ATOM     30  C   UNL     1      -1.088   1.120  14.087  1.00  0.00     0.014 A 
ATOM     31  C   UNL     1      -0.896  -1.248  15.546  1.00  0.00     0.010 A 
ATOM     32  C   UNL     1      -0.013   0.926  14.945  1.00  0.00     0.010 A 
ATOM     33  C   UNL     1       0.085  -0.254  15.695  1.00  0.00    -0.014 A 
BRANCH  33  34
ATOM     34  C   UNL     1       1.205  -0.408  16.655  1.00  0.00     0.031 A 
ATOM     35  C   UNL     1       1.337   0.559  17.802  1.00  0.00     0.074 A 
ATOM     36  C   UNL     1       2.122  -1.377  16.462  1.00  0.00     0.049 A 
ATOM     37  N   UNL     1       2.289   0.652  18.693  1.00  0.00    -0.248 NA
ATOM     38  C   UNL     1       0.278   1.572  17.952  1.00  0.00     0.031 C 
ATOM     39  C   UNL     1       2.111  -2.345  15.361  1.00  0.00     0.029 A 
ATOM     40  N   UNL     1       3.244  -1.708  17.179  1.00  0.00    -0.354 N 
ATOM     41  C   UNL     1       1.951   1.736  19.495  1.00  0.00     0.074 A 
ATOM     42  C   UNL     1       0.737   2.304  18.957  1.00  0.00     0.031 C 
ATOM     43  C   UNL     1       3.156  -3.177  15.495  1.00  0.00     0.029 A 
ATOM     44  C   UNL     1       3.940  -2.776  16.659  1.00  0.00     0.049 A 
ATOM     45  H   UNL     1       3.525  -1.227  17.990  1.00  0.00     0.167 HD
ATOM     46  C   UNL     1       2.586   2.197  20.598  1.00  0.00     0.034 A 
ATOM     47  C   UNL     1       5.086  -3.357  17.067  1.00  0.00     0.034 A 
ATOM     48  C   UNL     1       3.768   1.592  21.149  1.00  0.00     0.049 A 
ATOM     49  C   UNL     1       5.773  -2.816  18.294  1.00  0.00     0.074 A 
ATOM     50  C   UNL     1       4.449   1.941  22.302  1.00  0.00     0.029 A 
ATOM     51  N   UNL     1       4.442   0.515  20.594  1.00  0.00    -0.354 N 
ATOM     52  N   UNL     1       5.418  -1.809  19.058  1.00  0.00    -0.248 NA
ATOM     53  C   UNL     1       7.010  -3.487  18.717  1.00  0.00     0.031 C 
ATOM     54  C   UNL     1       5.570   1.115  22.410  1.00  0.00     0.029 A 
ATOM     55  C   UNL     1       5.550   0.206  21.364  1.00  0.00     0.049 A 
ATOM     56  H   UNL     1       4.174   0.041  19.774  1.00  0.00     0.167 HD
ATOM     57  C   UNL     1       6.378  -1.739  20.062  1.00  0.00     0.074 A 
ATOM     58  C   UNL     1       7.319  -2.812  19.816  1.00  0.00     0.031 C 
ATOM     59  C   UNL     1       6.475  -0.866  21.095  1.00  0.00     0.034 A 
BRANCH  46  60
ATOM     60  C   UNL     1       2.022   3.407  21.290  1.00  0.00     0.023 A 
ATOM     61  C   UNL     1       0.815   3.346  22.006  1.00  0.00     0.031 A 
ATOM     62  C   UNL     1       2.738   4.616  21.294  1.00  0.00     0.131 A 
ATOM     63  C   UNL     1       0.349   4.483  22.683  1.00  0.00     0.055 A 
ATOM     64  C   UNL     1       2.298   5.727  22.015  1.00  0.00     0.041 A 
ATOM     65  F   UNL     1       3.888   4.730  20.610  1.00  0.00    -0.206 F 
ATOM     66  C   UNL     1       1.096   5.664  22.714  1.00  0.00     0.022 A 
BRANCH  63  67
ATOM     67  S   UNL     1      -1.268   4.412  23.498  1.00  0.00     0.124 S 
ATOM     68  O   UNL     1      -2.168   4.300  22.353  1.00  0.00    -0.237 OA
ATOM     69  O   UNL     1      -1.152   3.224  24.336  1.00  0.00    -0.237 OA
ATOM     70  O   UNL     1      -1.343   5.679  24.222  1.00  0.00    -0.744 OA
ENDBRANCH  63  67
ENDBRANCH  46  60
BRANCH  47  71
ATOM     71  C   UNL     1       5.667  -4.499  16.304  1.00  0.00     0.023 A 
ATOM     72  C   UNL     1       5.758  -5.779  16.871  1.00  0.00     0.031 A 
ATOM     73  C   UNL     1       6.165  -4.318  15.001  1.00  0.00     0.131 A 
ATOM     74  C   UNL     1       6.367  -6.821  16.153  1.00  0.00     0.055 A 
ATOM     75  C   UNL     1       6.727  -5.368  14.273  1.00  0.00     0.041 A 
ATOM     76  F   UNL     1       6.097  -3.115  14.409  1.00  0.00    -0.206 F 
ATOM     77  C   UNL     1       6.840  -6.627  14.853  1.00  0.00     0.022 A 
BRANCH  74  78
ATOM     78  S   UNL     1       6.591  -8.426  16.969  1.00  0.00     0.124 S 
ATOM     79  O   UNL     1       7.439  -8.067  18.100  1.00  0.00    -0.237 OA
ATOM     80  O   UNL     1       5.217  -8.798  17.288  1.00  0.00    -0.237 OA
ATOM     81  O   UNL     1       7.232  -9.243  15.941  1.00  0.00    -0.744 OA
ENDBRANCH  74  78
ENDBRANCH  47  71
BRANCH  59  82
ATOM     82  C   UNL     1       7.622  -1.046  22.052  1.00  0.00     0.023 A 
ATOM     83  C   UNL     1       8.940  -0.744  21.676  1.00  0.00     0.031 A 
ATOM     84  C   UNL     1       7.382  -1.462  23.373  1.00  0.00     0.131 A 
ATOM     85  C   UNL     1       9.978  -0.888  22.606  1.00  0.00     0.055 A 
ATOM     86  C   UNL     1       8.411  -1.556  24.309  1.00  0.00     0.041 A 
ATOM     87  F   UNL     1       6.137  -1.757  23.781  1.00  0.00    -0.206 F 
ATOM     88  C   UNL     1       9.720  -1.273  23.925  1.00  0.00     0.022 A 
BRANCH  85  89
ATOM     89  S   UNL     1      11.681  -0.595  22.060  1.00  0.00     0.124 S 
ATOM     90  O   UNL     1      11.866  -1.650  21.069  1.00  0.00    -0.237 OA
ATOM     91  O   UNL     1      11.616   0.766  21.537  1.00  0.00    -0.237 OA
ATOM     92  O   UNL     1      12.465  -0.750  23.284  1.00  0.00    -0.744 OA
ENDBRANCH  85  89
ENDBRANCH  59  82
ENDBRANCH  33  34
ENDBRANCH  25  28
ENDBRANCH   1  24
TORSDOF 14
