REMARK SMILES CC(C)C[C@H](C(=O)NCCCNC(=O)c1ccc(-c2c3nc(c(-c4cc(S(=O)(=O)[O-])ccc4F)c4ccc([nH]4)c(-c4cc(S(=O)(=O)[O-])ccc4F)c4nc(c(-c5cc(S(=O)(=O)[O-])ccc5F)c5ccc2[nH]5)C=C4)C=C3)cc1)[C@@H]1CCO[C@]2(CCOC2)C1
REMARK SMILES IDX 10 1 9 2 8 3 6 4 7 5 5 7 4 8 2 9 1 10 3 11 78 12 79 13 87 14
REMARK SMILES IDX 80 15 82 16 81 17 83 18 86 19 84 20 85 21 11 22 12 23 13 24
REMARK SMILES IDX 14 26 15 27 16 28 77 29 17 30 76 31 18 32 19 33 20 34 70 35
REMARK SMILES IDX 21 36 75 37 69 38 71 39 22 40 74 41 68 42 67 43 23 45 55 46
REMARK SMILES IDX 35 47 54 48 36 49 39 50 53 51 72 52 37 53 38 54 52 56 73 57
REMARK SMILES IDX 40 58 24 59 25 60 33 61 26 62 32 63 34 64 31 65 27 66 28 67
REMARK SMILES IDX 29 68 30 69 56 70 57 71 65 72 58 73 64 74 66 75 63 76 59 77
REMARK SMILES IDX 60 78 61 79 62 80 41 81 42 82 50 83 43 84 49 85 51 86 48 87
REMARK SMILES IDX 44 88 45 89 46 90 47 91
REMARK H PARENT 8 6 12 25 71 44 39 55
REMARK Flexibility Score: inf
ROOT
ATOM      1  C   UNL     1      -1.456   2.933   0.523  1.00  0.00     0.042 C 
ENDROOT
BRANCH   1   2
ATOM      2  C   UNL     1      -0.696   1.826  -0.256  1.00  0.00     0.117 C 
BRANCH   2   3
ATOM      3  N   UNL     1      -0.361   0.618   0.494  1.00  0.00    -0.356 N 
ATOM      4  C   UNL     1      -0.460  -0.724   0.309  1.00  0.00     0.223 C 
ATOM      5  O   UNL     1       0.369  -1.359   0.978  1.00  0.00    -0.275 OA
ATOM      6  H   UNL     1       0.042   0.834   1.365  1.00  0.00     0.163 HD
BRANCH   4   7
ATOM      7  C   UNL     1      -1.462  -1.476  -0.604  1.00  0.00     0.082 C 
BRANCH   7   8
ATOM      8  C   UNL     1      -0.813  -2.874  -0.969  1.00  0.00     0.016 C 
BRANCH   8   9
ATOM      9  C   UNL     1      -0.731  -3.940   0.166  1.00  0.00    -0.017 C 
ATOM     10  C   UNL     1      -1.879  -4.957   0.150  1.00  0.00     0.007 C 
ATOM     11  C   UNL     1       0.587  -4.720   0.077  1.00  0.00     0.007 C 
ENDBRANCH   8   9
ENDBRANCH   7   8
BRANCH   7  12
ATOM     12  C   UNL     1      -2.962  -1.721  -0.192  1.00  0.00     0.007 C 
ATOM     13  C   UNL     1      -3.953  -0.702  -0.754  1.00  0.00     0.033 C 
ATOM     14  C   UNL     1      -3.337  -1.978   1.283  1.00  0.00     0.042 C 
ATOM     15  C   UNL     1      -3.931   0.538   0.090  1.00  0.00     0.161 C 
ATOM     16  C   UNL     1      -3.583  -0.728   2.150  1.00  0.00     0.094 C 
ATOM     17  O   UNL     1      -4.244   0.326   1.451  1.00  0.00    -0.372 OA
ATOM     18  C   UNL     1      -2.333  -0.317   2.917  1.00  0.00     0.066 C 
ATOM     19  C   UNL     1      -4.486  -1.037   3.355  1.00  0.00     0.195 C 
ATOM     20  C   UNL     1      -2.371  -1.106   4.218  1.00  0.00     0.163 C 
ATOM     21  O   UNL     1      -3.671  -1.684   4.332  1.00  0.00    -0.378 OA
ENDBRANCH   7  12
ENDBRANCH   4   7
ENDBRANCH   2   3
ENDBRANCH   1   2
BRANCH   1  22
ATOM     22  C   UNL     1      -1.140   3.116   2.011  1.00  0.00     0.118 C 
BRANCH  22  23
ATOM     23  N   UNL     1      -0.305   4.274   2.261  1.00  0.00    -0.352 N 
ATOM     24  C   UNL     1      -0.613   5.564   2.617  1.00  0.00     0.251 C 
ATOM     25  H   UNL     1       0.659   4.105   2.157  1.00  0.00     0.163 HD
ATOM     26  O   UNL     1       0.285   6.402   2.532  1.00  0.00    -0.269 OA
BRANCH  24  27
ATOM     27  C   UNL     1      -1.964   5.997   3.072  1.00  0.00     0.039 A 
ATOM     28  C   UNL     1      -2.385   7.283   2.707  1.00  0.00     0.014 A 
ATOM     29  C   UNL     1      -2.763   5.255   3.948  1.00  0.00     0.014 A 
ATOM     30  C   UNL     1      -3.587   7.811   3.196  1.00  0.00     0.010 A 
ATOM     31  C   UNL     1      -3.999   5.762   4.391  1.00  0.00     0.010 A 
ATOM     32  C   UNL     1      -4.418   7.055   4.036  1.00  0.00    -0.014 A 
BRANCH  32  33
ATOM     33  C   UNL     1      -5.692   7.642   4.556  1.00  0.00     0.031 A 
ATOM     34  C   UNL     1      -5.873   7.928   6.028  1.00  0.00     0.074 A 
ATOM     35  C   UNL     1      -6.691   7.946   3.701  1.00  0.00     0.049 A 
ATOM     36  N   UNL     1      -6.893   8.469   6.650  1.00  0.00    -0.248 NA
ATOM     37  C   UNL     1      -4.770   7.539   6.917  1.00  0.00     0.031 C 
ATOM     38  C   UNL     1      -6.665   7.699   2.258  1.00  0.00     0.029 A 
ATOM     39  N   UNL     1      -7.916   8.532   3.913  1.00  0.00    -0.354 N 
ATOM     40  C   UNL     1      -6.555   8.488   8.001  1.00  0.00     0.074 A 
ATOM     41  C   UNL     1      -5.261   7.844   8.110  1.00  0.00     0.031 C 
ATOM     42  C   UNL     1      -7.805   8.153   1.713  1.00  0.00     0.029 A 
ATOM     43  C   UNL     1      -8.661   8.692   2.766  1.00  0.00     0.049 A 
ATOM     44  H   UNL     1      -8.231   8.812   4.802  1.00  0.00     0.167 HD
ATOM     45  C   UNL     1      -7.241   9.012   9.049  1.00  0.00     0.034 A 
ATOM     46  C   UNL     1      -9.894   9.206   2.578  1.00  0.00     0.034 A 
ATOM     47  C   UNL     1      -8.531   9.653   8.936  1.00  0.00     0.049 A 
ATOM     48  C   UNL     1     -10.650   9.760   3.760  1.00  0.00     0.074 A 
ATOM     49  C   UNL     1      -9.293  10.244   9.931  1.00  0.00     0.029 A 
ATOM     50  N   UNL     1      -9.259   9.781   7.759  1.00  0.00    -0.354 N 
ATOM     51  N   UNL     1     -10.291   9.809   5.022  1.00  0.00    -0.248 NA
ATOM     52  C   UNL     1     -11.970  10.345   3.487  1.00  0.00     0.031 C 
ATOM     53  C   UNL     1     -10.504  10.668   9.371  1.00  0.00     0.029 A 
ATOM     54  C   UNL     1     -10.469  10.415   8.010  1.00  0.00     0.049 A 
ATOM     55  H   UNL     1      -8.959   9.468   6.875  1.00  0.00     0.167 HD
ATOM     56  C   UNL     1     -11.331  10.454   5.687  1.00  0.00     0.074 A 
ATOM     57  C   UNL     1     -12.317  10.796   4.683  1.00  0.00     0.031 C 
ATOM     58  C   UNL     1     -11.458  10.738   7.009  1.00  0.00     0.034 A 
BRANCH  45  59
ATOM     59  C   UNL     1      -6.612   8.893  10.421  1.00  0.00     0.023 A 
ATOM     60  C   UNL     1      -5.387   9.514  10.727  1.00  0.00     0.031 A 
ATOM     61  C   UNL     1      -7.233   8.137  11.431  1.00  0.00     0.131 A 
ATOM     62  C   UNL     1      -4.787   9.306  11.978  1.00  0.00     0.055 A 
ATOM     63  C   UNL     1      -6.670   8.002  12.703  1.00  0.00     0.041 A 
ATOM     64  F   UNL     1      -8.395   7.507  11.198  1.00  0.00    -0.206 F 
ATOM     65  C   UNL     1      -5.432   8.574  12.977  1.00  0.00     0.022 A 
BRANCH  62  66
ATOM     66  S   UNL     1      -3.086   9.886  12.228  1.00  0.00     0.124 S 
ATOM     67  O   UNL     1      -2.372   9.168  11.174  1.00  0.00    -0.237 OA
ATOM     68  O   UNL     1      -3.212  11.324  12.052  1.00  0.00    -0.237 OA
ATOM     69  O   UNL     1      -2.772   9.447  13.590  1.00  0.00    -0.744 OA
ENDBRANCH  62  66
ENDBRANCH  45  59
BRANCH  46  70
ATOM     70  C   UNL     1     -10.509   9.211   1.217  1.00  0.00     0.023 A 
ATOM     71  C   UNL     1     -10.814  10.412   0.557  1.00  0.00     0.031 A 
ATOM     72  C   UNL     1     -10.845   8.005   0.577  1.00  0.00     0.131 A 
ATOM     73  C   UNL     1     -11.478  10.382  -0.680  1.00  0.00     0.055 A 
ATOM     74  C   UNL     1     -11.455   7.979  -0.678  1.00  0.00     0.041 A 
ATOM     75  F   UNL     1     -10.573   6.827   1.162  1.00  0.00    -0.206 F 
ATOM     76  C   UNL     1     -11.788   9.174  -1.308  1.00  0.00     0.022 A 
BRANCH  73  77
ATOM     77  S   UNL     1     -12.011  11.950  -1.421  1.00  0.00     0.124 S 
ATOM     78  O   UNL     1     -12.858  12.503  -0.370  1.00  0.00    -0.237 OA
ATOM     79  O   UNL     1     -10.739  12.628  -1.643  1.00  0.00    -0.237 OA
ATOM     80  O   UNL     1     -12.712  11.532  -2.633  1.00  0.00    -0.744 OA
ENDBRANCH  73  77
ENDBRANCH  46  70
BRANCH  58  81
ATOM     81  C   UNL     1     -12.698  11.491   7.432  1.00  0.00     0.023 A 
ATOM     82  C   UNL     1     -13.982  10.926   7.324  1.00  0.00     0.031 A 
ATOM     83  C   UNL     1     -12.597  12.806   7.922  1.00  0.00     0.131 A 
ATOM     84  C   UNL     1     -15.115  11.694   7.637  1.00  0.00     0.055 A 
ATOM     85  C   UNL     1     -13.723  13.543   8.293  1.00  0.00     0.041 A 
ATOM     86  F   UNL     1     -11.399  13.399   8.045  1.00  0.00    -0.206 F 
ATOM     87  C   UNL     1     -14.992  12.993   8.136  1.00  0.00     0.022 A 
BRANCH  84  88
ATOM     88  S   UNL     1     -16.757  11.011   7.279  1.00  0.00     0.124 S 
ATOM     89  O   UNL     1     -16.665  10.730   5.850  1.00  0.00    -0.237 OA
ATOM     90  O   UNL     1     -16.808   9.846   8.156  1.00  0.00    -0.237 OA
ATOM     91  O   UNL     1     -17.667  12.097   7.640  1.00  0.00    -0.744 OA
ENDBRANCH  84  88
ENDBRANCH  58  81
ENDBRANCH  32  33
ENDBRANCH  24  27
ENDBRANCH  22  23
ENDBRANCH   1  22
TORSDOF 16
