REMARK SMILES COc1ccc(NC(=O)[C@H](CC(=O)NCCCNC(=O)c2ccc(-c3c4nc(c(-c5cc(S(=O)(=O)[O-])ccc5F)c5ccc([nH]5)c(-c5cc(S(=O)(=O)[O-])ccc5F)c5nc(c(-c6cc(S(=O)(=O)[O-])ccc6F)c6ccc3[nH]6)C=C5)C=C4)cc2)Cc2ccccc2)cc1
REMARK SMILES IDX 15 1 14 2 12 3 13 4 11 6 10 7 8 8 7 9 9 11 6 12 3 13 4 14
REMARK SMILES IDX 92 15 5 16 91 17 2 18 1 19 84 20 85 21 86 22 90 23 87 24
REMARK SMILES IDX 89 25 88 26 16 27 17 28 18 29 19 30 20 32 21 33 22 34 83 35
REMARK SMILES IDX 23 36 82 37 24 38 25 39 26 40 76 41 27 42 81 43 75 44 77 45
REMARK SMILES IDX 28 46 80 47 74 48 73 49 29 51 61 52 41 53 60 54 42 55 45 56
REMARK SMILES IDX 59 57 78 58 43 59 44 60 58 62 79 63 46 64 30 65 31 66 39 67
REMARK SMILES IDX 32 68 38 69 40 70 37 71 33 72 34 73 35 74 36 75 62 76 63 77
REMARK SMILES IDX 71 78 64 79 70 80 72 81 69 82 65 83 66 84 67 85 68 86 47 87
REMARK SMILES IDX 48 88 56 89 49 90 55 91 57 92 54 93 50 94 51 95 52 96 53 97
REMARK H PARENT 14 5 7 10 18 31 77 50 45 61
REMARK Flexibility Score: inf
ROOT
ATOM      1  C   UNL     1       1.114  -0.179  -5.105  1.00  0.00     0.117 C 
ENDROOT
BRANCH   1   2
ATOM      2  N   UNL     1       1.741  -1.384  -4.604  1.00  0.00    -0.356 N 
ATOM      3  C   UNL     1       1.824  -2.615  -5.176  1.00  0.00     0.220 C 
ATOM      4  O   UNL     1       2.475  -3.490  -4.601  1.00  0.00    -0.275 OA
ATOM      5  H   UNL     1       2.170  -1.300  -3.722  1.00  0.00     0.163 HD
BRANCH   3   6
ATOM      6  C   UNL     1       1.240  -2.862  -6.556  1.00  0.00     0.113 C 
BRANCH   6   7
ATOM      7  C   UNL     1      -0.243  -3.238  -6.716  1.00  0.00     0.092 C 
BRANCH   7   8
ATOM      8  C   UNL     1      -0.558  -4.365  -5.743  1.00  0.00     0.228 C 
ATOM      9  N   UNL     1      -1.065  -5.572  -6.106  1.00  0.00    -0.326 N 
ATOM     10  H   UNL     1      -1.152  -6.187  -5.342  1.00  0.00     0.169 HD
ATOM     11  O   UNL     1      -0.460  -4.167  -4.525  1.00  0.00    -0.274 OA
BRANCH   9  12
ATOM     12  C   UNL     1      -1.494  -6.151  -7.309  1.00  0.00     0.041 A 
ATOM     13  C   UNL     1      -2.766  -7.255  -9.563  1.00  0.00     0.119 A 
ATOM     14  C   UNL     1      -1.798  -6.269  -9.710  1.00  0.00     0.048 A 
ATOM     15  C   UNL     1      -3.015  -7.779  -8.299  1.00  0.00     0.048 A 
ATOM     16  C   UNL     1      -1.149  -5.738  -8.592  1.00  0.00     0.030 A 
ATOM     17  C   UNL     1      -2.380  -7.229  -7.181  1.00  0.00     0.030 A 
BRANCH  13  18
ATOM     18  O   UNL     1      -3.383  -7.659 -10.713  1.00  0.00    -0.497 OA
ATOM     19  C   UNL     1      -4.735  -8.075 -10.539  1.00  0.00     0.278 C 
ENDBRANCH  13  18
ENDBRANCH   9  12
ENDBRANCH   7   8
BRANCH   7  20
ATOM     20  C   UNL     1      -1.367  -2.194  -6.564  1.00  0.00     0.049 C 
BRANCH  20  21
ATOM     21  C   UNL     1      -1.572  -1.103  -7.604  1.00  0.00    -0.047 A 
ATOM     22  C   UNL     1      -0.552  -0.528  -8.368  1.00  0.00     0.004 A 
ATOM     23  C   UNL     1      -2.863  -0.558  -7.740  1.00  0.00     0.004 A 
ATOM     24  C   UNL     1      -0.789   0.579  -9.190  1.00  0.00     0.000 A 
ATOM     25  C   UNL     1      -3.112   0.527  -8.586  1.00  0.00     0.000 A 
ATOM     26  C   UNL     1      -2.069   1.109  -9.298  1.00  0.00     0.000 A 
ENDBRANCH  20  21
ENDBRANCH   7  20
ENDBRANCH   6   7
ENDBRANCH   3   6
ENDBRANCH   1   2
BRANCH   1  27
ATOM     27  C   UNL     1      -0.157   0.141  -4.336  1.00  0.00     0.042 C 
BRANCH  27  28
ATOM     28  C   UNL     1       0.067   1.150  -3.230  1.00  0.00     0.118 C 
BRANCH  28  29
ATOM     29  N   UNL     1       0.229   2.504  -3.745  1.00  0.00    -0.352 N 
ATOM     30  C   UNL     1      -0.449   3.650  -3.401  1.00  0.00     0.251 C 
ATOM     31  H   UNL     1       0.921   2.613  -4.436  1.00  0.00     0.163 HD
ATOM     32  O   UNL     1      -0.297   4.669  -4.069  1.00  0.00    -0.269 OA
BRANCH  30  33
ATOM     33  C   UNL     1      -1.387   3.633  -2.254  1.00  0.00     0.039 A 
ATOM     34  C   UNL     1      -2.607   4.307  -2.354  1.00  0.00     0.014 A 
ATOM     35  C   UNL     1      -1.078   2.921  -1.095  1.00  0.00     0.014 A 
ATOM     36  C   UNL     1      -3.544   4.201  -1.321  1.00  0.00     0.010 A 
ATOM     37  C   UNL     1      -2.055   2.714  -0.131  1.00  0.00     0.010 A 
ATOM     38  C   UNL     1      -3.293   3.367  -0.221  1.00  0.00    -0.014 A 
BRANCH  38  39
ATOM     39  C   UNL     1      -4.270   3.188   0.886  1.00  0.00     0.031 A 
ATOM     40  C   UNL     1      -3.850   3.525   2.295  1.00  0.00     0.074 A 
ATOM     41  C   UNL     1      -5.475   2.634   0.651  1.00  0.00     0.049 A 
ATOM     42  N   UNL     1      -4.449   3.266   3.428  1.00  0.00    -0.248 NA
ATOM     43  C   UNL     1      -2.547   4.192   2.445  1.00  0.00     0.031 C 
ATOM     44  C   UNL     1      -5.980   2.223  -0.660  1.00  0.00     0.029 A 
ATOM     45  N   UNL     1      -6.489   2.301   1.514  1.00  0.00    -0.354 N 
ATOM     46  C   UNL     1      -3.574   3.693   4.422  1.00  0.00     0.074 A 
ATOM     47  C   UNL     1      -2.377   4.158   3.756  1.00  0.00     0.031 C 
ATOM     48  C   UNL     1      -7.216   1.717  -0.518  1.00  0.00     0.029 A 
ATOM     49  C   UNL     1      -7.571   1.714   0.897  1.00  0.00     0.049 A 
ATOM     50  H   UNL     1      -6.447   2.466   2.484  1.00  0.00     0.167 HD
ATOM     51  C   UNL     1      -3.763   3.721   5.765  1.00  0.00     0.034 A 
ATOM     52  C   UNL     1      -8.710   1.215   1.417  1.00  0.00     0.034 A 
ATOM     53  C   UNL     1      -4.984   3.296   6.402  1.00  0.00     0.049 A 
ATOM     54  C   UNL     1      -8.911   1.274   2.911  1.00  0.00     0.074 A 
ATOM     55  C   UNL     1      -5.320   3.343   7.744  1.00  0.00     0.029 A 
ATOM     56  N   UNL     1      -6.076   2.750   5.738  1.00  0.00    -0.354 N 
ATOM     57  N   UNL     1      -8.091   1.712   3.838  1.00  0.00    -0.248 NA
ATOM     58  C   UNL     1     -10.195   0.780   3.425  1.00  0.00     0.031 C 
ATOM     59  C   UNL     1      -6.589   2.773   7.897  1.00  0.00     0.029 A 
ATOM     60  C   UNL     1      -7.078   2.439   6.643  1.00  0.00     0.049 A 
ATOM     61  H   UNL     1      -6.130   2.605   4.766  1.00  0.00     0.167 HD
ATOM     62  C   UNL     1      -8.775   1.578   5.044  1.00  0.00     0.074 A 
ATOM     63  C   UNL     1     -10.076   1.026   4.722  1.00  0.00     0.031 C 
ATOM     64  C   UNL     1      -8.369   1.888   6.301  1.00  0.00     0.034 A 
BRANCH  51  65
ATOM     65  C   UNL     1      -2.613   4.209   6.617  1.00  0.00     0.023 A 
ATOM     66  C   UNL     1      -2.084   5.505   6.476  1.00  0.00     0.031 A 
ATOM     67  C   UNL     1      -1.996   3.349   7.543  1.00  0.00     0.131 A 
ATOM     68  C   UNL     1      -0.917   5.867   7.165  1.00  0.00     0.055 A 
ATOM     69  C   UNL     1      -0.891   3.750   8.300  1.00  0.00     0.041 A 
ATOM     70  F   UNL     1      -2.439   2.094   7.713  1.00  0.00    -0.206 F 
ATOM     71  C   UNL     1      -0.332   5.008   8.097  1.00  0.00     0.022 A 
BRANCH  68  72
ATOM     72  S   UNL     1      -0.079   7.404   6.692  1.00  0.00     0.124 S 
ATOM     73  O   UNL     1       0.194   7.166   5.276  1.00  0.00    -0.237 OA
ATOM     74  O   UNL     1      -1.085   8.417   6.987  1.00  0.00    -0.237 OA
ATOM     75  O   UNL     1       1.104   7.428   7.550  1.00  0.00    -0.744 OA
ENDBRANCH  68  72
ENDBRANCH  51  65
BRANCH  52  76
ATOM     76  C   UNL     1      -9.745   0.615   0.528  1.00  0.00     0.023 A 
ATOM     77  C   UNL     1     -11.003   1.218   0.377  1.00  0.00     0.031 A 
ATOM     78  C   UNL     1      -9.501  -0.584  -0.166  1.00  0.00     0.131 A 
ATOM     79  C   UNL     1     -11.985   0.603  -0.416  1.00  0.00     0.055 A 
ATOM     80  C   UNL     1     -10.464  -1.167  -0.992  1.00  0.00     0.041 A 
ATOM     81  F   UNL     1      -8.312  -1.198  -0.064  1.00  0.00    -0.206 F 
ATOM     82  C   UNL     1     -11.719  -0.579  -1.112  1.00  0.00     0.022 A 
BRANCH  79  83
ATOM     83  S   UNL     1     -13.643   1.336  -0.471  1.00  0.00     0.124 S 
ATOM     84  O   UNL     1     -14.030   1.303   0.934  1.00  0.00    -0.237 OA
ATOM     85  O   UNL     1     -13.373   2.656  -1.032  1.00  0.00    -0.237 OA
ATOM     86  O   UNL     1     -14.386   0.431  -1.346  1.00  0.00    -0.744 OA
ENDBRANCH  79  83
ENDBRANCH  52  76
BRANCH  64  87
ATOM     87  C   UNL     1      -9.369   1.694   7.413  1.00  0.00     0.023 A 
ATOM     88  C   UNL     1      -9.796   0.417   7.815  1.00  0.00     0.031 A 
ATOM     89  C   UNL     1      -9.898   2.812   8.083  1.00  0.00     0.131 A 
ATOM     90  C   UNL     1     -10.761   0.291   8.825  1.00  0.00     0.055 A 
ATOM     91  C   UNL     1     -10.814   2.678   9.126  1.00  0.00     0.041 A 
ATOM     92  F   UNL     1      -9.524   4.055   7.737  1.00  0.00    -0.206 F 
ATOM     93  C   UNL     1     -11.260   1.413   9.494  1.00  0.00     0.022 A 
BRANCH  90  94
ATOM     94  S   UNL     1     -11.421  -1.356   9.200  1.00  0.00     0.124 S 
ATOM     95  O   UNL     1     -11.975  -1.762   7.912  1.00  0.00    -0.237 OA
ATOM     96  O   UNL     1     -10.230  -2.077   9.637  1.00  0.00    -0.237 OA
ATOM     97  O   UNL     1     -12.408  -1.100  10.247  1.00  0.00    -0.744 OA
ENDBRANCH  90  94
ENDBRANCH  64  87
ENDBRANCH  38  39
ENDBRANCH  30  33
ENDBRANCH  28  29
ENDBRANCH  27  28
ENDBRANCH   1  27
TORSDOF 19
