REMARK SMILES Cc1ccc(S(=O)(=O)n2cc(C(=O)C(=O)N[C@@H](Cc3c[nH]c4ccccc34)C(=O)NCC(=O)NCCCNC(=O)c3ccc(-c4c5nc(c(-c6cc(S(=O)(=O)[O-])ccc6F)c6ccc([nH]6)c(-c6cc(S(=O)(=O)[O-])ccc6F)c6nc(c(-c7cc(S(=O)(=O)[O-])ccc7F)c7ccc4[nH]7)C=C6)C=C5)cc3)c3ccccc32)cc1
REMARK SMILES IDX 32 1 33 2 34 3 31 5 30 6 28 7 29 8 17 10 16 11 14 12 15 13
REMARK SMILES IDX 12 15 13 16 11 17 9 18 10 19 109 20 104 21 108 22 105 23
REMARK SMILES IDX 107 24 106 25 6 26 7 27 8 28 5 29 1 30 2 31 3 32 111 33 4 34
REMARK SMILES IDX 110 35 18 36 19 37 20 38 27 39 21 40 22 41 26 42 23 44 25 45
REMARK SMILES IDX 24 46 35 47 36 48 37 49 38 50 39 51 40 53 41 54 42 55 103 56
REMARK SMILES IDX 43 57 102 58 44 59 45 60 46 61 96 62 47 63 101 64 95 65
REMARK SMILES IDX 97 66 48 67 100 68 94 69 93 70 49 72 81 73 61 74 80 75 62 76
REMARK SMILES IDX 65 77 79 78 98 79 63 80 64 81 78 83 99 84 66 85 50 86 51 87
REMARK SMILES IDX 59 88 52 89 58 90 60 91 57 92 53 93 54 94 55 95 56 96 82 97
REMARK SMILES IDX 83 98 91 99 84 100 90 101 92 102 89 103 85 104 86 105 87 106
REMARK SMILES IDX 88 107 67 108 68 109 76 110 69 111 75 112 77 113 74 114
REMARK SMILES IDX 70 115 71 116 72 117 73 118
REMARK H PARENT 34 4 30 9 16 14 21 43 38 52 97 71 65 82
REMARK Flexibility Score: inf
ROOT
ATOM      1  C   UNL     1     -12.262   5.146  -2.408  1.00  0.00     0.239 C 
ATOM      2  O   UNL     1     -13.216   5.763  -2.885  1.00  0.00    -0.273 OA
ATOM      3  N   UNL     1     -10.990   5.412  -2.825  1.00  0.00    -0.355 N 
ATOM      4  H   UNL     1     -10.880   6.139  -3.480  1.00  0.00     0.163 HD
ENDROOT
BRANCH   1   5
ATOM      5  C   UNL     1     -12.459   4.077  -1.333  1.00  0.00     0.216 C 
BRANCH   5   6
ATOM      6  N   UNL     1     -12.289   2.698  -1.752  1.00  0.00    -0.345 N 
ATOM      7  C   UNL     1     -11.785   1.625  -1.081  1.00  0.00     0.243 C 
ATOM      8  O   UNL     1     -12.132   0.515  -1.512  1.00  0.00    -0.273 OA
ATOM      9  H   UNL     1     -12.586   2.507  -2.671  1.00  0.00     0.164 HD
BRANCH   7  10
ATOM     10  C   UNL     1     -10.960   1.704   0.239  1.00  0.00     0.176 C 
BRANCH  10  11
ATOM     11  N   UNL     1      -9.788   2.597   0.305  1.00  0.00    -0.337 N 
ATOM     12  C   UNL     1      -8.428   2.297   0.251  1.00  0.00     0.293 C 
ATOM     13  O   UNL     1      -7.628   2.969   0.887  1.00  0.00    -0.265 OA
ATOM     14  H   UNL     1      -9.999   3.554   0.404  1.00  0.00     0.164 HD
BRANCH  12  15
ATOM     15  C   UNL     1      -7.920   1.102  -0.574  1.00  0.00     0.252 C 
ATOM     16  O   UNL     1      -8.655   0.698  -1.476  1.00  0.00    -0.283 OA
BRANCH  15  17
ATOM     17  C   UNL     1      -6.717   0.332  -0.198  1.00  0.00     0.054 A 
ATOM     18  N   UNL     1      -4.710  -0.429   0.501  1.00  0.00    -0.240 N 
ATOM     19  C   UNL     1      -5.387   0.702   0.059  1.00  0.00     0.117 A 
ATOM     20  C   UNL     1      -5.635  -1.480   0.606  1.00  0.00     0.065 A 
ATOM     21  C   UNL     1      -6.747  -1.093  -0.128  1.00  0.00     0.012 A 
ATOM     22  C   UNL     1      -5.495  -2.803   1.076  1.00  0.00     0.028 A 
ATOM     23  C   UNL     1      -7.646  -2.087  -0.570  1.00  0.00     0.011 A 
ATOM     24  C   UNL     1      -6.375  -3.772   0.600  1.00  0.00     0.002 A 
ATOM     25  C   UNL     1      -7.412  -3.426  -0.254  1.00  0.00     0.001 A 
BRANCH  18  26
ATOM     26  S   UNL     1      -3.124  -1.001   0.115  1.00  0.00     0.268 S 
ATOM     27  O   UNL     1      -3.317  -1.629  -1.185  1.00  0.00    -0.201 OA
ATOM     28  O   UNL     1      -2.812  -1.822   1.281  1.00  0.00    -0.201 OA
BRANCH  26  29
ATOM     29  C   UNL     1      -1.629  -0.098  -0.058  1.00  0.00     0.088 A 
ATOM     30  C   UNL     1       2.520   1.122  -0.063  1.00  0.00     0.044 C 
ATOM     31  C   UNL     1       1.068   0.743  -0.116  1.00  0.00    -0.051 A 
ATOM     32  C   UNL     1       0.763  -0.585  -0.376  1.00  0.00     0.005 A 
ATOM     33  C   UNL     1       0.012   1.647   0.143  1.00  0.00     0.005 A 
ATOM     34  C   UNL     1      -0.562  -0.987  -0.357  1.00  0.00     0.022 A 
ATOM     35  C   UNL     1      -1.347   1.235   0.178  1.00  0.00     0.022 A 
ENDBRANCH  26  29
ENDBRANCH  18  26
ENDBRANCH  15  17
ENDBRANCH  12  15
ENDBRANCH  10  11
BRANCH  10  36
ATOM     36  C   UNL     1     -11.870   1.811   1.508  1.00  0.00     0.072 C 
BRANCH  36  37
ATOM     37  C   UNL     1     -12.646   3.090   1.721  1.00  0.00    -0.020 A 
ATOM     38  C   UNL     1     -14.020   3.230   1.598  1.00  0.00     0.087 A 
ATOM     39  C   UNL     1     -12.136   4.404   2.019  1.00  0.00     0.003 A 
ATOM     40  N   UNL     1     -14.330   4.564   1.666  1.00  0.00    -0.361 N 
ATOM     41  C   UNL     1     -13.182   5.306   1.805  1.00  0.00     0.046 A 
ATOM     42  C   UNL     1     -10.857   4.930   2.297  1.00  0.00     0.010 A 
ATOM     43  H   UNL     1     -15.241   4.936   1.621  1.00  0.00     0.166 HD
ATOM     44  C   UNL     1     -12.986   6.690   1.710  1.00  0.00     0.026 A 
ATOM     45  C   UNL     1     -10.633   6.304   2.154  1.00  0.00     0.001 A 
ATOM     46  C   UNL     1     -11.679   7.166   1.841  1.00  0.00     0.002 A 
ENDBRANCH  36  37
ENDBRANCH  10  36
ENDBRANCH   7  10
ENDBRANCH   5   6
ENDBRANCH   1   5
BRANCH   3  47
ATOM     47  C   UNL     1      -9.782   4.727  -2.396  1.00  0.00     0.117 C 
BRANCH  47  48
ATOM     48  C   UNL     1      -9.561   3.459  -3.214  1.00  0.00     0.042 C 
BRANCH  48  49
ATOM     49  C   UNL     1      -8.578   3.698  -4.338  1.00  0.00     0.118 C 
BRANCH  49  50
ATOM     50  N   UNL     1      -7.212   3.262  -4.074  1.00  0.00    -0.352 N 
ATOM     51  C   UNL     1      -6.074   3.523  -4.824  1.00  0.00     0.251 C 
ATOM     52  H   UNL     1      -7.080   2.717  -3.264  1.00  0.00     0.163 HD
ATOM     53  O   UNL     1      -4.995   3.025  -4.567  1.00  0.00    -0.269 OA
BRANCH  51  54
ATOM     54  C   UNL     1      -6.188   4.564  -5.877  1.00  0.00     0.039 A 
ATOM     55  C   UNL     1      -5.428   5.720  -5.678  1.00  0.00     0.014 A 
ATOM     56  C   UNL     1      -7.274   4.560  -6.748  1.00  0.00     0.014 A 
ATOM     57  C   UNL     1      -5.921   6.937  -6.135  1.00  0.00     0.010 A 
ATOM     58  C   UNL     1      -7.824   5.779  -7.096  1.00  0.00     0.010 A 
ATOM     59  C   UNL     1      -7.184   6.970  -6.728  1.00  0.00    -0.014 A 
BRANCH  59  60
ATOM     60  C   UNL     1      -7.949   8.207  -6.866  1.00  0.00     0.031 A 
ATOM     61  C   UNL     1      -8.180   8.788  -8.203  1.00  0.00     0.074 A 
ATOM     62  C   UNL     1      -8.445   8.838  -5.778  1.00  0.00     0.049 A 
ATOM     63  N   UNL     1      -8.335  10.047  -8.436  1.00  0.00    -0.248 NA
ATOM     64  C   UNL     1      -8.203   7.972  -9.410  1.00  0.00     0.031 C 
ATOM     65  C   UNL     1      -9.371   9.968  -5.753  1.00  0.00     0.029 A 
ATOM     66  N   UNL     1      -7.993   8.734  -4.465  1.00  0.00    -0.354 N 
ATOM     67  C   UNL     1      -8.754  10.182  -9.739  1.00  0.00     0.074 A 
ATOM     68  C   UNL     1      -8.596   8.868 -10.318  1.00  0.00     0.031 C 
ATOM     69  C   UNL     1      -9.228  10.620  -4.589  1.00  0.00     0.029 A 
ATOM     70  C   UNL     1      -8.127  10.002  -3.874  1.00  0.00     0.049 A 
ATOM     71  H   UNL     1      -7.644   7.922  -4.030  1.00  0.00     0.167 HD
ATOM     72  C   UNL     1      -9.322  11.351 -10.152  1.00  0.00     0.034 A 
ATOM     73  C   UNL     1      -7.045  10.659  -3.366  1.00  0.00     0.034 A 
ATOM     74  C   UNL     1      -9.308  12.363  -9.095  1.00  0.00     0.049 A 
ATOM     75  C   UNL     1      -6.765  11.976  -4.054  1.00  0.00     0.074 A 
ATOM     76  C   UNL     1     -10.275  12.810  -8.210  1.00  0.00     0.029 A 
ATOM     77  N   UNL     1      -8.094  12.867  -8.635  1.00  0.00    -0.354 N 
ATOM     78  N   UNL     1      -7.290  12.335  -5.194  1.00  0.00    -0.248 NA
ATOM     79  C   UNL     1      -5.858  12.984  -3.516  1.00  0.00     0.031 C 
ATOM     80  C   UNL     1      -9.623  13.528  -7.173  1.00  0.00     0.029 A 
ATOM     81  C   UNL     1      -8.265  13.547  -7.443  1.00  0.00     0.049 A 
ATOM     82  H   UNL     1      -7.231  12.755  -9.096  1.00  0.00     0.167 HD
ATOM     83  C   UNL     1      -6.795  13.561  -5.564  1.00  0.00     0.074 A 
ATOM     84  C   UNL     1      -5.930  13.939  -4.459  1.00  0.00     0.031 C 
ATOM     85  C   UNL     1      -7.132  14.152  -6.752  1.00  0.00     0.034 A 
BRANCH  72  86
ATOM     86  C   UNL     1     -10.178  11.447 -11.398  1.00  0.00     0.023 A 
ATOM     87  C   UNL     1     -11.278  12.331 -11.421  1.00  0.00     0.031 A 
ATOM     88  C   UNL     1     -10.013  10.666 -12.557  1.00  0.00     0.131 A 
ATOM     89  C   UNL     1     -12.207  12.319 -12.478  1.00  0.00     0.055 A 
ATOM     90  C   UNL     1     -10.975  10.596 -13.573  1.00  0.00     0.041 A 
ATOM     91  F   UNL     1      -8.885   9.978 -12.784  1.00  0.00    -0.206 F 
ATOM     92  C   UNL     1     -12.092  11.415 -13.529  1.00  0.00     0.022 A 
BRANCH  89  93
ATOM     93  S   UNL     1     -13.565  13.522 -12.475  1.00  0.00     0.124 S 
ATOM     94  O   UNL     1     -14.259  13.207 -11.230  1.00  0.00    -0.237 OA
ATOM     95  O   UNL     1     -12.850  14.793 -12.512  1.00  0.00    -0.237 OA
ATOM     96  O   UNL     1     -14.307  13.200 -13.693  1.00  0.00    -0.744 OA
ENDBRANCH  89  93
ENDBRANCH  72  86
BRANCH  73  97
ATOM     97  C   UNL     1      -6.029   9.740  -2.777  1.00  0.00     0.023 A 
ATOM     98  C   UNL     1      -6.471   8.884  -1.743  1.00  0.00     0.031 A 
ATOM     99  C   UNL     1      -4.843   9.407  -3.442  1.00  0.00     0.131 A 
ATOM    100  C   UNL     1      -5.847   7.648  -1.532  1.00  0.00     0.055 A 
ATOM    101  C   UNL     1      -4.176   8.204  -3.174  1.00  0.00     0.041 A 
ATOM    102  F   UNL     1      -4.386  10.166  -4.449  1.00  0.00    -0.206 F 
ATOM    103  C   UNL     1      -4.705   7.296  -2.254  1.00  0.00     0.022 A 
BRANCH 100 104
ATOM    104  S   UNL     1      -6.685   6.392  -0.515  1.00  0.00     0.124 S 
ATOM    105  O   UNL     1      -5.980   6.515   0.755  1.00  0.00    -0.237 OA
ATOM    106  O   UNL     1      -8.077   6.837  -0.513  1.00  0.00    -0.237 OA
ATOM    107  O   UNL     1      -6.457   5.157  -1.264  1.00  0.00    -0.744 OA
ENDBRANCH 100 104
ENDBRANCH  73  97
BRANCH  85 108
ATOM    108  C   UNL     1      -6.499  15.407  -7.324  1.00  0.00     0.023 A 
ATOM    109  C   UNL     1      -5.271  15.924  -6.885  1.00  0.00     0.031 A 
ATOM    110  C   UNL     1      -7.101  16.105  -8.399  1.00  0.00     0.131 A 
ATOM    111  C   UNL     1      -4.749  17.120  -7.410  1.00  0.00     0.055 A 
ATOM    112  C   UNL     1      -6.537  17.247  -8.981  1.00  0.00     0.041 A 
ATOM    113  F   UNL     1      -8.262  15.707  -8.940  1.00  0.00    -0.206 F 
ATOM    114  C   UNL     1      -5.363  17.776  -8.472  1.00  0.00     0.022 A 
BRANCH 111 115
ATOM    115  S   UNL     1      -3.286  17.837  -6.615  1.00  0.00     0.124 S 
ATOM    116  O   UNL     1      -3.784  18.119  -5.272  1.00  0.00    -0.237 OA
ATOM    117  O   UNL     1      -2.312  16.756  -6.715  1.00  0.00    -0.237 OA
ATOM    118  O   UNL     1      -2.993  19.015  -7.429  1.00  0.00    -0.744 OA
ENDBRANCH 111 115
ENDBRANCH  85 108
ENDBRANCH  59  60
ENDBRANCH  51  54
ENDBRANCH  49  50
ENDBRANCH  48  49
ENDBRANCH  47  48
ENDBRANCH   3  47
TORSDOF 22
