REMARK SMILES CC[C@@H]1CCC[C@@](CC[NH+]2CCOCC2)(C(=O)NCCCNC(=O)c2ccc(-c3c4nc(c(-c5cc(S(=O)(=O)[O-])ccc5F)c5ccc([nH]5)c(-c5cc(S(=O)(=O)[O-])ccc5F)c5nc(c(-c6cc(S(=O)(=O)[O-])ccc6F)c6ccc3[nH]6)C=C5)C=C4)cc2)C1
REMARK SMILES IDX 20 1 19 2 18 3 16 4 17 5 7 7 3 8 4 9 88 10 5 11 6 12 2 13
REMARK SMILES IDX 1 14 8 15 9 16 10 17 11 18 15 19 12 21 14 22 13 23 21 24
REMARK SMILES IDX 22 25 23 26 24 28 25 29 26 30 87 31 27 32 86 33 28 34 29 35
REMARK SMILES IDX 30 36 80 37 31 38 85 39 79 40 81 41 32 42 84 43 78 44 77 45
REMARK SMILES IDX 33 47 65 48 45 49 64 50 46 51 49 52 63 53 82 54 47 55 48 56
REMARK SMILES IDX 62 58 83 59 50 60 34 61 35 62 43 63 36 64 42 65 44 66 41 67
REMARK SMILES IDX 37 68 38 69 39 70 40 71 66 72 67 73 75 74 68 75 74 76 76 77
REMARK SMILES IDX 73 78 69 79 70 80 71 81 72 82 51 83 52 84 60 85 53 86 59 87
REMARK SMILES IDX 61 88 58 89 54 90 55 91 56 92 57 93
REMARK H PARENT 18 6 10 20 22 27 81 46 49 57
REMARK Flexibility Score: inf
ROOT
ATOM      1  C   UNL     1       2.228  -5.100  -6.229  1.00  0.00     0.042 C 
ENDROOT
BRANCH   1   2
ATOM      2  C   UNL     1       3.056  -3.975  -5.641  1.00  0.00     0.117 C 
BRANCH   2   3
ATOM      3  N   UNL     1       2.328  -2.722  -5.556  1.00  0.00    -0.356 N 
ATOM      4  C   UNL     1       2.333  -1.732  -4.626  1.00  0.00     0.226 C 
ATOM      5  O   UNL     1       1.870  -0.646  -5.000  1.00  0.00    -0.274 OA
ATOM      6  H   UNL     1       1.717  -2.560  -6.312  1.00  0.00     0.163 HD
BRANCH   4   7
ATOM      7  C   UNL     1       2.869  -1.917  -3.188  1.00  0.00     0.055 C 
ATOM      8  C   UNL     1       0.780  -0.756  -2.063  1.00  0.00    -0.010 C 
ATOM      9  C   UNL     1       0.281  -2.122  -1.580  1.00  0.00     0.003 C 
ATOM     10  C   UNL     1       2.304  -0.746  -2.295  1.00  0.00     0.020 C 
ATOM     11  C   UNL     1       0.820  -3.262  -2.435  1.00  0.00     0.001 C 
ATOM     12  C   UNL     1       2.351  -3.212  -2.509  1.00  0.00     0.017 C 
BRANCH   8  13
ATOM     13  C   UNL     1       0.342   0.392  -1.127  1.00  0.00     0.000 C 
ATOM     14  C   UNL     1       0.852   0.314   0.308  1.00  0.00     0.004 C 
ENDBRANCH   8  13
BRANCH   7  15
ATOM     15  C   UNL     1       4.426  -1.745  -3.088  1.00  0.00     0.078 C 
BRANCH  15  16
ATOM     16  C   UNL     1       5.413  -2.283  -4.141  1.00  0.00     0.263 C 
BRANCH  16  17
ATOM     17  N   UNL     1       5.246  -1.828  -5.523  1.00  0.00    -0.331 N 
ATOM     18  C   UNL     1       6.277  -2.380  -6.431  1.00  0.00     0.291 C 
ATOM     19  C   UNL     1       5.162  -0.372  -5.733  1.00  0.00     0.291 C 
ATOM     20  H   UNL     1       4.324  -2.200  -5.752  1.00  0.00     0.348 HD
ATOM     21  C   UNL     1       7.614  -1.624  -6.394  1.00  0.00     0.221 C 
ATOM     22  C   UNL     1       6.519   0.340  -5.686  1.00  0.00     0.221 C 
ATOM     23  O   UNL     1       7.438  -0.222  -6.631  1.00  0.00    -0.370 OA
ENDBRANCH  16  17
ENDBRANCH  15  16
ENDBRANCH   7  15
ENDBRANCH   4   7
ENDBRANCH   2   3
ENDBRANCH   1   2
BRANCH   1  24
ATOM     24  C   UNL     1       1.896  -4.870  -7.697  1.00  0.00     0.118 C 
BRANCH  24  25
ATOM     25  N   UNL     1       3.084  -4.782  -8.546  1.00  0.00    -0.352 N 
ATOM     26  C   UNL     1       3.555  -5.645  -9.512  1.00  0.00     0.251 C 
ATOM     27  H   UNL     1       3.635  -3.978  -8.405  1.00  0.00     0.163 HD
ATOM     28  O   UNL     1       4.678  -5.501  -9.968  1.00  0.00    -0.269 OA
BRANCH  26  29
ATOM     29  C   UNL     1       2.693  -6.761  -9.957  1.00  0.00     0.039 A 
ATOM     30  C   UNL     1       3.236  -8.040 -10.093  1.00  0.00     0.014 A 
ATOM     31  C   UNL     1       1.335  -6.544 -10.185  1.00  0.00     0.014 A 
ATOM     32  C   UNL     1       2.388  -9.120 -10.353  1.00  0.00     0.010 A 
ATOM     33  C   UNL     1       0.482  -7.629 -10.321  1.00  0.00     0.010 A 
ATOM     34  C   UNL     1       0.997  -8.931 -10.407  1.00  0.00    -0.014 A 
BRANCH  34  35
ATOM     35  C   UNL     1       0.047 -10.063 -10.569  1.00  0.00     0.031 A 
ATOM     36  C   UNL     1      -0.908 -10.063 -11.734  1.00  0.00     0.074 A 
ATOM     37  C   UNL     1      -0.027 -11.025  -9.626  1.00  0.00     0.049 A 
ATOM     38  N   UNL     1      -1.934 -10.840 -11.966  1.00  0.00    -0.248 NA
ATOM     39  C   UNL     1      -0.711  -9.013 -12.746  1.00  0.00     0.031 C 
ATOM     40  C   UNL     1       0.809 -11.106  -8.425  1.00  0.00     0.029 A 
ATOM     41  N   UNL     1      -0.856 -12.114  -9.521  1.00  0.00    -0.354 N 
ATOM     42  C   UNL     1      -2.521 -10.351 -13.129  1.00  0.00     0.074 A 
ATOM     43  C   UNL     1      -1.779  -9.170 -13.512  1.00  0.00     0.031 C 
ATOM     44  C   UNL     1       0.471 -12.200  -7.724  1.00  0.00     0.029 A 
ATOM     45  C   UNL     1      -0.640 -12.870  -8.391  1.00  0.00     0.049 A 
ATOM     46  H   UNL     1      -1.543 -12.334 -10.191  1.00  0.00     0.167 HD
ATOM     47  C   UNL     1      -3.563 -10.859 -13.832  1.00  0.00     0.034 A 
ATOM     48  C   UNL     1      -1.275 -13.970  -7.940  1.00  0.00     0.034 A 
ATOM     49  C   UNL     1      -4.262 -12.063 -13.463  1.00  0.00     0.049 A 
ATOM     50  C   UNL     1      -2.420 -14.527  -8.752  1.00  0.00     0.074 A 
ATOM     51  C   UNL     1      -5.304 -12.694 -14.120  1.00  0.00     0.029 A 
ATOM     52  N   UNL     1      -3.978 -12.829 -12.340  1.00  0.00    -0.354 N 
ATOM     53  N   UNL     1      -2.945 -14.065  -9.864  1.00  0.00    -0.248 NA
ATOM     54  C   UNL     1      -3.049 -15.758  -8.255  1.00  0.00     0.031 C 
ATOM     55  C   UNL     1      -5.675 -13.818 -13.375  1.00  0.00     0.029 A 
ATOM     56  C   UNL     1      -4.826 -13.923 -12.285  1.00  0.00     0.049 A 
ATOM     57  H   UNL     1      -3.276 -12.625 -11.680  1.00  0.00     0.167 HD
ATOM     58  C   UNL     1      -3.939 -14.973 -10.217  1.00  0.00     0.074 A 
ATOM     59  C   UNL     1      -3.929 -16.013  -9.210  1.00  0.00     0.031 C 
ATOM     60  C   UNL     1      -4.786 -14.953 -11.277  1.00  0.00     0.034 A 
BRANCH  47  61
ATOM     61  C   UNL     1      -3.999 -10.107 -15.066  1.00  0.00     0.023 A 
ATOM     62  C   UNL     1      -3.145  -9.958 -16.172  1.00  0.00     0.031 A 
ATOM     63  C   UNL     1      -5.269  -9.510 -15.130  1.00  0.00     0.131 A 
ATOM     64  C   UNL     1      -3.539  -9.166 -17.260  1.00  0.00     0.055 A 
ATOM     65  C   UNL     1      -5.688  -8.791 -16.252  1.00  0.00     0.041 A 
ATOM     66  F   UNL     1      -6.121  -9.602 -14.096  1.00  0.00    -0.206 F 
ATOM     67  C   UNL     1      -4.815  -8.603 -17.320  1.00  0.00     0.022 A 
BRANCH  64  68
ATOM     68  S   UNL     1      -2.310  -8.777 -18.535  1.00  0.00     0.124 S 
ATOM     69  O   UNL     1      -1.326  -8.015 -17.770  1.00  0.00    -0.237 OA
ATOM     70  O   UNL     1      -1.887 -10.099 -18.983  1.00  0.00    -0.237 OA
ATOM     71  O   UNL     1      -3.067  -8.000 -19.514  1.00  0.00    -0.744 OA
ENDBRANCH  64  68
ENDBRANCH  47  61
BRANCH  48  72
ATOM     72  C   UNL     1      -0.863 -14.628  -6.666  1.00  0.00     0.023 A 
ATOM     73  C   UNL     1      -0.365 -15.941  -6.665  1.00  0.00     0.031 A 
ATOM     74  C   UNL     1      -1.025 -13.986  -5.426  1.00  0.00     0.131 A 
ATOM     75  C   UNL     1      -0.112 -16.595  -5.449  1.00  0.00     0.055 A 
ATOM     76  C   UNL     1      -0.715 -14.620  -4.220  1.00  0.00     0.041 A 
ATOM     77  F   UNL     1      -1.488 -12.727  -5.367  1.00  0.00    -0.206 F 
ATOM     78  C   UNL     1      -0.274 -15.940  -4.227  1.00  0.00     0.022 A 
BRANCH  75  79
ATOM     79  S   UNL     1       0.317 -18.358  -5.487  1.00  0.00     0.124 S 
ATOM     80  O   UNL     1      -0.791 -18.917  -6.252  1.00  0.00    -0.237 OA
ATOM     81  O   UNL     1       1.614 -18.337  -6.156  1.00  0.00    -0.237 OA
ATOM     82  O   UNL     1       0.352 -18.729  -4.074  1.00  0.00    -0.744 OA
ENDBRANCH  75  79
ENDBRANCH  48  72
BRANCH  60  83
ATOM     83  C   UNL     1      -5.719 -16.127 -11.427  1.00  0.00     0.023 A 
ATOM     84  C   UNL     1      -6.774 -16.351 -10.528  1.00  0.00     0.031 A 
ATOM     85  C   UNL     1      -5.538 -17.036 -12.484  1.00  0.00     0.131 A 
ATOM     86  C   UNL     1      -7.579 -17.491 -10.671  1.00  0.00     0.055 A 
ATOM     87  C   UNL     1      -6.376 -18.139 -12.653  1.00  0.00     0.041 A 
ATOM     88  F   UNL     1      -4.544 -16.865 -13.370  1.00  0.00    -0.206 F 
ATOM     89  C   UNL     1      -7.395 -18.378 -11.735  1.00  0.00     0.022 A 
BRANCH  86  90
ATOM     90  S   UNL     1      -8.819 -17.844  -9.396  1.00  0.00     0.124 S 
ATOM     91  O   UNL     1      -7.999 -17.952  -8.194  1.00  0.00    -0.237 OA
ATOM     92  O   UNL     1      -9.686 -16.672  -9.472  1.00  0.00    -0.237 OA
ATOM     93  O   UNL     1      -9.428 -19.094  -9.847  1.00  0.00    -0.744 OA
ENDBRANCH  86  90
ENDBRANCH  60  83
ENDBRANCH  34  35
ENDBRANCH  26  29
ENDBRANCH  24  25
ENDBRANCH   1  24
TORSDOF 17
