REMARK SMILES O=C(COc1ccccc1/C=C1/SC(=S)N(c2ccc(F)c(Cl)c2)C1=O)NCCCNC(=O)c1ccc(-c2c3nc(c(-c4cc(S(=O)(=O)[O-])ccc4F)c4ccc([nH]4)c(-c4cc(S(=O)(=O)[O-])ccc4F)c4nc(c(-c5cc(S(=O)(=O)[O-])ccc5F)c5ccc2[nH]5)C=C4)C=C3)cc1
REMARK SMILES IDX 28 1 27 2 1 3 2 4 3 6 4 7 5 8 6 9 10 10 7 11 9 12 8 13 11 14
REMARK SMILES IDX 12 15 13 16 25 17 14 18 16 19 26 20 15 21 17 22 18 23 24 24
REMARK SMILES IDX 19 25 22 26 20 27 23 28 21 29 29 30 30 31 31 32 32 33 33 35
REMARK SMILES IDX 34 36 35 37 96 38 36 39 95 40 37 41 38 42 39 43 89 44 40 45
REMARK SMILES IDX 94 46 88 47 90 48 41 49 93 50 87 51 86 52 42 54 74 55 54 56
REMARK SMILES IDX 73 57 55 58 58 59 72 60 91 61 56 62 57 63 71 65 92 66 59 67
REMARK SMILES IDX 43 68 44 69 52 70 45 71 51 72 53 73 50 74 46 75 47 76 48 77
REMARK SMILES IDX 49 78 75 79 76 80 84 81 77 82 83 83 85 84 82 85 78 86 79 87
REMARK SMILES IDX 80 88 81 89 60 90 61 91 69 92 62 93 68 94 70 95 67 96 63 97
REMARK SMILES IDX 64 98 65 99 66 100
REMARK H PARENT 27 5 31 34 90 53 58 64
REMARK Flexibility Score: inf
ROOT
ATOM      1  C   UNL     1       2.476  -0.313   2.634  1.00  0.00     0.117 C 
ENDROOT
BRANCH   1   2
ATOM      2  N   UNL     1       2.912  -0.196   0.578  1.00  0.00    -0.353 N 
ATOM      3  O   UNL     1       1.697  -1.056  -1.379  1.00  0.00    -0.271 OA
ATOM      4  C   UNL     1       2.519  -0.315  -0.848  1.00  0.00     0.257 C 
ATOM      5  H   UNL     1       3.858   0.076   0.546  1.00  0.00     0.163 HD
BRANCH   4   6
ATOM      6  C   UNL     1       3.271   0.691  -1.729  1.00  0.00     0.329 C 
BRANCH   6   7
ATOM      7  O   UNL     1       3.812   1.788  -1.016  1.00  0.00    -0.483 OA
BRANCH   7   8
ATOM      8  C   UNL     1       3.022   2.911  -0.908  1.00  0.00     0.127 A 
ATOM      9  C   UNL     1       3.662   4.067  -1.370  1.00  0.00     0.047 A 
ATOM     10  C   UNL     1       1.798   3.012  -0.200  1.00  0.00     0.018 A 
ATOM     11  C   UNL     1       3.115   5.324  -1.129  1.00  0.00     0.004 A 
ATOM     12  C   UNL     1       1.268   4.290   0.038  1.00  0.00     0.012 A 
ATOM     13  C   UNL     1       1.928   5.436  -0.412  1.00  0.00     0.001 A 
BRANCH  10  14
ATOM     14  C   UNL     1       1.045   1.885   0.374  1.00  0.00     0.033 C 
ATOM     15  C   UNL     1       1.629   1.075   1.276  1.00  0.00     0.081 C 
ATOM     16  S   UNL     1       1.024  -1.126   1.179  1.00  0.00    -0.054 SA
ATOM     17  C   UNL     1       3.532   1.257   1.748  1.00  0.00     0.270 C 
ATOM     18  C   UNL     1       3.244  -1.840   1.436  1.00  0.00     0.152 C 
ATOM     19  N   UNL     1       4.290  -0.403   1.821  1.00  0.00    -0.261 N 
ATOM     20  O   UNL     1       4.078   2.321   2.001  1.00  0.00    -0.268 OA
ATOM     21  S   UNL     1       3.621  -3.442   1.066  1.00  0.00    -0.051 S 
BRANCH  19  22
ATOM     22  C   UNL     1       5.689  -0.465   2.147  1.00  0.00     0.052 A 
ATOM     23  C   UNL     1       6.248   0.555   2.939  1.00  0.00     0.030 A 
ATOM     24  C   UNL     1       6.526  -1.500   1.730  1.00  0.00     0.050 A 
ATOM     25  C   UNL     1       7.593   0.542   3.316  1.00  0.00     0.043 A 
ATOM     26  C   UNL     1       7.882  -1.506   2.095  1.00  0.00     0.078 A 
ATOM     27  C   UNL     1       8.408  -0.490   2.887  1.00  0.00     0.141 A 
ATOM     28  Cl  UNL     1       8.892  -2.789   1.549  1.00  0.00    -0.081 Cl
ATOM     29  F   UNL     1       9.699  -0.484   3.245  1.00  0.00    -0.205 F 
ENDBRANCH  19  22
ENDBRANCH  10  14
ENDBRANCH   7   8
ENDBRANCH   6   7
ENDBRANCH   4   6
ENDBRANCH   1   2
BRANCH   1  30
ATOM     30  C   UNL     1       2.331  -1.628   3.695  1.00  0.00     0.042 C 
BRANCH  30  31
ATOM     31  C   UNL     1       3.580  -2.079   4.456  1.00  0.00     0.118 C 
BRANCH  31  32
ATOM     32  N   UNL     1       4.261  -1.041   5.206  1.00  0.00    -0.352 N 
ATOM     33  C   UNL     1       5.317  -1.223   6.074  1.00  0.00     0.251 C 
ATOM     34  H   UNL     1       3.938  -0.118   5.085  1.00  0.00     0.163 HD
ATOM     35  O   UNL     1       5.795  -0.269   6.677  1.00  0.00    -0.269 OA
BRANCH  33  36
ATOM     36  C   UNL     1       5.787  -2.602   6.324  1.00  0.00     0.039 A 
ATOM     37  C   UNL     1       5.657  -3.118   7.612  1.00  0.00     0.014 A 
ATOM     38  C   UNL     1       6.227  -3.412   5.274  1.00  0.00     0.014 A 
ATOM     39  C   UNL     1       5.906  -4.473   7.834  1.00  0.00     0.010 A 
ATOM     40  C   UNL     1       6.401  -4.777   5.482  1.00  0.00     0.010 A 
ATOM     41  C   UNL     1       6.240  -5.322   6.764  1.00  0.00    -0.014 A 
BRANCH  41  42
ATOM     42  C   UNL     1       6.420  -6.777   6.996  1.00  0.00     0.031 A 
ATOM     43  C   UNL     1       7.772  -7.409   6.821  1.00  0.00     0.074 A 
ATOM     44  C   UNL     1       5.358  -7.526   7.357  1.00  0.00     0.049 A 
ATOM     45  N   UNL     1       8.142  -8.643   7.047  1.00  0.00    -0.248 NA
ATOM     46  C   UNL     1       8.844  -6.546   6.302  1.00  0.00     0.031 C 
ATOM     47  C   UNL     1       3.985  -7.032   7.494  1.00  0.00     0.029 A 
ATOM     48  N   UNL     1       5.264  -8.854   7.689  1.00  0.00    -0.354 N 
ATOM     49  C   UNL     1       9.489  -8.703   6.706  1.00  0.00     0.074 A 
ATOM     50  C   UNL     1       9.847  -7.402   6.185  1.00  0.00     0.031 C 
ATOM     51  C   UNL     1       3.198  -8.031   7.924  1.00  0.00     0.029 A 
ATOM     52  C   UNL     1       3.998  -9.244   8.064  1.00  0.00     0.049 A 
ATOM     53  H   UNL     1       6.031  -9.471   7.660  1.00  0.00     0.167 HD
ATOM     54  C   UNL     1      10.354  -9.738   6.845  1.00  0.00     0.034 A 
ATOM     55  C   UNL     1       3.539 -10.440   8.483  1.00  0.00     0.034 A 
ATOM     56  C   UNL     1       9.974 -11.030   7.361  1.00  0.00     0.049 A 
ATOM     57  C   UNL     1       4.517 -11.580   8.618  1.00  0.00     0.074 A 
ATOM     58  C   UNL     1      10.771 -12.139   7.586  1.00  0.00     0.029 A 
ATOM     59  N   UNL     1       8.681 -11.393   7.722  1.00  0.00    -0.354 N 
ATOM     60  N   UNL     1       5.806 -11.598   8.366  1.00  0.00    -0.248 NA
ATOM     61  C   UNL     1       3.982 -12.853   9.116  1.00  0.00     0.031 C 
ATOM     62  C   UNL     1       9.952 -13.190   8.014  1.00  0.00     0.029 A 
ATOM     63  C   UNL     1       8.655 -12.716   8.138  1.00  0.00     0.049 A 
ATOM     64  H   UNL     1       7.898 -10.798   7.688  1.00  0.00     0.167 HD
ATOM     65  C   UNL     1       6.241 -12.877   8.704  1.00  0.00     0.074 A 
ATOM     66  C   UNL     1       5.080 -13.589   9.200  1.00  0.00     0.031 C 
ATOM     67  C   UNL     1       7.484 -13.416   8.615  1.00  0.00     0.034 A 
BRANCH  54  68
ATOM     68  C   UNL     1      11.782  -9.509   6.408  1.00  0.00     0.023 A 
ATOM     69  C   UNL     1      12.595  -8.538   7.022  1.00  0.00     0.031 A 
ATOM     70  C   UNL     1      12.331 -10.245   5.343  1.00  0.00     0.131 A 
ATOM     71  C   UNL     1      13.877  -8.275   6.518  1.00  0.00     0.055 A 
ATOM     72  C   UNL     1      13.639 -10.035   4.899  1.00  0.00     0.041 A 
ATOM     73  F   UNL     1      11.599 -11.170   4.703  1.00  0.00    -0.206 F 
ATOM     74  C   UNL     1      14.415  -9.034   5.477  1.00  0.00     0.022 A 
BRANCH  71  75
ATOM     75  S   UNL     1      14.775  -6.828   7.145  1.00  0.00     0.124 S 
ATOM     76  O   UNL     1      13.850  -5.744   6.824  1.00  0.00    -0.237 OA
ATOM     77  O   UNL     1      14.926  -7.141   8.561  1.00  0.00    -0.237 OA
ATOM     78  O   UNL     1      16.014  -6.830   6.370  1.00  0.00    -0.744 OA
ENDBRANCH  71  75
ENDBRANCH  54  68
BRANCH  55  79
ATOM     79  C   UNL     1       2.096 -10.626   8.816  1.00  0.00     0.023 A 
ATOM     80  C   UNL     1       1.684 -10.950  10.119  1.00  0.00     0.031 A 
ATOM     81  C   UNL     1       1.107 -10.528   7.820  1.00  0.00     0.131 A 
ATOM     82  C   UNL     1       0.330 -11.214  10.382  1.00  0.00     0.055 A 
ATOM     83  C   UNL     1      -0.245 -10.737   8.098  1.00  0.00     0.041 A 
ATOM     84  F   UNL     1       1.442 -10.215   6.559  1.00  0.00    -0.206 F 
ATOM     85  C   UNL     1      -0.638 -11.096   9.383  1.00  0.00     0.022 A 
BRANCH  82  86
ATOM     86  S   UNL     1      -0.138 -11.800  12.034  1.00  0.00     0.124 S 
ATOM     87  O   UNL     1       0.682 -12.999  12.168  1.00  0.00    -0.237 OA
ATOM     88  O   UNL     1       0.238 -10.668  12.874  1.00  0.00    -0.237 OA
ATOM     89  O   UNL     1      -1.575 -12.036  11.917  1.00  0.00    -0.744 OA
ENDBRANCH  82  86
ENDBRANCH  55  79
BRANCH  67  90
ATOM     90  C   UNL     1       7.649 -14.836   9.104  1.00  0.00     0.023 A 
ATOM     91  C   UNL     1       7.009 -15.916   8.472  1.00  0.00     0.031 A 
ATOM     92  C   UNL     1       8.437 -15.107  10.237  1.00  0.00     0.131 A 
ATOM     93  C   UNL     1       7.108 -17.204   9.018  1.00  0.00     0.055 A 
ATOM     94  C   UNL     1       8.590 -16.402  10.734  1.00  0.00     0.041 A 
ATOM     95  F   UNL     1       9.071 -14.115  10.883  1.00  0.00    -0.206 F 
ATOM     96  C   UNL     1       7.909 -17.457  10.135  1.00  0.00     0.022 A 
BRANCH  93  97
ATOM     97  S   UNL     1       6.079 -18.525   8.321  1.00  0.00     0.124 S 
ATOM     98  O   UNL     1       4.737 -17.967   8.454  1.00  0.00    -0.237 OA
ATOM     99  O   UNL     1       6.592 -18.635   6.960  1.00  0.00    -0.237 OA
ATOM    100  O   UNL     1       6.361 -19.671   9.184  1.00  0.00    -0.744 OA
ENDBRANCH  93  97
ENDBRANCH  67  90
ENDBRANCH  41  42
ENDBRANCH  33  36
ENDBRANCH  31  32
ENDBRANCH  30  31
ENDBRANCH   1  30
TORSDOF 17
