REMARK SMILES CC(C)[C@@H](C[NH+](C)C)C(=O)NCCCNC(=O)c1ccc(-c2c3nc(c(-c4cc(S(=O)(=O)[O-])ccc4F)c4ccc([nH]4)c(-c4cc(S(=O)(=O)[O-])ccc4F)c4nc(c(-c5cc(S(=O)(=O)[O-])ccc5F)c5ccc2[nH]5)C=C4)C=C3)cc1
REMARK SMILES IDX 13 1 12 2 11 3 9 4 10 5 4 7 2 8 1 9 3 10 5 11 6 12 7 13 8 14
REMARK SMILES IDX 14 16 15 17 16 18 17 20 18 21 19 22 80 23 20 24 79 25 21 26
REMARK SMILES IDX 22 27 23 28 73 29 24 30 78 31 72 32 74 33 25 34 77 35 71 36
REMARK SMILES IDX 70 37 26 39 58 40 38 41 57 42 39 43 42 44 56 45 75 46 40 47
REMARK SMILES IDX 41 48 55 50 76 51 43 52 27 53 28 54 36 55 29 56 35 57 37 58
REMARK SMILES IDX 34 59 30 60 31 61 32 62 33 63 59 64 60 65 68 66 61 67 67 68
REMARK SMILES IDX 69 69 66 70 62 71 63 72 64 73 65 74 44 75 45 76 53 77 46 78
REMARK SMILES IDX 52 79 54 80 51 81 47 82 48 83 49 84 50 85
REMARK H PARENT 11 6 6 15 15 19 74 38 42 49
REMARK Flexibility Score: inf
ROOT
ATOM      1  C   UNL     1       0.824   5.015   0.793  1.00  0.00     0.042 C 
ENDROOT
BRANCH   1   2
ATOM      2  C   UNL     1      -0.360   4.103   1.012  1.00  0.00     0.117 C 
BRANCH   2   3
ATOM      3  N   UNL     1      -1.170   3.868  -0.161  1.00  0.00    -0.356 N 
ATOM      4  C   UNL     1      -1.538   2.671  -0.696  1.00  0.00     0.229 C 
ATOM      5  O   UNL     1      -2.398   2.683  -1.584  1.00  0.00    -0.275 OA
ATOM      6  H   UNL     1      -1.495   4.670  -0.630  1.00  0.00     0.163 HD
BRANCH   4   7
ATOM      7  C   UNL     1      -0.886   1.344  -0.274  1.00  0.00     0.136 C 
BRANCH   7   8
ATOM      8  C   UNL     1       0.627   1.275  -0.615  1.00  0.00     0.001 C 
ATOM      9  C   UNL     1       1.195  -0.133  -0.402  1.00  0.00     0.008 C 
ATOM     10  C   UNL     1       0.901   1.677  -2.076  1.00  0.00     0.008 C 
ENDBRANCH   7   8
BRANCH   7  11
ATOM     11  C   UNL     1      -1.385   0.840   1.119  1.00  0.00     0.275 C 
BRANCH  11  12
ATOM     12  N   UNL     1      -0.926   1.476   2.369  1.00  0.00    -0.339 N 
ATOM     13  C   UNL     1      -1.862   1.248   3.472  1.00  0.00     0.332 C 
ATOM     14  C   UNL     1       0.419   1.090   2.797  1.00  0.00     0.332 C 
ATOM     15  H   UNL     1      -0.890   2.469   2.138  1.00  0.00     0.347 HD
ENDBRANCH  11  12
ENDBRANCH   7  11
ENDBRANCH   4   7
ENDBRANCH   2   3
ENDBRANCH   1   2
BRANCH   1  16
ATOM     16  C   UNL     1       0.453   6.479   0.703  1.00  0.00     0.118 C 
BRANCH  16  17
ATOM     17  N   UNL     1      -0.133   6.991   1.939  1.00  0.00    -0.352 N 
ATOM     18  C   UNL     1       0.356   7.890   2.857  1.00  0.00     0.251 C 
ATOM     19  H   UNL     1      -1.025   6.633   2.149  1.00  0.00     0.163 HD
ATOM     20  O   UNL     1      -0.226   8.031   3.931  1.00  0.00    -0.269 OA
BRANCH  18  21
ATOM     21  C   UNL     1       1.589   8.655   2.570  1.00  0.00     0.039 A 
ATOM     22  C   UNL     1       2.505   8.894   3.598  1.00  0.00     0.014 A 
ATOM     23  C   UNL     1       1.851   9.126   1.284  1.00  0.00     0.014 A 
ATOM     24  C   UNL     1       3.719   9.524   3.309  1.00  0.00     0.010 A 
ATOM     25  C   UNL     1       3.107   9.627   0.973  1.00  0.00     0.010 A 
ATOM     26  C   UNL     1       4.052   9.849   1.984  1.00  0.00    -0.014 A 
BRANCH  26  27
ATOM     27  C   UNL     1       5.358  10.461   1.626  1.00  0.00     0.031 A 
ATOM     28  C   UNL     1       5.384  11.804   0.943  1.00  0.00     0.074 A 
ATOM     29  C   UNL     1       6.504   9.786   1.846  1.00  0.00     0.049 A 
ATOM     30  N   UNL     1       6.398  12.457   0.436  1.00  0.00    -0.248 NA
ATOM     31  C   UNL     1       4.089  12.483   0.772  1.00  0.00     0.031 C 
ATOM     32  C   UNL     1       6.603   8.463   2.468  1.00  0.00     0.029 A 
ATOM     33  N   UNL     1       7.806  10.115   1.567  1.00  0.00    -0.354 N 
ATOM     34  C   UNL     1       5.861  13.613  -0.121  1.00  0.00     0.074 A 
ATOM     35  C   UNL     1       4.426  13.527   0.032  1.00  0.00     0.031 C 
ATOM     36  C   UNL     1       7.896   8.114   2.558  1.00  0.00     0.029 A 
ATOM     37  C   UNL     1       8.716   9.155   1.949  1.00  0.00     0.049 A 
ATOM     38  H   UNL     1       8.066  10.960   1.134  1.00  0.00     0.167 HD
ATOM     39  C   UNL     1       6.506  14.669  -0.674  1.00  0.00     0.034 A 
ATOM     40  C   UNL     1      10.056   9.117   1.810  1.00  0.00     0.034 A 
ATOM     41  C   UNL     1       7.939  14.747  -0.804  1.00  0.00     0.049 A 
ATOM     42  C   UNL     1      10.748  10.282   1.143  1.00  0.00     0.074 A 
ATOM     43  C   UNL     1       8.704  15.777  -1.321  1.00  0.00     0.029 A 
ATOM     44  N   UNL     1       8.826  13.753  -0.410  1.00  0.00    -0.354 N 
ATOM     45  N   UNL     1      10.227  11.383   0.651  1.00  0.00    -0.248 NA
ATOM     46  C   UNL     1      12.210  10.202   1.022  1.00  0.00     0.031 C 
ATOM     47  C   UNL     1      10.044  15.380  -1.301  1.00  0.00     0.029 A 
ATOM     48  C   UNL     1      10.127  14.137  -0.695  1.00  0.00     0.049 A 
ATOM     49  H   UNL     1       8.569  12.901   0.010  1.00  0.00     0.167 HD
ATOM     50  C   UNL     1      11.305  12.145   0.205  1.00  0.00     0.074 A 
ATOM     51  C   UNL     1      12.501  11.383   0.497  1.00  0.00     0.031 C 
ATOM     52  C   UNL     1      11.308  13.365  -0.390  1.00  0.00     0.034 A 
BRANCH  39  53
ATOM     53  C   UNL     1       5.659  15.811  -1.183  1.00  0.00     0.023 A 
ATOM     54  C   UNL     1       4.834  16.554  -0.319  1.00  0.00     0.031 A 
ATOM     55  C   UNL     1       5.650  16.146  -2.548  1.00  0.00     0.131 A 
ATOM     56  C   UNL     1       3.977  17.535  -0.838  1.00  0.00     0.055 A 
ATOM     57  C   UNL     1       4.861  17.185  -3.046  1.00  0.00     0.041 A 
ATOM     58  F   UNL     1       6.397  15.459  -3.426  1.00  0.00    -0.206 F 
ATOM     59  C   UNL     1       4.005  17.877  -2.192  1.00  0.00     0.022 A 
BRANCH  56  60
ATOM     60  S   UNL     1       2.720  18.251   0.256  1.00  0.00     0.124 S 
ATOM     61  O   UNL     1       1.962  17.065   0.647  1.00  0.00    -0.237 OA
ATOM     62  O   UNL     1       3.526  18.868   1.303  1.00  0.00    -0.237 OA
ATOM     63  O   UNL     1       2.002  19.183  -0.611  1.00  0.00    -0.744 OA
ENDBRANCH  56  60
ENDBRANCH  39  53
BRANCH  40  64
ATOM     64  C   UNL     1      10.845   7.948   2.301  1.00  0.00     0.023 A 
ATOM     65  C   UNL     1      11.825   8.110   3.294  1.00  0.00     0.031 A 
ATOM     66  C   UNL     1      10.686   6.669   1.738  1.00  0.00     0.131 A 
ATOM     67  C   UNL     1      12.653   7.033   3.644  1.00  0.00     0.055 A 
ATOM     68  C   UNL     1      11.468   5.584   2.139  1.00  0.00     0.041 A 
ATOM     69  F   UNL     1       9.764   6.454   0.786  1.00  0.00    -0.206 F 
ATOM     70  C   UNL     1      12.472   5.767   3.084  1.00  0.00     0.022 A 
BRANCH  67  71
ATOM     71  S   UNL     1      14.055   7.344   4.753  1.00  0.00     0.124 S 
ATOM     72  O   UNL     1      14.765   8.400   4.041  1.00  0.00    -0.237 OA
ATOM     73  O   UNL     1      13.383   7.740   5.986  1.00  0.00    -0.237 OA
ATOM     74  O   UNL     1      14.740   6.054   4.805  1.00  0.00    -0.744 OA
ENDBRANCH  67  71
ENDBRANCH  40  64
BRANCH  52  75
ATOM     75  C   UNL     1      12.653  13.976  -0.699  1.00  0.00     0.023 A 
ATOM     76  C   UNL     1      13.522  13.418  -1.652  1.00  0.00     0.031 A 
ATOM     77  C   UNL     1      13.070  15.137  -0.023  1.00  0.00     0.131 A 
ATOM     78  C   UNL     1      14.787  13.986  -1.860  1.00  0.00     0.055 A 
ATOM     79  C   UNL     1      14.302  15.737  -0.282  1.00  0.00     0.041 A 
ATOM     80  F   UNL     1      12.280  15.712   0.899  1.00  0.00    -0.206 F 
ATOM     81  C   UNL     1      15.175  15.153  -1.196  1.00  0.00     0.022 A 
BRANCH  78  82
ATOM     82  S   UNL     1      15.961  13.126  -2.942  1.00  0.00     0.124 S 
ATOM     83  O   UNL     1      16.075  11.824  -2.292  1.00  0.00    -0.237 OA
ATOM     84  O   UNL     1      15.268  13.137  -4.226  1.00  0.00    -0.237 OA
ATOM     85  O   UNL     1      17.160  13.959  -2.879  1.00  0.00    -0.744 OA
ENDBRANCH  78  82
ENDBRANCH  52  75
ENDBRANCH  26  27
ENDBRANCH  18  21
ENDBRANCH  16  17
ENDBRANCH   1  16
TORSDOF 16
