REMARK SMILES O=C(NCCCNC(=O)c1ccc(N2C(=O)C[C@H](c3c[nH]c4ccccc34)C2=O)cc1O)c1ccc(-c2c3nc(c(-c4cc(S(=O)(=O)[O-])ccc4F)c4ccc([nH]4)c(-c4cc(S(=O)(=O)[O-])ccc4F)c4nc(c(-c5cc(S(=O)(=O)[O-])ccc5F)c5ccc2[nH]5)C=C4)C=C3)cc1
REMARK SMILES IDX 4 1 3 2 1 3 2 4 33 6 34 7 95 8 35 9 94 10 36 11 37 12 38 13
REMARK SMILES IDX 88 14 39 15 93 16 87 17 89 18 40 19 92 20 86 21 85 22 41 24
REMARK SMILES IDX 73 25 53 26 72 27 54 28 57 29 71 30 90 31 55 32 56 33 70 35
REMARK SMILES IDX 91 36 58 37 42 38 43 39 51 40 44 41 50 42 52 43 49 44 45 45
REMARK SMILES IDX 46 46 47 47 48 48 74 49 75 50 83 51 76 52 82 53 84 54 81 55
REMARK SMILES IDX 77 56 78 57 79 58 80 59 59 60 60 61 68 62 61 63 67 64 69 65
REMARK SMILES IDX 66 66 62 67 63 68 64 69 65 70 5 71 6 72 7 73 8 74 9 76 10 77
REMARK SMILES IDX 11 78 31 79 12 80 30 81 13 82 32 83 14 85 15 86 28 87 16 88
REMARK SMILES IDX 17 89 18 90 29 91 19 92 20 93 27 94 21 95 22 96 26 97 23 99
REMARK SMILES IDX 25 100 24 101
REMARK H PARENT 3 5 89 23 57 34 7 75 32 84 21 98
REMARK Flexibility Score: inf
ROOT
ATOM      1  C   UNL     1       4.464   0.186  -1.359  1.00  0.00     0.118 C 
ENDROOT
BRANCH   1   2
ATOM      2  N   UNL     1       3.031   0.302  -1.111  1.00  0.00    -0.352 N 
ATOM      3  O   UNL     1       1.085   0.093  -0.002  1.00  0.00    -0.269 OA
ATOM      4  C   UNL     1       2.314   0.136   0.049  1.00  0.00     0.251 C 
ATOM      5  H   UNL     1       2.493   0.537  -1.900  1.00  0.00     0.163 HD
BRANCH   4   6
ATOM      6  C   UNL     1       3.008  -0.007   1.347  1.00  0.00     0.039 A 
ATOM      7  C   UNL     1       4.118   0.781   1.653  1.00  0.00     0.014 A 
ATOM      8  C   UNL     1       2.525  -0.924   2.286  1.00  0.00     0.014 A 
ATOM      9  C   UNL     1       4.841   0.538   2.813  1.00  0.00     0.010 A 
ATOM     10  C   UNL     1       3.193  -1.091   3.504  1.00  0.00     0.010 A 
ATOM     11  C   UNL     1       4.377  -0.384   3.764  1.00  0.00    -0.014 A 
BRANCH  11  12
ATOM     12  C   UNL     1       5.118  -0.536   5.043  1.00  0.00     0.031 A 
ATOM     13  C   UNL     1       5.770  -1.840   5.415  1.00  0.00     0.074 A 
ATOM     14  C   UNL     1       5.234   0.536   5.852  1.00  0.00     0.049 A 
ATOM     15  N   UNL     1       6.463  -2.140   6.483  1.00  0.00    -0.248 NA
ATOM     16  C   UNL     1       5.614  -2.954   4.469  1.00  0.00     0.031 C 
ATOM     17  C   UNL     1       4.642   1.852   5.590  1.00  0.00     0.029 A 
ATOM     18  N   UNL     1       5.901   0.706   7.037  1.00  0.00    -0.354 N 
ATOM     19  C   UNL     1       6.820  -3.478   6.347  1.00  0.00     0.074 A 
ATOM     20  C   UNL     1       6.229  -3.940   5.108  1.00  0.00     0.031 C 
ATOM     21  C   UNL     1       5.016   2.704   6.555  1.00  0.00     0.029 A 
ATOM     22  C   UNL     1       5.806   1.981   7.544  1.00  0.00     0.049 A 
ATOM     23  H   UNL     1       6.400  -0.016   7.483  1.00  0.00     0.167 HD
ATOM     24  C   UNL     1       7.577  -4.242   7.175  1.00  0.00     0.034 A 
ATOM     25  C   UNL     1       6.279   2.508   8.689  1.00  0.00     0.034 A 
ATOM     26  C   UNL     1       8.154  -3.760   8.409  1.00  0.00     0.049 A 
ATOM     27  C   UNL     1       7.072   1.625   9.613  1.00  0.00     0.074 A 
ATOM     28  C   UNL     1       8.947  -4.442   9.316  1.00  0.00     0.029 A 
ATOM     29  N   UNL     1       7.995  -2.475   8.916  1.00  0.00    -0.354 N 
ATOM     30  N   UNL     1       7.402   0.363   9.465  1.00  0.00    -0.248 NA
ATOM     31  C   UNL     1       7.555   2.236  10.856  1.00  0.00     0.031 C 
ATOM     32  C   UNL     1       9.211  -3.594  10.398  1.00  0.00     0.029 A 
ATOM     33  C   UNL     1       8.648  -2.356  10.134  1.00  0.00     0.049 A 
ATOM     34  H   UNL     1       7.491  -1.754   8.474  1.00  0.00     0.167 HD
ATOM     35  C   UNL     1       8.151   0.035  10.591  1.00  0.00     0.074 A 
ATOM     36  C   UNL     1       8.242   1.239  11.392  1.00  0.00     0.031 C 
ATOM     37  C   UNL     1       8.713  -1.153  10.931  1.00  0.00     0.034 A 
BRANCH  24  38
ATOM     38  C   UNL     1       7.784  -5.689   6.791  1.00  0.00     0.023 A 
ATOM     39  C   UNL     1       8.479  -6.057   5.625  1.00  0.00     0.031 A 
ATOM     40  C   UNL     1       7.262  -6.719   7.595  1.00  0.00     0.131 A 
ATOM     41  C   UNL     1       8.575  -7.410   5.261  1.00  0.00     0.055 A 
ATOM     42  C   UNL     1       7.428  -8.067   7.268  1.00  0.00     0.041 A 
ATOM     43  F   UNL     1       6.570  -6.433   8.709  1.00  0.00    -0.206 F 
ATOM     44  C   UNL     1       8.076  -8.419   6.088  1.00  0.00     0.022 A 
BRANCH  41  45
ATOM     45  S   UNL     1       9.240  -7.825   3.625  1.00  0.00     0.124 S 
ATOM     46  O   UNL     1       8.332  -7.098   2.741  1.00  0.00    -0.237 OA
ATOM     47  O   UNL     1      10.604  -7.316   3.699  1.00  0.00    -0.237 OA
ATOM     48  O   UNL     1       9.120  -9.281   3.564  1.00  0.00    -0.744 OA
ENDBRANCH  41  45
ENDBRANCH  24  38
BRANCH  25  49
ATOM     49  C   UNL     1       5.984   3.925   9.042  1.00  0.00     0.023 A 
ATOM     50  C   UNL     1       7.012   4.870   9.178  1.00  0.00     0.031 A 
ATOM     51  C   UNL     1       4.663   4.349   9.280  1.00  0.00     0.131 A 
ATOM     52  C   UNL     1       6.708   6.179   9.583  1.00  0.00     0.055 A 
ATOM     53  C   UNL     1       4.360   5.666   9.625  1.00  0.00     0.041 A 
ATOM     54  F   UNL     1       3.641   3.486   9.161  1.00  0.00    -0.206 F 
ATOM     55  C   UNL     1       5.388   6.587   9.792  1.00  0.00     0.022 A 
BRANCH  52  56
ATOM     56  S   UNL     1       8.075   7.321   9.921  1.00  0.00     0.124 S 
ATOM     57  O   UNL     1       8.835   6.586  10.925  1.00  0.00    -0.237 OA
ATOM     58  O   UNL     1       8.697   7.445   8.607  1.00  0.00    -0.237 OA
ATOM     59  O   UNL     1       7.401   8.524  10.405  1.00  0.00    -0.744 OA
ENDBRANCH  52  56
ENDBRANCH  25  49
BRANCH  37  60
ATOM     60  C   UNL     1       9.504  -1.181  12.215  1.00  0.00     0.023 A 
ATOM     61  C   UNL     1       8.886  -1.018  13.467  1.00  0.00     0.031 A 
ATOM     62  C   UNL     1      10.901  -1.337  12.181  1.00  0.00     0.131 A 
ATOM     63  C   UNL     1       9.669  -0.952  14.630  1.00  0.00     0.055 A 
ATOM     64  C   UNL     1      11.669  -1.332  13.346  1.00  0.00     0.041 A 
ATOM     65  F   UNL     1      11.543  -1.493  11.012  1.00  0.00    -0.206 F 
ATOM     66  C   UNL     1      11.055  -1.124  14.578  1.00  0.00     0.022 A 
BRANCH  63  67
ATOM     67  S   UNL     1       8.862  -0.541  16.201  1.00  0.00     0.124 S 
ATOM     68  O   UNL     1       8.270   0.760  15.907  1.00  0.00    -0.237 OA
ATOM     69  O   UNL     1       7.923  -1.646  16.369  1.00  0.00    -0.237 OA
ATOM     70  O   UNL     1       9.967  -0.517  17.158  1.00  0.00    -0.744 OA
ENDBRANCH  63  67
ENDBRANCH  37  60
ENDBRANCH  11  12
ENDBRANCH   4   6
ENDBRANCH   1   2
BRANCH   1  71
ATOM     71  C   UNL     1       4.812  -1.000  -2.245  1.00  0.00     0.042 C 
BRANCH  71  72
ATOM     72  C   UNL     1       4.230  -0.905  -3.647  1.00  0.00     0.118 C 
BRANCH  72  73
ATOM     73  N   UNL     1       4.740   0.245  -4.377  1.00  0.00    -0.352 N 
ATOM     74  C   UNL     1       5.598   0.269  -5.447  1.00  0.00     0.255 C 
ATOM     75  H   UNL     1       4.428   1.124  -4.061  1.00  0.00     0.163 HD
ATOM     76  O   UNL     1       6.028   1.332  -5.884  1.00  0.00    -0.269 OA
BRANCH  74  77
ATOM     77  C   UNL     1       6.054  -1.000  -6.039  1.00  0.00     0.081 A 
ATOM     78  C   UNL     1       7.417  -1.293  -5.987  1.00  0.00     0.020 A 
ATOM     79  C   UNL     1       5.173  -1.898  -6.642  1.00  0.00     0.130 A 
ATOM     80  C   UNL     1       7.889  -2.505  -6.500  1.00  0.00     0.028 A 
ATOM     81  C   UNL     1       5.651  -3.100  -7.164  1.00  0.00     0.073 A 
ATOM     82  C   UNL     1       7.016  -3.427  -7.102  1.00  0.00     0.055 A 
BRANCH  79  83
ATOM     83  O   UNL     1       3.835  -1.619  -6.708  1.00  0.00    -0.507 OA
ATOM     84  H   UNL     1       3.507  -0.813  -6.359  1.00  0.00     0.293 HD
ENDBRANCH  79  83
BRANCH  82  85
ATOM     85  N   UNL     1       7.500  -4.643  -7.666  1.00  0.00    -0.250 N 
ATOM     86  C   UNL     1       6.890  -5.293  -8.713  1.00  0.00     0.234 C 
ATOM     87  C   UNL     1       8.652  -5.290  -7.267  1.00  0.00     0.241 C 
ATOM     88  O   UNL     1       5.856  -5.004  -9.305  1.00  0.00    -0.274 OA
ATOM     89  C   UNL     1       7.762  -6.412  -9.176  1.00  0.00     0.119 C 
ATOM     90  C   UNL     1       8.833  -6.531  -8.108  1.00  0.00     0.121 C 
ATOM     91  O   UNL     1       9.426  -4.968  -6.374  1.00  0.00    -0.273 OA
BRANCH  90  92
ATOM     92  C   UNL     1       8.732  -7.835  -7.371  1.00  0.00    -0.010 A 
ATOM     93  C   UNL     1       8.315  -8.080  -6.077  1.00  0.00     0.088 A 
ATOM     94  C   UNL     1       9.044  -9.113  -7.947  1.00  0.00     0.003 A 
ATOM     95  N   UNL     1       8.369  -9.433  -5.851  1.00  0.00    -0.361 N 
ATOM     96  C   UNL     1       8.786 -10.088  -6.986  1.00  0.00     0.046 A 
ATOM     97  C   UNL     1       9.508  -9.521  -9.216  1.00  0.00     0.010 A 
ATOM     98  H   UNL     1       8.141  -9.871  -4.999  1.00  0.00     0.166 HD
ATOM     99  C   UNL     1       8.962 -11.455  -7.233  1.00  0.00     0.026 A 
ATOM    100  C   UNL     1       9.688 -10.882  -9.480  1.00  0.00     0.001 A 
ATOM    101  C   UNL     1       9.415 -11.834  -8.501  1.00  0.00     0.002 A 
ENDBRANCH  90  92
ENDBRANCH  82  85
ENDBRANCH  74  77
ENDBRANCH  72  73
ENDBRANCH  71  72
ENDBRANCH   1  71
TORSDOF 16
