REMARK SMILES Cn1c(SCC(=O)NCCCNC(=O)c2ccc(-c3c4nc(c(-c5cc(S(=O)(=O)[O-])ccc5F)c5ccc([nH]5)c(-c5cc(S(=O)(=O)[O-])ccc5F)c5nc(c(-c6cc(S(=O)(=O)[O-])ccc6F)c6ccc3[nH]6)C=C5)C=C4)cc2)nnc1-c1ccccc1Br
REMARK SMILES IDX 10 1 9 2 8 3 6 4 7 5 5 7 4 8 3 9 1 10 2 11 80 12 78 13 79 14
REMARK SMILES IDX 81 15 82 16 86 17 83 18 85 19 87 20 84 21 11 22 12 23 13 24
REMARK SMILES IDX 14 26 15 27 16 28 77 29 17 30 76 31 18 32 19 33 20 34 70 35
REMARK SMILES IDX 21 36 75 37 69 38 71 39 22 40 74 41 68 42 67 43 23 45 55 46
REMARK SMILES IDX 35 47 54 48 36 49 39 50 53 51 72 52 37 53 38 54 52 56 73 57
REMARK SMILES IDX 40 58 24 59 25 60 33 61 26 62 32 63 34 64 31 65 27 66 28 67
REMARK SMILES IDX 29 68 30 69 56 70 57 71 65 72 58 73 64 74 66 75 63 76 59 77
REMARK SMILES IDX 60 78 61 79 62 80 41 81 42 82 50 83 43 84 49 85 51 86 48 87
REMARK SMILES IDX 44 88 45 89 46 90 47 91
REMARK H PARENT 8 6 12 25 71 44 39 55
REMARK Flexibility Score: inf
ROOT
ATOM      1  C   UNL     1       0.456   3.690   3.302  1.00  0.00     0.042 C 
ENDROOT
BRANCH   1   2
ATOM      2  C   UNL     1       1.665   4.207   2.532  1.00  0.00     0.117 C 
BRANCH   2   3
ATOM      3  N   UNL     1       2.620   3.157   2.228  1.00  0.00    -0.355 N 
ATOM      4  C   UNL     1       2.962   2.614   1.031  1.00  0.00     0.230 C 
ATOM      5  O   UNL     1       3.909   1.823   1.012  1.00  0.00    -0.274 OA
ATOM      6  H   UNL     1       3.091   2.782   3.007  1.00  0.00     0.163 HD
BRANCH   4   7
ATOM      7  C   UNL     1       2.293   3.031  -0.258  1.00  0.00     0.178 C 
BRANCH   7   8
ATOM      8  S   UNL     1       0.546   2.700  -0.399  1.00  0.00    -0.076 SA
BRANCH   8   9
ATOM      9  C   UNL     1       0.144   1.038  -0.176  1.00  0.00     0.191 A 
ATOM     10  C   UNL     1       2.318  -0.272  -0.395  1.00  0.00     0.154 C 
ATOM     11  N   UNL     1       0.911  -0.096  -0.169  1.00  0.00    -0.305 N 
ATOM     12  C   UNL     1       0.030  -1.148   0.040  1.00  0.00     0.165 A 
ATOM     13  N   UNL     1      -1.121   0.690  -0.057  1.00  0.00    -0.123 NA
ATOM     14  N   UNL     1      -1.196  -0.670   0.059  1.00  0.00    -0.129 NA
BRANCH  12  15
ATOM     15  C   UNL     1       0.389  -2.562   0.116  1.00  0.00     0.034 A 
ATOM     16  C   UNL     1       0.008  -3.396  -0.949  1.00  0.00     0.013 A 
ATOM     17  C   UNL     1       1.109  -3.118   1.185  1.00  0.00     0.029 A 
ATOM     18  C   UNL     1       0.381  -4.741  -0.972  1.00  0.00     0.001 A 
ATOM     19  C   UNL     1       1.487  -4.465   1.155  1.00  0.00     0.016 A 
ATOM     20  Br  UNL     1       1.584  -2.116   2.730  1.00  0.00    -0.050 Br
ATOM     21  C   UNL     1       1.132  -5.272   0.074  1.00  0.00     0.001 A 
ENDBRANCH  12  15
ENDBRANCH   8   9
ENDBRANCH   7   8
ENDBRANCH   4   7
ENDBRANCH   2   3
ENDBRANCH   1   2
BRANCH   1  22
ATOM     22  C   UNL     1       0.787   3.068   4.656  1.00  0.00     0.118 C 
BRANCH  22  23
ATOM     23  N   UNL     1       1.438   4.002   5.566  1.00  0.00    -0.352 N 
ATOM     24  C   UNL     1       1.034   4.481   6.787  1.00  0.00     0.251 C 
ATOM     25  H   UNL     1       2.307   4.345   5.254  1.00  0.00     0.163 HD
ATOM     26  O   UNL     1       1.653   5.421   7.290  1.00  0.00    -0.269 OA
BRANCH  24  27
ATOM     27  C   UNL     1      -0.135   3.903   7.484  1.00  0.00     0.039 A 
ATOM     28  C   UNL     1      -1.015   4.758   8.155  1.00  0.00     0.014 A 
ATOM     29  C   UNL     1      -0.356   2.523   7.508  1.00  0.00     0.014 A 
ATOM     30  C   UNL     1      -2.146   4.236   8.789  1.00  0.00     0.010 A 
ATOM     31  C   UNL     1      -1.527   2.015   8.064  1.00  0.00     0.010 A 
ATOM     32  C   UNL     1      -2.433   2.864   8.717  1.00  0.00    -0.014 A 
BRANCH  32  33
ATOM     33  C   UNL     1      -3.666   2.298   9.328  1.00  0.00     0.031 A 
ATOM     34  C   UNL     1      -3.566   1.288  10.440  1.00  0.00     0.074 A 
ATOM     35  C   UNL     1      -4.874   2.650   8.847  1.00  0.00     0.049 A 
ATOM     36  N   UNL     1      -4.517   0.633  11.057  1.00  0.00    -0.248 NA
ATOM     37  C   UNL     1      -2.210   0.950  10.897  1.00  0.00     0.031 C 
ATOM     38  C   UNL     1      -5.105   3.594   7.753  1.00  0.00     0.029 A 
ATOM     39  N   UNL     1      -6.136   2.255   9.214  1.00  0.00    -0.354 N 
ATOM     40  C   UNL     1      -3.875  -0.200  11.967  1.00  0.00     0.074 A 
ATOM     41  C   UNL     1      -2.453  -0.022  11.761  1.00  0.00     0.031 C 
ATOM     42  C   UNL     1      -6.426   3.735   7.564  1.00  0.00     0.029 A 
ATOM     43  C   UNL     1      -7.137   2.853   8.484  1.00  0.00     0.049 A 
ATOM     44  H   UNL     1      -6.309   1.604   9.933  1.00  0.00     0.167 HD
ATOM     45  C   UNL     1      -4.419  -1.015  12.907  1.00  0.00     0.034 A 
ATOM     46  C   UNL     1      -8.475   2.702   8.543  1.00  0.00     0.034 A 
ATOM     47  C   UNL     1      -5.840  -1.187  13.092  1.00  0.00     0.049 A 
ATOM     48  C   UNL     1      -9.059   1.744   9.550  1.00  0.00     0.074 A 
ATOM     49  C   UNL     1      -6.503  -1.960  14.031  1.00  0.00     0.029 A 
ATOM     50  N   UNL     1      -6.824  -0.587  12.313  1.00  0.00    -0.354 N 
ATOM     51  N   UNL     1      -8.442   0.991  10.432  1.00  0.00    -0.248 NA
ATOM     52  C   UNL     1     -10.521   1.623   9.573  1.00  0.00     0.031 C 
ATOM     53  C   UNL     1      -7.876  -1.888  13.771  1.00  0.00     0.029 A 
ATOM     54  C   UNL     1      -8.082  -0.999  12.729  1.00  0.00     0.049 A 
ATOM     55  H   UNL     1      -6.652   0.040  11.574  1.00  0.00     0.167 HD
ATOM     56  C   UNL     1      -9.446   0.338  11.142  1.00  0.00     0.074 A 
ATOM     57  C   UNL     1     -10.706   0.793  10.589  1.00  0.00     0.031 C 
ATOM     58  C   UNL     1      -9.335  -0.550  12.164  1.00  0.00     0.034 A 
BRANCH  45  59
ATOM     59  C   UNL     1      -3.459  -1.799  13.776  1.00  0.00     0.023 A 
ATOM     60  C   UNL     1      -2.507  -1.155  14.588  1.00  0.00     0.031 A 
ATOM     61  C   UNL     1      -3.449  -3.205  13.749  1.00  0.00     0.131 A 
ATOM     62  C   UNL     1      -1.522  -1.906  15.247  1.00  0.00     0.055 A 
ATOM     63  C   UNL     1      -2.529  -3.951  14.491  1.00  0.00     0.041 A 
ATOM     64  F   UNL     1      -4.317  -3.882  12.981  1.00  0.00    -0.206 F 
ATOM     65  C   UNL     1      -1.543  -3.301  15.227  1.00  0.00     0.022 A 
BRANCH  62  66
ATOM     66  S   UNL     1      -0.104  -1.028  15.963  1.00  0.00     0.124 S 
ATOM     67  O   UNL     1       0.409  -0.302  14.803  1.00  0.00    -0.237 OA
ATOM     68  O   UNL     1      -0.728  -0.214  17.000  1.00  0.00    -0.237 OA
ATOM     69  O   UNL     1       0.758  -2.104  16.445  1.00  0.00    -0.744 OA
ENDBRANCH  62  66
ENDBRANCH  45  59
BRANCH  46  70
ATOM     70  C   UNL     1      -9.361   3.480   7.630  1.00  0.00     0.023 A 
ATOM     71  C   UNL     1     -10.255   4.435   8.138  1.00  0.00     0.031 A 
ATOM     72  C   UNL     1      -9.347   3.263   6.240  1.00  0.00     0.131 A 
ATOM     73  C   UNL     1     -11.128   5.109   7.270  1.00  0.00     0.055 A 
ATOM     74  C   UNL     1     -10.179   3.975   5.375  1.00  0.00     0.041 A 
ATOM     75  F   UNL     1      -8.509   2.362   5.702  1.00  0.00    -0.206 F 
ATOM     76  C   UNL     1     -11.085   4.897   5.890  1.00  0.00     0.022 A 
BRANCH  73  77
ATOM     77  S   UNL     1     -12.375   6.218   7.981  1.00  0.00     0.124 S 
ATOM     78  O   UNL     1     -13.128   5.308   8.835  1.00  0.00    -0.237 OA
ATOM     79  O   UNL     1     -11.548   7.206   8.666  1.00  0.00    -0.237 OA
ATOM     80  O   UNL     1     -13.094   6.715   6.810  1.00  0.00    -0.744 OA
ENDBRANCH  73  77
ENDBRANCH  46  70
BRANCH  58  81
ATOM     81  C   UNL     1     -10.620  -1.043  12.789  1.00  0.00     0.023 A 
ATOM     82  C   UNL     1     -11.546  -1.825  12.076  1.00  0.00     0.031 A 
ATOM     83  C   UNL     1     -10.929  -0.706  14.120  1.00  0.00     0.131 A 
ATOM     84  C   UNL     1     -12.761  -2.192  12.676  1.00  0.00     0.055 A 
ATOM     85  C   UNL     1     -12.108  -1.133  14.734  1.00  0.00     0.041 A 
ATOM     86  F   UNL     1     -10.087   0.043  14.849  1.00  0.00    -0.206 F 
ATOM     87  C   UNL     1     -13.039  -1.868  14.007  1.00  0.00     0.022 A 
BRANCH  84  88
ATOM     88  S   UNL     1     -14.024  -3.009  11.661  1.00  0.00     0.124 S 
ATOM     89  O   UNL     1     -14.225  -2.039  10.589  1.00  0.00    -0.237 OA
ATOM     90  O   UNL     1     -13.363  -4.253  11.281  1.00  0.00    -0.237 OA
ATOM     91  O   UNL     1     -15.153  -3.163  12.577  1.00  0.00    -0.744 OA
ENDBRANCH  84  88
ENDBRANCH  58  81
ENDBRANCH  32  33
ENDBRANCH  24  27
ENDBRANCH  22  23
ENDBRANCH   1  22
TORSDOF 16
