REMARK SMILES Cc1nc2cc(C(=O)NCCCNC(=O)c3ccc(-c4c5nc(c(-c6cc(S(=O)(=O)[O-])ccc6F)c6ccc([nH]6)c(-c6cc(S(=O)(=O)[O-])ccc6F)c6nc(c(-c7cc(S(=O)(=O)[O-])ccc7F)c7ccc4[nH]7)C=C6)C=C5)cc3)ccc2n1CCC[NH+]1CCOCC1
REMARK SMILES IDX 10 1 9 2 7 3 8 4 6 6 1 7 2 8 3 9 82 10 4 11 81 12 5 13 80 14
REMARK SMILES IDX 79 15 83 16 84 17 85 18 86 19 87 20 91 21 88 23 90 24 89 25
REMARK SMILES IDX 11 26 12 27 13 28 14 29 15 31 16 32 17 33 78 34 18 35 77 36
REMARK SMILES IDX 19 37 20 38 21 39 71 40 22 41 76 42 70 43 72 44 23 45 75 46
REMARK SMILES IDX 69 47 68 48 24 50 56 51 36 52 55 53 37 54 40 55 54 56 73 57
REMARK SMILES IDX 38 58 39 59 53 61 74 62 41 63 25 64 26 65 34 66 27 67 33 68
REMARK SMILES IDX 35 69 32 70 28 71 29 72 30 73 31 74 57 75 58 76 66 77 59 78
REMARK SMILES IDX 65 79 67 80 64 81 60 82 61 83 62 84 63 85 42 86 43 87 51 88
REMARK SMILES IDX 44 89 50 90 52 91 49 92 45 93 46 94 47 95 48 96
REMARK H PARENT 9 5 86 22 13 30 72 49 40 60
REMARK Flexibility Score: inf
ROOT
ATOM      1  C   UNL     1      -1.046   8.274  -3.303  1.00  0.00     0.118 C 
ENDROOT
BRANCH   1   2
ATOM      2  N   UNL     1      -1.572   7.250  -4.183  1.00  0.00    -0.352 N 
ATOM      3  C   UNL     1      -1.515   5.885  -4.164  1.00  0.00     0.251 C 
ATOM      4  O   UNL     1      -2.079   5.295  -5.089  1.00  0.00    -0.269 OA
ATOM      5  H   UNL     1      -2.073   7.611  -4.950  1.00  0.00     0.163 HD
BRANCH   3   6
ATOM      6  C   UNL     1      -0.857   5.089  -3.090  1.00  0.00     0.042 A 
ATOM      7  C   UNL     1       0.661  -0.218  -1.183  1.00  0.00     0.088 C 
ATOM      8  C   UNL     1       0.169   1.173  -1.175  1.00  0.00     0.106 A 
ATOM      9  N   UNL     1      -0.841   1.565  -1.920  1.00  0.00    -0.233 NA
ATOM     10  N   UNL     1       0.779   2.252  -0.560  1.00  0.00    -0.328 N 
ATOM     11  C   UNL     1      -0.667   2.907  -2.068  1.00  0.00     0.090 A 
ATOM     12  C   UNL     1       0.357   3.375  -1.253  1.00  0.00     0.068 A 
ATOM     13  C   UNL     1      -1.311   3.768  -2.961  1.00  0.00     0.044 A 
ATOM     14  C   UNL     1       0.794   4.701  -1.311  1.00  0.00     0.029 A 
ATOM     15  C   UNL     1       0.205   5.525  -2.287  1.00  0.00     0.016 A 
BRANCH  10  16
ATOM     16  C   UNL     1       1.842   2.228   0.437  1.00  0.00     0.130 C 
BRANCH  16  17
ATOM     17  C   UNL     1       1.384   1.940   1.872  1.00  0.00     0.083 C 
BRANCH  17  18
ATOM     18  C   UNL     1       1.338   0.463   2.291  1.00  0.00     0.264 C 
BRANCH  18  19
ATOM     19  N   UNL     1       2.680  -0.144   2.370  1.00  0.00    -0.331 N 
ATOM     20  C   UNL     1       2.951  -1.148   1.317  1.00  0.00     0.291 C 
ATOM     21  C   UNL     1       2.893  -0.840   3.663  1.00  0.00     0.291 C 
ATOM     22  H   UNL     1       3.311   0.650   2.256  1.00  0.00     0.348 HD
ATOM     23  C   UNL     1       2.134  -2.445   1.460  1.00  0.00     0.221 C 
ATOM     24  C   UNL     1       2.084  -2.144   3.798  1.00  0.00     0.221 C 
ATOM     25  O   UNL     1       2.370  -3.061   2.732  1.00  0.00    -0.370 OA
ENDBRANCH  18  19
ENDBRANCH  17  18
ENDBRANCH  16  17
ENDBRANCH  10  16
ENDBRANCH   3   6
ENDBRANCH   1   2
BRANCH   1  26
ATOM     26  C   UNL     1       0.237   8.880  -3.878  1.00  0.00     0.042 C 
BRANCH  26  27
ATOM     27  C   UNL     1      -0.023   9.737  -5.120  1.00  0.00     0.118 C 
BRANCH  27  28
ATOM     28  N   UNL     1      -0.967  10.810  -4.880  1.00  0.00    -0.352 N 
ATOM     29  C   UNL     1      -0.912  12.048  -4.305  1.00  0.00     0.251 C 
ATOM     30  H   UNL     1      -1.868  10.595  -5.213  1.00  0.00     0.163 HD
ATOM     31  O   UNL     1      -1.988  12.652  -4.253  1.00  0.00    -0.269 OA
BRANCH  29  32
ATOM     32  C   UNL     1       0.299  12.682  -3.715  1.00  0.00     0.039 A 
ATOM     33  C   UNL     1       1.589  12.156  -3.737  1.00  0.00     0.014 A 
ATOM     34  C   UNL     1       0.092  13.920  -3.073  1.00  0.00     0.014 A 
ATOM     35  C   UNL     1       2.623  12.807  -3.067  1.00  0.00     0.010 A 
ATOM     36  C   UNL     1       1.127  14.587  -2.423  1.00  0.00     0.010 A 
ATOM     37  C   UNL     1       2.388  14.008  -2.385  1.00  0.00    -0.014 A 
BRANCH  37  38
ATOM     38  C   UNL     1       3.535  14.671  -1.764  1.00  0.00     0.031 A 
ATOM     39  C   UNL     1       4.616  15.020  -2.723  1.00  0.00     0.074 A 
ATOM     40  C   UNL     1       3.617  15.037  -0.467  1.00  0.00     0.049 A 
ATOM     41  N   UNL     1       5.782  14.473  -2.829  1.00  0.00    -0.248 NA
ATOM     42  C   UNL     1       4.306  15.982  -3.791  1.00  0.00     0.031 C 
ATOM     43  C   UNL     1       2.521  15.090   0.505  1.00  0.00     0.029 A 
ATOM     44  N   UNL     1       4.677  15.540   0.238  1.00  0.00    -0.354 N 
ATOM     45  C   UNL     1       6.445  15.195  -3.822  1.00  0.00     0.074 A 
ATOM     46  C   UNL     1       5.434  15.961  -4.503  1.00  0.00     0.031 C 
ATOM     47  C   UNL     1       2.910  15.817   1.576  1.00  0.00     0.029 A 
ATOM     48  C   UNL     1       4.325  16.124   1.447  1.00  0.00     0.049 A 
ATOM     49  H   UNL     1       5.606  15.491  -0.084  1.00  0.00     0.167 HD
ATOM     50  C   UNL     1       7.804  15.312  -3.812  1.00  0.00     0.034 A 
ATOM     51  C   UNL     1       5.116  16.852   2.272  1.00  0.00     0.034 A 
ATOM     52  C   UNL     1       8.394  14.396  -2.875  1.00  0.00     0.049 A 
ATOM     53  C   UNL     1       6.530  16.523   2.004  1.00  0.00     0.074 A 
ATOM     54  C   UNL     1       8.790  13.079  -2.856  1.00  0.00     0.029 A 
ATOM     55  N   UNL     1       8.335  14.826  -1.578  1.00  0.00    -0.354 N 
ATOM     56  N   UNL     1       7.067  15.367   2.274  1.00  0.00    -0.248 NA
ATOM     57  C   UNL     1       7.317  17.394   1.135  1.00  0.00     0.031 C 
ATOM     58  C   UNL     1       8.865  12.701  -1.482  1.00  0.00     0.029 A 
ATOM     59  C   UNL     1       8.550  13.804  -0.693  1.00  0.00     0.049 A 
ATOM     60  H   UNL     1       8.159  15.757  -1.312  1.00  0.00     0.167 HD
ATOM     61  C   UNL     1       7.989  15.193   1.265  1.00  0.00     0.074 A 
ATOM     62  C   UNL     1       8.245  16.524   0.732  1.00  0.00     0.031 C 
ATOM     63  C   UNL     1       8.194  13.969   0.703  1.00  0.00     0.034 A 
BRANCH  50  64
ATOM     64  C   UNL     1       8.565  16.538  -4.280  1.00  0.00     0.023 A 
ATOM     65  C   UNL     1       7.940  17.762  -4.582  1.00  0.00     0.031 A 
ATOM     66  C   UNL     1       9.974  16.580  -4.191  1.00  0.00     0.131 A 
ATOM     67  C   UNL     1       8.676  18.936  -4.797  1.00  0.00     0.055 A 
ATOM     68  C   UNL     1      10.706  17.767  -4.340  1.00  0.00     0.041 A 
ATOM     69  F   UNL     1      10.683  15.476  -3.907  1.00  0.00    -0.206 F 
ATOM     70  C   UNL     1      10.057  18.956  -4.644  1.00  0.00     0.022 A 
BRANCH  67  71
ATOM     71  S   UNL     1       7.831  20.471  -5.267  1.00  0.00     0.124 S 
ATOM     72  O   UNL     1       8.231  21.377  -4.198  1.00  0.00    -0.237 OA
ATOM     73  O   UNL     1       8.416  20.738  -6.578  1.00  0.00    -0.237 OA
ATOM     74  O   UNL     1       6.420  20.089  -5.287  1.00  0.00    -0.744 OA
ENDBRANCH  67  71
ENDBRANCH  50  64
BRANCH  51  75
ATOM     75  C   UNL     1       4.746  18.100   2.978  1.00  0.00     0.023 A 
ATOM     76  C   UNL     1       3.814  18.968   2.383  1.00  0.00     0.031 A 
ATOM     77  C   UNL     1       5.536  18.610   4.024  1.00  0.00     0.131 A 
ATOM     78  C   UNL     1       3.745  20.309   2.776  1.00  0.00     0.055 A 
ATOM     79  C   UNL     1       5.449  19.947   4.431  1.00  0.00     0.041 A 
ATOM     80  F   UNL     1       6.464  17.842   4.614  1.00  0.00    -0.206 F 
ATOM     81  C   UNL     1       4.563  20.809   3.791  1.00  0.00     0.022 A 
BRANCH  78  82
ATOM     82  S   UNL     1       2.666  21.465   1.890  1.00  0.00     0.124 S 
ATOM     83  O   UNL     1       1.967  22.133   2.984  1.00  0.00    -0.237 OA
ATOM     84  O   UNL     1       3.634  22.280   1.169  1.00  0.00    -0.237 OA
ATOM     85  O   UNL     1       1.830  20.588   1.069  1.00  0.00    -0.744 OA
ENDBRANCH  78  82
ENDBRANCH  51  75
BRANCH  63  86
ATOM     86  C   UNL     1       7.883  12.742   1.510  1.00  0.00     0.023 A 
ATOM     87  C   UNL     1       8.929  11.821   1.678  1.00  0.00     0.031 A 
ATOM     88  C   UNL     1       6.614  12.391   2.003  1.00  0.00     0.131 A 
ATOM     89  C   UNL     1       8.693  10.581   2.276  1.00  0.00     0.055 A 
ATOM     90  C   UNL     1       6.397  11.179   2.668  1.00  0.00     0.041 A 
ATOM     91  F   UNL     1       5.543  13.172   1.805  1.00  0.00    -0.206 F 
ATOM     92  C   UNL     1       7.436  10.260   2.792  1.00  0.00     0.022 A 
BRANCH  89  93
ATOM     93  S   UNL     1       9.980   9.310   2.262  1.00  0.00     0.124 S 
ATOM     94  O   UNL     1      10.280   9.157   3.683  1.00  0.00    -0.237 OA
ATOM     95  O   UNL     1       9.291   8.180   1.641  1.00  0.00    -0.237 OA
ATOM     96  O   UNL     1      11.047   9.897   1.456  1.00  0.00    -0.744 OA
ENDBRANCH  89  93
ENDBRANCH  63  86
ENDBRANCH  37  38
ENDBRANCH  29  32
ENDBRANCH  27  28
ENDBRANCH  26  27
ENDBRANCH   1  26
TORSDOF 17
