REMARK SMILES NS(=O)(=O)c1ccc(-n2nc(C(=O)NCCCCCCCCCCC(=O)NCCCNC(=O)c3ccc(-c4c5nc(c(-c6cc(S(=O)(=O)[O-])ccc6F)c6ccc([nH]6)c(-c6cc(S(=O)(=O)[O-])ccc6F)c6nc(c(-c7cc(S(=O)(=O)[O-])ccc7F)c7ccc4[nH]7)C=C6)C=C5)cc3)cc2-c2ccccc2)cc1
REMARK SMILES IDX 21 1 20 2 19 3 18 4 17 5 16 6 15 7 14 8 12 9 13 10 11 12
REMARK SMILES IDX 9 13 10 14 98 15 97 16 8 17 5 18 6 19 106 20 7 21 105 22
REMARK SMILES IDX 2 23 3 24 4 25 1 26 99 29 100 30 104 31 101 32 103 33 102 34
REMARK SMILES IDX 22 35 23 36 24 37 25 38 26 39 27 40 28 42 29 43 30 44 31 45
REMARK SMILES IDX 32 46 33 48 34 49 35 50 96 51 36 52 95 53 37 54 38 55 39 56
REMARK SMILES IDX 89 57 40 58 94 59 88 60 90 61 41 62 93 63 87 64 86 65 42 67
REMARK SMILES IDX 74 68 54 69 73 70 55 71 58 72 72 73 91 74 56 75 57 76 71 78
REMARK SMILES IDX 92 79 59 80 43 81 44 82 52 83 45 84 51 85 53 86 50 87 46 88
REMARK SMILES IDX 47 89 48 90 49 91 75 92 76 93 84 94 77 95 83 96 85 97 82 98
REMARK SMILES IDX 78 99 79 100 80 101 81 102 60 103 61 104 69 105 62 106
REMARK SMILES IDX 68 107 70 108 67 109 63 110 64 111 65 112 66 113
REMARK H PARENT 14 11 1 27 1 28 27 41 31 47 90 66 58 77
REMARK Flexibility Score: inf
ROOT
ATOM      1  C   UNL     1       1.385  12.270 -11.167  1.00  0.00     0.000 C 
ENDROOT
BRANCH   1   2
ATOM      2  C   UNL     1       1.408  10.840 -10.652  1.00  0.00     0.000 C 
BRANCH   2   3
ATOM      3  C   UNL     1       2.691  10.502  -9.893  1.00  0.00     0.000 C 
BRANCH   3   4
ATOM      4  C   UNL     1       2.939  11.386  -8.662  1.00  0.00     0.000 C 
BRANCH   4   5
ATOM      5  C   UNL     1       1.872  11.253  -7.566  1.00  0.00     0.002 C 
BRANCH   5   6
ATOM      6  C   UNL     1       1.533   9.802  -7.215  1.00  0.00     0.021 C 
BRANCH   6   7
ATOM      7  C   UNL     1       2.782   9.005  -6.849  1.00  0.00     0.116 C 
BRANCH   7   8
ATOM      8  N   UNL     1       2.962   8.969  -5.422  1.00  0.00    -0.351 N 
ATOM      9  C   UNL     1       2.685   8.017  -4.476  1.00  0.00     0.271 C 
ATOM     10  O   UNL     1       2.893   8.354  -3.307  1.00  0.00    -0.267 OA
ATOM     11  H   UNL     1       3.362   9.789  -5.053  1.00  0.00     0.163 HD
BRANCH   9  12
ATOM     12  C   UNL     1       2.219   6.660  -4.834  1.00  0.00     0.151 A 
ATOM     13  N   UNL     1       1.795   4.579  -4.482  1.00  0.00    -0.232 N 
ATOM     14  N   UNL     1       2.007   5.756  -3.858  1.00  0.00    -0.162 NA
ATOM     15  C   UNL     1       1.745   4.713  -5.854  1.00  0.00     0.075 A 
ATOM     16  C   UNL     1       1.915   6.062  -6.078  1.00  0.00     0.065 A 
BRANCH  13  17
ATOM     17  C   UNL     1       1.584   3.411  -3.723  1.00  0.00     0.065 A 
ATOM     18  C   UNL     1       0.924   1.092  -2.376  1.00  0.00     0.082 A 
ATOM     19  C   UNL     1       1.833   1.033  -3.437  1.00  0.00     0.024 A 
ATOM     20  C   UNL     1       0.372   2.309  -1.958  1.00  0.00     0.024 A 
ATOM     21  C   UNL     1       2.155   2.198  -4.125  1.00  0.00     0.030 A 
ATOM     22  C   UNL     1       0.732   3.482  -2.614  1.00  0.00     0.030 A 
BRANCH  18  23
ATOM     23  S   UNL     1       0.422  -0.394  -1.569  1.00  0.00     0.238 S 
ATOM     24  O   UNL     1       1.113  -1.522  -2.169  1.00  0.00    -0.207 OA
ATOM     25  O   UNL     1      -1.002  -0.370  -1.387  1.00  0.00    -0.207 OA
BRANCH  23  26
ATOM     26  N   UNL     1       1.107  -0.209  -0.051  1.00  0.00    -0.225 NA
ATOM     27  H   UNL     1       0.884  -1.021   0.524  1.00  0.00     0.137 HD
ATOM     28  H   UNL     1       0.735   0.633   0.390  1.00  0.00     0.137 HD
ENDBRANCH  23  26
ENDBRANCH  18  23
ENDBRANCH  13  17
BRANCH  15  29
ATOM     29  C   UNL     1       1.401   3.705  -6.850  1.00  0.00     0.000 A 
ATOM     30  C   UNL     1       0.167   3.049  -6.813  1.00  0.00     0.010 A 
ATOM     31  C   UNL     1       2.271   3.474  -7.924  1.00  0.00     0.010 A 
ATOM     32  C   UNL     1      -0.192   2.173  -7.839  1.00  0.00     0.001 A 
ATOM     33  C   UNL     1       1.910   2.600  -8.949  1.00  0.00     0.001 A 
ATOM     34  C   UNL     1       0.676   1.953  -8.907  1.00  0.00     0.000 A 
ENDBRANCH  15  29
ENDBRANCH   9  12
ENDBRANCH   7   8
ENDBRANCH   6   7
ENDBRANCH   5   6
ENDBRANCH   4   5
ENDBRANCH   3   4
ENDBRANCH   2   3
ENDBRANCH   1   2
BRANCH   1  35
ATOM     35  C   UNL     1       2.468  12.536 -12.219  1.00  0.00     0.001 C 
BRANCH  35  36
ATOM     36  C   UNL     1       1.910  12.849 -13.597  1.00  0.00     0.010 C 
BRANCH  36  37
ATOM     37  C   UNL     1       0.984  14.063 -13.655  1.00  0.00     0.100 C 
BRANCH  37  38
ATOM     38  C   UNL     1       1.722  15.386 -13.620  1.00  0.00     0.219 C 
ATOM     39  O   UNL     1       2.116  15.896 -14.670  1.00  0.00    -0.275 OA
ATOM     40  N   UNL     1       1.969  16.042 -12.450  1.00  0.00    -0.356 N 
ATOM     41  H   UNL     1       2.502  16.863 -12.554  1.00  0.00     0.163 HD
BRANCH  40  42
ATOM     42  C   UNL     1       1.586  15.749 -11.073  1.00  0.00     0.117 C 
BRANCH  42  43
ATOM     43  C   UNL     1       2.777  15.367 -10.175  1.00  0.00     0.042 C 
BRANCH  43  44
ATOM     44  C   UNL     1       3.555  16.547  -9.638  1.00  0.00     0.118 C 
BRANCH  44  45
ATOM     45  N   UNL     1       2.950  17.159  -8.452  1.00  0.00    -0.352 N 
ATOM     46  C   UNL     1       3.448  18.241  -7.736  1.00  0.00     0.251 C 
ATOM     47  H   UNL     1       2.107  16.765  -8.131  1.00  0.00     0.163 HD
ATOM     48  O   UNL     1       3.129  18.419  -6.567  1.00  0.00    -0.269 OA
BRANCH  46  49
ATOM     49  C   UNL     1       4.384  19.147  -8.427  1.00  0.00     0.039 A 
ATOM     50  C   UNL     1       5.538  19.650  -7.825  1.00  0.00     0.014 A 
ATOM     51  C   UNL     1       4.126  19.383  -9.771  1.00  0.00     0.014 A 
ATOM     52  C   UNL     1       6.475  20.303  -8.628  1.00  0.00     0.010 A 
ATOM     53  C   UNL     1       5.149  19.779 -10.583  1.00  0.00     0.010 A 
ATOM     54  C   UNL     1       6.287  20.333 -10.021  1.00  0.00    -0.014 A 
BRANCH  54  55
ATOM     55  C   UNL     1       7.294  20.857 -10.938  1.00  0.00     0.031 A 
ATOM     56  C   UNL     1       8.663  20.332 -10.724  1.00  0.00     0.074 A 
ATOM     57  C   UNL     1       6.987  21.596 -12.030  1.00  0.00     0.049 A 
ATOM     58  N   UNL     1       9.654  20.959 -10.188  1.00  0.00    -0.248 NA
ATOM     59  C   UNL     1       8.929  18.905 -10.963  1.00  0.00     0.031 C 
ATOM     60  C   UNL     1       5.662  21.970 -12.541  1.00  0.00     0.029 A 
ATOM     61  N   UNL     1       7.815  22.080 -12.994  1.00  0.00    -0.354 N 
ATOM     62  C   UNL     1      10.743  20.103 -10.278  1.00  0.00     0.074 A 
ATOM     63  C   UNL     1      10.188  18.800 -10.529  1.00  0.00     0.031 C 
ATOM     64  C   UNL     1       5.765  22.384 -13.822  1.00  0.00     0.029 A 
ATOM     65  C   UNL     1       7.172  22.487 -14.161  1.00  0.00     0.049 A 
ATOM     66  H   UNL     1       8.791  22.137 -12.878  1.00  0.00     0.167 HD
ATOM     67  C   UNL     1      12.008  20.598 -10.399  1.00  0.00     0.034 A 
ATOM     68  C   UNL     1       7.747  22.873 -15.332  1.00  0.00     0.034 A 
ATOM     69  C   UNL     1      12.028  22.021 -10.114  1.00  0.00     0.049 A 
ATOM     70  C   UNL     1       9.116  23.337 -14.988  1.00  0.00     0.074 A 
ATOM     71  C   UNL     1      11.636  22.794  -9.036  1.00  0.00     0.029 A 
ATOM     72  N   UNL     1      12.105  22.896 -11.179  1.00  0.00    -0.354 N 
ATOM     73  N   UNL     1       9.340  24.385 -14.240  1.00  0.00    -0.248 NA
ATOM     74  C   UNL     1      10.200  22.366 -15.020  1.00  0.00     0.031 C 
ATOM     75  C   UNL     1      10.992  23.928  -9.618  1.00  0.00     0.029 A 
ATOM     76  C   UNL     1      11.125  23.845 -11.006  1.00  0.00     0.049 A 
ATOM     77  H   UNL     1      12.745  22.849 -11.926  1.00  0.00     0.167 HD
ATOM     78  C   UNL     1      10.342  23.993 -13.365  1.00  0.00     0.074 A 
ATOM     79  C   UNL     1      10.909  22.784 -13.965  1.00  0.00     0.031 C 
ATOM     80  C   UNL     1      10.421  24.501 -12.096  1.00  0.00     0.034 A 
BRANCH  67  81
ATOM     81  C   UNL     1      13.151  19.922 -11.126  1.00  0.00     0.023 A 
ATOM     82  C   UNL     1      14.384  20.604 -11.142  1.00  0.00     0.031 A 
ATOM     83  C   UNL     1      13.044  18.832 -12.018  1.00  0.00     0.131 A 
ATOM     84  C   UNL     1      15.376  20.286 -12.084  1.00  0.00     0.055 A 
ATOM     85  C   UNL     1      14.064  18.474 -12.905  1.00  0.00     0.041 A 
ATOM     86  F   UNL     1      11.928  18.110 -12.155  1.00  0.00    -0.206 F 
ATOM     87  C   UNL     1      15.224  19.225 -12.970  1.00  0.00     0.022 A 
BRANCH  84  88
ATOM     88  S   UNL     1      16.780  21.415 -12.256  1.00  0.00     0.124 S 
ATOM     89  O   UNL     1      16.104  22.691 -12.467  1.00  0.00    -0.237 OA
ATOM     90  O   UNL     1      17.457  21.247 -10.974  1.00  0.00    -0.237 OA
ATOM     91  O   UNL     1      17.498  20.888 -13.414  1.00  0.00    -0.744 OA
ENDBRANCH  84  88
ENDBRANCH  67  81
BRANCH  68  92
ATOM     92  C   UNL     1       7.270  22.579 -16.714  1.00  0.00     0.023 A 
ATOM     93  C   UNL     1       7.737  23.265 -17.857  1.00  0.00     0.031 A 
ATOM     94  C   UNL     1       6.493  21.421 -16.951  1.00  0.00     0.131 A 
ATOM     95  C   UNL     1       7.428  22.786 -19.155  1.00  0.00     0.055 A 
ATOM     96  C   UNL     1       6.187  20.956 -18.232  1.00  0.00     0.041 A 
ATOM     97  F   UNL     1       6.073  20.645 -15.939  1.00  0.00    -0.206 F 
ATOM     98  C   UNL     1       6.664  21.631 -19.342  1.00  0.00     0.022 A 
BRANCH  95  99
ATOM     99  S   UNL     1       8.105  23.604 -20.639  1.00  0.00     0.124 S 
ATOM    100  O   UNL     1       7.353  24.852 -20.677  1.00  0.00    -0.237 OA
ATOM    101  O   UNL     1       9.524  23.710 -20.321  1.00  0.00    -0.237 OA
ATOM    102  O   UNL     1       7.792  22.667 -21.719  1.00  0.00    -0.744 OA
ENDBRANCH  95  99
ENDBRANCH  68  92
BRANCH  80 103
ATOM    103  C   UNL     1       9.559  25.703 -11.738  1.00  0.00     0.023 A 
ATOM    104  C   UNL     1       8.154  25.772 -11.898  1.00  0.00     0.031 A 
ATOM    105  C   UNL     1      10.187  26.788 -11.100  1.00  0.00     0.131 A 
ATOM    106  C   UNL     1       7.441  26.902 -11.447  1.00  0.00     0.055 A 
ATOM    107  C   UNL     1       9.476  27.893 -10.631  1.00  0.00     0.041 A 
ATOM    108  F   UNL     1      11.514  26.780 -10.889  1.00  0.00    -0.206 F 
ATOM    109  C   UNL     1       8.100  27.959 -10.812  1.00  0.00     0.022 A 
BRANCH 106 110
ATOM    110  S   UNL     1       5.642  27.038 -11.710  1.00  0.00     0.124 S 
ATOM    111  O   UNL     1       5.465  26.630 -13.099  1.00  0.00    -0.237 OA
ATOM    112  O   UNL     1       5.105  26.127 -10.703  1.00  0.00    -0.237 OA
ATOM    113  O   UNL     1       5.368  28.454 -11.454  1.00  0.00    -0.744 OA
ENDBRANCH 106 110
ENDBRANCH  80 103
ENDBRANCH  54  55
ENDBRANCH  46  49
ENDBRANCH  44  45
ENDBRANCH  43  44
ENDBRANCH  42  43
ENDBRANCH  40  42
ENDBRANCH  37  38
ENDBRANCH  36  37
ENDBRANCH  35  36
ENDBRANCH   1  35
TORSDOF 28
