REMARK SMILES Cc1coc2cc3c(cc12)[C@@H](C)[C@H](CCC(=O)N[C@@H](Cc1c[nH]c2ccccc12)C(=O)NCCCNC(=O)c1ccc(-c2c4nc(c(-c5cc(S(=O)(=O)[O-])ccc5F)c5ccc([nH]5)c(-c5cc(S(=O)(=O)[O-])ccc5F)c5nc(c(-c6cc(S(=O)(=O)[O-])ccc6F)c6ccc2[nH]6)C=C5)C=C4)cc1)C(=O)O3
REMARK SMILES IDX 33 1 32 2 30 3 31 4 19 6 18 7 16 8 17 9 15 11 14 12 13 13
REMARK SMILES IDX 1 14 2 15 3 16 10 17 4 18 5 19 9 20 6 21 8 22 7 23 11 24
REMARK SMILES IDX 104 25 12 26 102 27 103 28 20 29 21 30 22 31 29 32 23 33
REMARK SMILES IDX 24 34 28 35 25 37 27 38 26 39 34 40 35 41 36 42 37 43 38 45
REMARK SMILES IDX 39 46 40 47 101 48 41 49 100 50 42 51 43 52 44 53 94 54
REMARK SMILES IDX 45 55 99 56 93 57 95 58 46 59 98 60 92 61 91 62 47 64 79 65
REMARK SMILES IDX 59 66 78 67 60 68 63 69 77 70 96 71 61 72 62 73 76 75 97 76
REMARK SMILES IDX 64 77 48 78 49 79 57 80 50 81 56 82 58 83 55 84 51 85 52 86
REMARK SMILES IDX 53 87 54 88 80 89 81 90 89 91 82 92 88 93 90 94 87 95 83 96
REMARK SMILES IDX 84 97 85 98 86 99 65 100 66 101 74 102 67 103 73 104 75 105
REMARK SMILES IDX 72 106 68 107 69 108 70 109 71 110
REMARK H PARENT 32 5 18 10 23 36 36 44 95 63 63 74
REMARK Flexibility Score: inf
ROOT
ATOM      1  C   UNL     1      -1.631   6.564   5.697  1.00  0.00     0.117 C 
ENDROOT
BRANCH   1   2
ATOM      2  N   UNL     1      -2.871   6.444   6.442  1.00  0.00    -0.354 N 
ATOM      3  C   UNL     1      -3.782   5.435   6.501  1.00  0.00     0.242 C 
ATOM      4  O   UNL     1      -4.569   5.456   7.455  1.00  0.00    -0.273 OA
ATOM      5  H   UNL     1      -3.090   7.225   6.999  1.00  0.00     0.163 HD
BRANCH   3   6
ATOM      6  C   UNL     1      -3.766   4.235   5.537  1.00  0.00     0.175 C 
BRANCH   6   7
ATOM      7  N   UNL     1      -3.830   4.657   4.102  1.00  0.00    -0.344 N 
ATOM      8  C   UNL     1      -4.660   4.401   3.035  1.00  0.00     0.220 C 
ATOM      9  O   UNL     1      -4.470   5.091   2.026  1.00  0.00    -0.275 OA
ATOM     10  H   UNL     1      -3.097   5.269   3.863  1.00  0.00     0.164 HD
BRANCH   8  11
ATOM     11  C   UNL     1      -5.776   3.321   2.978  1.00  0.00     0.101 C 
BRANCH  11  12
ATOM     12  C   UNL     1      -5.486   1.989   2.138  1.00  0.00     0.026 C 
BRANCH  12  13
ATOM     13  C   UNL     1      -4.897   0.773   2.947  1.00  0.00     0.107 C 
ATOM     14  C   UNL     1       1.361  -0.244  -0.464  1.00  0.00     0.048 C 
ATOM     15  C   UNL     1       0.662   0.987  -0.034  1.00  0.00    -0.005 A 
ATOM     16  C   UNL     1       1.102   2.287  -0.198  1.00  0.00     0.199 A 
ATOM     17  C   UNL     1      -0.576   1.078   0.671  1.00  0.00     0.024 A 
ATOM     18  O   UNL     1       0.285   3.156   0.447  1.00  0.00    -0.464 OA
ATOM     19  C   UNL     1      -0.704   2.421   1.012  1.00  0.00     0.137 A 
ATOM     20  C   UNL     1      -1.571   0.167   1.099  1.00  0.00     0.020 A 
ATOM     21  C   UNL     1      -1.658   2.915   1.884  1.00  0.00     0.095 A 
ATOM     22  C   UNL     1      -2.583   0.638   1.939  1.00  0.00    -0.001 A 
ATOM     23  C   UNL     1      -2.488   1.936   2.418  1.00  0.00     0.138 A 
ATOM     24  C   UNL     1      -3.739  -0.177   2.465  1.00  0.00     0.034 C 
ATOM     25  O   UNL     1      -3.167   2.206   3.626  1.00  0.00    -0.426 OA
ATOM     26  C   UNL     1      -3.188  -1.026   3.650  1.00  0.00     0.014 C 
ATOM     27  C   UNL     1      -4.255   1.438   4.085  1.00  0.00     0.314 C 
ATOM     28  O   UNL     1      -4.704   1.409   5.211  1.00  0.00    -0.251 OA
ENDBRANCH  12  13
ENDBRANCH  11  12
ENDBRANCH   8  11
ENDBRANCH   6   7
BRANCH   6  29
ATOM     29  C   UNL     1      -2.688   3.222   6.086  1.00  0.00     0.072 C 
BRANCH  29  30
ATOM     30  C   UNL     1      -1.221   3.522   6.126  1.00  0.00    -0.020 A 
ATOM     31  C   UNL     1      -0.265   3.417   5.132  1.00  0.00     0.087 A 
ATOM     32  C   UNL     1      -0.513   3.853   7.323  1.00  0.00     0.003 A 
ATOM     33  N   UNL     1       0.954   3.781   5.651  1.00  0.00    -0.361 N 
ATOM     34  C   UNL     1       0.819   4.083   6.985  1.00  0.00     0.046 A 
ATOM     35  C   UNL     1      -0.926   4.040   8.655  1.00  0.00     0.010 A 
ATOM     36  H   UNL     1       1.796   3.819   5.144  1.00  0.00     0.166 HD
ATOM     37  C   UNL     1       1.751   4.564   7.907  1.00  0.00     0.026 A 
ATOM     38  C   UNL     1      -0.013   4.522   9.588  1.00  0.00     0.001 A 
ATOM     39  C   UNL     1       1.300   4.795   9.211  1.00  0.00     0.002 A 
ENDBRANCH  29  30
ENDBRANCH   6  29
ENDBRANCH   3   6
ENDBRANCH   1   2
BRANCH   1  40
ATOM     40  C   UNL     1      -1.236   8.000   5.414  1.00  0.00     0.042 C 
BRANCH  40  41
ATOM     41  C   UNL     1      -0.988   8.828   6.680  1.00  0.00     0.118 C 
BRANCH  41  42
ATOM     42  N   UNL     1      -0.149   8.204   7.691  1.00  0.00    -0.352 N 
ATOM     43  C   UNL     1       1.179   8.295   8.016  1.00  0.00     0.251 C 
ATOM     44  H   UNL     1      -0.644   7.580   8.269  1.00  0.00     0.163 HD
ATOM     45  O   UNL     1       1.494   7.946   9.157  1.00  0.00    -0.269 OA
BRANCH  43  46
ATOM     46  C   UNL     1       2.251   8.707   7.073  1.00  0.00     0.039 A 
ATOM     47  C   UNL     1       2.033   9.120   5.763  1.00  0.00     0.014 A 
ATOM     48  C   UNL     1       3.579   8.588   7.528  1.00  0.00     0.014 A 
ATOM     49  C   UNL     1       3.100   9.329   4.904  1.00  0.00     0.010 A 
ATOM     50  C   UNL     1       4.657   8.836   6.682  1.00  0.00     0.010 A 
ATOM     51  C   UNL     1       4.413   9.178   5.358  1.00  0.00    -0.014 A 
BRANCH  51  52
ATOM     52  C   UNL     1       5.465   9.537   4.414  1.00  0.00     0.031 A 
ATOM     53  C   UNL     1       5.370  10.927   3.879  1.00  0.00     0.074 A 
ATOM     54  C   UNL     1       6.499   8.752   4.065  1.00  0.00     0.049 A 
ATOM     55  N   UNL     1       5.109  11.304   2.669  1.00  0.00    -0.248 NA
ATOM     56  C   UNL     1       5.433  12.025   4.852  1.00  0.00     0.031 C 
ATOM     57  C   UNL     1       6.955   7.505   4.677  1.00  0.00     0.029 A 
ATOM     58  N   UNL     1       7.429   8.986   3.100  1.00  0.00    -0.354 N 
ATOM     59  C   UNL     1       5.129  12.699   2.684  1.00  0.00     0.074 A 
ATOM     60  C   UNL     1       5.196  13.081   4.073  1.00  0.00     0.031 C 
ATOM     61  C   UNL     1       8.197   7.219   4.219  1.00  0.00     0.029 A 
ATOM     62  C   UNL     1       8.544   8.171   3.176  1.00  0.00     0.049 A 
ATOM     63  H   UNL     1       7.319   9.677   2.407  1.00  0.00     0.167 HD
ATOM     64  C   UNL     1       5.245  13.443   1.545  1.00  0.00     0.034 A 
ATOM     65  C   UNL     1       9.700   8.327   2.487  1.00  0.00     0.034 A 
ATOM     66  C   UNL     1       4.969  12.659   0.372  1.00  0.00     0.049 A 
ATOM     67  C   UNL     1       9.431   9.178   1.301  1.00  0.00     0.074 A 
ATOM     68  C   UNL     1       3.859  12.004  -0.121  1.00  0.00     0.029 A 
ATOM     69  N   UNL     1       6.034  12.172  -0.346  1.00  0.00    -0.354 N 
ATOM     70  N   UNL     1       8.730   8.797   0.271  1.00  0.00    -0.248 NA
ATOM     71  C   UNL     1       9.591  10.617   1.448  1.00  0.00     0.031 C 
ATOM     72  C   UNL     1       4.369  10.830  -0.747  1.00  0.00     0.029 A 
ATOM     73  C   UNL     1       5.761  10.859  -0.634  1.00  0.00     0.049 A 
ATOM     74  H   UNL     1       6.842  12.671  -0.606  1.00  0.00     0.167 HD
ATOM     75  C   UNL     1       7.991   9.917  -0.082  1.00  0.00     0.074 A 
ATOM     76  C   UNL     1       8.646  11.031   0.601  1.00  0.00     0.031 C 
ATOM     77  C   UNL     1       6.759   9.808  -0.665  1.00  0.00     0.034 A 
BRANCH  64  78
ATOM     78  C   UNL     1       5.888  14.809   1.482  1.00  0.00     0.023 A 
ATOM     79  C   UNL     1       6.633  15.349   2.546  1.00  0.00     0.031 A 
ATOM     80  C   UNL     1       5.962  15.517   0.264  1.00  0.00     0.131 A 
ATOM     81  C   UNL     1       7.389  16.520   2.401  1.00  0.00     0.055 A 
ATOM     82  C   UNL     1       6.769  16.651   0.098  1.00  0.00     0.041 A 
ATOM     83  F   UNL     1       5.298  15.096  -0.825  1.00  0.00    -0.206 F 
ATOM     84  C   UNL     1       7.490  17.159   1.171  1.00  0.00     0.022 A 
BRANCH  81  85
ATOM     85  S   UNL     1       8.270  17.219   3.824  1.00  0.00     0.124 S 
ATOM     86  O   UNL     1       9.660  17.116   3.395  1.00  0.00    -0.237 OA
ATOM     87  O   UNL     1       7.721  18.572   3.877  1.00  0.00    -0.237 OA
ATOM     88  O   UNL     1       7.875  16.350   4.929  1.00  0.00    -0.744 OA
ENDBRANCH  81  85
ENDBRANCH  64  78
BRANCH  65  89
ATOM     89  C   UNL     1      11.058   8.191   3.057  1.00  0.00     0.023 A 
ATOM     90  C   UNL     1      11.266   8.456   4.424  1.00  0.00     0.031 A 
ATOM     91  C   UNL     1      12.192   8.106   2.233  1.00  0.00     0.131 A 
ATOM     92  C   UNL     1      12.556   8.672   4.920  1.00  0.00     0.055 A 
ATOM     93  C   UNL     1      13.483   8.308   2.733  1.00  0.00     0.041 A 
ATOM     94  F   UNL     1      12.060   7.893   0.915  1.00  0.00    -0.206 F 
ATOM     95  C   UNL     1      13.669   8.606   4.081  1.00  0.00     0.022 A 
BRANCH  92  96
ATOM     96  S   UNL     1      12.800   9.125   6.659  1.00  0.00     0.124 S 
ATOM     97  O   UNL     1      13.898   8.245   7.055  1.00  0.00    -0.237 OA
ATOM     98  O   UNL     1      13.135  10.540   6.553  1.00  0.00    -0.237 OA
ATOM     99  O   UNL     1      11.513   8.819   7.275  1.00  0.00    -0.744 OA
ENDBRANCH  92  96
ENDBRANCH  65  89
BRANCH  77 100
ATOM    100  C   UNL     1       6.286   8.444  -1.129  1.00  0.00     0.023 A 
ATOM    101  C   UNL     1       5.707   8.347  -2.408  1.00  0.00     0.031 A 
ATOM    102  C   UNL     1       6.202   7.309  -0.298  1.00  0.00     0.131 A 
ATOM    103  C   UNL     1       5.062   7.169  -2.809  1.00  0.00     0.055 A 
ATOM    104  C   UNL     1       5.617   6.113  -0.726  1.00  0.00     0.041 A 
ATOM    105  F   UNL     1       6.602   7.343   0.979  1.00  0.00    -0.206 F 
ATOM    106  C   UNL     1       5.030   6.043  -1.983  1.00  0.00     0.022 A 
BRANCH 103 107
ATOM    107  S   UNL     1       4.117   7.115  -4.353  1.00  0.00     0.124 S 
ATOM    108  O   UNL     1       4.884   6.161  -5.149  1.00  0.00    -0.237 OA
ATOM    109  O   UNL     1       2.810   6.643  -3.902  1.00  0.00    -0.237 OA
ATOM    110  O   UNL     1       4.143   8.494  -4.832  1.00  0.00    -0.744 OA
ENDBRANCH 103 107
ENDBRANCH  77 100
ENDBRANCH  51  52
ENDBRANCH  43  46
ENDBRANCH  41  42
ENDBRANCH  40  41
ENDBRANCH   1  40
TORSDOF 19
