REMARK SMILES COCCn1cc(NC(=O)N[C@H]2C=C[C@H](C(=O)NCCCNC(=O)c3ccc(-c4c5nc(c(-c6cc(S(=O)(=O)[O-])ccc6F)c6ccc([nH]6)c(-c6cc(S(=O)(=O)[O-])ccc6F)c6nc(c(-c7cc(S(=O)(=O)[O-])ccc7F)c7ccc4[nH]7)C=C6)C=C5)cc3)C2)cn1
REMARK SMILES IDX 19 1 18 2 16 3 17 4 15 6 12 7 13 8 88 9 14 10 11 11 8 12
REMARK SMILES IDX 9 13 10 15 7 17 5 18 6 19 90 20 89 21 4 22 3 23 2 24 1 25
REMARK SMILES IDX 20 26 21 27 22 28 23 29 24 31 25 32 26 33 87 34 27 35 86 36
REMARK SMILES IDX 28 37 29 38 30 39 80 40 31 41 85 42 79 43 81 44 32 45 84 46
REMARK SMILES IDX 78 47 77 48 33 50 65 51 45 52 64 53 46 54 49 55 63 56 82 57
REMARK SMILES IDX 47 58 48 59 62 61 83 62 50 63 34 64 35 65 43 66 36 67 42 68
REMARK SMILES IDX 44 69 41 70 37 71 38 72 39 73 40 74 66 75 67 76 75 77 68 78
REMARK SMILES IDX 74 79 76 80 73 81 69 82 70 83 71 84 72 85 51 86 52 87 60 88
REMARK SMILES IDX 53 89 59 90 61 91 58 92 54 93 55 94 56 95 57 96
REMARK H PARENT 18 5 8 14 11 16 22 30 81 49 49 60
REMARK Flexibility Score: inf
ROOT
ATOM      1  C   UNL     1      -2.812  -2.454   1.017  1.00  0.00     0.117 C 
ENDROOT
BRANCH   1   2
ATOM      2  N   UNL     1      -2.072  -1.248   1.337  1.00  0.00    -0.356 N 
ATOM      3  C   UNL     1      -1.709  -0.737   2.542  1.00  0.00     0.227 C 
ATOM      4  O   UNL     1      -1.432   0.467   2.580  1.00  0.00    -0.274 OA
ATOM      5  H   UNL     1      -1.789  -0.716   0.558  1.00  0.00     0.163 HD
BRANCH   3   6
ATOM      6  C   UNL     1      -1.554  -1.582   3.825  1.00  0.00     0.103 C 
ATOM      7  C   UNL     1       0.493  -2.823   3.438  1.00  0.00     0.107 C 
ATOM      8  C   UNL     1      -0.684  -3.748   3.591  1.00  0.00    -0.006 C 
ATOM      9  C   UNL     1      -0.059  -1.596   4.175  1.00  0.00     0.047 C 
ATOM     10  C   UNL     1      -1.812  -3.056   3.814  1.00  0.00    -0.016 C 
BRANCH   7  11
ATOM     11  N   UNL     1       1.667  -3.450   4.008  1.00  0.00    -0.332 N 
ATOM     12  N   UNL     1       3.114  -1.615   4.350  1.00  0.00    -0.305 N 
ATOM     13  C   UNL     1       2.827  -2.933   4.479  1.00  0.00     0.319 C 
ATOM     14  H   UNL     1       3.522  -1.181   5.133  1.00  0.00     0.171 HD
ATOM     15  O   UNL     1       3.557  -3.664   5.151  1.00  0.00    -0.248 OA
ATOM     16  H   UNL     1       1.613  -4.431   4.062  1.00  0.00     0.165 HD
BRANCH  12  17
ATOM     17  C   UNL     1       2.900  -0.814   3.252  1.00  0.00     0.081 A 
ATOM     18  N   UNL     1       2.265   0.902   2.055  1.00  0.00    -0.268 N 
ATOM     19  C   UNL     1       2.729   0.550   3.302  1.00  0.00     0.135 A 
ATOM     20  N   UNL     1       2.437  -0.082   1.152  1.00  0.00    -0.179 NA
ATOM     21  C   UNL     1       2.770  -1.140   1.891  1.00  0.00     0.161 A 
BRANCH  18  22
ATOM     22  C   UNL     1       1.493   2.098   1.755  1.00  0.00     0.172 C 
BRANCH  22  23
ATOM     23  C   UNL     1       1.398   2.519   0.289  1.00  0.00     0.183 C 
BRANCH  23  24
ATOM     24  O   UNL     1       0.321   1.914  -0.433  1.00  0.00    -0.383 OA
ATOM     25  C   UNL     1       0.662   0.691  -1.069  1.00  0.00     0.194 C 
ENDBRANCH  23  24
ENDBRANCH  22  23
ENDBRANCH  18  22
ENDBRANCH  12  17
ENDBRANCH   7  11
ENDBRANCH   3   6
ENDBRANCH   1   2
BRANCH   1  26
ATOM     26  C   UNL     1      -4.278  -2.318   1.436  1.00  0.00     0.042 C 
BRANCH  26  27
ATOM     27  C   UNL     1      -5.075  -1.591   0.365  1.00  0.00     0.118 C 
BRANCH  27  28
ATOM     28  N   UNL     1      -5.310  -2.454  -0.791  1.00  0.00    -0.352 N 
ATOM     29  C   UNL     1      -6.002  -2.172  -1.951  1.00  0.00     0.251 C 
ATOM     30  H   UNL     1      -4.923  -3.357  -0.734  1.00  0.00     0.163 HD
ATOM     31  O   UNL     1      -6.399  -3.079  -2.660  1.00  0.00    -0.269 OA
BRANCH  29  32
ATOM     32  C   UNL     1      -6.267  -0.762  -2.293  1.00  0.00     0.039 A 
ATOM     33  C   UNL     1      -7.515  -0.385  -2.792  1.00  0.00     0.014 A 
ATOM     34  C   UNL     1      -5.266   0.184  -2.084  1.00  0.00     0.014 A 
ATOM     35  C   UNL     1      -7.776   0.968  -2.996  1.00  0.00     0.010 A 
ATOM     36  C   UNL     1      -5.566   1.524  -2.165  1.00  0.00     0.010 A 
ATOM     37  C   UNL     1      -6.806   1.925  -2.654  1.00  0.00    -0.014 A 
BRANCH  37  38
ATOM     38  C   UNL     1      -7.143   3.348  -2.672  1.00  0.00     0.031 A 
ATOM     39  C   UNL     1      -8.377   3.707  -1.923  1.00  0.00     0.074 A 
ATOM     40  C   UNL     1      -6.316   4.314  -3.125  1.00  0.00     0.049 A 
ATOM     41  N   UNL     1      -9.487   4.153  -2.409  1.00  0.00    -0.248 NA
ATOM     42  C   UNL     1      -8.441   3.406  -0.484  1.00  0.00     0.031 C 
ATOM     43  C   UNL     1      -4.947   4.171  -3.626  1.00  0.00     0.029 A 
ATOM     44  N   UNL     1      -6.487   5.666  -3.105  1.00  0.00    -0.354 N 
ATOM     45  C   UNL     1     -10.305   4.426  -1.317  1.00  0.00     0.074 A 
ATOM     46  C   UNL     1      -9.697   3.759  -0.198  1.00  0.00     0.031 C 
ATOM     47  C   UNL     1      -4.335   5.374  -3.616  1.00  0.00     0.029 A 
ATOM     48  C   UNL     1      -5.311   6.392  -3.268  1.00  0.00     0.049 A 
ATOM     49  H   UNL     1      -7.367   6.092  -2.986  1.00  0.00     0.167 HD
ATOM     50  C   UNL     1     -11.278   5.378  -1.389  1.00  0.00     0.034 A 
ATOM     51  C   UNL     1      -5.134   7.728  -3.092  1.00  0.00     0.034 A 
ATOM     52  C   UNL     1     -11.560   5.730  -2.766  1.00  0.00     0.049 A 
ATOM     53  C   UNL     1      -6.467   8.359  -3.270  1.00  0.00     0.074 A 
ATOM     54  C   UNL     1     -11.910   5.005  -3.892  1.00  0.00     0.029 A 
ATOM     55  N   UNL     1     -11.097   6.937  -3.245  1.00  0.00    -0.354 N 
ATOM     56  N   UNL     1      -7.118   8.342  -4.402  1.00  0.00    -0.248 NA
ATOM     57  C   UNL     1      -7.292   8.572  -2.090  1.00  0.00     0.031 C 
ATOM     58  C   UNL     1     -11.136   5.576  -4.945  1.00  0.00     0.029 A 
ATOM     59  C   UNL     1     -10.446   6.675  -4.427  1.00  0.00     0.049 A 
ATOM     60  H   UNL     1     -11.211   7.818  -2.822  1.00  0.00     0.167 HD
ATOM     61  C   UNL     1      -8.434   8.079  -4.054  1.00  0.00     0.074 A 
ATOM     62  C   UNL     1      -8.500   8.344  -2.617  1.00  0.00     0.031 C 
ATOM     63  C   UNL     1      -9.274   7.397  -4.890  1.00  0.00     0.034 A 
BRANCH  50  64
ATOM     64  C   UNL     1     -11.720   6.256  -0.236  1.00  0.00     0.023 A 
ATOM     65  C   UNL     1     -12.741   7.191  -0.494  1.00  0.00     0.031 A 
ATOM     66  C   UNL     1     -11.022   6.435   0.980  1.00  0.00     0.131 A 
ATOM     67  C   UNL     1     -12.945   8.294   0.353  1.00  0.00     0.055 A 
ATOM     68  C   UNL     1     -11.281   7.492   1.858  1.00  0.00     0.041 A 
ATOM     69  F   UNL     1      -9.992   5.666   1.347  1.00  0.00    -0.206 F 
ATOM     70  C   UNL     1     -12.222   8.451   1.530  1.00  0.00     0.022 A 
BRANCH  67  71
ATOM     71  S   UNL     1     -14.033   9.624  -0.222  1.00  0.00     0.124 S 
ATOM     72  O   UNL     1     -13.455   9.928  -1.527  1.00  0.00    -0.237 OA
ATOM     73  O   UNL     1     -15.334   8.963  -0.231  1.00  0.00    -0.237 OA
ATOM     74  O   UNL     1     -13.866  10.661   0.793  1.00  0.00    -0.744 OA
ENDBRANCH  67  71
ENDBRANCH  50  64
BRANCH  51  75
ATOM     75  C   UNL     1      -3.941   8.412  -2.517  1.00  0.00     0.023 A 
ATOM     76  C   UNL     1      -3.720   9.800  -2.641  1.00  0.00     0.031 A 
ATOM     77  C   UNL     1      -3.095   7.719  -1.619  1.00  0.00     0.131 A 
ATOM     78  C   UNL     1      -2.694  10.430  -1.894  1.00  0.00     0.055 A 
ATOM     79  C   UNL     1      -2.078   8.343  -0.894  1.00  0.00     0.041 A 
ATOM     80  F   UNL     1      -3.282   6.418  -1.345  1.00  0.00    -0.206 F 
ATOM     81  C   UNL     1      -1.879   9.706  -1.021  1.00  0.00     0.022 A 
BRANCH  78  82
ATOM     82  S   UNL     1      -2.473  12.238  -1.963  1.00  0.00     0.124 S 
ATOM     83  O   UNL     1      -1.886  12.429  -3.284  1.00  0.00    -0.237 OA
ATOM     84  O   UNL     1      -3.834  12.730  -1.779  1.00  0.00    -0.237 OA
ATOM     85  O   UNL     1      -1.571  12.513  -0.843  1.00  0.00    -0.744 OA
ENDBRANCH  78  82
ENDBRANCH  51  75
BRANCH  63  86
ATOM     86  C   UNL     1      -8.862   7.175  -6.335  1.00  0.00     0.023 A 
ATOM     87  C   UNL     1      -7.652   6.571  -6.752  1.00  0.00     0.031 A 
ATOM     88  C   UNL     1      -9.811   7.474  -7.331  1.00  0.00     0.131 A 
ATOM     89  C   UNL     1      -7.429   6.303  -8.119  1.00  0.00     0.055 A 
ATOM     90  C   UNL     1      -9.598   7.184  -8.678  1.00  0.00     0.041 A 
ATOM     91  F   UNL     1     -10.992   8.025  -7.003  1.00  0.00    -0.206 F 
ATOM     92  C   UNL     1      -8.402   6.602  -9.078  1.00  0.00     0.022 A 
BRANCH  89  93
ATOM     93  S   UNL     1      -5.856   5.574  -8.683  1.00  0.00     0.124 S 
ATOM     94  O   UNL     1      -4.845   6.355  -7.981  1.00  0.00    -0.237 OA
ATOM     95  O   UNL     1      -5.988   4.179  -8.273  1.00  0.00    -0.237 OA
ATOM     96  O   UNL     1      -5.887   5.784 -10.133  1.00  0.00    -0.744 OA
ENDBRANCH  89  93
ENDBRANCH  63  86
ENDBRANCH  37  38
ENDBRANCH  29  32
ENDBRANCH  27  28
ENDBRANCH  26  27
ENDBRANCH   1  26
TORSDOF 18
