REMARK SMILES CCC[C@]1(C(=O)NCCCNC(=O)c2ccc(-c3c4nc(c(-c5cc(S(=O)(=O)[O-])ccc5F)c5ccc([nH]5)c(-c5cc(S(=O)(=O)[O-])ccc5F)c5nc(c(-c6cc(S(=O)(=O)[O-])ccc6F)c6ccc3[nH]6)C=C5)C=C4)cc2)CCN(C(=O)N[C@H]2CCOC2)C1
REMARK SMILES IDX 9 1 8 2 7 3 5 4 6 5 4 7 77 8 88 9 78 10 79 11 3 12 2 13 1 14
REMARK SMILES IDX 80 15 81 16 82 17 83 19 84 20 87 21 85 22 86 23 10 24 11 25
REMARK SMILES IDX 12 26 13 28 14 29 15 30 76 31 16 32 75 33 17 34 18 35 19 36
REMARK SMILES IDX 69 37 20 38 74 39 68 40 70 41 21 42 73 43 67 44 66 45 22 47
REMARK SMILES IDX 54 48 34 49 53 50 35 51 38 52 52 53 71 54 36 55 37 56 51 58
REMARK SMILES IDX 72 59 39 60 23 61 24 62 32 63 25 64 31 65 33 66 30 67 26 68
REMARK SMILES IDX 27 69 28 70 29 71 55 72 56 73 64 74 57 75 63 76 65 77 62 78
REMARK SMILES IDX 58 79 59 80 60 81 61 82 40 83 41 84 49 85 42 86 48 87 50 88
REMARK SMILES IDX 47 89 43 90 44 91 45 92 46 93
REMARK H PARENT 7 6 82 18 11 27 70 46 38 57
REMARK Flexibility Score: inf
ROOT
ATOM      1  C   UNL     1       6.661   5.329  -0.852  1.00  0.00     0.042 C 
ENDROOT
BRANCH   1   2
ATOM      2  C   UNL     1       5.442   5.024  -1.713  1.00  0.00     0.117 C 
BRANCH   2   3
ATOM      3  N   UNL     1       5.442   3.667  -2.228  1.00  0.00    -0.355 N 
ATOM      4  C   UNL     1       4.644   2.592  -2.028  1.00  0.00     0.228 C 
ATOM      5  O   UNL     1       4.840   1.659  -2.814  1.00  0.00    -0.274 OA
ATOM      6  H   UNL     1       6.180   3.491  -2.856  1.00  0.00     0.163 HD
BRANCH   4   7
ATOM      7  C   UNL     1       3.528   2.524  -0.971  1.00  0.00     0.068 C 
ATOM      8  C   UNL     1       3.902   2.921   0.480  1.00  0.00     0.040 C 
ATOM      9  C   UNL     1       2.452   3.594  -1.345  1.00  0.00     0.138 C 
ATOM     10  C   UNL     1       2.638   3.603   0.977  1.00  0.00     0.122 C 
ATOM     11  N   UNL     1       2.289   4.421  -0.145  1.00  0.00    -0.324 N 
BRANCH   7  12
ATOM     12  C   UNL     1       2.886   1.095  -0.946  1.00  0.00     0.018 C 
BRANCH  12  13
ATOM     13  C   UNL     1       3.796  -0.150  -0.847  1.00  0.00    -0.002 C 
ATOM     14  C   UNL     1       5.014  -0.081   0.061  1.00  0.00     0.004 C 
ENDBRANCH  12  13
ENDBRANCH   7  12
BRANCH  11  15
ATOM     15  C   UNL     1       1.874   5.698  -0.251  1.00  0.00     0.317 C 
ATOM     16  O   UNL     1       1.381   6.102  -1.311  1.00  0.00    -0.249 OA
ATOM     17  N   UNL     1       1.967   6.633   0.700  1.00  0.00    -0.333 N 
ATOM     18  H   UNL     1       1.394   7.387   0.432  1.00  0.00     0.165 HD
BRANCH  17  19
ATOM     19  C   UNL     1       2.587   6.982   1.989  1.00  0.00     0.112 C 
ATOM     20  C   UNL     1       3.551   6.073   2.707  1.00  0.00     0.056 C 
ATOM     21  C   UNL     1       3.446   8.250   1.861  1.00  0.00     0.185 C 
ATOM     22  C   UNL     1       4.333   7.006   3.604  1.00  0.00     0.162 C 
ATOM     23  O   UNL     1       4.373   8.273   2.952  1.00  0.00    -0.379 OA
ENDBRANCH  17  19
ENDBRANCH  11  15
ENDBRANCH   4   7
ENDBRANCH   2   3
ENDBRANCH   1   2
BRANCH   1  24
ATOM     24  C   UNL     1       7.999   5.014  -1.511  1.00  0.00     0.118 C 
BRANCH  24  25
ATOM     25  N   UNL     1       8.217   5.759  -2.742  1.00  0.00    -0.352 N 
ATOM     26  C   UNL     1       9.164   6.709  -3.044  1.00  0.00     0.251 C 
ATOM     27  H   UNL     1       7.589   5.551  -3.471  1.00  0.00     0.163 HD
ATOM     28  O   UNL     1       9.062   7.352  -4.083  1.00  0.00    -0.269 OA
BRANCH  26  29
ATOM     29  C   UNL     1      10.280   6.973  -2.110  1.00  0.00     0.039 A 
ATOM     30  C   UNL     1      10.635   8.298  -1.840  1.00  0.00     0.014 A 
ATOM     31  C   UNL     1      10.980   5.926  -1.506  1.00  0.00     0.014 A 
ATOM     32  C   UNL     1      11.639   8.570  -0.907  1.00  0.00     0.010 A 
ATOM     33  C   UNL     1      11.921   6.200  -0.517  1.00  0.00     0.010 A 
ATOM     34  C   UNL     1      12.261   7.525  -0.205  1.00  0.00    -0.014 A 
BRANCH  34  35
ATOM     35  C   UNL     1      13.269   7.794   0.856  1.00  0.00     0.031 A 
ATOM     36  C   UNL     1      14.679   7.291   0.699  1.00  0.00     0.074 A 
ATOM     37  C   UNL     1      12.894   8.421   1.990  1.00  0.00     0.049 A 
ATOM     38  N   UNL     1      15.669   7.324   1.553  1.00  0.00    -0.248 NA
ATOM     39  C   UNL     1      15.009   6.636  -0.576  1.00  0.00     0.031 C 
ATOM     40  C   UNL     1      11.547   8.923   2.273  1.00  0.00     0.029 A 
ATOM     41  N   UNL     1      13.604   8.731   3.124  1.00  0.00    -0.354 N 
ATOM     42  C   UNL     1      16.732   6.678   0.929  1.00  0.00     0.074 A 
ATOM     43  C   UNL     1      16.247   6.219  -0.355  1.00  0.00     0.031 C 
ATOM     44  C   UNL     1      11.533   9.488   3.490  1.00  0.00     0.029 A 
ATOM     45  C   UNL     1      12.850   9.343   4.101  1.00  0.00     0.049 A 
ATOM     46  H   UNL     1      14.563   8.535   3.229  1.00  0.00     0.167 HD
ATOM     47  C   UNL     1      17.997   6.499   1.381  1.00  0.00     0.034 A 
ATOM     48  C   UNL     1      13.174   9.720   5.355  1.00  0.00     0.034 A 
ATOM     49  C   UNL     1      18.468   6.984   2.656  1.00  0.00     0.049 A 
ATOM     50  C   UNL     1      14.584   9.491   5.841  1.00  0.00     0.074 A 
ATOM     51  C   UNL     1      19.748   6.922   3.179  1.00  0.00     0.029 A 
ATOM     52  N   UNL     1      17.678   7.608   3.614  1.00  0.00    -0.354 N 
ATOM     53  N   UNL     1      15.593   8.931   5.213  1.00  0.00    -0.248 NA
ATOM     54  C   UNL     1      14.904   9.952   7.199  1.00  0.00     0.031 C 
ATOM     55  C   UNL     1      19.715   7.432   4.480  1.00  0.00     0.029 A 
ATOM     56  C   UNL     1      18.436   7.898   4.738  1.00  0.00     0.049 A 
ATOM     57  H   UNL     1      16.722   7.814   3.509  1.00  0.00     0.167 HD
ATOM     58  C   UNL     1      16.674   9.006   6.089  1.00  0.00     0.074 A 
ATOM     59  C   UNL     1      16.197   9.677   7.280  1.00  0.00     0.031 C 
ATOM     60  C   UNL     1      17.946   8.565   5.922  1.00  0.00     0.034 A 
BRANCH  47  61
ATOM     61  C   UNL     1      18.954   5.722   0.509  1.00  0.00     0.023 A 
ATOM     62  C   UNL     1      19.347   6.183  -0.760  1.00  0.00     0.031 A 
ATOM     63  C   UNL     1      19.486   4.500   0.957  1.00  0.00     0.131 A 
ATOM     64  C   UNL     1      20.194   5.399  -1.559  1.00  0.00     0.055 A 
ATOM     65  C   UNL     1      20.391   3.764   0.191  1.00  0.00     0.041 A 
ATOM     66  F   UNL     1      19.131   3.997   2.150  1.00  0.00    -0.206 F 
ATOM     67  C   UNL     1      20.741   4.206  -1.081  1.00  0.00     0.022 A 
BRANCH  64  68
ATOM     68  S   UNL     1      20.470   5.899  -3.280  1.00  0.00     0.124 S 
ATOM     69  O   UNL     1      19.109   5.894  -3.810  1.00  0.00    -0.237 OA
ATOM     70  O   UNL     1      21.094   7.209  -3.133  1.00  0.00    -0.237 OA
ATOM     71  O   UNL     1      21.339   4.849  -3.807  1.00  0.00    -0.744 OA
ENDBRANCH  64  68
ENDBRANCH  47  61
BRANCH  48  72
ATOM     72  C   UNL     1      12.147  10.322   6.257  1.00  0.00     0.023 A 
ATOM     73  C   UNL     1      12.292  11.626   6.756  1.00  0.00     0.031 A 
ATOM     74  C   UNL     1      11.032   9.576   6.683  1.00  0.00     0.131 A 
ATOM     75  C   UNL     1      11.374  12.123   7.696  1.00  0.00     0.055 A 
ATOM     76  C   UNL     1      10.086  10.099   7.567  1.00  0.00     0.041 A 
ATOM     77  F   UNL     1      10.842   8.323   6.239  1.00  0.00    -0.206 F 
ATOM     78  C   UNL     1      10.264  11.374   8.092  1.00  0.00     0.022 A 
BRANCH  75  79
ATOM     79  S   UNL     1      11.716  13.722   8.482  1.00  0.00     0.124 S 
ATOM     80  O   UNL     1      13.041  13.495   9.049  1.00  0.00    -0.237 OA
ATOM     81  O   UNL     1      11.652  14.636   7.348  1.00  0.00    -0.237 OA
ATOM     82  O   UNL     1      10.635  13.860   9.456  1.00  0.00    -0.744 OA
ENDBRANCH  75  79
ENDBRANCH  48  72
BRANCH  60  83
ATOM     83  C   UNL     1      18.927   8.845   7.035  1.00  0.00     0.023 A 
ATOM     84  C   UNL     1      18.806   8.248   8.302  1.00  0.00     0.031 A 
ATOM     85  C   UNL     1      20.005   9.723   6.819  1.00  0.00     0.131 A 
ATOM     86  C   UNL     1      19.716   8.575   9.318  1.00  0.00     0.055 A 
ATOM     87  C   UNL     1      20.945   9.994   7.814  1.00  0.00     0.041 A 
ATOM     88  F   UNL     1      20.168  10.324   5.629  1.00  0.00    -0.206 F 
ATOM     89  C   UNL     1      20.796   9.428   9.076  1.00  0.00     0.022 A 
BRANCH  86  90
ATOM     90  S   UNL     1      19.421   7.939  10.991  1.00  0.00     0.124 S 
ATOM     91  O   UNL     1      18.101   8.481  11.293  1.00  0.00    -0.237 OA
ATOM     92  O   UNL     1      19.487   6.495  10.793  1.00  0.00    -0.237 OA
ATOM     93  O   UNL     1      20.518   8.507  11.773  1.00  0.00    -0.744 OA
ENDBRANCH  86  90
ENDBRANCH  60  83
ENDBRANCH  34  35
ENDBRANCH  26  29
ENDBRANCH  24  25
ENDBRANCH   1  24
TORSDOF 17
