REMARK SMILES COc1ccsc1CN(Cc1ccccc1)C(=O)/C=C/C(=O)NCCCNC(=O)c1ccc(-c2c3nc(c(-c4cc(S(=O)(=O)[O-])ccc4F)c4ccc([nH]4)c(-c4cc(S(=O)(=O)[O-])ccc4F)c4nc(c(-c5cc(S(=O)(=O)[O-])ccc5F)c5ccc2[nH]5)C=C4)C=C3)cc1
REMARK SMILES IDX 24 1 23 2 21 3 22 4 20 6 19 7 17 8 18 9 9 10 8 11 7 12 3 13
REMARK SMILES IDX 4 14 5 15 6 16 2 17 1 18 10 19 11 20 12 21 16 22 13 23 15 24
REMARK SMILES IDX 14 25 25 26 26 27 27 28 28 29 29 31 30 32 31 33 92 34 32 35
REMARK SMILES IDX 91 36 33 37 34 38 35 39 85 40 36 41 90 42 84 43 86 44 37 45
REMARK SMILES IDX 89 46 83 47 82 48 38 50 70 51 50 52 69 53 51 54 54 55 68 56
REMARK SMILES IDX 87 57 52 58 53 59 67 61 88 62 55 63 39 64 40 65 48 66 41 67
REMARK SMILES IDX 47 68 49 69 46 70 42 71 43 72 44 73 45 74 71 75 72 76 80 77
REMARK SMILES IDX 73 78 79 79 81 80 78 81 74 82 75 83 76 84 77 85 56 86 57 87
REMARK SMILES IDX 65 88 58 89 64 90 66 91 63 92 59 93 60 94 61 95 62 96
REMARK H PARENT 23 5 27 30 86 49 54 60
REMARK Flexibility Score: inf
ROOT
ATOM      1  C   UNL     1      -4.099   5.333  -3.048  1.00  0.00     0.118 C 
ENDROOT
BRANCH   1   2
ATOM      2  N   UNL     1      -4.639   4.844  -4.308  1.00  0.00    -0.352 N 
ATOM      3  C   UNL     1      -4.066   3.995  -5.204  1.00  0.00     0.244 C 
ATOM      4  O   UNL     1      -4.499   3.918  -6.351  1.00  0.00    -0.270 OA
ATOM      5  H   UNL     1      -5.538   5.170  -4.543  1.00  0.00     0.163 HD
BRANCH   3   6
ATOM      6  C   UNL     1      -2.966   3.108  -4.781  1.00  0.00     0.077 C 
ATOM      7  C   UNL     1      -3.119   2.418  -3.645  1.00  0.00     0.077 C 
BRANCH   7   8
ATOM      8  C   UNL     1      -2.234   1.331  -3.230  1.00  0.00     0.247 C 
ATOM      9  O   UNL     1      -1.452   1.566  -2.314  1.00  0.00    -0.270 OA
BRANCH   8  10
ATOM     10  N   UNL     1      -2.441   0.094  -3.826  1.00  0.00    -0.330 N 
BRANCH  10  11
ATOM     11  C   UNL     1      -1.617  -1.021  -3.346  1.00  0.00     0.170 C 
BRANCH  11  12
ATOM     12  C   UNL     1      -0.141  -0.724  -3.440  1.00  0.00     0.066 A 
ATOM     13  C   UNL     1       0.779  -0.664  -2.409  1.00  0.00     0.134 A 
ATOM     14  C   UNL     1       2.067  -0.242  -2.846  1.00  0.00     0.058 A 
ATOM     15  C   UNL     1       2.097  -0.007  -4.202  1.00  0.00     0.069 A 
ATOM     16  S   UNL     1       0.592  -0.342  -4.946  1.00  0.00    -0.143 S 
BRANCH  13  17
ATOM     17  O   UNL     1       0.413  -1.000  -1.146  1.00  0.00    -0.496 OA
ATOM     18  C   UNL     1       0.927  -0.109  -0.159  1.00  0.00     0.278 C 
ENDBRANCH  13  17
ENDBRANCH  11  12
ENDBRANCH  10  11
BRANCH  10  19
ATOM     19  C   UNL     1      -3.515  -0.203  -4.798  1.00  0.00     0.155 C 
BRANCH  19  20
ATOM     20  C   UNL     1      -4.923  -0.194  -4.219  1.00  0.00    -0.029 A 
ATOM     21  C   UNL     1      -5.742   0.943  -4.339  1.00  0.00     0.005 A 
ATOM     22  C   UNL     1      -5.455  -1.305  -3.558  1.00  0.00     0.005 A 
ATOM     23  C   UNL     1      -6.987   1.027  -3.716  1.00  0.00     0.000 A 
ATOM     24  C   UNL     1      -6.737  -1.251  -2.993  1.00  0.00     0.000 A 
ATOM     25  C   UNL     1      -7.488  -0.076  -3.042  1.00  0.00     0.000 A 
ENDBRANCH  19  20
ENDBRANCH  10  19
ENDBRANCH   8  10
ENDBRANCH   7   8
ENDBRANCH   3   6
ENDBRANCH   1   2
BRANCH   1  26
ATOM     26  C   UNL     1      -3.057   6.409  -3.293  1.00  0.00     0.042 C 
BRANCH  26  27
ATOM     27  C   UNL     1      -3.692   7.681  -3.827  1.00  0.00     0.118 C 
BRANCH  27  28
ATOM     28  N   UNL     1      -4.511   8.329  -2.807  1.00  0.00    -0.352 N 
ATOM     29  C   UNL     1      -4.273   9.503  -2.140  1.00  0.00     0.251 C 
ATOM     30  H   UNL     1      -5.343   7.862  -2.567  1.00  0.00     0.163 HD
ATOM     31  O   UNL     1      -4.881   9.753  -1.100  1.00  0.00    -0.269 OA
BRANCH  29  32
ATOM     32  C   UNL     1      -3.279  10.447  -2.684  1.00  0.00     0.039 A 
ATOM     33  C   UNL     1      -2.379  11.078  -1.825  1.00  0.00     0.014 A 
ATOM     34  C   UNL     1      -3.235  10.687  -4.060  1.00  0.00     0.014 A 
ATOM     35  C   UNL     1      -1.393  11.910  -2.360  1.00  0.00     0.010 A 
ATOM     36  C   UNL     1      -2.192  11.426  -4.596  1.00  0.00     0.010 A 
ATOM     37  C   UNL     1      -1.273  12.063  -3.751  1.00  0.00    -0.014 A 
BRANCH  37  38
ATOM     38  C   UNL     1      -0.231  12.926  -4.360  1.00  0.00     0.031 A 
ATOM     39  C   UNL     1      -0.652  14.108  -5.191  1.00  0.00     0.074 A 
ATOM     40  C   UNL     1       1.071  12.605  -4.232  1.00  0.00     0.049 A 
ATOM     41  N   UNL     1       0.076  14.906  -5.927  1.00  0.00    -0.248 NA
ATOM     42  C   UNL     1      -2.094  14.405  -5.230  1.00  0.00     0.031 C 
ATOM     43  C   UNL     1       1.592  11.467  -3.471  1.00  0.00     0.029 A 
ATOM     44  N   UNL     1       2.194  13.199  -4.750  1.00  0.00    -0.354 N 
ATOM     45  C   UNL     1      -0.819  15.786  -6.527  1.00  0.00     0.074 A 
ATOM     46  C   UNL     1      -2.147  15.373  -6.130  1.00  0.00     0.031 C 
ATOM     47  C   UNL     1       2.933  11.464  -3.549  1.00  0.00     0.029 A 
ATOM     48  C   UNL     1       3.365  12.559  -4.411  1.00  0.00     0.049 A 
ATOM     49  H   UNL     1       2.165  14.007  -5.311  1.00  0.00     0.167 HD
ATOM     50  C   UNL     1      -0.554  16.859  -7.312  1.00  0.00     0.034 A 
ATOM     51  C   UNL     1       4.637  12.819  -4.772  1.00  0.00     0.034 A 
ATOM     52  C   UNL     1       0.779  17.260  -7.683  1.00  0.00     0.049 A 
ATOM     53  C   UNL     1       4.904  13.990  -5.688  1.00  0.00     0.074 A 
ATOM     54  C   UNL     1       1.171  18.346  -8.444  1.00  0.00     0.029 A 
ATOM     55  N   UNL     1       1.940  16.588  -7.320  1.00  0.00    -0.354 N 
ATOM     56  N   UNL     1       4.050  14.832  -6.225  1.00  0.00    -0.248 NA
ATOM     57  C   UNL     1       6.306  14.252  -6.039  1.00  0.00     0.031 C 
ATOM     58  C   UNL     1       2.559  18.290  -8.602  1.00  0.00     0.029 A 
ATOM     59  C   UNL     1       3.045  17.222  -7.864  1.00  0.00     0.049 A 
ATOM     60  H   UNL     1       1.972  15.779  -6.759  1.00  0.00     0.167 HD
ATOM     61  C   UNL     1       4.818  15.750  -6.936  1.00  0.00     0.074 A 
ATOM     62  C   UNL     1       6.201  15.360  -6.757  1.00  0.00     0.031 C 
ATOM     63  C   UNL     1       4.418  16.823  -7.664  1.00  0.00     0.034 A 
BRANCH  50  64
ATOM     64  C   UNL     1      -1.732  17.650  -7.828  1.00  0.00     0.023 A 
ATOM     65  C   UNL     1      -2.623  18.300  -6.956  1.00  0.00     0.031 A 
ATOM     66  C   UNL     1      -1.987  17.734  -9.208  1.00  0.00     0.131 A 
ATOM     67  C   UNL     1      -3.767  18.933  -7.464  1.00  0.00     0.055 A 
ATOM     68  C   UNL     1      -3.079  18.444  -9.713  1.00  0.00     0.041 A 
ATOM     69  F   UNL     1      -1.188  17.115 -10.091  1.00  0.00    -0.206 F 
ATOM     70  C   UNL     1      -3.986  19.035  -8.839  1.00  0.00     0.022 A 
BRANCH  67  71
ATOM     71  S   UNL     1      -5.040  19.485  -6.296  1.00  0.00     0.124 S 
ATOM     72  O   UNL     1      -5.391  18.233  -5.630  1.00  0.00    -0.237 OA
ATOM     73  O   UNL     1      -4.322  20.460  -5.484  1.00  0.00    -0.237 OA
ATOM     74  O   UNL     1      -6.081  20.037  -7.160  1.00  0.00    -0.744 OA
ENDBRANCH  67  71
ENDBRANCH  50  64
BRANCH  51  75
ATOM     75  C   UNL     1       5.758  11.965  -4.282  1.00  0.00     0.023 A 
ATOM     76  C   UNL     1       6.778  12.505  -3.484  1.00  0.00     0.031 A 
ATOM     77  C   UNL     1       5.860  10.611  -4.650  1.00  0.00     0.131 A 
ATOM     78  C   UNL     1       7.885  11.718  -3.131  1.00  0.00     0.055 A 
ATOM     79  C   UNL     1       6.931   9.813  -4.242  1.00  0.00     0.041 A 
ATOM     80  F   UNL     1       4.912  10.040  -5.411  1.00  0.00    -0.206 F 
ATOM     81  C   UNL     1       7.961  10.371  -3.492  1.00  0.00     0.022 A 
BRANCH  78  82
ATOM     82  S   UNL     1       9.281  12.514  -2.290  1.00  0.00     0.124 S 
ATOM     83  O   UNL     1       9.627  13.573  -3.231  1.00  0.00    -0.237 OA
ATOM     84  O   UNL     1       8.673  12.943  -1.035  1.00  0.00    -0.237 OA
ATOM     85  O   UNL     1      10.263  11.438  -2.171  1.00  0.00    -0.744 OA
ENDBRANCH  78  82
ENDBRANCH  51  75
BRANCH  63  86
ATOM     86  C   UNL     1       5.495  17.699  -8.257  1.00  0.00     0.023 A 
ATOM     87  C   UNL     1       6.344  17.250  -9.282  1.00  0.00     0.031 A 
ATOM     88  C   UNL     1       5.656  19.017  -7.792  1.00  0.00     0.131 A 
ATOM     89  C   UNL     1       7.347  18.097  -9.777  1.00  0.00     0.055 A 
ATOM     90  C   UNL     1       6.613  19.876  -8.332  1.00  0.00     0.041 A 
ATOM     91  F   UNL     1       4.873  19.497  -6.811  1.00  0.00    -0.206 F 
ATOM     92  C   UNL     1       7.473  19.413  -9.323  1.00  0.00     0.022 A 
BRANCH  89  93
ATOM     93  S   UNL     1       8.541  17.432 -10.969  1.00  0.00     0.124 S 
ATOM     94  O   UNL     1       9.136  16.330 -10.221  1.00  0.00    -0.237 OA
ATOM     95  O   UNL     1       7.686  17.053 -12.090  1.00  0.00    -0.237 OA
ATOM     96  O   UNL     1       9.434  18.561 -11.227  1.00  0.00    -0.744 OA
ENDBRANCH  89  93
ENDBRANCH  63  86
ENDBRANCH  37  38
ENDBRANCH  29  32
ENDBRANCH  27  28
ENDBRANCH  26  27
ENDBRANCH   1  26
TORSDOF 20
