REMARK SMILES CN(C)S(=O)(=O)c1ccc(-n2c(CCC(=O)NCCCNC(=O)c3ccc(-c4c5nc(c(-c6cc(S(=O)(=O)[O-])ccc6F)c6ccc([nH]6)c(-c6cc(S(=O)(=O)[O-])ccc6F)c6nc(c(-c7cc(S(=O)(=O)[O-])ccc7F)c7ccc4[nH]7)C=C6)C=C5)cc3)ccc2-c2ccc(F)cc2)cc1
REMARK SMILES IDX 18 1 17 2 15 3 16 4 14 6 13 7 12 8 11 9 89 10 87 11 88 12
REMARK SMILES IDX 10 13 7 14 8 15 98 16 9 17 97 18 4 19 5 20 6 21 2 22 1 23
REMARK SMILES IDX 3 24 90 25 91 26 96 27 92 28 95 29 93 30 94 31 19 32 20 33
REMARK SMILES IDX 21 34 22 35 23 37 24 38 25 39 86 40 26 41 85 42 27 43 28 44
REMARK SMILES IDX 29 45 79 46 30 47 84 48 78 49 80 50 31 51 83 52 77 53 76 54
REMARK SMILES IDX 32 56 64 57 44 58 63 59 45 60 48 61 62 62 81 63 46 64 47 65
REMARK SMILES IDX 61 67 82 68 49 69 33 70 34 71 42 72 35 73 41 74 43 75 40 76
REMARK SMILES IDX 36 77 37 78 38 79 39 80 65 81 66 82 74 83 67 84 73 85 75 86
REMARK SMILES IDX 72 87 68 88 69 89 70 90 71 91 50 92 51 93 59 94 52 95 58 96
REMARK SMILES IDX 60 97 57 98 53 99 54 100 55 101 56 102
REMARK H PARENT 17 5 21 36 80 55 48 66
REMARK Flexibility Score: inf
ROOT
ATOM      1  C   UNL     1       0.565  -0.449  -8.302  1.00  0.00     0.117 C 
ENDROOT
BRANCH   1   2
ATOM      2  N   UNL     1      -0.167  -0.973  -7.128  1.00  0.00    -0.356 N 
ATOM      3  C   UNL     1      -1.489  -1.225  -6.855  1.00  0.00     0.220 C 
ATOM      4  O   UNL     1      -1.731  -1.813  -5.793  1.00  0.00    -0.275 OA
ATOM      5  H   UNL     1       0.427  -1.189  -6.374  1.00  0.00     0.163 HD
BRANCH   3   6
ATOM      6  C   UNL     1      -2.667  -0.751  -7.714  1.00  0.00     0.106 C 
BRANCH   6   7
ATOM      7  C   UNL     1      -3.487   0.460  -7.180  1.00  0.00     0.064 C 
BRANCH   7   8
ATOM      8  C   UNL     1      -3.072   1.780  -7.788  1.00  0.00     0.024 A 
ATOM      9  N   UNL     1      -2.402   2.847  -7.150  1.00  0.00    -0.314 N 
ATOM     10  C   UNL     1      -2.094   3.788  -8.194  1.00  0.00     0.053 A 
ATOM     11  C   UNL     1      -3.338   2.147  -9.097  1.00  0.00     0.024 A 
ATOM     12  C   UNL     1      -2.752   3.392  -9.345  1.00  0.00     0.029 A 
BRANCH   9  13
ATOM     13  C   UNL     1      -1.824   2.824  -5.791  1.00  0.00     0.046 A 
ATOM     14  C   UNL     1      -0.186   2.555  -3.468  1.00  0.00     0.082 A 
ATOM     15  C   UNL     1      -0.623   3.820  -3.892  1.00  0.00     0.024 A 
ATOM     16  C   UNL     1      -0.541   1.443  -4.194  1.00  0.00     0.024 A 
ATOM     17  C   UNL     1      -1.428   3.957  -5.061  1.00  0.00     0.028 A 
ATOM     18  C   UNL     1      -1.370   1.600  -5.297  1.00  0.00     0.028 A 
BRANCH  14  19
ATOM     19  S   UNL     1       0.780   2.320  -1.991  1.00  0.00     0.242 S 
ATOM     20  O   UNL     1       0.354   3.288  -1.032  1.00  0.00    -0.207 OA
ATOM     21  O   UNL     1       2.168   2.215  -2.444  1.00  0.00    -0.207 OA
BRANCH  19  22
ATOM     22  N   UNL     1       0.314   0.754  -1.407  1.00  0.00    -0.204 NA
ATOM     23  C   UNL     1       1.134   0.330  -0.237  1.00  0.00     0.124 C 
ATOM     24  C   UNL     1      -1.129   0.592  -1.105  1.00  0.00     0.124 C 
ENDBRANCH  19  22
ENDBRANCH  14  19
ENDBRANCH   9  13
BRANCH  10  25
ATOM     25  C   UNL     1      -0.858   4.578  -8.246  1.00  0.00    -0.001 A 
ATOM     26  C   UNL     1      -0.532   5.667  -9.055  1.00  0.00     0.013 A 
ATOM     27  C   UNL     1       0.177   3.973  -7.590  1.00  0.00     0.013 A 
ATOM     28  C   UNL     1       0.818   6.076  -9.162  1.00  0.00     0.040 A 
ATOM     29  C   UNL     1       1.426   4.480  -7.523  1.00  0.00     0.040 A 
ATOM     30  C   UNL     1       1.793   5.474  -8.379  1.00  0.00     0.123 A 
ATOM     31  F   UNL     1       3.086   5.777  -8.527  1.00  0.00    -0.207 F 
ENDBRANCH  10  25
ENDBRANCH   7   8
ENDBRANCH   6   7
ENDBRANCH   3   6
ENDBRANCH   1   2
BRANCH   1  32
ATOM     32  C   UNL     1       1.319   0.901  -8.082  1.00  0.00     0.042 C 
BRANCH  32  33
ATOM     33  C   UNL     1       2.839   1.068  -7.700  1.00  0.00     0.118 C 
BRANCH  33  34
ATOM     34  N   UNL     1       3.645   1.805  -8.724  1.00  0.00    -0.352 N 
ATOM     35  C   UNL     1       4.659   2.770  -8.783  1.00  0.00     0.251 C 
ATOM     36  H   UNL     1       3.384   1.526  -9.632  1.00  0.00     0.163 HD
ATOM     37  O   UNL     1       5.149   2.948  -9.905  1.00  0.00    -0.269 OA
BRANCH  35  38
ATOM     38  C   UNL     1       5.217   3.606  -7.657  1.00  0.00     0.039 A 
ATOM     39  C   UNL     1       6.215   4.572  -7.847  1.00  0.00     0.014 A 
ATOM     40  C   UNL     1       4.587   3.684  -6.435  1.00  0.00     0.014 A 
ATOM     41  C   UNL     1       6.515   5.515  -6.829  1.00  0.00     0.010 A 
ATOM     42  C   UNL     1       5.000   4.411  -5.335  1.00  0.00     0.010 A 
ATOM     43  C   UNL     1       5.891   5.433  -5.572  1.00  0.00    -0.014 A 
BRANCH  43  44
ATOM     44  C   UNL     1       6.067   6.414  -4.474  1.00  0.00     0.031 A 
ATOM     45  C   UNL     1       4.937   7.518  -4.431  1.00  0.00     0.074 A 
ATOM     46  C   UNL     1       7.132   6.115  -3.656  1.00  0.00     0.049 A 
ATOM     47  N   UNL     1       4.990   8.772  -4.085  1.00  0.00    -0.248 NA
ATOM     48  C   UNL     1       3.554   7.202  -4.909  1.00  0.00     0.031 C 
ATOM     49  C   UNL     1       7.988   4.900  -3.790  1.00  0.00     0.029 A 
ATOM     50  N   UNL     1       7.713   6.697  -2.550  1.00  0.00    -0.354 N 
ATOM     51  C   UNL     1       3.659   9.296  -4.047  1.00  0.00     0.074 A 
ATOM     52  C   UNL     1       2.851   8.326  -4.715  1.00  0.00     0.031 C 
ATOM     53  C   UNL     1       9.020   4.913  -2.915  1.00  0.00     0.029 A 
ATOM     54  C   UNL     1       8.944   6.110  -2.107  1.00  0.00     0.049 A 
ATOM     55  H   UNL     1       7.307   7.468  -2.092  1.00  0.00     0.167 HD
ATOM     56  C   UNL     1       3.294  10.389  -3.291  1.00  0.00     0.034 A 
ATOM     57  C   UNL     1       9.853   6.596  -1.198  1.00  0.00     0.034 A 
ATOM     58  C   UNL     1       4.443  10.826  -2.572  1.00  0.00     0.049 A 
ATOM     59  C   UNL     1       9.159   7.754  -0.624  1.00  0.00     0.074 A 
ATOM     60  C   UNL     1       5.626  11.395  -2.958  1.00  0.00     0.029 A 
ATOM     61  N   UNL     1       4.575  10.317  -1.298  1.00  0.00    -0.354 N 
ATOM     62  N   UNL     1       8.176   7.683   0.218  1.00  0.00    -0.248 NA
ATOM     63  C   UNL     1       9.506   9.093  -1.119  1.00  0.00     0.031 C 
ATOM     64  C   UNL     1       6.549  10.659  -2.192  1.00  0.00     0.029 A 
ATOM     65  C   UNL     1       5.889   9.980  -1.156  1.00  0.00     0.049 A 
ATOM     66  H   UNL     1       3.863  10.216  -0.626  1.00  0.00     0.167 HD
ATOM     67  C   UNL     1       7.586   8.910   0.080  1.00  0.00     0.074 A 
ATOM     68  C   UNL     1       8.604   9.801  -0.444  1.00  0.00     0.031 C 
ATOM     69  C   UNL     1       6.253   8.984  -0.175  1.00  0.00     0.034 A 
BRANCH  56  70
ATOM     70  C   UNL     1       1.988  11.007  -2.797  1.00  0.00     0.023 A 
ATOM     71  C   UNL     1       2.124  12.196  -2.017  1.00  0.00     0.031 A 
ATOM     72  C   UNL     1       0.744  10.377  -2.722  1.00  0.00     0.131 A 
ATOM     73  C   UNL     1       1.169  12.578  -1.065  1.00  0.00     0.055 A 
ATOM     74  C   UNL     1      -0.256  10.819  -1.831  1.00  0.00     0.041 A 
ATOM     75  F   UNL     1       0.469   9.280  -3.438  1.00  0.00    -0.206 F 
ATOM     76  C   UNL     1      -0.029  11.888  -0.962  1.00  0.00     0.022 A 
BRANCH  73  77
ATOM     77  S   UNL     1       1.640  13.833   0.168  1.00  0.00     0.124 S 
ATOM     78  O   UNL     1       2.842  13.250   0.752  1.00  0.00    -0.237 OA
ATOM     79  O   UNL     1       1.843  15.018  -0.661  1.00  0.00    -0.237 OA
ATOM     80  O   UNL     1       0.480  13.890   1.055  1.00  0.00    -0.744 OA
ENDBRANCH  73  77
ENDBRANCH  56  70
BRANCH  57  81
ATOM     81  C   UNL     1      11.289   6.393  -0.714  1.00  0.00     0.023 A 
ATOM     82  C   UNL     1      12.158   5.320  -0.990  1.00  0.00     0.031 A 
ATOM     83  C   UNL     1      11.895   7.449   0.047  1.00  0.00     0.131 A 
ATOM     84  C   UNL     1      13.538   5.398  -0.612  1.00  0.00     0.055 A 
ATOM     85  C   UNL     1      13.257   7.568   0.314  1.00  0.00     0.041 A 
ATOM     86  F   UNL     1      11.183   8.449   0.584  1.00  0.00    -0.206 F 
ATOM     87  C   UNL     1      14.095   6.543  -0.036  1.00  0.00     0.022 A 
BRANCH  84  88
ATOM     88  S   UNL     1      14.688   4.006  -0.859  1.00  0.00     0.124 S 
ATOM     89  O   UNL     1      14.458   3.206   0.339  1.00  0.00    -0.237 OA
ATOM     90  O   UNL     1      14.236   3.427  -2.119  1.00  0.00    -0.237 OA
ATOM     91  O   UNL     1      15.999   4.657  -0.921  1.00  0.00    -0.744 OA
ENDBRANCH  84  88
ENDBRANCH  57  81
BRANCH  69  92
ATOM     92  C   UNL     1       5.420   7.780   0.283  1.00  0.00     0.023 A 
ATOM     93  C   UNL     1       5.557   7.285   1.598  1.00  0.00     0.031 A 
ATOM     94  C   UNL     1       4.573   7.032  -0.559  1.00  0.00     0.131 A 
ATOM     95  C   UNL     1       4.916   6.098   2.010  1.00  0.00     0.055 A 
ATOM     96  C   UNL     1       3.922   5.856  -0.150  1.00  0.00     0.041 A 
ATOM     97  F   UNL     1       4.357   7.404  -1.821  1.00  0.00    -0.206 F 
ATOM     98  C   UNL     1       4.096   5.379   1.141  1.00  0.00     0.022 A 
BRANCH  95  99
ATOM     99  S   UNL     1       5.166   5.495   3.705  1.00  0.00     0.124 S 
ATOM    100  O   UNL     1       6.577   5.129   3.714  1.00  0.00    -0.237 OA
ATOM    101  O   UNL     1       4.802   6.657   4.510  1.00  0.00    -0.237 OA
ATOM    102  O   UNL     1       4.240   4.367   3.812  1.00  0.00    -0.744 OA
ENDBRANCH  95  99
ENDBRANCH  69  92
ENDBRANCH  43  44
ENDBRANCH  35  38
ENDBRANCH  33  34
ENDBRANCH  32  33
ENDBRANCH   1  32
TORSDOF 19
