REMARK SMILES CC[C@@](C)(NC(=O)c1ccncc1F)C(=O)NCCCNC(=O)c1ccc(-c2c3nc(c(-c4cc(S(=O)(=O)[O-])ccc4F)c4ccc([nH]4)c(-c4cc(S(=O)(=O)[O-])ccc4F)c4nc(c(-c5cc(S(=O)(=O)[O-])ccc5F)c5ccc2[nH]5)C=C4)C=C3)cc1
REMARK SMILES IDX 19 1 18 2 17 3 15 4 16 5 3 7 4 8 2 9 1 10 5 11 6 12 7 14
REMARK SMILES IDX 8 15 9 16 13 17 10 18 12 19 14 20 11 21 20 22 21 23 22 24
REMARK SMILES IDX 23 26 24 27 25 28 86 29 26 30 85 31 27 32 28 33 29 34 79 35
REMARK SMILES IDX 30 36 84 37 78 38 80 39 31 40 83 41 77 42 76 43 32 45 64 46
REMARK SMILES IDX 44 47 63 48 45 49 48 50 62 51 81 52 46 53 47 54 61 56 82 57
REMARK SMILES IDX 49 58 33 59 34 60 42 61 35 62 41 63 43 64 40 65 36 66 37 67
REMARK SMILES IDX 38 68 39 69 65 70 66 71 74 72 67 73 73 74 75 75 72 76 68 77
REMARK SMILES IDX 69 78 70 79 71 80 50 81 51 82 59 83 52 84 58 85 60 86 57 87
REMARK SMILES IDX 53 88 54 89 55 90 56 91
REMARK H PARENT 17 6 5 13 21 25 80 44 48 55
REMARK Flexibility Score: inf
ROOT
ATOM      1  C   UNL     1       2.490   1.657   5.887  1.00  0.00     0.042 C 
ENDROOT
BRANCH   1   2
ATOM      2  C   UNL     1       2.109   2.518   4.682  1.00  0.00     0.117 C 
BRANCH   2   3
ATOM      3  N   UNL     1       2.647   2.155   3.382  1.00  0.00    -0.354 N 
ATOM      4  C   UNL     1       2.291   1.271   2.402  1.00  0.00     0.245 C 
ATOM      5  O   UNL     1       2.917   1.387   1.340  1.00  0.00    -0.272 OA
ATOM      6  H   UNL     1       3.458   2.664   3.155  1.00  0.00     0.163 HD
BRANCH   4   7
ATOM      7  C   UNL     1       1.110   0.263   2.528  1.00  0.00     0.116 C 
ATOM      8  C   UNL     1      -0.184   1.123   2.503  1.00  0.00     0.045 C 
BRANCH   7   9
ATOM      9  C   UNL     1       1.020  -0.746   1.340  1.00  0.00     0.035 C 
ATOM     10  C   UNL     1       0.942  -0.171  -0.073  1.00  0.00     0.007 C 
ENDBRANCH   7   9
BRANCH   7  11
ATOM     11  N   UNL     1       1.084  -0.532   3.788  1.00  0.00    -0.338 N 
ATOM     12  C   UNL     1       1.787  -1.600   4.294  1.00  0.00     0.255 C 
ATOM     13  H   UNL     1       0.393  -0.215   4.412  1.00  0.00     0.164 HD
ATOM     14  O   UNL     1       1.153  -2.294   5.098  1.00  0.00    -0.269 OA
BRANCH  12  15
ATOM     15  C   UNL     1       3.195  -2.005   4.027  1.00  0.00     0.078 A 
ATOM     16  C   UNL     1       3.547  -3.325   4.358  1.00  0.00     0.037 A 
ATOM     17  C   UNL     1       4.237  -1.163   3.679  1.00  0.00     0.154 A 
ATOM     18  C   UNL     1       4.879  -3.718   4.308  1.00  0.00     0.112 A 
ATOM     19  C   UNL     1       5.538  -1.639   3.636  1.00  0.00     0.151 A 
ATOM     20  F   UNL     1       4.083   0.138   3.496  1.00  0.00    -0.204 F 
ATOM     21  N   UNL     1       5.884  -2.904   3.935  1.00  0.00    -0.262 NA
ENDBRANCH  12  15
ENDBRANCH   7  11
ENDBRANCH   4   7
ENDBRANCH   2   3
ENDBRANCH   1   2
BRANCH   1  22
ATOM     22  C   UNL     1       3.966   1.514   6.257  1.00  0.00     0.118 C 
BRANCH  22  23
ATOM     23  N   UNL     1       4.662   2.767   6.461  1.00  0.00    -0.352 N 
ATOM     24  C   UNL     1       5.509   3.162   7.465  1.00  0.00     0.251 C 
ATOM     25  H   UNL     1       4.501   3.445   5.766  1.00  0.00     0.163 HD
ATOM     26  O   UNL     1       5.946   4.315   7.433  1.00  0.00    -0.269 OA
BRANCH  24  27
ATOM     27  C   UNL     1       5.879   2.273   8.596  1.00  0.00     0.039 A 
ATOM     28  C   UNL     1       5.925   2.841   9.873  1.00  0.00     0.014 A 
ATOM     29  C   UNL     1       6.251   0.933   8.432  1.00  0.00     0.014 A 
ATOM     30  C   UNL     1       6.305   2.073  10.978  1.00  0.00     0.010 A 
ATOM     31  C   UNL     1       6.582   0.149   9.550  1.00  0.00     0.010 A 
ATOM     32  C   UNL     1       6.619   0.711  10.836  1.00  0.00    -0.014 A 
BRANCH  32  33
ATOM     33  C   UNL     1       6.968  -0.093  12.045  1.00  0.00     0.031 A 
ATOM     34  C   UNL     1       8.360  -0.633  12.251  1.00  0.00     0.074 A 
ATOM     35  C   UNL     1       6.027  -0.310  12.988  1.00  0.00     0.049 A 
ATOM     36  N   UNL     1       8.860  -1.258  13.289  1.00  0.00    -0.248 NA
ATOM     37  C   UNL     1       9.307  -0.465  11.141  1.00  0.00     0.031 C 
ATOM     38  C   UNL     1       4.631   0.121  12.894  1.00  0.00     0.029 A 
ATOM     39  N   UNL     1       6.101  -0.926  14.214  1.00  0.00    -0.354 N 
ATOM     40  C   UNL     1      10.181  -1.552  12.962  1.00  0.00     0.074 A 
ATOM     41  C   UNL     1      10.380  -1.090  11.603  1.00  0.00     0.031 C 
ATOM     42  C   UNL     1       3.993  -0.203  14.030  1.00  0.00     0.029 A 
ATOM     43  C   UNL     1       4.920  -0.895  14.921  1.00  0.00     0.049 A 
ATOM     44  H   UNL     1       6.921  -1.350  14.555  1.00  0.00     0.167 HD
ATOM     45  C   UNL     1      11.143  -2.130  13.728  1.00  0.00     0.034 A 
ATOM     46  C   UNL     1       4.614  -1.361  16.149  1.00  0.00     0.034 A 
ATOM     47  C   UNL     1      10.931  -2.594  15.081  1.00  0.00     0.049 A 
ATOM     48  C   UNL     1       5.696  -2.011  16.976  1.00  0.00     0.074 A 
ATOM     49  C   UNL     1      11.848  -3.155  15.955  1.00  0.00     0.029 A 
ATOM     50  N   UNL     1       9.716  -2.567  15.755  1.00  0.00    -0.354 N 
ATOM     51  N   UNL     1       6.957  -2.218  16.674  1.00  0.00    -0.248 NA
ATOM     52  C   UNL     1       5.314  -2.468  18.317  1.00  0.00     0.031 C 
ATOM     53  C   UNL     1      11.175  -3.532  17.123  1.00  0.00     0.029 A 
ATOM     54  C   UNL     1       9.854  -3.129  17.018  1.00  0.00     0.049 A 
ATOM     55  H   UNL     1       8.877  -2.201  15.390  1.00  0.00     0.167 HD
ATOM     56  C   UNL     1       7.524  -2.804  17.803  1.00  0.00     0.074 A 
ATOM     57  C   UNL     1       6.475  -2.887  18.798  1.00  0.00     0.031 C 
ATOM     58  C   UNL     1       8.799  -3.232  18.000  1.00  0.00     0.034 A 
BRANCH  45  59
ATOM     59  C   UNL     1      12.510  -2.317  13.106  1.00  0.00     0.023 A 
ATOM     60  C   UNL     1      13.291  -1.223  12.692  1.00  0.00     0.031 A 
ATOM     61  C   UNL     1      13.037  -3.607  12.913  1.00  0.00     0.131 A 
ATOM     62  C   UNL     1      14.516  -1.439  12.041  1.00  0.00     0.055 A 
ATOM     63  C   UNL     1      14.295  -3.812  12.340  1.00  0.00     0.041 A 
ATOM     64  F   UNL     1      12.335  -4.694  13.270  1.00  0.00    -0.206 F 
ATOM     65  C   UNL     1      15.036  -2.725  11.886  1.00  0.00     0.022 A 
BRANCH  62  66
ATOM     66  S   UNL     1      15.353  -0.024  11.274  1.00  0.00     0.124 S 
ATOM     67  O   UNL     1      14.329   0.459  10.350  1.00  0.00    -0.237 OA
ATOM     68  O   UNL     1      15.637   0.834  12.418  1.00  0.00    -0.237 OA
ATOM     69  O   UNL     1      16.524  -0.623  10.636  1.00  0.00    -0.744 OA
ENDBRANCH  62  66
ENDBRANCH  45  59
BRANCH  46  70
ATOM     70  C   UNL     1       3.226  -1.232  16.683  1.00  0.00     0.023 A 
ATOM     71  C   UNL     1       2.952  -0.464  17.826  1.00  0.00     0.031 A 
ATOM     72  C   UNL     1       2.158  -1.922  16.083  1.00  0.00     0.131 A 
ATOM     73  C   UNL     1       1.655  -0.444  18.363  1.00  0.00     0.055 A 
ATOM     74  C   UNL     1       0.858  -1.853  16.587  1.00  0.00     0.041 A 
ATOM     75  F   UNL     1       2.362  -2.670  14.987  1.00  0.00    -0.206 F 
ATOM     76  C   UNL     1       0.604  -1.122  17.743  1.00  0.00     0.022 A 
BRANCH  73  77
ATOM     77  S   UNL     1       1.378   0.408  19.941  1.00  0.00     0.124 S 
ATOM     78  O   UNL     1       2.310  -0.285  20.822  1.00  0.00    -0.237 OA
ATOM     79  O   UNL     1       1.718   1.787  19.604  1.00  0.00    -0.237 OA
ATOM     80  O   UNL     1      -0.038   0.167  20.213  1.00  0.00    -0.744 OA
ENDBRANCH  73  77
ENDBRANCH  46  70
BRANCH  58  81
ATOM     81  C   UNL     1       9.126  -3.797  19.365  1.00  0.00     0.023 A 
ATOM     82  C   UNL     1       8.504  -4.960  19.855  1.00  0.00     0.031 A 
ATOM     83  C   UNL     1      10.033  -3.133  20.210  1.00  0.00     0.131 A 
ATOM     84  C   UNL     1       8.730  -5.373  21.177  1.00  0.00     0.055 A 
ATOM     85  C   UNL     1      10.312  -3.592  21.499  1.00  0.00     0.041 A 
ATOM     86  F   UNL     1      10.657  -2.016  19.802  1.00  0.00    -0.206 F 
ATOM     87  C   UNL     1       9.643  -4.706  21.997  1.00  0.00     0.022 A 
BRANCH  84  88
ATOM     88  S   UNL     1       7.709  -6.711  21.858  1.00  0.00     0.124 S 
ATOM     89  O   UNL     1       6.358  -6.210  21.625  1.00  0.00    -0.237 OA
ATOM     90  O   UNL     1       8.113  -7.854  21.046  1.00  0.00    -0.237 OA
ATOM     91  O   UNL     1       8.114  -6.772  23.261  1.00  0.00    -0.744 OA
ENDBRANCH  84  88
ENDBRANCH  58  81
ENDBRANCH  32  33
ENDBRANCH  24  27
ENDBRANCH  22  23
ENDBRANCH   1  22
TORSDOF 16
