REMARK SMILES Cc1ccc(C)c(-c2cc(C(=O)NCCCNC(=O)c3ccc(-c4c5nc(c(-c6cc(S(=O)(=O)[O-])ccc6F)c6ccc([nH]6)c(-c6cc(S(=O)(=O)[O-])ccc6F)c6nc(c(-c7cc(S(=O)(=O)[O-])ccc7F)c7ccc4[nH]7)C=C6)C=C5)cc3)c3cc(C)ccc3n2)c1
REMARK SMILES IDX 16 1 15 2 14 3 13 4 11 5 12 6 10 8 8 9 9 10 90 11 89 12
REMARK SMILES IDX 83 13 88 14 84 15 87 16 85 17 86 18 7 19 1 20 2 21 3 22
REMARK SMILES IDX 91 23 4 24 5 25 6 26 17 27 18 28 19 30 20 31 21 32 82 33
REMARK SMILES IDX 22 34 81 35 23 36 24 37 25 38 75 39 26 40 80 41 74 42 76 43
REMARK SMILES IDX 27 44 79 45 73 46 72 47 28 49 60 50 40 51 59 52 41 53 44 54
REMARK SMILES IDX 58 55 77 56 42 57 43 58 57 60 78 61 45 62 29 63 30 64 38 65
REMARK SMILES IDX 31 66 37 67 39 68 36 69 32 70 33 71 34 72 35 73 61 74 62 75
REMARK SMILES IDX 70 76 63 77 69 78 71 79 68 80 64 81 65 82 66 83 67 84 46 85
REMARK SMILES IDX 47 86 55 87 48 88 54 89 56 90 53 91 49 92 50 93 51 94 52 95
REMARK H PARENT 13 7 17 29 76 48 44 59
REMARK Flexibility Score: inf
ROOT
ATOM      1  C   UNL     1      -2.912   9.597  -0.445  1.00  0.00     0.118 C 
ENDROOT
BRANCH   1   2
ATOM      2  C   UNL     1      -2.559   8.435   0.441  1.00  0.00     0.042 C 
BRANCH   2   3
ATOM      3  C   UNL     1      -2.949   7.106  -0.168  1.00  0.00     0.118 C 
BRANCH   3   4
ATOM      4  N   UNL     1      -2.374   6.619  -1.412  1.00  0.00    -0.352 N 
ATOM      5  C   UNL     1      -2.348   5.302  -1.867  1.00  0.00     0.252 C 
ATOM      6  O   UNL     1      -2.035   5.062  -3.029  1.00  0.00    -0.269 OA
ATOM      7  H   UNL     1      -1.957   7.293  -1.996  1.00  0.00     0.163 HD
BRANCH   5   8
ATOM      8  C   UNL     1      -2.560   4.156  -0.931  1.00  0.00     0.051 A 
ATOM      9  C   UNL     1      -1.533   2.281   0.106  1.00  0.00     0.072 A 
ATOM     10  C   UNL     1      -1.575   3.169  -0.953  1.00  0.00     0.043 A 
ATOM     11  N   UNL     1      -2.296   2.448   1.217  1.00  0.00    -0.248 NA
ATOM     12  C   UNL     1      -3.260   3.381   1.206  1.00  0.00     0.072 A 
ATOM     13  C   UNL     1      -3.554   4.136   0.068  1.00  0.00     0.013 A 
ATOM     14  C   UNL     1      -3.957   3.670   2.373  1.00  0.00     0.029 A 
ATOM     15  C   UNL     1      -4.733   4.916   0.047  1.00  0.00     0.014 A 
ATOM     16  C   UNL     1      -4.947   4.658   2.417  1.00  0.00     0.005 A 
ATOM     17  C   UNL     1      -5.365   5.274   1.241  1.00  0.00    -0.050 A 
ATOM     18  C   UNL     1      -6.283   6.463   1.272  1.00  0.00     0.044 C 
BRANCH   9  19
ATOM     19  C   UNL     1      -0.733   1.050   0.072  1.00  0.00     0.003 A 
ATOM     20  C   UNL     1       2.952   0.004   0.019  1.00  0.00     0.044 C 
ATOM     21  C   UNL     1       1.453  -0.059   0.034  1.00  0.00    -0.050 A 
ATOM     22  C   UNL     1       0.816  -1.302   0.009  1.00  0.00     0.004 A 
ATOM     23  C   UNL     1       0.674   1.108   0.071  1.00  0.00     0.014 A 
ATOM     24  C   UNL     1      -0.574  -1.381   0.003  1.00  0.00     0.004 A 
ATOM     25  C   UNL     1      -1.360  -0.218   0.016  1.00  0.00    -0.042 A 
ATOM     26  C   UNL     1      -2.858  -0.386  -0.010  1.00  0.00     0.045 C 
ENDBRANCH   9  19
ENDBRANCH   5   8
ENDBRANCH   3   4
ENDBRANCH   2   3
ENDBRANCH   1   2
BRANCH   1  27
ATOM     27  N   UNL     1      -4.316   9.845  -0.775  1.00  0.00    -0.352 N 
ATOM     28  C   UNL     1      -4.849  10.698  -1.754  1.00  0.00     0.251 C 
ATOM     29  H   UNL     1      -4.975   9.348  -0.239  1.00  0.00     0.163 HD
ATOM     30  O   UNL     1      -6.054  10.840  -1.838  1.00  0.00    -0.269 OA
BRANCH  28  31
ATOM     31  C   UNL     1      -3.939  11.437  -2.683  1.00  0.00     0.039 A 
ATOM     32  C   UNL     1      -4.321  11.922  -3.943  1.00  0.00     0.014 A 
ATOM     33  C   UNL     1      -2.578  11.346  -2.470  1.00  0.00     0.014 A 
ATOM     34  C   UNL     1      -3.297  12.118  -4.901  1.00  0.00     0.010 A 
ATOM     35  C   UNL     1      -1.791  12.232  -3.113  1.00  0.00     0.010 A 
ATOM     36  C   UNL     1      -1.977  12.069  -4.459  1.00  0.00    -0.014 A 
BRANCH  36  37
ATOM     37  C   UNL     1      -0.753  11.731  -5.178  1.00  0.00     0.031 A 
ATOM     38  C   UNL     1       0.312  12.748  -4.998  1.00  0.00     0.074 A 
ATOM     39  C   UNL     1      -0.286  10.499  -5.483  1.00  0.00     0.049 A 
ATOM     40  N   UNL     1       0.494  13.796  -5.724  1.00  0.00    -0.248 NA
ATOM     41  C   UNL     1       1.078  12.751  -3.735  1.00  0.00     0.031 C 
ATOM     42  C   UNL     1      -0.808   9.167  -5.175  1.00  0.00     0.029 A 
ATOM     43  N   UNL     1       0.909  10.222  -6.084  1.00  0.00    -0.354 N 
ATOM     44  C   UNL     1       1.561  14.458  -5.139  1.00  0.00     0.074 A 
ATOM     45  C   UNL     1       1.619  13.968  -3.791  1.00  0.00     0.031 C 
ATOM     46  C   UNL     1       0.140   8.235  -5.458  1.00  0.00     0.029 A 
ATOM     47  C   UNL     1       1.274   8.884  -6.102  1.00  0.00     0.049 A 
ATOM     48  H   UNL     1       1.473  10.925  -6.479  1.00  0.00     0.167 HD
ATOM     49  C   UNL     1       2.473  15.144  -5.882  1.00  0.00     0.034 A 
ATOM     50  C   UNL     1       2.440   8.384  -6.595  1.00  0.00     0.034 A 
ATOM     51  C   UNL     1       2.099  15.115  -7.287  1.00  0.00     0.049 A 
ATOM     52  C   UNL     1       3.031   9.427  -7.480  1.00  0.00     0.074 A 
ATOM     53  C   UNL     1       0.983  15.502  -8.007  1.00  0.00     0.029 A 
ATOM     54  N   UNL     1       2.753  14.203  -8.093  1.00  0.00    -0.354 N 
ATOM     55  N   UNL     1       2.461   9.870  -8.568  1.00  0.00    -0.248 NA
ATOM     56  C   UNL     1       4.070  10.296  -6.944  1.00  0.00     0.031 C 
ATOM     57  C   UNL     1       0.770  14.455  -8.957  1.00  0.00     0.029 A 
ATOM     58  C   UNL     1       1.802  13.522  -8.818  1.00  0.00     0.049 A 
ATOM     59  H   UNL     1       3.727  14.066  -8.141  1.00  0.00     0.167 HD
ATOM     60  C   UNL     1       2.752  11.225  -8.612  1.00  0.00     0.074 A 
ATOM     61  C   UNL     1       3.849  11.399  -7.666  1.00  0.00     0.031 C 
ATOM     62  C   UNL     1       1.889  12.116  -9.188  1.00  0.00     0.034 A 
BRANCH  49  63
ATOM     63  C   UNL     1       3.853  15.568  -5.433  1.00  0.00     0.023 A 
ATOM     64  C   UNL     1       4.596  16.357  -6.331  1.00  0.00     0.031 A 
ATOM     65  C   UNL     1       4.557  15.135  -4.286  1.00  0.00     0.131 A 
ATOM     66  C   UNL     1       5.956  16.628  -6.113  1.00  0.00     0.055 A 
ATOM     67  C   UNL     1       5.892  15.468  -4.035  1.00  0.00     0.041 A 
ATOM     68  F   UNL     1       4.042  14.299  -3.381  1.00  0.00    -0.206 F 
ATOM     69  C   UNL     1       6.609  16.197  -4.964  1.00  0.00     0.022 A 
BRANCH  66  70
ATOM     70  S   UNL     1       6.896  17.421  -7.440  1.00  0.00     0.124 S 
ATOM     71  O   UNL     1       6.544  16.596  -8.590  1.00  0.00    -0.237 OA
ATOM     72  O   UNL     1       6.350  18.773  -7.424  1.00  0.00    -0.237 OA
ATOM     73  O   UNL     1       8.280  17.300  -6.989  1.00  0.00    -0.744 OA
ENDBRANCH  66  70
ENDBRANCH  49  63
BRANCH  50  74
ATOM     74  C   UNL     1       3.198   7.179  -6.165  1.00  0.00     0.023 A 
ATOM     75  C   UNL     1       4.100   6.502  -7.014  1.00  0.00     0.031 A 
ATOM     76  C   UNL     1       3.222   6.825  -4.799  1.00  0.00     0.131 A 
ATOM     77  C   UNL     1       4.972   5.519  -6.489  1.00  0.00     0.055 A 
ATOM     78  C   UNL     1       4.081   5.849  -4.287  1.00  0.00     0.041 A 
ATOM     79  F   UNL     1       2.473   7.487  -3.902  1.00  0.00    -0.206 F 
ATOM     80  C   UNL     1       4.966   5.195  -5.131  1.00  0.00     0.022 A 
BRANCH  77  81
ATOM     81  S   UNL     1       6.211   4.721  -7.563  1.00  0.00     0.124 S 
ATOM     82  O   UNL     1       5.383   3.913  -8.450  1.00  0.00    -0.237 OA
ATOM     83  O   UNL     1       6.884   5.866  -8.168  1.00  0.00    -0.237 OA
ATOM     84  O   UNL     1       7.035   3.957  -6.625  1.00  0.00    -0.744 OA
ENDBRANCH  77  81
ENDBRANCH  50  74
BRANCH  62  85
ATOM     85  C   UNL     1       0.794  11.567 -10.089  1.00  0.00     0.023 A 
ATOM     86  C   UNL     1      -0.180  10.621  -9.695  1.00  0.00     0.031 A 
ATOM     87  C   UNL     1       0.674  12.117 -11.378  1.00  0.00     0.131 A 
ATOM     88  C   UNL     1      -1.214  10.254 -10.580  1.00  0.00     0.055 A 
ATOM     89  C   UNL     1      -0.361  11.764 -12.246  1.00  0.00     0.041 A 
ATOM     90  F   UNL     1       1.550  13.040 -11.808  1.00  0.00    -0.206 F 
ATOM     91  C   UNL     1      -1.307  10.826 -11.851  1.00  0.00     0.022 A 
BRANCH  88  92
ATOM     92  S   UNL     1      -2.460   9.021 -10.081  1.00  0.00     0.124 S 
ATOM     93  O   UNL     1      -1.657   7.904  -9.601  1.00  0.00    -0.237 OA
ATOM     94  O   UNL     1      -3.227   9.743  -9.068  1.00  0.00    -0.237 OA
ATOM     95  O   UNL     1      -3.192   8.757 -11.322  1.00  0.00    -0.744 OA
ENDBRANCH  88  92
ENDBRANCH  62  85
ENDBRANCH  36  37
ENDBRANCH  28  31
ENDBRANCH   1  27
TORSDOF 14
