REMARK SMILES O=C(NCCCNC(=O)c1ccc(-c2c3nc(c(-c4cc(S(=O)(=O)[O-])ccc4F)c4ccc([nH]4)c(-c4cc(S(=O)(=O)[O-])ccc4F)c4nc(c(-c5cc(S(=O)(=O)[O-])ccc5F)c5ccc2[nH]5)C=C4)C=C3)cc1)c1ccc(Cn2ccnc2C[NH2+]C2CC2)cc1
REMARK SMILES IDX 4 1 3 2 1 3 2 4 73 6 74 7 89 8 75 9 88 10 76 11 77 12 78 13
REMARK SMILES IDX 79 14 82 15 80 16 81 17 83 18 84 19 85 22 86 23 87 24 5 25
REMARK SMILES IDX 6 26 7 27 8 28 9 30 10 31 11 32 72 33 12 34 71 35 13 36
REMARK SMILES IDX 14 37 15 38 65 39 16 40 70 41 64 42 66 43 17 44 69 45 63 46
REMARK SMILES IDX 62 47 18 49 50 50 30 51 49 52 31 53 34 54 48 55 67 56 32 57
REMARK SMILES IDX 33 58 47 60 68 61 35 62 19 63 20 64 28 65 21 66 27 67 29 68
REMARK SMILES IDX 26 69 22 70 23 71 24 72 25 73 51 74 52 75 60 76 53 77 59 78
REMARK SMILES IDX 61 79 58 80 54 81 55 82 56 83 57 84 36 85 37 86 45 87 38 88
REMARK SMILES IDX 44 89 46 90 43 91 39 92 40 93 41 94 42 95
REMARK H PARENT 3 5 84 20 84 21 7 29 66 48 34 59
REMARK Flexibility Score: inf
ROOT
ATOM      1  C   UNL     1       4.448  -0.862  -0.867  1.00  0.00     0.118 C 
ENDROOT
BRANCH   1   2
ATOM      2  N   UNL     1       3.009  -0.644  -0.800  1.00  0.00    -0.352 N 
ATOM      3  O   UNL     1       1.072   0.202   0.008  1.00  0.00    -0.269 OA
ATOM      4  C   UNL     1       2.298   0.239  -0.026  1.00  0.00     0.251 C 
ATOM      5  H   UNL     1       2.469  -1.211  -1.396  1.00  0.00     0.163 HD
BRANCH   4   6
ATOM      6  C   UNL     1       3.018   1.235   0.790  1.00  0.00     0.039 A 
ATOM      7  C   UNL     1       3.890   2.146   0.190  1.00  0.00     0.014 A 
ATOM      8  C   UNL     1       2.814   1.255   2.171  1.00  0.00     0.014 A 
ATOM      9  C   UNL     1       4.634   3.014   0.987  1.00  0.00     0.006 A 
ATOM     10  C   UNL     1       3.561   2.126   2.968  1.00  0.00     0.006 A 
ATOM     11  C   UNL     1       4.501   2.993   2.386  1.00  0.00    -0.028 A 
BRANCH  11  12
ATOM     12  C   UNL     1       5.380   3.868   3.248  1.00  0.00     0.159 C 
BRANCH  12  13
ATOM     13  N   UNL     1       6.652   3.233   3.571  1.00  0.00    -0.326 N 
ATOM     14  C   UNL     1       7.625   2.929   2.648  1.00  0.00     0.108 A 
ATOM     15  C   UNL     1       7.163   2.930   4.818  1.00  0.00     0.164 A 
ATOM     16  C   UNL     1       8.670   2.413   3.369  1.00  0.00     0.131 A 
ATOM     17  N   UNL     1       8.386   2.438   4.702  1.00  0.00    -0.236 NA
BRANCH  15  18
ATOM     18  C   UNL     1       6.471   3.156   6.129  1.00  0.00     0.337 C 
BRANCH  18  19
ATOM     19  N   UNL     1       5.856   1.928   6.626  1.00  0.00    -0.338 N 
ATOM     20  H   UNL     1       6.562   1.191   6.628  1.00  0.00     0.346 HD
ATOM     21  H   UNL     1       5.074   1.713   6.008  1.00  0.00     0.346 HD
BRANCH  19  22
ATOM     22  C   UNL     1       5.316   2.051   7.975  1.00  0.00     0.183 C 
ATOM     23  C   UNL     1       4.106   2.899   8.246  1.00  0.00     0.071 C 
ATOM     24  C   UNL     1       4.000   1.404   8.304  1.00  0.00     0.071 C 
ENDBRANCH  19  22
ENDBRANCH  18  19
ENDBRANCH  15  18
ENDBRANCH  12  13
ENDBRANCH  11  12
ENDBRANCH   4   6
ENDBRANCH   1   2
BRANCH   1  25
ATOM     25  C   UNL     1       4.881  -2.176  -0.228  1.00  0.00     0.042 C 
BRANCH  25  26
ATOM     26  C   UNL     1       4.366  -3.430  -0.928  1.00  0.00     0.118 C 
BRANCH  26  27
ATOM     27  N   UNL     1       4.781  -3.514  -2.320  1.00  0.00    -0.352 N 
ATOM     28  C   UNL     1       5.502  -4.466  -2.997  1.00  0.00     0.251 C 
ATOM     29  H   UNL     1       4.493  -2.754  -2.875  1.00  0.00     0.163 HD
ATOM     30  O   UNL     1       5.866  -4.213  -4.144  1.00  0.00    -0.269 OA
BRANCH  28  31
ATOM     31  C   UNL     1       5.864  -5.764  -2.377  1.00  0.00     0.039 A 
ATOM     32  C   UNL     1       7.096  -6.337  -2.711  1.00  0.00     0.014 A 
ATOM     33  C   UNL     1       4.998  -6.451  -1.523  1.00  0.00     0.014 A 
ATOM     34  C   UNL     1       7.479  -7.559  -2.150  1.00  0.00     0.010 A 
ATOM     35  C   UNL     1       5.415  -7.629  -0.898  1.00  0.00     0.010 A 
ATOM     36  C   UNL     1       6.656  -8.201  -1.210  1.00  0.00    -0.014 A 
BRANCH  36  37
ATOM     37  C   UNL     1       7.089  -9.466  -0.557  1.00  0.00     0.031 A 
ATOM     38  C   UNL     1       6.318 -10.743  -0.772  1.00  0.00     0.074 A 
ATOM     39  C   UNL     1       8.155  -9.454   0.268  1.00  0.00     0.049 A 
ATOM     40  N   UNL     1       6.533 -11.934  -0.273  1.00  0.00    -0.248 NA
ATOM     41  C   UNL     1       5.132 -10.663  -1.637  1.00  0.00     0.031 C 
ATOM     42  C   UNL     1       8.946  -8.269   0.609  1.00  0.00     0.029 A 
ATOM     43  N   UNL     1       8.758 -10.466   0.973  1.00  0.00    -0.354 N 
ATOM     44  C   UNL     1       5.502 -12.739  -0.747  1.00  0.00     0.074 A 
ATOM     45  C   UNL     1       4.633 -11.885  -1.528  1.00  0.00     0.031 C 
ATOM     46  C   UNL     1       9.943  -8.626   1.433  1.00  0.00     0.029 A 
ATOM     47  C   UNL     1       9.847 -10.056   1.708  1.00  0.00     0.049 A 
ATOM     48  H   UNL     1       8.441 -11.398   0.955  1.00  0.00     0.167 HD
ATOM     49  C   UNL     1       5.310 -14.070  -0.566  1.00  0.00     0.034 A 
ATOM     50  C   UNL     1      10.674 -10.751   2.512  1.00  0.00     0.034 A 
ATOM     51  C   UNL     1       6.199 -14.915   0.196  1.00  0.00     0.049 A 
ATOM     52  C   UNL     1      10.461 -12.234   2.669  1.00  0.00     0.074 A 
ATOM     53  C   UNL     1       6.138 -16.286   0.382  1.00  0.00     0.029 A 
ATOM     54  N   UNL     1       7.309 -14.470   0.902  1.00  0.00    -0.354 N 
ATOM     55  N   UNL     1       9.520 -12.993   2.155  1.00  0.00    -0.248 NA
ATOM     56  C   UNL     1      11.434 -12.956   3.497  1.00  0.00     0.031 C 
ATOM     57  C   UNL     1       7.174 -16.660   1.246  1.00  0.00     0.029 A 
ATOM     58  C   UNL     1       7.925 -15.534   1.546  1.00  0.00     0.049 A 
ATOM     59  H   UNL     1       7.615 -13.535   0.941  1.00  0.00     0.167 HD
ATOM     60  C   UNL     1       9.803 -14.287   2.582  1.00  0.00     0.074 A 
ATOM     61  C   UNL     1      11.016 -14.207   3.371  1.00  0.00     0.031 C 
ATOM     62  C   UNL     1       9.122 -15.438   2.347  1.00  0.00     0.034 A 
BRANCH  49  63
ATOM     63  C   UNL     1       4.078 -14.686  -1.187  1.00  0.00     0.023 A 
ATOM     64  C   UNL     1       3.887 -14.718  -2.580  1.00  0.00     0.031 A 
ATOM     65  C   UNL     1       3.069 -15.233  -0.374  1.00  0.00     0.131 A 
ATOM     66  C   UNL     1       2.688 -15.214  -3.114  1.00  0.00     0.055 A 
ATOM     67  C   UNL     1       1.911 -15.798  -0.915  1.00  0.00     0.041 A 
ATOM     68  F   UNL     1       3.184 -15.217   0.963  1.00  0.00    -0.206 F 
ATOM     69  C   UNL     1       1.709 -15.777  -2.292  1.00  0.00     0.022 A 
BRANCH  66  70
ATOM     70  S   UNL     1       2.369 -14.993  -4.885  1.00  0.00     0.124 S 
ATOM     71  O   UNL     1       2.408 -13.538  -5.012  1.00  0.00    -0.237 OA
ATOM     72  O   UNL     1       3.475 -15.717  -5.499  1.00  0.00    -0.237 OA
ATOM     73  O   UNL     1       1.049 -15.592  -5.074  1.00  0.00    -0.744 OA
ENDBRANCH  66  70
ENDBRANCH  49  63
BRANCH  50  74
ATOM     74  C   UNL     1      11.783 -10.062   3.232  1.00  0.00     0.023 A 
ATOM     75  C   UNL     1      13.125 -10.345   2.933  1.00  0.00     0.031 A 
ATOM     76  C   UNL     1      11.514  -9.140   4.258  1.00  0.00     0.131 A 
ATOM     77  C   UNL     1      14.149  -9.750   3.687  1.00  0.00     0.055 A 
ATOM     78  C   UNL     1      12.537  -8.513   4.971  1.00  0.00     0.041 A 
ATOM     79  F   UNL     1      10.248  -8.828   4.576  1.00  0.00    -0.206 F 
ATOM     80  C   UNL     1      13.864  -8.828   4.696  1.00  0.00     0.022 A 
BRANCH  77  81
ATOM     81  S   UNL     1      15.862 -10.264   3.381  1.00  0.00     0.124 S 
ATOM     82  O   UNL     1      15.786 -11.704   3.602  1.00  0.00    -0.237 OA
ATOM     83  O   UNL     1      16.064  -9.837   2.001  1.00  0.00    -0.237 OA
ATOM     84  O   UNL     1      16.625  -9.519   4.380  1.00  0.00    -0.744 OA
ENDBRANCH  77  81
ENDBRANCH  50  74
BRANCH  62  85
ATOM     85  C   UNL     1       9.705 -16.701   2.932  1.00  0.00     0.023 A 
ATOM     86  C   UNL     1       9.775 -16.904   4.322  1.00  0.00     0.031 A 
ATOM     87  C   UNL     1      10.236 -17.694   2.091  1.00  0.00     0.131 A 
ATOM     88  C   UNL     1      10.426 -18.037   4.831  1.00  0.00     0.055 A 
ATOM     89  C   UNL     1      10.827 -18.850   2.602  1.00  0.00     0.041 A 
ATOM     90  F   UNL     1      10.197 -17.552   0.756  1.00  0.00    -0.206 F 
ATOM     91  C   UNL     1      10.940 -19.019   3.980  1.00  0.00     0.022 A 
BRANCH  88  92
ATOM     92  S   UNL     1      10.696 -18.155   6.621  1.00  0.00     0.124 S 
ATOM     93  O   UNL     1      11.414 -16.915   6.902  1.00  0.00    -0.237 OA
ATOM     94  O   UNL     1       9.334 -18.233   7.137  1.00  0.00    -0.237 OA
ATOM     95  O   UNL     1      11.486 -19.375   6.769  1.00  0.00    -0.744 OA
ENDBRANCH  88  92
ENDBRANCH  62  85
ENDBRANCH  36  37
ENDBRANCH  28  31
ENDBRANCH  26  27
ENDBRANCH  25  26
ENDBRANCH   1  25
TORSDOF 18
