REMARK SMILES CCCC[C@H](CC)C(=O)N1[C@H](C(=O)NCCCNC(=O)c2ccc(-c3c4nc(c(-c5cc(S(=O)(=O)[O-])ccc5F)c5ccc([nH]5)c(-c5cc(S(=O)(=O)[O-])ccc5F)c5nc(c(-c6cc(S(=O)(=O)[O-])ccc6F)c6ccc3[nH]6)C=C5)C=C4)cc2)COC12CCCCC2
REMARK SMILES IDX 15 1 14 2 12 3 13 4 11 6 10 7 86 8 84 9 85 10 87 11 91 12
REMARK SMILES IDX 88 13 90 14 89 15 8 16 9 17 5 18 4 19 3 20 2 21 1 22 6 23
REMARK SMILES IDX 7 24 16 25 17 26 18 27 19 28 20 30 21 31 22 32 83 33 23 34
REMARK SMILES IDX 82 35 24 36 25 37 26 38 76 39 27 40 81 41 75 42 77 43 28 44
REMARK SMILES IDX 80 45 74 46 73 47 29 49 61 50 41 51 60 52 42 53 45 54 59 55
REMARK SMILES IDX 78 56 43 57 44 58 58 60 79 61 46 62 30 63 31 64 39 65 32 66
REMARK SMILES IDX 38 67 40 68 37 69 33 70 34 71 35 72 36 73 62 74 63 75 71 76
REMARK SMILES IDX 64 77 70 78 72 79 69 80 65 81 66 82 67 83 68 84 47 85 48 86
REMARK SMILES IDX 56 87 49 88 55 89 57 90 54 91 50 92 51 93 52 94 53 95
REMARK H PARENT 14 5 18 29 77 48 45 59
REMARK Flexibility Score: inf
ROOT
ATOM      1  C   UNL     1      -4.657   4.965  -6.160  1.00  0.00     0.117 C 
ENDROOT
BRANCH   1   2
ATOM      2  N   UNL     1      -4.351   3.595  -5.782  1.00  0.00    -0.354 N 
ATOM      3  C   UNL     1      -3.151   3.096  -5.338  1.00  0.00     0.245 C 
ATOM      4  O   UNL     1      -2.902   1.904  -5.515  1.00  0.00    -0.273 OA
ATOM      5  H   UNL     1      -5.090   2.949  -5.853  1.00  0.00     0.163 HD
BRANCH   3   6
ATOM      6  C   UNL     1      -2.167   4.089  -4.705  1.00  0.00     0.203 C 
ATOM      7  N   UNL     1      -1.159   3.596  -3.769  1.00  0.00    -0.299 N 
ATOM      8  C   UNL     1       0.116   4.269  -4.064  1.00  0.00     0.144 C 
ATOM      9  C   UNL     1      -1.350   4.700  -5.815  1.00  0.00     0.198 C 
ATOM     10  O   UNL     1      -0.168   5.162  -5.178  1.00  0.00    -0.353 OA
ATOM     11  C   UNL     1       0.574   5.242  -2.976  1.00  0.00     0.059 C 
ATOM     12  C   UNL     1       1.225   3.339  -4.583  1.00  0.00     0.059 C 
ATOM     13  C   UNL     1       1.878   5.957  -3.323  1.00  0.00     0.005 C 
ATOM     14  C   UNL     1       2.534   4.083  -4.867  1.00  0.00     0.005 C 
ATOM     15  C   UNL     1       2.965   4.955  -3.691  1.00  0.00     0.000 C 
BRANCH   7  16
ATOM     16  C   UNL     1      -1.635   2.857  -2.705  1.00  0.00     0.228 C 
ATOM     17  O   UNL     1      -2.835   2.530  -2.691  1.00  0.00    -0.274 OA
BRANCH  16  18
ATOM     18  C   UNL     1      -0.883   2.549  -1.398  1.00  0.00     0.078 C 
BRANCH  18  19
ATOM     19  C   UNL     1      -1.244   3.707  -0.429  1.00  0.00     0.013 C 
BRANCH  19  20
ATOM     20  C   UNL     1      -0.461   3.857   0.877  1.00  0.00     0.001 C 
BRANCH  20  21
ATOM     21  C   UNL     1       0.874   4.596   0.764  1.00  0.00    -0.003 C 
ATOM     22  C   UNL     1       0.737   6.074   0.421  1.00  0.00     0.004 C 
ENDBRANCH  20  21
ENDBRANCH  19  20
ENDBRANCH  18  19
BRANCH  18  23
ATOM     23  C   UNL     1       0.558   2.045  -1.433  1.00  0.00     0.010 C 
ATOM     24  C   UNL     1       0.712   0.724  -2.183  1.00  0.00     0.005 C 
ENDBRANCH  18  23
ENDBRANCH  16  18
ENDBRANCH   7  16
ENDBRANCH   3   6
ENDBRANCH   1   2
BRANCH   1  25
ATOM     25  C   UNL     1      -4.385   5.173  -7.648  1.00  0.00     0.042 C 
BRANCH  25  26
ATOM     26  C   UNL     1      -5.289   4.331  -8.539  1.00  0.00     0.118 C 
BRANCH  26  27
ATOM     27  N   UNL     1      -6.684   4.726  -8.421  1.00  0.00    -0.352 N 
ATOM     28  C   UNL     1      -7.557   5.109  -9.409  1.00  0.00     0.251 C 
ATOM     29  H   UNL     1      -7.052   4.716  -7.508  1.00  0.00     0.163 HD
ATOM     30  O   UNL     1      -8.620   5.638  -9.109  1.00  0.00    -0.269 OA
BRANCH  28  31
ATOM     31  C   UNL     1      -7.187   4.898 -10.824  1.00  0.00     0.039 A 
ATOM     32  C   UNL     1      -7.413   5.922 -11.745  1.00  0.00     0.014 A 
ATOM     33  C   UNL     1      -6.608   3.693 -11.234  1.00  0.00     0.014 A 
ATOM     34  C   UNL     1      -6.999   5.760 -13.068  1.00  0.00     0.010 A 
ATOM     35  C   UNL     1      -6.123   3.567 -12.530  1.00  0.00     0.010 A 
ATOM     36  C   UNL     1      -6.317   4.597 -13.462  1.00  0.00    -0.014 A 
BRANCH  36  37
ATOM     37  C   UNL     1      -5.803   4.430 -14.846  1.00  0.00     0.031 A 
ATOM     38  C   UNL     1      -6.328   3.318 -15.712  1.00  0.00     0.074 A 
ATOM     39  C   UNL     1      -4.820   5.234 -15.294  1.00  0.00     0.049 A 
ATOM     40  N   UNL     1      -5.942   2.943 -16.904  1.00  0.00    -0.248 NA
ATOM     41  C   UNL     1      -7.411   2.501 -15.144  1.00  0.00     0.031 C 
ATOM     42  C   UNL     1      -4.213   6.330 -14.537  1.00  0.00     0.029 A 
ATOM     43  N   UNL     1      -4.151   5.249 -16.492  1.00  0.00    -0.354 N 
ATOM     44  C   UNL     1      -6.727   1.841 -17.226  1.00  0.00     0.074 A 
ATOM     45  C   UNL     1      -7.555   1.567 -16.071  1.00  0.00     0.031 C 
ATOM     46  C   UNL     1      -3.285   6.930 -15.299  1.00  0.00     0.029 A 
ATOM     47  C   UNL     1      -3.188   6.228 -16.575  1.00  0.00     0.049 A 
ATOM     48  H   UNL     1      -4.342   4.619 -17.224  1.00  0.00     0.167 HD
ATOM     49  C   UNL     1      -6.772   1.140 -18.387  1.00  0.00     0.034 A 
ATOM     50  C   UNL     1      -2.315   6.517 -17.560  1.00  0.00     0.034 A 
ATOM     51  C   UNL     1      -5.933   1.427 -19.526  1.00  0.00     0.049 A 
ATOM     52  C   UNL     1      -2.336   5.684 -18.817  1.00  0.00     0.074 A 
ATOM     53  C   UNL     1      -5.914   0.806 -20.762  1.00  0.00     0.029 A 
ATOM     54  N   UNL     1      -4.952   2.412 -19.564  1.00  0.00    -0.354 N 
ATOM     55  N   UNL     1      -3.108   4.666 -19.122  1.00  0.00    -0.248 NA
ATOM     56  C   UNL     1      -1.372   6.045 -19.864  1.00  0.00     0.031 C 
ATOM     57  C   UNL     1      -4.874   1.359 -21.516  1.00  0.00     0.029 A 
ATOM     58  C   UNL     1      -4.301   2.390 -20.789  1.00  0.00     0.049 A 
ATOM     59  H   UNL     1      -4.749   3.034 -18.829  1.00  0.00     0.167 HD
ATOM     60  C   UNL     1      -2.748   4.291 -20.415  1.00  0.00     0.074 A 
ATOM     61  C   UNL     1      -1.697   5.198 -20.830  1.00  0.00     0.031 C 
ATOM     62  C   UNL     1      -3.247   3.294 -21.190  1.00  0.00     0.034 A 
BRANCH  49  63
ATOM     63  C   UNL     1      -7.741  -0.018 -18.457  1.00  0.00     0.023 A 
ATOM     64  C   UNL     1      -9.125   0.169 -18.294  1.00  0.00     0.031 A 
ATOM     65  C   UNL     1      -7.276  -1.333 -18.640  1.00  0.00     0.131 A 
ATOM     66  C   UNL     1      -9.980  -0.941 -18.216  1.00  0.00     0.055 A 
ATOM     67  C   UNL     1      -8.145  -2.426 -18.661  1.00  0.00     0.041 A 
ATOM     68  F   UNL     1      -5.964  -1.581 -18.780  1.00  0.00    -0.206 F 
ATOM     69  C   UNL     1      -9.503  -2.236 -18.427  1.00  0.00     0.022 A 
BRANCH  66  70
ATOM     70  S   UNL     1     -11.685  -0.679 -17.655  1.00  0.00     0.124 S 
ATOM     71  O   UNL     1     -11.473  -0.043 -16.357  1.00  0.00    -0.237 OA
ATOM     72  O   UNL     1     -12.234   0.174 -18.702  1.00  0.00    -0.237 OA
ATOM     73  O   UNL     1     -12.238  -2.030 -17.595  1.00  0.00    -0.744 OA
ENDBRANCH  66  70
ENDBRANCH  49  63
BRANCH  50  74
ATOM     74  C   UNL     1      -1.347   7.640 -17.405  1.00  0.00     0.023 A 
ATOM     75  C   UNL     1      -1.402   8.759 -18.250  1.00  0.00     0.031 A 
ATOM     76  C   UNL     1      -0.330   7.598 -16.434  1.00  0.00     0.131 A 
ATOM     77  C   UNL     1      -0.433   9.768 -18.141  1.00  0.00     0.055 A 
ATOM     78  C   UNL     1       0.597   8.632 -16.291  1.00  0.00     0.041 A 
ATOM     79  F   UNL     1      -0.233   6.553 -15.597  1.00  0.00    -0.206 F 
ATOM     80  C   UNL     1       0.556   9.720 -17.157  1.00  0.00     0.022 A 
BRANCH  77  81
ATOM     81  S   UNL     1      -0.433  11.107 -19.364  1.00  0.00     0.124 S 
ATOM     82  O   UNL     1      -0.271  10.368 -20.611  1.00  0.00    -0.237 OA
ATOM     83  O   UNL     1      -1.740  11.718 -19.145  1.00  0.00    -0.237 OA
ATOM     84  O   UNL     1       0.710  11.927 -18.970  1.00  0.00    -0.744 OA
ENDBRANCH  77  81
ENDBRANCH  50  74
BRANCH  62  85
ATOM     85  C   UNL     1      -2.698   3.172 -22.592  1.00  0.00     0.023 A 
ATOM     86  C   UNL     1      -1.360   2.822 -22.842  1.00  0.00     0.031 A 
ATOM     87  C   UNL     1      -3.533   3.418 -23.698  1.00  0.00     0.131 A 
ATOM     88  C   UNL     1      -0.881   2.784 -24.161  1.00  0.00     0.055 A 
ATOM     89  C   UNL     1      -3.069   3.311 -25.009  1.00  0.00     0.041 A 
ATOM     90  F   UNL     1      -4.819   3.762 -23.520  1.00  0.00    -0.206 F 
ATOM     91  C   UNL     1      -1.733   3.006 -25.247  1.00  0.00     0.022 A 
BRANCH  88  92
ATOM     92  S   UNL     1       0.895   2.542 -24.438  1.00  0.00     0.124 S 
ATOM     93  O   UNL     1       1.472   3.659 -23.698  1.00  0.00    -0.237 OA
ATOM     94  O   UNL     1       1.121   1.216 -23.870  1.00  0.00    -0.237 OA
ATOM     95  O   UNL     1       1.030   2.624 -25.891  1.00  0.00    -0.744 OA
ENDBRANCH  88  92
ENDBRANCH  62  85
ENDBRANCH  36  37
ENDBRANCH  28  31
ENDBRANCH  26  27
ENDBRANCH  25  26
ENDBRANCH   1  25
TORSDOF 19
