REMARK SMILES O=C(NCCCNC(=O)C1(O)CCC(F)(F)CC1)c1ccc(-c2c3nc(c(-c4cc(S(=O)(=O)[O-])ccc4F)c4ccc([nH]4)c(-c4cc(S(=O)(=O)[O-])ccc4F)c4nc(c(-c5cc(S(=O)(=O)[O-])ccc5F)c5ccc2[nH]5)C=C4)C=C3)cc1
REMARK SMILES IDX 4 1 3 2 1 3 2 4 19 6 20 7 81 8 21 9 80 10 22 11 23 12 24 13
REMARK SMILES IDX 74 14 25 15 79 16 73 17 75 18 26 19 78 20 72 21 71 22 27 24
REMARK SMILES IDX 59 25 39 26 58 27 40 28 43 29 57 30 76 31 41 32 42 33 56 35
REMARK SMILES IDX 77 36 44 37 28 38 29 39 37 40 30 41 36 42 38 43 35 44 31 45
REMARK SMILES IDX 32 46 33 47 34 48 60 49 61 50 69 51 62 52 68 53 70 54 67 55
REMARK SMILES IDX 63 56 64 57 65 58 66 59 45 60 46 61 54 62 47 63 53 64 55 65
REMARK SMILES IDX 52 66 48 67 49 68 50 69 51 70 5 71 6 72 7 73 8 74 9 76 10 77
REMARK SMILES IDX 12 78 18 79 13 80 17 81 14 82 15 83 16 84 11 85
REMARK H PARENT 3 5 75 23 43 34 7 75 11 86
REMARK Flexibility Score: inf
ROOT
ATOM      1  C   UNL     1       4.202  -0.158   1.586  1.00  0.00     0.118 C 
ENDROOT
BRANCH   1   2
ATOM      2  N   UNL     1       2.811  -0.248   1.175  1.00  0.00    -0.352 N 
ATOM      3  O   UNL     1       1.000  -0.048  -0.126  1.00  0.00    -0.269 OA
ATOM      4  C   UNL     1       2.224  -0.141  -0.065  1.00  0.00     0.251 C 
ATOM      5  H   UNL     1       2.179  -0.415   1.911  1.00  0.00     0.163 HD
BRANCH   4   6
ATOM      6  C   UNL     1       3.027  -0.124  -1.313  1.00  0.00     0.039 A 
ATOM      7  C   UNL     1       4.152  -0.932  -1.473  1.00  0.00     0.014 A 
ATOM      8  C   UNL     1       2.591   0.660  -2.389  1.00  0.00     0.014 A 
ATOM      9  C   UNL     1       4.917  -0.852  -2.634  1.00  0.00     0.010 A 
ATOM     10  C   UNL     1       3.299   0.657  -3.598  1.00  0.00     0.010 A 
ATOM     11  C   UNL     1       4.481  -0.087  -3.727  1.00  0.00    -0.014 A 
BRANCH  11  12
ATOM     12  C   UNL     1       5.225  -0.164  -5.014  1.00  0.00     0.031 A 
ATOM     13  C   UNL     1       5.883   1.049  -5.611  1.00  0.00     0.074 A 
ATOM     14  C   UNL     1       5.322  -1.359  -5.634  1.00  0.00     0.049 A 
ATOM     15  N   UNL     1       6.562   1.155  -6.726  1.00  0.00    -0.248 NA
ATOM     16  C   UNL     1       5.755   2.309  -4.865  1.00  0.00     0.031 C 
ATOM     17  C   UNL     1       4.722  -2.607  -5.151  1.00  0.00     0.029 A 
ATOM     18  N   UNL     1       5.972  -1.732  -6.783  1.00  0.00    -0.354 N 
ATOM     19  C   UNL     1       6.933   2.492  -6.824  1.00  0.00     0.074 A 
ATOM     20  C   UNL     1       6.369   3.164  -5.672  1.00  0.00     0.031 C 
ATOM     21  C   UNL     1       5.079  -3.612  -5.963  1.00  0.00     0.029 A 
ATOM     22  C   UNL     1       5.859  -3.073  -7.069  1.00  0.00     0.049 A 
ATOM     23  H   UNL     1       6.471  -1.100  -7.350  1.00  0.00     0.167 HD
ATOM     24  C   UNL     1       7.681   3.096  -7.783  1.00  0.00     0.034 A 
ATOM     25  C   UNL     1       6.310  -3.791  -8.116  1.00  0.00     0.034 A 
ATOM     26  C   UNL     1       8.232   2.407  -8.928  1.00  0.00     0.049 A 
ATOM     27  C   UNL     1       7.085  -3.085  -9.194  1.00  0.00     0.074 A 
ATOM     28  C   UNL     1       9.017   2.919  -9.948  1.00  0.00     0.029 A 
ATOM     29  N   UNL     1       8.050   1.059  -9.213  1.00  0.00    -0.354 N 
ATOM     30  N   UNL     1       7.428  -1.819  -9.269  1.00  0.00    -0.248 NA
ATOM     31  C   UNL     1       7.533  -3.901 -10.328  1.00  0.00     0.031 C 
ATOM     32  C   UNL     1       9.248   1.902 -10.881  1.00  0.00     0.029 A 
ATOM     33  C   UNL     1       8.679   0.732 -10.406  1.00  0.00     0.049 A 
ATOM     34  H   UNL     1       7.547   0.427  -8.650  1.00  0.00     0.167 HD
ATOM     35  C   UNL     1       8.152  -1.694 -10.450  1.00  0.00     0.074 A 
ATOM     36  C   UNL     1       8.213  -3.016 -11.041  1.00  0.00     0.031 C 
ATOM     37  C   UNL     1       8.717  -0.587 -10.995  1.00  0.00     0.034 A 
BRANCH  24  38
ATOM     38  C   UNL     1       7.907   4.586  -7.656  1.00  0.00     0.023 A 
ATOM     39  C   UNL     1       8.624   5.139  -6.580  1.00  0.00     0.031 A 
ATOM     40  C   UNL     1       7.385   5.469  -8.619  1.00  0.00     0.131 A 
ATOM     41  C   UNL     1       8.740   6.533  -6.457  1.00  0.00     0.055 A 
ATOM     42  C   UNL     1       7.573   6.850  -8.533  1.00  0.00     0.041 A 
ATOM     43  F   UNL     1       6.674   5.004  -9.658  1.00  0.00    -0.206 F 
ATOM     44  C   UNL     1       8.242   7.391  -7.440  1.00  0.00     0.022 A 
BRANCH  41  45
ATOM     45  S   UNL     1       9.430   7.215  -4.924  1.00  0.00     0.124 S 
ATOM     46  O   UNL     1       8.522   6.662  -3.921  1.00  0.00    -0.237 OA
ATOM     47  O   UNL     1      10.786   6.680  -4.923  1.00  0.00    -0.237 OA
ATOM     48  O   UNL     1       9.328   8.660  -5.115  1.00  0.00    -0.744 OA
ENDBRANCH  41  45
ENDBRANCH  24  38
BRANCH  25  49
ATOM     49  C   UNL     1       6.008  -5.248  -8.215  1.00  0.00     0.023 A 
ATOM     50  C   UNL     1       7.035  -6.204  -8.203  1.00  0.00     0.031 A 
ATOM     51  C   UNL     1       4.684  -5.705  -8.352  1.00  0.00     0.131 A 
ATOM     52  C   UNL     1       6.726  -7.563  -8.364  1.00  0.00     0.055 A 
ATOM     53  C   UNL     1       4.377  -7.062  -8.453  1.00  0.00     0.041 A 
ATOM     54  F   UNL     1       3.663  -4.833  -8.367  1.00  0.00    -0.206 F 
ATOM     55  C   UNL     1       5.404  -8.000  -8.473  1.00  0.00     0.022 A 
BRANCH  52  56
ATOM     56  S   UNL     1       8.088  -8.751  -8.514  1.00  0.00     0.124 S 
ATOM     57  O   UNL     1       8.815  -8.226  -9.665  1.00  0.00    -0.237 OA
ATOM     58  O   UNL     1       8.750  -8.617  -7.221  1.00  0.00    -0.237 OA
ATOM     59  O   UNL     1       7.406 -10.024  -8.735  1.00  0.00    -0.744 OA
ENDBRANCH  52  56
ENDBRANCH  25  49
BRANCH  37  60
ATOM     60  C   UNL     1       9.484  -0.780 -12.280  1.00  0.00     0.023 A 
ATOM     61  C   UNL     1       8.843  -1.148 -13.477  1.00  0.00     0.031 A 
ATOM     62  C   UNL     1      10.881  -0.619 -12.300  1.00  0.00     0.131 A 
ATOM     63  C   UNL     1       9.605  -1.403 -14.627  1.00  0.00     0.055 A 
ATOM     64  C   UNL     1      11.626  -0.813 -13.463  1.00  0.00     0.041 A 
ATOM     65  F   UNL     1      11.544  -0.273 -11.185  1.00  0.00    -0.206 F 
ATOM     66  C   UNL     1      10.990  -1.221 -14.633  1.00  0.00     0.022 A 
BRANCH  63  67
ATOM     67  S   UNL     1       8.771  -2.072 -16.093  1.00  0.00     0.124 S 
ATOM     68  O   UNL     1       8.194  -3.308 -15.575  1.00  0.00    -0.237 OA
ATOM     69  O   UNL     1       7.822  -1.014 -16.423  1.00  0.00    -0.237 OA
ATOM     70  O   UNL     1       9.858  -2.250 -17.054  1.00  0.00    -0.744 OA
ENDBRANCH  63  67
ENDBRANCH  37  60
ENDBRANCH  11  12
ENDBRANCH   4   6
ENDBRANCH   1   2
BRANCH   1  71
ATOM     71  C   UNL     1       4.573   1.220   2.117  1.00  0.00     0.042 C 
BRANCH  71  72
ATOM     72  C   UNL     1       3.986   1.547   3.485  1.00  0.00     0.117 C 
BRANCH  72  73
ATOM     73  N   UNL     1       4.537   0.719   4.540  1.00  0.00    -0.354 N 
ATOM     74  C   UNL     1       5.479   0.863   5.495  1.00  0.00     0.251 C 
ATOM     75  H   UNL     1       4.118  -0.172   4.566  1.00  0.00     0.163 HD
ATOM     76  O   UNL     1       5.536  -0.100   6.277  1.00  0.00    -0.272 OA
BRANCH  74  77
ATOM     77  C   UNL     1       6.443   2.078   5.712  1.00  0.00     0.143 C 
ATOM     78  C   UNL     1       7.886   1.556   5.574  1.00  0.00     0.051 C 
ATOM     79  C   UNL     1       6.299   3.413   4.974  1.00  0.00     0.051 C 
ATOM     80  C   UNL     1       8.295   1.425   4.114  1.00  0.00     0.080 C 
ATOM     81  C   UNL     1       6.900   3.484   3.571  1.00  0.00     0.080 C 
ATOM     82  C   UNL     1       8.238   2.777   3.428  1.00  0.00     0.248 C 
ATOM     83  F   UNL     1       8.523   2.622   2.114  1.00  0.00    -0.207 F 
ATOM     84  F   UNL     1       9.209   3.570   3.950  1.00  0.00    -0.207 F 
BRANCH  77  85
ATOM     85  O   UNL     1       6.288   2.419   7.113  1.00  0.00    -0.380 OA
ATOM     86  H   UNL     1       6.368   1.617   7.652  1.00  0.00     0.212 HD
ENDBRANCH  77  85
ENDBRANCH  74  77
ENDBRANCH  72  73
ENDBRANCH  71  72
ENDBRANCH   1  71
TORSDOF 14
