REMARK SMILES C[C@H]1N=c2ccc(OC(F)(F)F)cc2=C1CCN1C(=O)c2ccc(C(=O)NCCCNC(=O)c3ccc(-c4c5nc(c(-c6cc(S(=O)(=O)[O-])ccc6F)c6ccc([nH]6)c(-c6cc(S(=O)(=O)[O-])ccc6F)c6nc(c(-c7cc(S(=O)(=O)[O-])ccc7F)c7ccc4[nH]7)C=C6)C=C5)cc3)cc2C1=O
REMARK SMILES IDX 28 1 27 2 25 3 26 4 24 6 18 7 19 8 99 9 20 10 21 11 98 12
REMARK SMILES IDX 100 13 22 14 97 15 23 16 17 17 16 18 15 19 1 20 2 21 3 22
REMARK SMILES IDX 4 23 14 24 5 25 13 26 6 27 7 28 8 29 9 30 10 31 11 32 12 33
REMARK SMILES IDX 29 34 30 35 31 36 32 37 33 39 34 40 35 41 96 42 36 43 95 44
REMARK SMILES IDX 37 45 38 46 39 47 89 48 40 49 94 50 88 51 90 52 41 53 93 54
REMARK SMILES IDX 87 55 86 56 42 58 74 59 54 60 73 61 55 62 58 63 72 64 91 65
REMARK SMILES IDX 56 66 57 67 71 69 92 70 59 71 43 72 44 73 52 74 45 75 51 76
REMARK SMILES IDX 53 77 50 78 46 79 47 80 48 81 49 82 75 83 76 84 84 85 77 86
REMARK SMILES IDX 83 87 85 88 82 89 78 90 79 91 80 92 81 93 60 94 61 95 69 96
REMARK SMILES IDX 62 97 68 98 70 99 67 100 63 101 64 102 65 103 66 104
REMARK H PARENT 27 5 31 38 90 57 58 68
REMARK Flexibility Score: inf
ROOT
ATOM      1  C   UNL     1      -4.101   0.079  -3.030  1.00  0.00     0.118 C 
ENDROOT
BRANCH   1   2
ATOM      2  N   UNL     1      -3.982   1.303  -3.807  1.00  0.00    -0.352 N 
ATOM      3  C   UNL     1      -2.950   2.185  -3.968  1.00  0.00     0.251 C 
ATOM      4  O   UNL     1      -3.027   3.055  -4.833  1.00  0.00    -0.269 OA
ATOM      5  H   UNL     1      -4.795   1.540  -4.310  1.00  0.00     0.163 HD
BRANCH   3   6
ATOM      6  C   UNL     1      -1.703   2.098  -3.182  1.00  0.00     0.040 A 
ATOM      7  N   UNL     1       1.268   1.886   0.302  1.00  0.00    -0.274 N 
ATOM      8  C   UNL     1       1.829   1.899  -0.947  1.00  0.00     0.261 C 
ATOM      9  C   UNL     1      -0.072   2.176   0.248  1.00  0.00     0.261 C 
ATOM     10  O   UNL     1       2.997   1.786  -1.271  1.00  0.00    -0.269 OA
ATOM     11  C   UNL     1       0.731   2.056  -1.897  1.00  0.00     0.053 A 
ATOM     12  C   UNL     1      -0.443   2.193  -1.173  1.00  0.00     0.054 A 
ATOM     13  O   UNL     1      -0.857   2.358   1.154  1.00  0.00    -0.269 OA
ATOM     14  C   UNL     1       0.744   1.982  -3.275  1.00  0.00     0.015 A 
ATOM     15  C   UNL     1      -1.688   2.207  -1.784  1.00  0.00     0.028 A 
ATOM     16  C   UNL     1      -0.495   2.018  -3.920  1.00  0.00     0.015 A 
BRANCH   7  17
ATOM     17  C   UNL     1       2.052   1.685   1.510  1.00  0.00     0.134 C 
BRANCH  17  18
ATOM     18  C   UNL     1       1.444   0.775   2.594  1.00  0.00     0.056 C 
BRANCH  18  19
ATOM     19  C   UNL     1       1.181  -0.682   2.296  1.00  0.00    -0.035 C 
ATOM     20  C   UNL     1       0.339  -1.157  -0.084  1.00  0.00     0.038 C 
ATOM     21  C   UNL     1       0.032  -1.136   1.414  1.00  0.00     0.129 C 
ATOM     22  N   UNL     1      -0.175  -2.566   1.749  1.00  0.00    -0.277 NA
ATOM     23  C   UNL     1       0.846  -2.846   2.489  1.00  0.00     0.066 A 
ATOM     24  C   UNL     1       1.730  -1.745   2.901  1.00  0.00     0.005 A 
ATOM     25  C   UNL     1       1.179  -4.195   2.961  1.00  0.00     0.032 A 
ATOM     26  C   UNL     1       2.780  -1.981   3.850  1.00  0.00     0.057 A 
ATOM     27  C   UNL     1       2.234  -4.358   3.774  1.00  0.00     0.049 A 
ATOM     28  C   UNL     1       3.030  -3.238   4.274  1.00  0.00     0.130 A 
BRANCH  28  29
ATOM     29  O   UNL     1       4.044  -3.440   5.189  1.00  0.00    -0.406 OA
BRANCH  29  30
ATOM     30  C   UNL     1       4.249  -4.730   5.747  1.00  0.00     0.573 C 
ATOM     31  F   UNL     1       3.124  -5.208   6.318  1.00  0.00    -0.132 F 
ATOM     32  F   UNL     1       4.677  -5.595   4.801  1.00  0.00    -0.132 F 
ATOM     33  F   UNL     1       5.203  -4.649   6.699  1.00  0.00    -0.132 F 
ENDBRANCH  29  30
ENDBRANCH  28  29
ENDBRANCH  18  19
ENDBRANCH  17  18
ENDBRANCH   7  17
ENDBRANCH   3   6
ENDBRANCH   1   2
BRANCH   1  34
ATOM     34  C   UNL     1      -5.311   0.098  -2.099  1.00  0.00     0.042 C 
BRANCH  34  35
ATOM     35  C   UNL     1      -6.667   0.306  -2.776  1.00  0.00     0.118 C 
BRANCH  35  36
ATOM     36  N   UNL     1      -7.154  -0.848  -3.522  1.00  0.00    -0.352 N 
ATOM     37  C   UNL     1      -8.356  -1.521  -3.437  1.00  0.00     0.251 C 
ATOM     38  H   UNL     1      -6.526  -1.203  -4.193  1.00  0.00     0.163 HD
ATOM     39  O   UNL     1      -8.527  -2.528  -4.119  1.00  0.00    -0.269 OA
BRANCH  37  40
ATOM     40  C   UNL     1      -9.417  -1.075  -2.497  1.00  0.00     0.039 A 
ATOM     41  C   UNL     1      -9.731   0.274  -2.337  1.00  0.00     0.014 A 
ATOM     42  C   UNL     1     -10.108  -2.034  -1.746  1.00  0.00     0.014 A 
ATOM     43  C   UNL     1     -10.561   0.673  -1.292  1.00  0.00     0.010 A 
ATOM     44  C   UNL     1     -11.020  -1.633  -0.760  1.00  0.00     0.010 A 
ATOM     45  C   UNL     1     -11.204  -0.272  -0.474  1.00  0.00    -0.014 A 
BRANCH  45  46
ATOM     46  C   UNL     1     -12.043   0.195   0.668  1.00  0.00     0.031 A 
ATOM     47  C   UNL     1     -11.673  -0.132   2.094  1.00  0.00     0.074 A 
ATOM     48  C   UNL     1     -13.107   0.986   0.426  1.00  0.00     0.049 A 
ATOM     49  N   UNL     1     -12.229   0.283   3.205  1.00  0.00    -0.248 NA
ATOM     50  C   UNL     1     -10.539  -1.044   2.302  1.00  0.00     0.031 C 
ATOM     51  C   UNL     1     -13.575   1.366  -0.906  1.00  0.00     0.029 A 
ATOM     52  N   UNL     1     -13.963   1.640   1.279  1.00  0.00    -0.354 N 
ATOM     53  C   UNL     1     -11.515  -0.314   4.240  1.00  0.00     0.074 A 
ATOM     54  C   UNL     1     -10.524  -1.166   3.622  1.00  0.00     0.031 C 
ATOM     55  C   UNL     1     -14.583   2.240  -0.784  1.00  0.00     0.029 A 
ATOM     56  C   UNL     1     -14.883   2.434   0.633  1.00  0.00     0.049 A 
ATOM     57  H   UNL     1     -13.922   1.549   2.259  1.00  0.00     0.167 HD
ATOM     58  C   UNL     1     -11.653  -0.147   5.579  1.00  0.00     0.034 A 
ATOM     59  C   UNL     1     -15.858   3.232   1.116  1.00  0.00     0.034 A 
ATOM     60  C   UNL     1     -12.644   0.707   6.187  1.00  0.00     0.049 A 
ATOM     61  C   UNL     1     -16.020   3.373   2.607  1.00  0.00     0.074 A 
ATOM     62  C   UNL     1     -12.850   0.954   7.534  1.00  0.00     0.029 A 
ATOM     63  N   UNL     1     -13.592   1.453   5.500  1.00  0.00    -0.354 N 
ATOM     64  N   UNL     1     -15.300   2.844   3.569  1.00  0.00    -0.248 NA
ATOM     65  C   UNL     1     -17.120   4.223   3.083  1.00  0.00     0.031 C 
ATOM     66  C   UNL     1     -13.960   1.790   7.663  1.00  0.00     0.029 A 
ATOM     67  C   UNL     1     -14.402   2.135   6.396  1.00  0.00     0.049 A 
ATOM     68  H   UNL     1     -13.678   1.492   4.520  1.00  0.00     0.167 HD
ATOM     69  C   UNL     1     -15.852   3.305   4.761  1.00  0.00     0.074 A 
ATOM     70  C   UNL     1     -16.941   4.188   4.397  1.00  0.00     0.031 C 
ATOM     71  C   UNL     1     -15.492   3.014   6.038  1.00  0.00     0.034 A 
BRANCH  58  72
ATOM     72  C   UNL     1     -10.703  -0.884   6.498  1.00  0.00     0.023 A 
ATOM     73  C   UNL     1     -11.195  -1.812   7.435  1.00  0.00     0.031 A 
ATOM     74  C   UNL     1      -9.329  -0.582   6.526  1.00  0.00     0.131 A 
ATOM     75  C   UNL     1     -10.326  -2.382   8.376  1.00  0.00     0.055 A 
ATOM     76  C   UNL     1      -8.459  -1.188   7.434  1.00  0.00     0.041 A 
ATOM     77  F   UNL     1      -8.806   0.301   5.659  1.00  0.00    -0.206 F 
ATOM     78  C   UNL     1      -8.960  -2.083   8.373  1.00  0.00     0.022 A 
BRANCH  75  79
ATOM     79  S   UNL     1     -10.943  -3.477   9.685  1.00  0.00     0.124 S 
ATOM     80  O   UNL     1     -10.220  -4.716   9.403  1.00  0.00    -0.237 OA
ATOM     81  O   UNL     1     -10.524  -2.773  10.894  1.00  0.00    -0.237 OA
ATOM     82  O   UNL     1     -12.381  -3.530   9.451  1.00  0.00    -0.744 OA
ENDBRANCH  75  79
ENDBRANCH  58  72
BRANCH  59  83
ATOM     83  C   UNL     1     -16.702   4.001   0.153  1.00  0.00     0.023 A 
ATOM     84  C   UNL     1     -17.487   3.337  -0.808  1.00  0.00     0.031 A 
ATOM     85  C   UNL     1     -16.631   5.402   0.093  1.00  0.00     0.131 A 
ATOM     86  C   UNL     1     -18.090   4.066  -1.840  1.00  0.00     0.055 A 
ATOM     87  C   UNL     1     -17.302   6.132  -0.889  1.00  0.00     0.041 A 
ATOM     88  F   UNL     1     -15.888   6.081   0.981  1.00  0.00    -0.206 F 
ATOM     89  C   UNL     1     -18.018   5.462  -1.877  1.00  0.00     0.022 A 
BRANCH  86  90
ATOM     90  S   UNL     1     -18.853   3.218  -3.251  1.00  0.00     0.124 S 
ATOM     91  O   UNL     1     -20.211   3.753  -3.231  1.00  0.00    -0.237 OA
ATOM     92  O   UNL     1     -18.012   3.670  -4.357  1.00  0.00    -0.237 OA
ATOM     93  O   UNL     1     -18.726   1.804  -2.913  1.00  0.00    -0.744 OA
ENDBRANCH  86  90
ENDBRANCH  59  83
BRANCH  71  94
ATOM     94  C   UNL     1     -16.281   3.635   7.170  1.00  0.00     0.023 A 
ATOM     95  C   UNL     1     -15.643   4.476   8.102  1.00  0.00     0.031 A 
ATOM     96  C   UNL     1     -17.624   3.288   7.404  1.00  0.00     0.131 A 
ATOM     97  C   UNL     1     -16.335   4.911   9.241  1.00  0.00     0.055 A 
ATOM     98  C   UNL     1     -18.325   3.767   8.512  1.00  0.00     0.041 A 
ATOM     99  F   UNL     1     -18.277   2.478   6.555  1.00  0.00    -0.206 F 
ATOM    100  C   UNL     1     -17.676   4.570   9.444  1.00  0.00     0.022 A 
BRANCH  97 101
ATOM    101  S   UNL     1     -15.498   5.854  10.546  1.00  0.00     0.124 S 
ATOM    102  O   UNL     1     -16.240   7.112  10.532  1.00  0.00    -0.237 OA
ATOM    103  O   UNL     1     -15.716   5.014  11.721  1.00  0.00    -0.237 OA
ATOM    104  O   UNL     1     -14.116   5.942  10.086  1.00  0.00    -0.744 OA
ENDBRANCH  97 101
ENDBRANCH  71  94
ENDBRANCH  45  46
ENDBRANCH  37  40
ENDBRANCH  35  36
ENDBRANCH  34  35
ENDBRANCH   1  34
TORSDOF 18
