REMARK SMILES C[C@H]1CN(C(=O)N2CC[NH+]([C@@H](C)C(=O)NCCCNC(=O)c3ccc(-c4c5nc(c(-c6cc(S(=O)(=O)[O-])ccc6F)c6ccc([nH]6)c(-c6cc(S(=O)(=O)[O-])ccc6F)c6nc(c(-c7cc(S(=O)(=O)[O-])ccc7F)c7ccc4[nH]7)C=C6)C=C5)cc3)CC2)C[C@@H]1C
REMARK SMILES IDX 18 1 17 2 16 3 15 4 13 5 14 6 11 8 12 9 10 10 1 11 2 12 3 13
REMARK SMILES IDX 88 14 4 15 87 16 89 17 5 18 6 19 7 20 8 21 86 22 9 23 85 24
REMARK SMILES IDX 19 26 20 27 21 29 22 30 23 31 84 32 24 33 83 34 25 35 26 36
REMARK SMILES IDX 27 37 77 38 28 39 82 40 76 41 78 42 29 43 81 44 75 45 74 46
REMARK SMILES IDX 30 48 62 49 42 50 61 51 43 52 46 53 60 54 79 55 44 56 45 57
REMARK SMILES IDX 59 59 80 60 47 61 31 62 32 63 40 64 33 65 39 66 41 67 38 68
REMARK SMILES IDX 34 69 35 70 36 71 37 72 63 73 64 74 72 75 65 76 71 77 73 78
REMARK SMILES IDX 70 79 66 80 67 81 68 82 69 83 48 84 49 85 57 86 50 87 56 88
REMARK SMILES IDX 58 89 55 90 51 91 52 92 53 93 54 94
REMARK H PARENT 15 7 10 25 19 28 78 47 46 58
REMARK Flexibility Score: inf
ROOT
ATOM      1  C   UNL     1      -1.629  -2.433   8.736  1.00  0.00     0.118 C 
ENDROOT
BRANCH   1   2
ATOM      2  C   UNL     1      -1.954  -2.458   7.252  1.00  0.00     0.042 C 
BRANCH   2   3
ATOM      3  C   UNL     1      -3.438  -2.659   6.939  1.00  0.00     0.118 C 
BRANCH   3   4
ATOM      4  N   UNL     1      -4.182  -1.412   6.993  1.00  0.00    -0.351 N 
ATOM      5  C   UNL     1      -4.785  -0.644   6.041  1.00  0.00     0.278 C 
ATOM      6  O   UNL     1      -5.275   0.419   6.448  1.00  0.00    -0.268 OA
ATOM      7  H   UNL     1      -4.269  -1.047   7.903  1.00  0.00     0.163 HD
BRANCH   5   8
ATOM      8  C   UNL     1      -4.917  -1.031   4.538  1.00  0.00     0.271 C 
ATOM      9  C   UNL     1      -5.541  -2.404   4.301  1.00  0.00     0.086 C 
BRANCH   8  10
ATOM     10  N   UNL     1      -3.772  -0.587   3.708  1.00  0.00    -0.322 N 
ATOM     11  C   UNL     1       0.318  -1.267  -1.983  1.00  0.00     0.010 C 
ATOM     12  C   UNL     1       0.818  -1.337  -0.538  1.00  0.00     0.010 C 
ATOM     13  C   UNL     1      -0.353  -1.442   0.435  1.00  0.00     0.125 C 
ATOM     14  C   UNL     1       1.607  -2.631  -0.258  1.00  0.00     0.010 C 
ATOM     15  N   UNL     1      -0.569  -2.873   0.603  1.00  0.00    -0.324 N 
ATOM     16  C   UNL     1       0.497  -3.655  -0.000  1.00  0.00     0.125 C 
ATOM     17  C   UNL     1       2.506  -2.485   0.976  1.00  0.00     0.010 C 
ATOM     18  C   UNL     1      -1.485  -3.438   1.457  1.00  0.00     0.320 C 
ATOM     19  O   UNL     1      -1.556  -4.639   1.693  1.00  0.00    -0.248 OA
ATOM     20  N   UNL     1      -2.232  -2.509   2.143  1.00  0.00    -0.313 N 
ATOM     21  C   UNL     1      -2.085  -2.462   3.581  1.00  0.00     0.183 C 
ATOM     22  C   UNL     1      -3.516  -2.063   1.623  1.00  0.00     0.183 C 
ATOM     23  C   UNL     1      -2.434  -1.056   4.077  1.00  0.00     0.284 C 
ATOM     24  C   UNL     1      -3.959  -0.718   2.248  1.00  0.00     0.284 C 
ATOM     25  H   UNL     1      -3.792   0.403   3.954  1.00  0.00     0.348 HD
ENDBRANCH   8  10
ENDBRANCH   5   8
ENDBRANCH   3   4
ENDBRANCH   2   3
ENDBRANCH   1   2
BRANCH   1  26
ATOM     26  N   UNL     1      -1.521  -3.770   9.293  1.00  0.00    -0.352 N 
ATOM     27  C   UNL     1      -0.422  -4.445   9.772  1.00  0.00     0.251 C 
ATOM     28  H   UNL     1      -2.367  -4.272   9.333  1.00  0.00     0.163 HD
ATOM     29  O   UNL     1      -0.519  -5.652   9.980  1.00  0.00    -0.269 OA
BRANCH  27  30
ATOM     30  C   UNL     1       0.868  -3.750  10.017  1.00  0.00     0.039 A 
ATOM     31  C   UNL     1       2.062  -4.441   9.782  1.00  0.00     0.014 A 
ATOM     32  C   UNL     1       0.921  -2.449  10.521  1.00  0.00     0.014 A 
ATOM     33  C   UNL     1       3.293  -3.814  10.005  1.00  0.00     0.010 A 
ATOM     34  C   UNL     1       2.144  -1.790  10.642  1.00  0.00     0.010 A 
ATOM     35  C   UNL     1       3.347  -2.472  10.411  1.00  0.00    -0.014 A 
BRANCH  35  36
ATOM     36  C   UNL     1       4.644  -1.780  10.652  1.00  0.00     0.031 A 
ATOM     37  C   UNL     1       4.965  -1.246  12.026  1.00  0.00     0.074 A 
ATOM     38  C   UNL     1       5.506  -1.582   9.634  1.00  0.00     0.049 A 
ATOM     39  N   UNL     1       5.991  -0.538  12.424  1.00  0.00    -0.248 NA
ATOM     40  C   UNL     1       3.978  -1.513  13.083  1.00  0.00     0.031 C 
ATOM     41  C   UNL     1       5.295  -2.015   8.252  1.00  0.00     0.029 A 
ATOM     42  N   UNL     1       6.729  -0.960   9.602  1.00  0.00    -0.354 N 
ATOM     43  C   UNL     1       5.760  -0.256  13.768  1.00  0.00     0.074 A 
ATOM     44  C   UNL     1       4.463  -0.809  14.093  1.00  0.00     0.031 C 
ATOM     45  C   UNL     1       6.364  -1.673   7.515  1.00  0.00     0.029 A 
ATOM     46  C   UNL     1       7.316  -0.954   8.357  1.00  0.00     0.049 A 
ATOM     47  H   UNL     1       7.148  -0.555  10.396  1.00  0.00     0.167 HD
ATOM     48  C   UNL     1       6.565   0.379  14.657  1.00  0.00     0.034 A 
ATOM     49  C   UNL     1       8.482  -0.423   7.939  1.00  0.00     0.034 A 
ATOM     50  C   UNL     1       7.868   0.901  14.322  1.00  0.00     0.049 A 
ATOM     51  C   UNL     1       9.358   0.288   8.939  1.00  0.00     0.074 A 
ATOM     52  C   UNL     1       8.793   1.510  15.152  1.00  0.00     0.029 A 
ATOM     53  N   UNL     1       8.431   0.879  13.052  1.00  0.00    -0.354 N 
ATOM     54  N   UNL     1       9.145   0.506  10.217  1.00  0.00    -0.248 NA
ATOM     55  C   UNL     1      10.637   0.812   8.444  1.00  0.00     0.031 C 
ATOM     56  C   UNL     1       9.883   1.914  14.374  1.00  0.00     0.029 A 
ATOM     57  C   UNL     1       9.676   1.489  13.071  1.00  0.00     0.049 A 
ATOM     58  H   UNL     1       8.007   0.488  12.254  1.00  0.00     0.167 HD
ATOM     59  C   UNL     1      10.278   1.167  10.683  1.00  0.00     0.074 A 
ATOM     60  C   UNL     1      11.176   1.296   9.553  1.00  0.00     0.031 C 
ATOM     61  C   UNL     1      10.556   1.620  11.933  1.00  0.00     0.034 A 
BRANCH  48  62
ATOM     62  C   UNL     1       6.042   0.558  16.064  1.00  0.00     0.023 A 
ATOM     63  C   UNL     1       5.725  -0.542  16.882  1.00  0.00     0.031 A 
ATOM     64  C   UNL     1       5.816   1.845  16.584  1.00  0.00     0.131 A 
ATOM     65  C   UNL     1       5.118  -0.338  18.130  1.00  0.00     0.055 A 
ATOM     66  C   UNL     1       5.295   2.043  17.865  1.00  0.00     0.041 A 
ATOM     67  F   UNL     1       6.079   2.936  15.847  1.00  0.00    -0.206 F 
ATOM     68  C   UNL     1       4.924   0.947  18.639  1.00  0.00     0.022 A 
BRANCH  65  69
ATOM     69  S   UNL     1       4.435  -1.774  19.004  1.00  0.00     0.124 S 
ATOM     70  O   UNL     1       3.481  -2.288  18.023  1.00  0.00    -0.237 OA
ATOM     71  O   UNL     1       5.617  -2.594  19.236  1.00  0.00    -0.237 OA
ATOM     72  O   UNL     1       3.832  -1.192  20.201  1.00  0.00    -0.744 OA
ENDBRANCH  65  69
ENDBRANCH  48  62
BRANCH  49  73
ATOM     73  C   UNL     1       8.893  -0.536   6.510  1.00  0.00     0.023 A 
ATOM     74  C   UNL     1      10.027  -1.277   6.140  1.00  0.00     0.031 A 
ATOM     75  C   UNL     1       8.177   0.122   5.494  1.00  0.00     0.131 A 
ATOM     76  C   UNL     1      10.437  -1.307   4.797  1.00  0.00     0.055 A 
ATOM     77  C   UNL     1       8.559   0.047   4.153  1.00  0.00     0.041 A 
ATOM     78  F   UNL     1       7.081   0.839   5.792  1.00  0.00    -0.206 F 
ATOM     79  C   UNL     1       9.703  -0.662   3.800  1.00  0.00     0.022 A 
BRANCH  76  80
ATOM     80  S   UNL     1      11.993  -2.143   4.381  1.00  0.00     0.124 S 
ATOM     81  O   UNL     1      12.951  -1.411   5.201  1.00  0.00    -0.237 OA
ATOM     82  O   UNL     1      11.716  -3.517   4.788  1.00  0.00    -0.237 OA
ATOM     83  O   UNL     1      12.115  -1.935   2.940  1.00  0.00    -0.744 OA
ENDBRANCH  76  80
ENDBRANCH  49  73
BRANCH  61  84
ATOM     84  C   UNL     1      11.908   2.255  12.147  1.00  0.00     0.023 A 
ATOM     85  C   UNL     1      12.256   3.477  11.546  1.00  0.00     0.031 A 
ATOM     86  C   UNL     1      12.864   1.621  12.960  1.00  0.00     0.131 A 
ATOM     87  C   UNL     1      13.547   3.998  11.721  1.00  0.00     0.055 A 
ATOM     88  C   UNL     1      14.126   2.175  13.180  1.00  0.00     0.041 A 
ATOM     89  F   UNL     1      12.585   0.451  13.557  1.00  0.00    -0.206 F 
ATOM     90  C   UNL     1      14.478   3.364  12.548  1.00  0.00     0.022 A 
BRANCH  87  91
ATOM     91  S   UNL     1      14.027   5.471  10.778  1.00  0.00     0.124 S 
ATOM     92  O   UNL     1      13.826   5.029   9.402  1.00  0.00    -0.237 OA
ATOM     93  O   UNL     1      13.089   6.476  11.268  1.00  0.00    -0.237 OA
ATOM     94  O   UNL     1      15.421   5.686  11.163  1.00  0.00    -0.744 OA
ENDBRANCH  87  91
ENDBRANCH  61  84
ENDBRANCH  35  36
ENDBRANCH  27  30
ENDBRANCH   1  26
TORSDOF 14
