REMARK SMILES O=C(NCCCNC(=O)[C@H](Cc1ccccc1)SCc1nccs1)c1ccc(-c2c3nc(c(-c4cc(S(=O)(=O)[O-])ccc4F)c4ccc([nH]4)c(-c4cc(S(=O)(=O)[O-])ccc4F)c4nc(c(-c5cc(S(=O)(=O)[O-])ccc5F)c5ccc2[nH]5)C=C4)C=C3)cc1
REMARK SMILES IDX 5 1 4 2 3 3 1 4 2 5 25 7 26 8 87 9 27 10 86 11 28 12 29 13
REMARK SMILES IDX 30 14 80 15 31 16 85 17 79 18 81 19 32 20 84 21 78 22 77 23
REMARK SMILES IDX 33 25 65 26 45 27 64 28 46 29 49 30 63 31 82 32 47 33 48 34
REMARK SMILES IDX 62 36 83 37 50 38 34 39 35 40 43 41 36 42 42 43 44 44 41 45
REMARK SMILES IDX 37 46 38 47 39 48 40 49 66 50 67 51 75 52 68 53 74 54 76 55
REMARK SMILES IDX 73 56 69 57 70 58 71 59 72 60 51 61 52 62 60 63 53 64 59 65
REMARK SMILES IDX 61 66 58 67 54 68 55 69 56 70 57 71 6 72 7 73 8 74 9 76
REMARK SMILES IDX 10 77 18 78 19 79 20 80 21 81 24 82 22 83 23 84 11 85 12 86
REMARK SMILES IDX 13 87 17 88 14 89 16 90 15 91
REMARK H PARENT 3 6 81 24 49 35 7 75
REMARK Flexibility Score: inf
ROOT
ATOM      1  C   UNL     1       7.729   1.500  -2.447  1.00  0.00     0.042 C 
ENDROOT
BRANCH   1   2
ATOM      2  C   UNL     1       8.170   0.654  -0.999  1.00  0.00     0.118 C 
BRANCH   2   3
ATOM      3  N   UNL     1       9.580   0.655  -0.572  1.00  0.00    -0.352 N 
ATOM      4  O   UNL     1      11.363   1.305   0.650  1.00  0.00    -0.269 OA
ATOM      5  C   UNL     1      10.153   1.127   0.574  1.00  0.00     0.251 C 
ATOM      6  H   UNL     1      10.208   0.252  -1.214  1.00  0.00     0.163 HD
BRANCH   5   7
ATOM      7  C   UNL     1       9.278   1.344   1.727  1.00  0.00     0.039 A 
ATOM      8  C   UNL     1       8.338   0.354   2.023  1.00  0.00     0.014 A 
ATOM      9  C   UNL     1       9.391   2.501   2.496  1.00  0.00     0.014 A 
ATOM     10  C   UNL     1       7.419   0.575   3.022  1.00  0.00     0.010 A 
ATOM     11  C   UNL     1       8.531   2.672   3.577  1.00  0.00     0.010 A 
ATOM     12  C   UNL     1       7.544   1.708   3.838  1.00  0.00    -0.014 A 
BRANCH  12  13
ATOM     13  C   UNL     1       6.688   1.774   5.035  1.00  0.00     0.031 A 
ATOM     14  C   UNL     1       5.615   2.806   5.149  1.00  0.00     0.074 A 
ATOM     15  C   UNL     1       6.864   0.812   5.960  1.00  0.00     0.049 A 
ATOM     16  N   UNL     1       4.757   2.988   6.115  1.00  0.00    -0.248 NA
ATOM     17  C   UNL     1       5.493   3.765   4.041  1.00  0.00     0.031 C 
ATOM     18  C   UNL     1       7.890  -0.239   5.889  1.00  0.00     0.029 A 
ATOM     19  N   UNL     1       6.178   0.521   7.104  1.00  0.00    -0.354 N 
ATOM     20  C   UNL     1       3.995   4.087   5.742  1.00  0.00     0.074 A 
ATOM     21  C   UNL     1       4.518   4.552   4.474  1.00  0.00     0.031 C 
ATOM     22  C   UNL     1       7.715  -1.096   6.901  1.00  0.00     0.029 A 
ATOM     23  C   UNL     1       6.641  -0.602   7.748  1.00  0.00     0.049 A 
ATOM     24  H   UNL     1       5.425   1.063   7.435  1.00  0.00     0.167 HD
ATOM     25  C   UNL     1       2.954   4.642   6.409  1.00  0.00     0.034 A 
ATOM     26  C   UNL     1       6.260  -1.150   8.915  1.00  0.00     0.034 A 
ATOM     27  C   UNL     1       2.485   4.147   7.683  1.00  0.00     0.049 A 
ATOM     28  C   UNL     1       5.136  -0.479   9.655  1.00  0.00     0.074 A 
ATOM     29  C   UNL     1       1.470   4.638   8.483  1.00  0.00     0.029 A 
ATOM     30  N   UNL     1       3.008   3.038   8.344  1.00  0.00    -0.354 N 
ATOM     31  N   UNL     1       4.442   0.582   9.307  1.00  0.00    -0.248 NA
ATOM     32  C   UNL     1       4.745  -1.072  10.934  1.00  0.00     0.031 C 
ATOM     33  C   UNL     1       1.420   3.866   9.650  1.00  0.00     0.029 A 
ATOM     34  C   UNL     1       2.349   2.842   9.548  1.00  0.00     0.049 A 
ATOM     35  H   UNL     1       3.741   2.474   8.005  1.00  0.00     0.167 HD
ATOM     36  C   UNL     1       3.521   0.780  10.328  1.00  0.00     0.074 A 
ATOM     37  C   UNL     1       3.726  -0.298  11.278  1.00  0.00     0.031 C 
ATOM     38  C   UNL     1       2.597   1.763  10.478  1.00  0.00     0.034 A 
BRANCH  25  39
ATOM     39  C   UNL     1       2.311   5.863   5.799  1.00  0.00     0.023 A 
ATOM     40  C   UNL     1       1.652   5.811   4.557  1.00  0.00     0.031 A 
ATOM     41  C   UNL     1       2.389   7.109   6.446  1.00  0.00     0.131 A 
ATOM     42  C   UNL     1       1.160   6.988   3.972  1.00  0.00     0.055 A 
ATOM     43  C   UNL     1       1.828   8.263   5.896  1.00  0.00     0.041 A 
ATOM     44  F   UNL     1       3.030   7.230   7.620  1.00  0.00    -0.206 F 
ATOM     45  C   UNL     1       1.220   8.210   4.646  1.00  0.00     0.022 A 
BRANCH  42  46
ATOM     46  S   UNL     1       0.563   6.924   2.260  1.00  0.00     0.124 S 
ATOM     47  O   UNL     1       1.756   6.471   1.547  1.00  0.00    -0.237 OA
ATOM     48  O   UNL     1      -0.533   5.967   2.341  1.00  0.00    -0.237 OA
ATOM     49  O   UNL     1       0.168   8.304   1.982  1.00  0.00    -0.744 OA
ENDBRANCH  42  46
ENDBRANCH  25  39
BRANCH  26  50
ATOM     50  C   UNL     1       6.975  -2.337   9.465  1.00  0.00     0.023 A 
ATOM     51  C   UNL     1       6.302  -3.540   9.721  1.00  0.00     0.031 A 
ATOM     52  C   UNL     1       8.349  -2.275   9.769  1.00  0.00     0.131 A 
ATOM     53  C   UNL     1       6.990  -4.614  10.309  1.00  0.00     0.055 A 
ATOM     54  C   UNL     1       9.043  -3.368  10.288  1.00  0.00     0.041 A 
ATOM     55  F   UNL     1       9.046  -1.150   9.545  1.00  0.00    -0.206 F 
ATOM     56  C   UNL     1       8.359  -4.542  10.577  1.00  0.00     0.022 A 
BRANCH  53  57
ATOM     57  S   UNL     1       6.042  -6.072  10.823  1.00  0.00     0.124 S 
ATOM     58  O   UNL     1       5.010  -5.475  11.662  1.00  0.00    -0.237 OA
ATOM     59  O   UNL     1       5.597  -6.609   9.541  1.00  0.00    -0.237 OA
ATOM     60  O   UNL     1       7.029  -6.886  11.530  1.00  0.00    -0.744 OA
ENDBRANCH  53  57
ENDBRANCH  26  50
BRANCH  38  61
ATOM     61  C   UNL     1       1.732   1.673  11.708  1.00  0.00     0.023 A 
ATOM     62  C   UNL     1       2.272   1.824  12.996  1.00  0.00     0.031 A 
ATOM     63  C   UNL     1       0.362   1.384  11.589  1.00  0.00     0.131 A 
ATOM     64  C   UNL     1       1.462   1.609  14.119  1.00  0.00     0.055 A 
ATOM     65  C   UNL     1      -0.455   1.243  12.710  1.00  0.00     0.041 A 
ATOM     66  F   UNL     1      -0.202   1.227  10.380  1.00  0.00    -0.206 F 
ATOM     67  C   UNL     1       0.098   1.337  13.984  1.00  0.00     0.022 A 
BRANCH  64  68
ATOM     68  S   UNL     1       2.243   1.567  15.754  1.00  0.00     0.124 S 
ATOM     69  O   UNL     1       3.222   0.496  15.594  1.00  0.00    -0.237 OA
ATOM     70  O   UNL     1       2.788   2.916  15.874  1.00  0.00    -0.237 OA
ATOM     71  O   UNL     1       1.133   1.264  16.656  1.00  0.00    -0.744 OA
ENDBRANCH  64  68
ENDBRANCH  38  61
ENDBRANCH  12  13
ENDBRANCH   5   7
ENDBRANCH   2   3
ENDBRANCH   1   2
BRANCH   1  72
ATOM     72  C   UNL     1       8.218   1.295  -4.571  1.00  0.00     0.117 C 
BRANCH  72  73
ATOM     73  N   UNL     1       8.047   0.065  -5.582  1.00  0.00    -0.355 N 
ATOM     74  C   UNL     1       6.961  -0.465  -6.225  1.00  0.00     0.233 C 
ATOM     75  H   UNL     1       8.891  -0.402  -5.782  1.00  0.00     0.163 HD
ATOM     76  O   UNL     1       7.186  -1.474  -6.901  1.00  0.00    -0.274 OA
BRANCH  74  77
ATOM     77  C   UNL     1       5.567   0.228  -6.171  1.00  0.00     0.140 C 
BRANCH  77  78
ATOM     78  S   UNL     1       4.233  -0.935  -6.765  1.00  0.00    -0.141 SA
BRANCH  78  79
ATOM     79  C   UNL     1       3.393  -1.524  -5.255  1.00  0.00     0.137 C 
BRANCH  79  80
ATOM     80  C   UNL     1       4.101  -2.572  -4.452  1.00  0.00     0.102 A 
ATOM     81  N   UNL     1       4.524  -3.732  -4.913  1.00  0.00    -0.249 NA
ATOM     82  S   UNL     1       4.225  -2.389  -2.737  1.00  0.00    -0.126 S 
ATOM     83  C   UNL     1       5.006  -4.509  -3.878  1.00  0.00     0.123 A 
ATOM     84  C   UNL     1       4.946  -3.938  -2.627  1.00  0.00     0.087 A 
ENDBRANCH  79  80
ENDBRANCH  78  79
ENDBRANCH  77  78
BRANCH  77  85
ATOM     85  C   UNL     1       5.150   1.120  -4.985  1.00  0.00     0.060 C 
BRANCH  85  86
ATOM     86  C   UNL     1       6.240   1.279  -3.963  1.00  0.00    -0.046 A 
ATOM     87  C   UNL     1       7.179  -0.196  -3.487  1.00  0.00     0.004 A 
ATOM     88  C   UNL     1       7.004   2.912  -3.866  1.00  0.00     0.004 A 
ATOM     89  C   UNL     1       8.950  -0.040  -3.165  1.00  0.00     0.000 A 
ATOM     90  C   UNL     1       8.756   3.058  -3.503  1.00  0.00     0.000 A 
ATOM     91  C   UNL     1       9.720   1.597  -3.110  1.00  0.00     0.000 A 
ENDBRANCH  85  86
ENDBRANCH  77  85
ENDBRANCH  74  77
ENDBRANCH  72  73
ENDBRANCH   1  72
TORSDOF 18
