REMARK SMILES O=C(CCn1cc(/C=C2/[NH+]=C(S)N(c3ccccc3)C2=O)c(-c2ccc(Br)cc2)n1)NCCCNC(=O)c1ccc(-c2c3nc(c(-c4cc(S(=O)(=O)[O-])ccc4F)c4ccc([nH]4)c(-c4cc(S(=O)(=O)[O-])ccc4F)c4nc(c(-c5cc(S(=O)(=O)[O-])ccc5F)c5ccc2[nH]5)C=C4)C=C3)cc1
REMARK SMILES IDX 32 1 31 2 1 3 2 4 3 6 4 7 5 8 6 9 30 10 7 11 22 12 8 13 9 14
REMARK SMILES IDX 10 15 20 16 11 17 13 19 21 20 12 21 14 23 15 24 19 25 16 26
REMARK SMILES IDX 18 27 17 28 23 29 24 30 29 31 25 32 28 33 26 34 27 35 33 36
REMARK SMILES IDX 34 37 35 38 36 39 37 41 38 42 39 43 100 44 40 45 99 46 41 47
REMARK SMILES IDX 42 48 43 49 93 50 44 51 98 52 92 53 94 54 45 55 97 56 91 57
REMARK SMILES IDX 90 58 46 60 78 61 58 62 77 63 59 64 62 65 76 66 95 67 60 68
REMARK SMILES IDX 61 69 75 71 96 72 63 73 47 74 48 75 56 76 49 77 55 78 57 79
REMARK SMILES IDX 54 80 50 81 51 82 52 83 53 84 79 85 80 86 88 87 81 88 87 89
REMARK SMILES IDX 89 90 86 91 82 92 83 93 84 94 85 95 64 96 65 97 73 98 66 99
REMARK SMILES IDX 72 100 74 101 71 102 67 103 68 104 69 105 70 106
REMARK H PARENT 31 5 10 18 12 22 35 40 94 59 62 70
REMARK Flexibility Score: inf
ROOT
ATOM      1  C   UNL     1       1.749   1.919   1.585  1.00  0.00     0.117 C 
ENDROOT
BRANCH   1   2
ATOM      2  N   UNL     1       2.553   0.941   0.866  1.00  0.00    -0.356 N 
ATOM      3  O   UNL     1       0.927   0.239  -0.594  1.00  0.00    -0.275 OA
ATOM      4  C   UNL     1       2.096   0.236  -0.221  1.00  0.00     0.221 C 
ATOM      5  H   UNL     1       3.474   0.776   1.174  1.00  0.00     0.163 HD
BRANCH   4   6
ATOM      6  C   UNL     1       3.178  -0.506  -0.975  1.00  0.00     0.123 C 
BRANCH   6   7
ATOM      7  C   UNL     1       3.978   0.458  -1.855  1.00  0.00     0.154 C 
BRANCH   7   8
ATOM      8  N   UNL     1       4.896   1.325  -1.127  1.00  0.00    -0.271 N 
ATOM      9  C   UNL     1       4.805   2.682  -0.965  1.00  0.00     0.117 A 
ATOM     10  N   UNL     1       5.910   0.777  -0.437  1.00  0.00    -0.172 NA
ATOM     11  C   UNL     1       5.859   3.046  -0.152  1.00  0.00     0.025 A 
ATOM     12  C   UNL     1       6.543   1.821   0.126  1.00  0.00     0.100 A 
BRANCH  11  13
ATOM     13  C   UNL     1       6.039   4.334   0.457  1.00  0.00     0.072 C 
ATOM     14  C   UNL     1       7.162   4.939   0.892  1.00  0.00     0.217 C 
ATOM     15  N   UNL     1       7.125   5.907   1.868  1.00  0.00    -0.228 N 
ATOM     16  C   UNL     1       8.598   4.593   0.650  1.00  0.00     0.386 C 
ATOM     17  C   UNL     1       8.333   5.919   2.351  1.00  0.00     0.321 C 
ATOM     18  H   UNL     1       6.359   6.464   2.139  1.00  0.00     0.313 HD
ATOM     19  N   UNL     1       9.254   5.100   1.751  1.00  0.00    -0.149 N 
ATOM     20  O   UNL     1       9.006   4.088  -0.396  1.00  0.00    -0.236 OA
BRANCH  17  21
ATOM     21  S   UNL     1       8.679   7.051   3.620  1.00  0.00    -0.055 SA
ATOM     22  H   UNL     1       7.536   7.695   3.978  1.00  0.00     0.116 HD
ENDBRANCH  17  21
BRANCH  19  23
ATOM     23  C   UNL     1      10.601   4.760   2.127  1.00  0.00     0.137 A 
ATOM     24  C   UNL     1      11.078   4.881   3.449  1.00  0.00     0.052 A 
ATOM     25  C   UNL     1      11.475   4.148   1.213  1.00  0.00     0.052 A 
ATOM     26  C   UNL     1      12.368   4.466   3.825  1.00  0.00     0.004 A 
ATOM     27  C   UNL     1      12.746   3.694   1.593  1.00  0.00     0.004 A 
ATOM     28  C   UNL     1      13.200   3.864   2.893  1.00  0.00     0.000 A 
ENDBRANCH  19  23
ENDBRANCH  11  13
BRANCH  12  29
ATOM     29  C   UNL     1       7.674   1.642   1.027  1.00  0.00     0.003 A 
ATOM     30  C   UNL     1       7.570   2.113   2.341  1.00  0.00     0.011 A 
ATOM     31  C   UNL     1       8.900   1.141   0.572  1.00  0.00     0.011 A 
ATOM     32  C   UNL     1       8.680   2.094   3.180  1.00  0.00     0.016 A 
ATOM     33  C   UNL     1       9.998   1.069   1.443  1.00  0.00     0.016 A 
ATOM     34  C   UNL     1       9.866   1.502   2.759  1.00  0.00     0.018 A 
ATOM     35  Br  UNL     1      11.229   1.170   4.029  1.00  0.00    -0.051 Br
ENDBRANCH  12  29
ENDBRANCH   7   8
ENDBRANCH   6   7
ENDBRANCH   4   6
ENDBRANCH   1   2
BRANCH   1  36
ATOM     36  C   UNL     1       1.617   1.636   3.078  1.00  0.00     0.042 C 
BRANCH  36  37
ATOM     37  C   UNL     1       2.953   1.532   3.780  1.00  0.00     0.118 C 
BRANCH  37  38
ATOM     38  N   UNL     1       3.566   2.731   4.290  1.00  0.00    -0.352 N 
ATOM     39  C   UNL     1       4.724   2.823   5.044  1.00  0.00     0.251 C 
ATOM     40  H   UNL     1       3.111   3.579   4.081  1.00  0.00     0.163 HD
ATOM     41  O   UNL     1       5.057   3.938   5.446  1.00  0.00    -0.269 OA
BRANCH  39  42
ATOM     42  C   UNL     1       5.618   1.645   5.310  1.00  0.00     0.039 A 
ATOM     43  C   UNL     1       6.810   1.866   6.018  1.00  0.00     0.014 A 
ATOM     44  C   UNL     1       5.408   0.368   4.779  1.00  0.00     0.014 A 
ATOM     45  C   UNL     1       7.809   0.889   6.025  1.00  0.00     0.010 A 
ATOM     46  C   UNL     1       6.393  -0.584   4.752  1.00  0.00     0.010 A 
ATOM     47  C   UNL     1       7.624  -0.287   5.289  1.00  0.00    -0.014 A 
BRANCH  47  48
ATOM     48  C   UNL     1       8.626  -1.338   5.206  1.00  0.00     0.031 A 
ATOM     49  C   UNL     1       8.833  -1.954   6.511  1.00  0.00     0.074 A 
ATOM     50  C   UNL     1       9.099  -1.864   4.056  1.00  0.00     0.049 A 
ATOM     51  N   UNL     1       9.806  -1.745   7.327  1.00  0.00    -0.248 NA
ATOM     52  C   UNL     1       7.691  -2.678   7.098  1.00  0.00     0.031 C 
ATOM     53  C   UNL     1       8.630  -1.486   2.728  1.00  0.00     0.029 A 
ATOM     54  N   UNL     1      10.012  -2.852   3.787  1.00  0.00    -0.354 N 
ATOM     55  C   UNL     1       9.563  -2.659   8.334  1.00  0.00     0.074 A 
ATOM     56  C   UNL     1       8.145  -2.888   8.334  1.00  0.00     0.031 C 
ATOM     57  C   UNL     1       9.219  -2.243   1.792  1.00  0.00     0.029 A 
ATOM     58  C   UNL     1      10.071  -3.216   2.438  1.00  0.00     0.049 A 
ATOM     59  H   UNL     1      10.574  -3.266   4.481  1.00  0.00     0.167 HD
ATOM     60  C   UNL     1      10.564  -3.489   8.727  1.00  0.00     0.034 A 
ATOM     61  C   UNL     1      10.706  -4.259   1.833  1.00  0.00     0.034 A 
ATOM     62  C   UNL     1      11.860  -2.983   8.313  1.00  0.00     0.049 A 
ATOM     63  C   UNL     1      11.807  -4.667   2.745  1.00  0.00     0.074 A 
ATOM     64  C   UNL     1      12.463  -1.744   8.424  1.00  0.00     0.029 A 
ATOM     65  N   UNL     1      12.555  -3.666   7.336  1.00  0.00    -0.354 N 
ATOM     66  N   UNL     1      12.854  -3.923   2.999  1.00  0.00    -0.248 NA
ATOM     67  C   UNL     1      11.524  -5.675   3.758  1.00  0.00     0.031 C 
ATOM     68  C   UNL     1      13.214  -1.580   7.232  1.00  0.00     0.029 A 
ATOM     69  C   UNL     1      13.178  -2.768   6.496  1.00  0.00     0.049 A 
ATOM     70  H   UNL     1      12.600  -4.646   7.252  1.00  0.00     0.167 HD
ATOM     71  C   UNL     1      13.073  -4.054   4.365  1.00  0.00     0.074 A 
ATOM     72  C   UNL     1      12.303  -5.232   4.749  1.00  0.00     0.031 C 
ATOM     73  C   UNL     1      13.601  -3.038   5.116  1.00  0.00     0.034 A 
BRANCH  60  74
ATOM     74  C   UNL     1      10.320  -4.911   9.152  1.00  0.00     0.023 A 
ATOM     75  C   UNL     1      11.365  -5.562   9.814  1.00  0.00     0.031 A 
ATOM     76  C   UNL     1       9.224  -5.725   8.768  1.00  0.00     0.131 A 
ATOM     77  C   UNL     1      11.314  -6.947  10.037  1.00  0.00     0.055 A 
ATOM     78  C   UNL     1       9.140  -7.084   9.067  1.00  0.00     0.041 A 
ATOM     79  F   UNL     1       8.218  -5.285   8.003  1.00  0.00    -0.206 F 
ATOM     80  C   UNL     1      10.202  -7.710   9.687  1.00  0.00     0.022 A 
BRANCH  77  81
ATOM     81  S   UNL     1      12.806  -7.756  10.650  1.00  0.00     0.124 S 
ATOM     82  O   UNL     1      13.802  -7.302   9.686  1.00  0.00    -0.237 OA
ATOM     83  O   UNL     1      12.909  -7.204  11.996  1.00  0.00    -0.237 OA
ATOM     84  O   UNL     1      12.470  -9.176  10.579  1.00  0.00    -0.744 OA
ENDBRANCH  77  81
ENDBRANCH  60  74
BRANCH  61  85
ATOM     85  C   UNL     1      10.282  -4.934   0.554  1.00  0.00     0.023 A 
ATOM     86  C   UNL     1      11.090  -5.817  -0.193  1.00  0.00     0.031 A 
ATOM     87  C   UNL     1       8.939  -4.819   0.099  1.00  0.00     0.131 A 
ATOM     88  C   UNL     1      10.570  -6.465  -1.350  1.00  0.00     0.055 A 
ATOM     89  C   UNL     1       8.455  -5.397  -1.075  1.00  0.00     0.041 A 
ATOM     90  F   UNL     1       7.997  -4.204   0.831  1.00  0.00    -0.206 F 
ATOM     91  C   UNL     1       9.272  -6.228  -1.808  1.00  0.00     0.022 A 
BRANCH  88  92
ATOM     92  S   UNL     1      11.508  -7.775  -2.211  1.00  0.00     0.124 S 
ATOM     93  O   UNL     1      12.393  -7.007  -3.077  1.00  0.00    -0.237 OA
ATOM     94  O   UNL     1      12.135  -8.495  -1.108  1.00  0.00    -0.237 OA
ATOM     95  O   UNL     1      10.465  -8.529  -2.909  1.00  0.00    -0.744 OA
ENDBRANCH  88  92
ENDBRANCH  61  85
BRANCH  73  96
ATOM     96  C   UNL     1      14.536  -2.010   4.471  1.00  0.00     0.023 A 
ATOM     97  C   UNL     1      14.360  -1.357   3.231  1.00  0.00     0.031 A 
ATOM     98  C   UNL     1      15.670  -1.629   5.230  1.00  0.00     0.131 A 
ATOM     99  C   UNL     1      15.297  -0.389   2.804  1.00  0.00     0.055 A 
ATOM    100  C   UNL     1      16.545  -0.616   4.840  1.00  0.00     0.041 A 
ATOM    101  F   UNL     1      15.945  -2.230   6.401  1.00  0.00    -0.206 F 
ATOM    102  C   UNL     1      16.362   0.007   3.620  1.00  0.00     0.022 A 
BRANCH  99 103
ATOM    103  S   UNL     1      15.213   0.407   1.172  1.00  0.00     0.124 S 
ATOM    104  O   UNL     1      13.850   0.165   0.713  1.00  0.00    -0.237 OA
ATOM    105  O   UNL     1      15.509   1.806   1.487  1.00  0.00    -0.237 OA
ATOM    106  O   UNL     1      16.272  -0.283   0.441  1.00  0.00    -0.744 OA
ENDBRANCH  99 103
ENDBRANCH  73  96
ENDBRANCH  47  48
ENDBRANCH  39  42
ENDBRANCH  37  38
ENDBRANCH  36  37
ENDBRANCH   1  36
TORSDOF 19
