REMARK SMILES CC(C)Cc1cc2c(cc1Cl)C=C(C(=O)NCCCNC(=O)c1ccc(-c3c4nc(c(-c5cc(S(=O)(=O)[O-])ccc5F)c5ccc([nH]5)c(-c5cc(S(=O)(=O)[O-])ccc5F)c5nc(c(-c6cc(S(=O)(=O)[O-])ccc6F)c6ccc3[nH]6)C=C5)C=C4)cc1)[C@@H](C(F)(F)F)O2
REMARK SMILES IDX 18 1 17 2 16 3 14 4 15 5 13 7 5 8 6 9 10 10 7 11 9 12 11 13
REMARK SMILES IDX 8 14 91 15 12 16 86 17 4 18 2 19 1 20 3 21 87 22 88 23 89 24
REMARK SMILES IDX 90 25 19 26 20 27 21 28 22 30 23 31 24 32 85 33 25 34 84 35
REMARK SMILES IDX 26 36 27 37 28 38 78 39 29 40 83 41 77 42 79 43 30 44 82 45
REMARK SMILES IDX 76 46 75 47 31 49 63 50 43 51 62 52 44 53 47 54 61 55 80 56
REMARK SMILES IDX 45 57 46 58 60 60 81 61 48 62 32 63 33 64 41 65 34 66 40 67
REMARK SMILES IDX 42 68 39 69 35 70 36 71 37 72 38 73 64 74 65 75 73 76 66 77
REMARK SMILES IDX 72 78 74 79 71 80 67 81 68 82 69 83 70 84 49 85 50 86 58 87
REMARK SMILES IDX 51 88 57 89 59 90 56 91 52 92 53 93 54 94 55 95
REMARK H PARENT 16 6 20 29 79 48 47 59
REMARK Flexibility Score: inf
ROOT
ATOM      1  C   UNL     1       0.162  -8.192   2.117  1.00  0.00     0.042 C 
ENDROOT
BRANCH   1   2
ATOM      2  C   UNL     1      -1.241  -7.757   1.725  1.00  0.00     0.118 C 
BRANCH   2   3
ATOM      3  N   UNL     1      -1.983  -7.203   2.850  1.00  0.00    -0.352 N 
ATOM      4  C   UNL     1      -2.396  -5.982   3.265  1.00  0.00     0.251 C 
ATOM      5  O   UNL     1      -3.043  -5.970   4.317  1.00  0.00    -0.270 OA
ATOM      6  H   UNL     1      -2.260  -7.908   3.479  1.00  0.00     0.163 HD
BRANCH   4   7
ATOM      7  C   UNL     1      -2.125  -4.699   2.552  1.00  0.00     0.067 C 
ATOM      8  C   UNL     1      -1.488   0.177   1.381  1.00  0.00    -0.025 A 
ATOM      9  C   UNL     1      -1.200  -1.047   0.766  1.00  0.00     0.052 A 
ATOM     10  C   UNL     1      -2.194   0.148   2.595  1.00  0.00     0.045 A 
ATOM     11  C   UNL     1      -1.500  -2.252   1.385  1.00  0.00     0.128 A 
ATOM     12  C   UNL     1      -2.554  -1.075   3.188  1.00  0.00     0.032 A 
ATOM     13  Cl  UNL     1      -2.648   1.594   3.425  1.00  0.00    -0.084 Cl
ATOM     14  C   UNL     1      -2.183  -2.284   2.593  1.00  0.00     0.019 A 
ATOM     15  O   UNL     1      -1.007  -3.356   0.764  1.00  0.00    -0.475 OA
ATOM     16  C   UNL     1      -2.439  -3.574   3.223  1.00  0.00     0.025 C 
ATOM     17  C   UNL     1      -1.552  -4.634   1.165  1.00  0.00     0.314 C 
BRANCH   8  18
ATOM     18  C   UNL     1      -0.977   1.431   0.707  1.00  0.00     0.040 C 
BRANCH  18  19
ATOM     19  C   UNL     1       0.552   1.651   0.848  1.00  0.00    -0.013 C 
ATOM     20  C   UNL     1       1.404   0.602   0.119  1.00  0.00     0.008 C 
ATOM     21  C   UNL     1       0.920   3.033   0.303  1.00  0.00     0.008 C 
ENDBRANCH  18  19
ENDBRANCH   8  18
BRANCH  17  22
ATOM     22  C   UNL     1      -2.548  -5.073   0.077  1.00  0.00     0.429 C 
ATOM     23  F   UNL     1      -1.893  -5.342  -1.081  1.00  0.00    -0.167 F 
ATOM     24  F   UNL     1      -3.230  -6.194   0.403  1.00  0.00    -0.167 F 
ATOM     25  F   UNL     1      -3.469  -4.120  -0.194  1.00  0.00    -0.167 F 
ENDBRANCH  17  22
ENDBRANCH   4   7
ENDBRANCH   2   3
ENDBRANCH   1   2
BRANCH   1  26
ATOM     26  C   UNL     1       0.169  -9.554   2.796  1.00  0.00     0.118 C 
BRANCH  26  27
ATOM     27  N   UNL     1      -0.226 -10.625   1.881  1.00  0.00    -0.352 N 
ATOM     28  C   UNL     1       0.514 -11.641   1.324  1.00  0.00     0.251 C 
ATOM     29  H   UNL     1      -1.175 -10.616   1.621  1.00  0.00     0.163 HD
ATOM     30  O   UNL     1       0.046 -12.287   0.390  1.00  0.00    -0.269 OA
BRANCH  28  31
ATOM     31  C   UNL     1       1.869 -11.933   1.835  1.00  0.00     0.039 A 
ATOM     32  C   UNL     1       2.124 -11.882   3.204  1.00  0.00     0.014 A 
ATOM     33  C   UNL     1       2.896 -12.253   0.943  1.00  0.00     0.014 A 
ATOM     34  C   UNL     1       3.432 -11.933   3.661  1.00  0.00     0.010 A 
ATOM     35  C   UNL     1       4.199 -12.427   1.422  1.00  0.00     0.010 A 
ATOM     36  C   UNL     1       4.487 -12.214   2.778  1.00  0.00    -0.014 A 
BRANCH  36  37
ATOM     37  C   UNL     1       5.871 -12.295   3.317  1.00  0.00     0.031 A 
ATOM     38  C   UNL     1       6.942 -11.348   2.847  1.00  0.00     0.074 A 
ATOM     39  C   UNL     1       6.137 -13.192   4.288  1.00  0.00     0.049 A 
ATOM     40  N   UNL     1       8.189 -11.268   3.234  1.00  0.00    -0.248 NA
ATOM     41  C   UNL     1       6.577 -10.370   1.809  1.00  0.00     0.031 C 
ATOM     42  C   UNL     1       5.172 -14.161   4.813  1.00  0.00     0.029 A 
ATOM     43  N   UNL     1       7.271 -13.424   5.025  1.00  0.00    -0.354 N 
ATOM     44  C   UNL     1       8.763 -10.256   2.473  1.00  0.00     0.074 A 
ATOM     45  C   UNL     1       7.736  -9.764   1.583  1.00  0.00     0.031 C 
ATOM     46  C   UNL     1       5.732 -14.837   5.823  1.00  0.00     0.029 A 
ATOM     47  C   UNL     1       7.123 -14.418   5.964  1.00  0.00     0.049 A 
ATOM     48  H   UNL     1       8.110 -12.926   4.894  1.00  0.00     0.167 HD
ATOM     49  C   UNL     1      10.028  -9.778   2.525  1.00  0.00     0.034 A 
ATOM     50  C   UNL     1       8.007 -14.956   6.829  1.00  0.00     0.034 A 
ATOM     51  C   UNL     1      11.027 -10.255   3.447  1.00  0.00     0.049 A 
ATOM     52  C   UNL     1       9.403 -14.397   6.872  1.00  0.00     0.074 A 
ATOM     53  C   UNL     1      12.329  -9.808   3.597  1.00  0.00     0.029 A 
ATOM     54  N   UNL     1      10.842 -11.266   4.378  1.00  0.00    -0.354 N 
ATOM     55  N   UNL     1       9.914 -13.412   6.170  1.00  0.00    -0.248 NA
ATOM     56  C   UNL     1      10.346 -15.010   7.816  1.00  0.00     0.031 C 
ATOM     57  C   UNL     1      12.946 -10.585   4.576  1.00  0.00     0.029 A 
ATOM     58  C   UNL     1      12.013 -11.471   5.090  1.00  0.00     0.049 A 
ATOM     59  H   UNL     1      10.004 -11.764   4.513  1.00  0.00     0.167 HD
ATOM     60  C   UNL     1      11.232 -13.283   6.593  1.00  0.00     0.074 A 
ATOM     61  C   UNL     1      11.430 -14.265   7.639  1.00  0.00     0.031 C 
ATOM     62  C   UNL     1      12.194 -12.440   6.144  1.00  0.00     0.034 A 
BRANCH  49  63
ATOM     63  C   UNL     1      10.435  -8.672   1.585  1.00  0.00     0.023 A 
ATOM     64  C   UNL     1      11.440  -8.905   0.627  1.00  0.00     0.031 A 
ATOM     65  C   UNL     1       9.961  -7.359   1.748  1.00  0.00     0.131 A 
ATOM     66  C   UNL     1      11.977  -7.830  -0.093  1.00  0.00     0.055 A 
ATOM     67  C   UNL     1      10.471  -6.298   0.998  1.00  0.00     0.041 A 
ATOM     68  F   UNL     1       9.001  -7.089   2.647  1.00  0.00    -0.206 F 
ATOM     69  C   UNL     1      11.495  -6.530   0.084  1.00  0.00     0.022 A 
BRANCH  66  70
ATOM     70  S   UNL     1      13.366  -8.069  -1.236  1.00  0.00     0.124 S 
ATOM     71  O   UNL     1      12.843  -7.488  -2.471  1.00  0.00    -0.237 OA
ATOM     72  O   UNL     1      14.427  -7.306  -0.587  1.00  0.00    -0.237 OA
ATOM     73  O   UNL     1      13.551  -9.516  -1.264  1.00  0.00    -0.744 OA
ENDBRANCH  66  70
ENDBRANCH  49  63
BRANCH  50  74
ATOM     74  C   UNL     1       7.564 -16.070   7.720  1.00  0.00     0.023 A 
ATOM     75  C   UNL     1       7.071 -17.270   7.172  1.00  0.00     0.031 A 
ATOM     76  C   UNL     1       7.512 -15.913   9.114  1.00  0.00     0.131 A 
ATOM     77  C   UNL     1       6.473 -18.225   8.002  1.00  0.00     0.055 A 
ATOM     78  C   UNL     1       6.989 -16.905   9.947  1.00  0.00     0.041 A 
ATOM     79  F   UNL     1       7.956 -14.783   9.685  1.00  0.00    -0.206 F 
ATOM     80  C   UNL     1       6.445 -18.058   9.389  1.00  0.00     0.022 A 
BRANCH  77  81
ATOM     81  S   UNL     1       5.559 -19.623   7.291  1.00  0.00     0.124 S 
ATOM     82  O   UNL     1       6.376 -20.759   7.704  1.00  0.00    -0.237 OA
ATOM     83  O   UNL     1       4.261 -19.504   7.953  1.00  0.00    -0.237 OA
ATOM     84  O   UNL     1       5.548 -19.334   5.861  1.00  0.00    -0.744 OA
ENDBRANCH  77  81
ENDBRANCH  50  74
BRANCH  62  85
ATOM     85  C   UNL     1      13.568 -12.518   6.763  1.00  0.00     0.023 A 
ATOM     86  C   UNL     1      14.091 -11.409   7.454  1.00  0.00     0.031 A 
ATOM     87  C   UNL     1      14.412 -13.615   6.524  1.00  0.00     0.131 A 
ATOM     88  C   UNL     1      15.435 -11.403   7.844  1.00  0.00     0.055 A 
ATOM     89  C   UNL     1      15.738 -13.624   6.957  1.00  0.00     0.041 A 
ATOM     90  F   UNL     1      13.960 -14.690   5.859  1.00  0.00    -0.206 F 
ATOM     91  C   UNL     1      16.259 -12.508   7.606  1.00  0.00     0.022 A 
BRANCH  88  92
ATOM     92  S   UNL     1      16.188  -9.930   8.587  1.00  0.00     0.124 S 
ATOM     93  O   UNL     1      16.602 -10.431   9.896  1.00  0.00    -0.237 OA
ATOM     94  O   UNL     1      17.276  -9.638   7.658  1.00  0.00    -0.237 OA
ATOM     95  O   UNL     1      15.104  -8.954   8.611  1.00  0.00    -0.744 OA
ENDBRANCH  88  92
ENDBRANCH  62  85
ENDBRANCH  36  37
ENDBRANCH  28  31
ENDBRANCH  26  27
ENDBRANCH   1  26
TORSDOF 16
