REMARK SMILES CC(=O)NS(=O)(=O)c1ccc(-c2ccn(C(F)F)c(=O)c2)cc1C(=O)NCCCNC(=O)c1ccc(-c2c3nc(c(-c4cc(S(=O)(=O)[O-])ccc4F)c4ccc([nH]4)c(-c4cc(S(=O)(=O)[O-])ccc4F)c4nc(c(-c5cc(S(=O)(=O)[O-])ccc5F)c5ccc2[nH]5)C=C4)C=C3)cc1
REMARK SMILES IDX 28 1 27 2 26 3 24 4 25 5 23 7 8 8 9 9 10 10 22 11 11 12 5 13
REMARK SMILES IDX 6 14 7 15 4 16 1 17 2 18 3 19 12 21 13 22 21 23 14 24 19 25
REMARK SMILES IDX 15 26 20 27 16 28 17 29 18 30 29 31 30 32 31 33 32 35 33 36
REMARK SMILES IDX 34 37 95 38 35 39 94 40 36 41 37 42 38 43 88 44 39 45 93 46
REMARK SMILES IDX 87 47 89 48 40 49 92 50 86 51 85 52 41 54 73 55 53 56 72 57
REMARK SMILES IDX 54 58 57 59 71 60 90 61 55 62 56 63 70 65 91 66 58 67 42 68
REMARK SMILES IDX 43 69 51 70 44 71 50 72 52 73 49 74 45 75 46 76 47 77 48 78
REMARK SMILES IDX 74 79 75 80 83 81 76 82 82 83 84 84 81 85 77 86 78 87 79 88
REMARK SMILES IDX 80 89 59 90 60 91 68 92 61 93 67 94 69 95 66 96 62 97 63 98
REMARK SMILES IDX 64 99 65 100
REMARK H PARENT 26 6 4 20 30 34 89 53 57 64
REMARK Flexibility Score: inf
ROOT
ATOM      1  C   UNL     1       2.195   5.413  -0.879  1.00  0.00     0.042 C 
ENDROOT
BRANCH   1   2
ATOM      2  C   UNL     1       2.907   4.863   0.363  1.00  0.00     0.118 C 
BRANCH   2   3
ATOM      3  N   UNL     1       1.952   4.563   1.419  1.00  0.00    -0.352 N 
ATOM      4  C   UNL     1       1.609   3.410   2.069  1.00  0.00     0.252 C 
ATOM      5  O   UNL     1       0.782   3.472   2.980  1.00  0.00    -0.269 OA
ATOM      6  H   UNL     1       1.450   5.351   1.728  1.00  0.00     0.163 HD
BRANCH   4   7
ATOM      7  C   UNL     1       2.260   2.099   1.835  1.00  0.00     0.060 A 
ATOM      8  C   UNL     1       2.312   1.391   0.632  1.00  0.00     0.100 A 
ATOM      9  C   UNL     1       2.913   0.120   0.588  1.00  0.00     0.024 A 
ATOM     10  C   UNL     1       3.315  -0.513   1.766  1.00  0.00     0.010 A 
ATOM     11  C   UNL     1       2.686   1.447   3.013  1.00  0.00     0.024 A 
ATOM     12  C   UNL     1       3.154   0.124   3.000  1.00  0.00    -0.017 A 
BRANCH   8  13
ATOM     13  S   UNL     1       1.422   1.925  -0.797  1.00  0.00     0.264 S 
ATOM     14  O   UNL     1       2.395   2.530  -1.677  1.00  0.00    -0.201 OA
ATOM     15  O   UNL     1       0.217   2.603  -0.374  1.00  0.00    -0.201 OA
BRANCH  13  16
ATOM     16  N   UNL     1       0.957   0.529  -1.562  1.00  0.00    -0.249 N 
ATOM     17  C   UNL     1      -0.620  -0.432   0.124  1.00  0.00     0.115 C 
ATOM     18  C   UNL     1      -0.179  -0.252  -1.300  1.00  0.00     0.230 C 
ATOM     19  O   UNL     1      -0.657  -0.911  -2.213  1.00  0.00    -0.274 OA
ATOM     20  H   UNL     1       1.545   0.212  -2.285  1.00  0.00     0.183 HD
ENDBRANCH  13  16
ENDBRANCH   8  13
BRANCH  12  21
ATOM     21  C   UNL     1       3.293  -0.630   4.270  1.00  0.00    -0.011 A 
ATOM     22  C   UNL     1       2.230  -0.640   5.265  1.00  0.00     0.027 A 
ATOM     23  C   UNL     1       4.378  -1.394   4.489  1.00  0.00     0.080 A 
ATOM     24  C   UNL     1       2.313  -1.407   6.357  1.00  0.00     0.095 A 
ATOM     25  C   UNL     1       4.487  -2.255   5.703  1.00  0.00     0.255 A 
ATOM     26  N   UNL     1       3.415  -2.208   6.579  1.00  0.00    -0.258 N 
ATOM     27  O   UNL     1       5.489  -2.950   5.839  1.00  0.00    -0.269 OA
BRANCH  26  28
ATOM     28  C   UNL     1       3.472  -3.060   7.739  1.00  0.00     0.451 C 
ATOM     29  F   UNL     1       3.528  -4.367   7.381  1.00  0.00    -0.185 F 
ATOM     30  F   UNL     1       4.561  -2.787   8.498  1.00  0.00    -0.185 F 
ENDBRANCH  26  28
ENDBRANCH  12  21
ENDBRANCH   4   7
ENDBRANCH   2   3
ENDBRANCH   1   2
BRANCH   1  31
ATOM     31  C   UNL     1       1.803   6.888  -0.768  1.00  0.00     0.118 C 
BRANCH  31  32
ATOM     32  N   UNL     1       2.632   7.712  -1.634  1.00  0.00    -0.352 N 
ATOM     33  C   UNL     1       2.369   8.248  -2.873  1.00  0.00     0.251 C 
ATOM     34  H   UNL     1       3.525   7.919  -1.276  1.00  0.00     0.163 HD
ATOM     35  O   UNL     1       3.321   8.617  -3.559  1.00  0.00    -0.269 OA
BRANCH  33  36
ATOM     36  C   UNL     1       0.986   8.399  -3.396  1.00  0.00     0.039 A 
ATOM     37  C   UNL     1       0.773   8.280  -4.776  1.00  0.00     0.014 A 
ATOM     38  C   UNL     1      -0.080   8.778  -2.575  1.00  0.00     0.014 A 
ATOM     39  C   UNL     1      -0.494   8.518  -5.325  1.00  0.00     0.010 A 
ATOM     40  C   UNL     1      -1.359   8.954  -3.114  1.00  0.00     0.010 A 
ATOM     41  C   UNL     1      -1.576   8.851  -4.497  1.00  0.00    -0.014 A 
BRANCH  41  42
ATOM     42  C   UNL     1      -2.919   9.170  -5.059  1.00  0.00     0.031 A 
ATOM     43  C   UNL     1      -3.482  10.561  -4.914  1.00  0.00     0.074 A 
ATOM     44  C   UNL     1      -3.664   8.211  -5.641  1.00  0.00     0.049 A 
ATOM     45  N   UNL     1      -4.679  11.011  -5.198  1.00  0.00    -0.248 NA
ATOM     46  C   UNL     1      -2.583  11.570  -4.338  1.00  0.00     0.031 C 
ATOM     47  C   UNL     1      -3.260   6.816  -5.820  1.00  0.00     0.029 A 
ATOM     48  N   UNL     1      -4.930   8.262  -6.171  1.00  0.00    -0.354 N 
ATOM     49  C   UNL     1      -4.691  12.344  -4.796  1.00  0.00     0.074 A 
ATOM     50  C   UNL     1      -3.390  12.613  -4.217  1.00  0.00     0.031 C 
ATOM     51  C   UNL     1      -4.260   6.143  -6.414  1.00  0.00     0.029 A 
ATOM     52  C   UNL     1      -5.386   7.048  -6.628  1.00  0.00     0.049 A 
ATOM     53  H   UNL     1      -5.462   9.089  -6.218  1.00  0.00     0.167 HD
ATOM     54  C   UNL     1      -5.685  13.261  -4.907  1.00  0.00     0.034 A 
ATOM     55  C   UNL     1      -6.581   6.697  -7.142  1.00  0.00     0.034 A 
ATOM     56  C   UNL     1      -6.964  12.998  -5.521  1.00  0.00     0.049 A 
ATOM     57  C   UNL     1      -7.657   7.737  -7.297  1.00  0.00     0.074 A 
ATOM     58  C   UNL     1      -8.017  13.873  -5.739  1.00  0.00     0.029 A 
ATOM     59  N   UNL     1      -7.366  11.767  -6.020  1.00  0.00    -0.354 N 
ATOM     60  N   UNL     1      -7.648   8.995  -6.926  1.00  0.00    -0.248 NA
ATOM     61  C   UNL     1      -8.903   7.308  -7.949  1.00  0.00     0.031 C 
ATOM     62  C   UNL     1      -9.067  13.161  -6.332  1.00  0.00     0.029 A 
ATOM     63  C   UNL     1      -8.653  11.854  -6.530  1.00  0.00     0.049 A 
ATOM     64  H   UNL     1      -6.817  10.949  -6.012  1.00  0.00     0.167 HD
ATOM     65  C   UNL     1      -8.882   9.511  -7.310  1.00  0.00     0.074 A 
ATOM     66  C   UNL     1      -9.605   8.432  -7.952  1.00  0.00     0.031 C 
ATOM     67  C   UNL     1      -9.370  10.767  -7.150  1.00  0.00     0.034 A 
BRANCH  54  68
ATOM     68  C   UNL     1      -5.427  14.626  -4.315  1.00  0.00     0.023 A 
ATOM     69  C   UNL     1      -4.421  15.471  -4.815  1.00  0.00     0.031 A 
ATOM     70  C   UNL     1      -6.158  15.063  -3.196  1.00  0.00     0.131 A 
ATOM     71  C   UNL     1      -4.110  16.662  -4.142  1.00  0.00     0.055 A 
ATOM     72  C   UNL     1      -5.899  16.290  -2.580  1.00  0.00     0.041 A 
ATOM     73  F   UNL     1      -7.120  14.293  -2.664  1.00  0.00    -0.206 F 
ATOM     74  C   UNL     1      -4.856  17.088  -3.042  1.00  0.00     0.022 A 
BRANCH  71  75
ATOM     75  S   UNL     1      -2.612  17.562  -4.629  1.00  0.00     0.124 S 
ATOM     76  O   UNL     1      -1.580  16.547  -4.426  1.00  0.00    -0.237 OA
ATOM     77  O   UNL     1      -2.894  17.919  -6.014  1.00  0.00    -0.237 OA
ATOM     78  O   UNL     1      -2.565  18.682  -3.691  1.00  0.00    -0.744 OA
ENDBRANCH  71  75
ENDBRANCH  54  68
BRANCH  55  79
ATOM     79  C   UNL     1      -6.838   5.283  -7.522  1.00  0.00     0.023 A 
ATOM     80  C   UNL     1      -6.914   4.897  -8.868  1.00  0.00     0.031 A 
ATOM     81  C   UNL     1      -7.028   4.301  -6.534  1.00  0.00     0.131 A 
ATOM     82  C   UNL     1      -7.202   3.562  -9.194  1.00  0.00     0.055 A 
ATOM     83  C   UNL     1      -7.283   2.970  -6.863  1.00  0.00     0.041 A 
ATOM     84  F   UNL     1      -6.955   4.626  -5.234  1.00  0.00    -0.206 F 
ATOM     85  C   UNL     1      -7.379   2.595  -8.200  1.00  0.00     0.022 A 
BRANCH  82  86
ATOM     86  S   UNL     1      -7.381   3.114 -10.942  1.00  0.00     0.124 S 
ATOM     87  O   UNL     1      -8.504   3.949 -11.351  1.00  0.00    -0.237 OA
ATOM     88  O   UNL     1      -6.077   3.481 -11.484  1.00  0.00    -0.237 OA
ATOM     89  O   UNL     1      -7.652   1.678 -10.899  1.00  0.00    -0.744 OA
ENDBRANCH  82  86
ENDBRANCH  55  79
BRANCH  67  90
ATOM     90  C   UNL     1     -10.740  11.039  -7.711  1.00  0.00     0.023 A 
ATOM     91  C   UNL     1     -11.900  10.531  -7.101  1.00  0.00     0.031 A 
ATOM     92  C   UNL     1     -10.882  11.800  -8.884  1.00  0.00     0.131 A 
ATOM     93  C   UNL     1     -13.153  10.758  -7.689  1.00  0.00     0.055 A 
ATOM     94  C   UNL     1     -12.134  12.054  -9.445  1.00  0.00     0.041 A 
ATOM     95  F   UNL     1      -9.804  12.304  -9.505  1.00  0.00    -0.206 F 
ATOM     96  C   UNL     1     -13.278  11.524  -8.852  1.00  0.00     0.022 A 
BRANCH  93  97
ATOM     97  S   UNL     1     -14.619   9.987  -6.950  1.00  0.00     0.124 S 
ATOM     98  O   UNL     1     -14.296   8.567  -7.044  1.00  0.00    -0.237 OA
ATOM     99  O   UNL     1     -14.626  10.552  -5.605  1.00  0.00    -0.237 OA
ATOM    100  O   UNL     1     -15.713  10.432  -7.812  1.00  0.00    -0.744 OA
ENDBRANCH  93  97
ENDBRANCH  67  90
ENDBRANCH  41  42
ENDBRANCH  33  36
ENDBRANCH  31  32
ENDBRANCH   1  31
TORSDOF 17
