REMARK SMILES Cc1cc(NC[C@H](C)[NH+](C)C)cc(C(=O)NCCCNC(=O)c2ccc(-c3c4nc(c(-c5cc(S(=O)(=O)[O-])ccc5F)c5ccc([nH]5)c(-c5cc(S(=O)(=O)[O-])ccc5F)c5nc(c(-c6cc(S(=O)(=O)[O-])ccc6F)c6ccc3[nH]6)C=C5)C=C4)cc2)c1N
REMARK SMILES IDX 17 1 16 2 14 3 15 4 13 6 1 7 2 8 3 9 86 10 4 11 12 12 87 13
REMARK SMILES IDX 5 16 6 18 7 19 8 20 9 21 10 22 11 23 18 25 19 26 20 27 21 28
REMARK SMILES IDX 22 30 23 31 24 32 85 33 25 34 84 35 26 36 27 37 28 38 78 39
REMARK SMILES IDX 29 40 83 41 77 42 79 43 30 44 82 45 76 46 75 47 31 49 63 50
REMARK SMILES IDX 43 51 62 52 44 53 47 54 61 55 80 56 45 57 46 58 60 60 81 61
REMARK SMILES IDX 48 62 32 63 33 64 41 65 34 66 40 67 42 68 39 69 35 70 36 71
REMARK SMILES IDX 37 72 38 73 64 74 65 75 73 76 66 77 72 78 74 79 71 80 67 81
REMARK SMILES IDX 68 82 69 83 70 84 49 85 50 86 58 87 51 88 57 89 59 90 56 91
REMARK SMILES IDX 52 92 53 93 54 94 55 95
REMARK H PARENT 16 5 87 14 87 15 5 17 9 24 20 29 79 48 47 59
REMARK Flexibility Score: inf
ROOT
ATOM      1  C   UNL     1      -4.668   6.077  -0.713  1.00  0.00     0.118 C 
ENDROOT
BRANCH   1   2
ATOM      2  N   UNL     1      -5.174   7.327  -0.168  1.00  0.00    -0.352 N 
ATOM      3  C   UNL     1      -5.688   7.688   1.057  1.00  0.00     0.253 C 
ATOM      4  O   UNL     1      -6.003   8.875   1.186  1.00  0.00    -0.269 OA
ATOM      5  H   UNL     1      -5.144   8.071  -0.810  1.00  0.00     0.163 HD
BRANCH   3   6
ATOM      6  C   UNL     1      -5.838   6.748   2.218  1.00  0.00     0.065 A 
ATOM      7  C   UNL     1      -6.067   6.806   6.038  1.00  0.00     0.046 C 
ATOM      8  C   UNL     1      -5.981   6.332   4.613  1.00  0.00    -0.025 A 
ATOM      9  C   UNL     1      -5.985   4.946   4.356  1.00  0.00     0.031 A 
ATOM     10  C   UNL     1      -5.898   7.248   3.540  1.00  0.00     0.047 A 
ATOM     11  C   UNL     1      -5.950   4.445   3.056  1.00  0.00     0.035 A 
ATOM     12  C   UNL     1      -5.975   5.372   2.015  1.00  0.00     0.041 A 
BRANCH  10  13
ATOM     13  N   UNL     1      -5.729   8.613   3.809  1.00  0.00    -0.398 N 
ATOM     14  H   UNL     1      -5.775   8.941   4.737  1.00  0.00     0.156 HD
ATOM     15  H   UNL     1      -5.565   9.243   3.071  1.00  0.00     0.156 HD
ENDBRANCH  10  13
BRANCH  11  16
ATOM     16  N   UNL     1      -5.898   3.078   2.825  1.00  0.00    -0.379 N 
ATOM     17  H   UNL     1      -6.109   2.456   3.558  1.00  0.00     0.160 HD
BRANCH  16  18
ATOM     18  C   UNL     1      -5.535   2.542   1.510  1.00  0.00     0.177 C 
BRANCH  18  19
ATOM     19  C   UNL     1      -5.362   0.996   1.492  1.00  0.00     0.199 C 
ATOM     20  C   UNL     1      -4.463   0.618   0.299  1.00  0.00     0.077 C 
BRANCH  19  21
ATOM     21  N   UNL     1      -6.595   0.171   1.490  1.00  0.00    -0.336 N 
ATOM     22  C   UNL     1      -7.402   0.355   2.694  1.00  0.00     0.332 C 
ATOM     23  C   UNL     1      -7.438   0.335   0.302  1.00  0.00     0.332 C 
ATOM     24  H   UNL     1      -6.238  -0.784   1.471  1.00  0.00     0.347 HD
ENDBRANCH  19  21
ENDBRANCH  18  19
ENDBRANCH  16  18
ENDBRANCH  11  16
ENDBRANCH   3   6
ENDBRANCH   1   2
BRANCH   1  25
ATOM     25  C   UNL     1      -5.734   5.367  -1.553  1.00  0.00     0.042 C 
BRANCH  25  26
ATOM     26  C   UNL     1      -5.923   5.991  -2.933  1.00  0.00     0.118 C 
BRANCH  26  27
ATOM     27  N   UNL     1      -4.770   5.757  -3.789  1.00  0.00    -0.352 N 
ATOM     28  C   UNL     1      -4.689   5.125  -5.006  1.00  0.00     0.251 C 
ATOM     29  H   UNL     1      -3.916   6.105  -3.443  1.00  0.00     0.163 HD
ATOM     30  O   UNL     1      -3.586   4.804  -5.438  1.00  0.00    -0.269 OA
BRANCH  28  31
ATOM     31  C   UNL     1      -5.912   4.822  -5.781  1.00  0.00     0.039 A 
ATOM     32  C   UNL     1      -5.990   3.608  -6.470  1.00  0.00     0.014 A 
ATOM     33  C   UNL     1      -6.960   5.742  -5.869  1.00  0.00     0.014 A 
ATOM     34  C   UNL     1      -7.140   3.295  -7.200  1.00  0.00     0.010 A 
ATOM     35  C   UNL     1      -8.134   5.399  -6.537  1.00  0.00     0.010 A 
ATOM     36  C   UNL     1      -8.235   4.173  -7.213  1.00  0.00    -0.014 A 
BRANCH  36  37
ATOM     37  C   UNL     1      -9.493   3.833  -7.928  1.00  0.00     0.031 A 
ATOM     38  C   UNL     1      -9.953   4.675  -9.087  1.00  0.00     0.074 A 
ATOM     39  C   UNL     1     -10.252   2.810  -7.487  1.00  0.00     0.049 A 
ATOM     40  N   UNL     1     -11.068   4.607  -9.769  1.00  0.00    -0.248 NA
ATOM     41  C   UNL     1      -9.052   5.755  -9.514  1.00  0.00     0.031 C 
ATOM     42  C   UNL     1      -9.924   1.943  -6.353  1.00  0.00     0.029 A 
ATOM     43  N   UNL     1     -11.462   2.333  -7.927  1.00  0.00    -0.354 N 
ATOM     44  C   UNL     1     -11.011   5.644 -10.694  1.00  0.00     0.074 A 
ATOM     45  C   UNL     1      -9.776   6.359 -10.445  1.00  0.00     0.031 C 
ATOM     46  C   UNL     1     -10.898   1.033  -6.198  1.00  0.00     0.029 A 
ATOM     47  C   UNL     1     -11.945   1.280  -7.184  1.00  0.00     0.049 A 
ATOM     48  H   UNL     1     -11.939   2.710  -8.701  1.00  0.00     0.167 HD
ATOM     49  C   UNL     1     -11.897   5.958 -11.672  1.00  0.00     0.034 A 
ATOM     50  C   UNL     1     -13.107   0.604  -7.273  1.00  0.00     0.034 A 
ATOM     51  C   UNL     1     -13.117   5.225 -11.911  1.00  0.00     0.049 A 
ATOM     52  C   UNL     1     -14.091   0.989  -8.350  1.00  0.00     0.074 A 
ATOM     53  C   UNL     1     -14.058   5.420 -12.906  1.00  0.00     0.029 A 
ATOM     54  N   UNL     1     -13.571   4.161 -11.140  1.00  0.00    -0.354 N 
ATOM     55  N   UNL     1     -14.001   1.944  -9.247  1.00  0.00    -0.248 NA
ATOM     56  C   UNL     1     -15.326   0.199  -8.433  1.00  0.00     0.031 C 
ATOM     57  C   UNL     1     -15.113   4.526 -12.695  1.00  0.00     0.029 A 
ATOM     58  C   UNL     1     -14.793   3.714 -11.618  1.00  0.00     0.049 A 
ATOM     59  H   UNL     1     -13.094   3.781 -10.368  1.00  0.00     0.167 HD
ATOM     60  C   UNL     1     -15.154   1.848 -10.020  1.00  0.00     0.074 A 
ATOM     61  C   UNL     1     -15.915   0.734  -9.492  1.00  0.00     0.031 C 
ATOM     62  C   UNL     1     -15.546   2.607 -11.075  1.00  0.00     0.034 A 
BRANCH  49  63
ATOM     63  C   UNL     1     -11.590   7.162 -12.533  1.00  0.00     0.023 A 
ATOM     64  C   UNL     1     -10.448   7.215 -13.352  1.00  0.00     0.031 A 
ATOM     65  C   UNL     1     -12.442   8.281 -12.522  1.00  0.00     0.131 A 
ATOM     66  C   UNL     1     -10.149   8.387 -14.064  1.00  0.00     0.055 A 
ATOM     67  C   UNL     1     -12.184   9.412 -13.299  1.00  0.00     0.041 A 
ATOM     68  F   UNL     1     -13.537   8.300 -11.745  1.00  0.00    -0.206 F 
ATOM     69  C   UNL     1     -11.023   9.476 -14.064  1.00  0.00     0.022 A 
BRANCH  66  70
ATOM     70  S   UNL     1      -8.531   8.520 -14.872  1.00  0.00     0.124 S 
ATOM     71  O   UNL     1      -7.622   8.343 -13.742  1.00  0.00    -0.237 OA
ATOM     72  O   UNL     1      -8.570   7.427 -15.837  1.00  0.00    -0.237 OA
ATOM     73  O   UNL     1      -8.544   9.863 -15.448  1.00  0.00    -0.744 OA
ENDBRANCH  66  70
ENDBRANCH  49  63
BRANCH  50  74
ATOM     74  C   UNL     1     -13.419  -0.492  -6.310  1.00  0.00     0.023 A 
ATOM     75  C   UNL     1     -13.571  -1.817  -6.745  1.00  0.00     0.031 A 
ATOM     76  C   UNL     1     -13.606  -0.222  -4.942  1.00  0.00     0.131 A 
ATOM     77  C   UNL     1     -13.945  -2.815  -5.831  1.00  0.00     0.055 A 
ATOM     78  C   UNL     1     -13.923  -1.228  -4.027  1.00  0.00     0.041 A 
ATOM     79  F   UNL     1     -13.468   1.028  -4.471  1.00  0.00    -0.206 F 
ATOM     80  C   UNL     1     -14.108  -2.532  -4.473  1.00  0.00     0.022 A 
BRANCH  77  81
ATOM     81  S   UNL     1     -14.304  -4.478  -6.461  1.00  0.00     0.124 S 
ATOM     82  O   UNL     1     -15.364  -4.208  -7.425  1.00  0.00    -0.237 OA
ATOM     83  O   UNL     1     -13.015  -4.874  -7.018  1.00  0.00    -0.237 OA
ATOM     84  O   UNL     1     -14.716  -5.212  -5.266  1.00  0.00    -0.744 OA
ENDBRANCH  77  81
ENDBRANCH  50  74
BRANCH  62  85
ATOM     85  C   UNL     1     -16.836   2.223 -11.758  1.00  0.00     0.023 A 
ATOM     86  C   UNL     1     -18.081   2.345 -11.117  1.00  0.00     0.031 A 
ATOM     87  C   UNL     1     -16.815   1.726 -13.074  1.00  0.00     0.131 A 
ATOM     88  C   UNL     1     -19.248   1.928 -11.774  1.00  0.00     0.055 A 
ATOM     89  C   UNL     1     -17.986   1.372 -13.745  1.00  0.00     0.041 A 
ATOM     90  F   UNL     1     -15.654   1.585 -13.733  1.00  0.00    -0.206 F 
ATOM     91  C   UNL     1     -19.211   1.460 -13.091  1.00  0.00     0.022 A 
BRANCH  88  92
ATOM     92  S   UNL     1     -20.812   1.922 -10.854  1.00  0.00     0.124 S 
ATOM     93  O   UNL     1     -20.507   1.027  -9.744  1.00  0.00    -0.237 OA
ATOM     94  O   UNL     1     -20.977   3.331 -10.511  1.00  0.00    -0.237 OA
ATOM     95  O   UNL     1     -21.777   1.404 -11.822  1.00  0.00    -0.744 OA
ENDBRANCH  88  92
ENDBRANCH  62  85
ENDBRANCH  36  37
ENDBRANCH  28  31
ENDBRANCH  26  27
ENDBRANCH  25  26
ENDBRANCH   1  25
TORSDOF 18
