REMARK SMILES COc1ccc2c(CC(=O)NCCCNC(=O)c3ccc(-c4c5nc(c(-c6cc(S(=O)(=O)[O-])ccc6F)c6ccc([nH]6)c(-c6cc(S(=O)(=O)[O-])ccc6F)c6nc(c(-c7cc(S(=O)(=O)[O-])ccc7F)c7ccc4[nH]7)C=C6)C=C5)cc3)c(C(=O)c3cc(C)ccn3)[nH]c2c1
REMARK SMILES IDX 13 1 12 2 11 3 9 4 10 5 8 7 7 8 3 9 4 10 93 11 5 12 92 13
REMARK SMILES IDX 6 14 91 15 81 16 2 18 1 19 82 20 83 21 84 22 85 23 90 24
REMARK SMILES IDX 86 25 89 26 87 27 88 28 14 29 15 30 16 31 17 33 18 34 19 35
REMARK SMILES IDX 80 36 20 37 79 38 21 39 22 40 23 41 73 42 24 43 78 44 72 45
REMARK SMILES IDX 74 46 25 47 77 48 71 49 70 50 26 52 58 53 38 54 57 55 39 56
REMARK SMILES IDX 42 57 56 58 75 59 40 60 41 61 55 63 76 64 43 65 27 66 28 67
REMARK SMILES IDX 36 68 29 69 35 70 37 71 34 72 30 73 31 74 32 75 33 76 59 77
REMARK SMILES IDX 60 78 68 79 61 80 67 81 69 82 66 83 62 84 63 85 64 86 65 87
REMARK SMILES IDX 44 88 45 89 53 90 46 91 52 92 54 93 51 94 47 95 48 96 49 97
REMARK SMILES IDX 50 98
REMARK H PARENT 11 6 91 17 15 32 74 51 42 62
REMARK Flexibility Score: inf
ROOT
ATOM      1  C   UNL     1       2.456  -5.015  -4.957  1.00  0.00     0.042 C 
ENDROOT
BRANCH   1   2
ATOM      2  C   UNL     1       3.610  -4.207  -5.542  1.00  0.00     0.117 C 
BRANCH   2   3
ATOM      3  N   UNL     1       3.506  -4.016  -6.975  1.00  0.00    -0.356 N 
ATOM      4  C   UNL     1       3.190  -2.895  -7.688  1.00  0.00     0.224 C 
ATOM      5  O   UNL     1       3.396  -2.932  -8.904  1.00  0.00    -0.275 OA
ATOM      6  H   UNL     1       3.690  -4.817  -7.517  1.00  0.00     0.163 HD
BRANCH   4   7
ATOM      7  C   UNL     1       2.741  -1.613  -6.996  1.00  0.00     0.138 C 
BRANCH   7   8
ATOM      8  C   UNL     1       1.504  -1.741  -6.147  1.00  0.00    -0.002 A 
ATOM      9  C   UNL     1       0.671  -1.252  -2.039  1.00  0.00     0.120 A 
ATOM     10  C   UNL     1       1.980  -0.967  -2.420  1.00  0.00     0.047 A 
ATOM     11  C   UNL     1      -0.261  -1.702  -2.981  1.00  0.00     0.073 A 
ATOM     12  C   UNL     1       2.374  -1.088  -3.759  1.00  0.00     0.014 A 
ATOM     13  C   UNL     1       0.147  -1.798  -4.317  1.00  0.00     0.050 A 
ATOM     14  C   UNL     1       1.440  -1.504  -4.732  1.00  0.00     0.004 A 
ATOM     15  N   UNL     1      -0.557  -2.181  -5.432  1.00  0.00    -0.351 N 
ATOM     16  C   UNL     1       0.206  -2.037  -6.573  1.00  0.00     0.093 A 
ATOM     17  H   UNL     1      -1.484  -2.514  -5.419  1.00  0.00     0.167 HD
BRANCH   9  18
ATOM     18  O   UNL     1       0.202  -1.166  -0.755  1.00  0.00    -0.497 OA
ATOM     19  C   UNL     1       0.779  -0.127   0.029  1.00  0.00     0.278 C 
ENDBRANCH   9  18
BRANCH  16  20
ATOM     20  C   UNL     1      -0.287  -2.191  -7.939  1.00  0.00     0.227 C 
ATOM     21  O   UNL     1       0.411  -1.994  -8.933  1.00  0.00    -0.285 OA
BRANCH  20  22
ATOM     22  C   UNL     1      -1.720  -2.514  -8.161  1.00  0.00     0.113 A 
ATOM     23  C   UNL     1      -2.698  -1.580  -7.828  1.00  0.00     0.036 A 
ATOM     24  N   UNL     1      -1.984  -3.723  -8.714  1.00  0.00    -0.253 NA
ATOM     25  C   UNL     1      -4.034  -1.904  -8.072  1.00  0.00    -0.047 A 
ATOM     26  C   UNL     1      -3.280  -4.002  -8.961  1.00  0.00     0.112 A 
ATOM     27  C   UNL     1      -5.141  -0.950  -7.740  1.00  0.00     0.044 C 
ATOM     28  C   UNL     1      -4.324  -3.139  -8.660  1.00  0.00     0.023 A 
ENDBRANCH  20  22
ENDBRANCH  16  20
ENDBRANCH   7   8
ENDBRANCH   4   7
ENDBRANCH   2   3
ENDBRANCH   1   2
BRANCH   1  29
ATOM     29  C   UNL     1       2.400  -6.469  -5.420  1.00  0.00     0.118 C 
BRANCH  29  30
ATOM     30  N   UNL     1       3.565  -7.239  -5.007  1.00  0.00    -0.352 N 
ATOM     31  C   UNL     1       3.662  -8.386  -4.260  1.00  0.00     0.251 C 
ATOM     32  H   UNL     1       4.426  -6.875  -5.315  1.00  0.00     0.163 HD
ATOM     33  O   UNL     1       4.774  -8.752  -3.883  1.00  0.00    -0.269 OA
BRANCH  31  34
ATOM     34  C   UNL     1       2.462  -9.172  -3.889  1.00  0.00     0.039 A 
ATOM     35  C   UNL     1       2.406  -9.747  -2.615  1.00  0.00     0.014 A 
ATOM     36  C   UNL     1       1.422  -9.401  -4.795  1.00  0.00     0.014 A 
ATOM     37  C   UNL     1       1.290 -10.495  -2.229  1.00  0.00     0.010 A 
ATOM     38  C   UNL     1       0.281 -10.095  -4.389  1.00  0.00     0.010 A 
ATOM     39  C   UNL     1       0.202 -10.650  -3.102  1.00  0.00    -0.014 A 
BRANCH  39  40
ATOM     40  C   UNL     1      -1.018 -11.397  -2.692  1.00  0.00     0.031 A 
ATOM     41  C   UNL     1      -1.387 -12.680  -3.390  1.00  0.00     0.074 A 
ATOM     42  C   UNL     1      -1.821 -10.895  -1.734  1.00  0.00     0.049 A 
ATOM     43  N   UNL     1      -2.463 -13.413  -3.262  1.00  0.00    -0.248 NA
ATOM     44  C   UNL     1      -0.426 -13.189  -4.380  1.00  0.00     0.031 C 
ATOM     45  C   UNL     1      -1.585  -9.651  -0.998  1.00  0.00     0.029 A 
ATOM     46  N   UNL     1      -3.008 -11.360  -1.222  1.00  0.00    -0.354 N 
ATOM     47  C   UNL     1      -2.314 -14.467  -4.157  1.00  0.00     0.074 A 
ATOM     48  C   UNL     1      -1.067 -14.244  -4.860  1.00  0.00     0.031 C 
ATOM     49  C   UNL     1      -2.588  -9.456  -0.127  1.00  0.00     0.029 A 
ATOM     50  C   UNL     1      -3.562 -10.534  -0.270  1.00  0.00     0.049 A 
ATOM     51  H   UNL     1      -3.423 -12.206  -1.508  1.00  0.00     0.167 HD
ATOM     52  C   UNL     1      -3.130 -15.532  -4.361  1.00  0.00     0.034 A 
ATOM     53  C   UNL     1      -4.731 -10.624   0.397  1.00  0.00     0.034 A 
ATOM     54  C   UNL     1      -4.366 -15.748  -3.650  1.00  0.00     0.049 A 
ATOM     55  C   UNL     1      -5.630 -11.807   0.137  1.00  0.00     0.074 A 
ATOM     56  C   UNL     1      -5.264 -16.796  -3.776  1.00  0.00     0.029 A 
ATOM     57  N   UNL     1      -4.879 -14.904  -2.674  1.00  0.00    -0.354 N 
ATOM     58  N   UNL     1      -5.467 -12.799  -0.707  1.00  0.00    -0.248 NA
ATOM     59  C   UNL     1      -6.864 -11.890   0.930  1.00  0.00     0.031 C 
ATOM     60  C   UNL     1      -6.338 -16.562  -2.910  1.00  0.00     0.029 A 
ATOM     61  C   UNL     1      -6.082 -15.401  -2.198  1.00  0.00     0.049 A 
ATOM     62  H   UNL     1      -4.450 -14.073  -2.365  1.00  0.00     0.167 HD
ATOM     63  C   UNL     1      -6.561 -13.640  -0.519  1.00  0.00     0.074 A 
ATOM     64  C   UNL     1      -7.367 -13.046   0.526  1.00  0.00     0.031 C 
ATOM     65  C   UNL     1      -6.871 -14.799  -1.152  1.00  0.00     0.034 A 
BRANCH  52  66
ATOM     66  C   UNL     1      -2.711 -16.533  -5.409  1.00  0.00     0.023 A 
ATOM     67  C   UNL     1      -1.553 -17.314  -5.255  1.00  0.00     0.031 A 
ATOM     68  C   UNL     1      -3.469 -16.702  -6.582  1.00  0.00     0.131 A 
ATOM     69  C   UNL     1      -1.149 -18.180  -6.282  1.00  0.00     0.055 A 
ATOM     70  C   UNL     1      -3.102 -17.620  -7.568  1.00  0.00     0.041 A 
ATOM     71  F   UNL     1      -4.574 -15.971  -6.792  1.00  0.00    -0.206 F 
ATOM     72  C   UNL     1      -1.929 -18.357  -7.427  1.00  0.00     0.022 A 
BRANCH  69  73
ATOM     73  S   UNL     1       0.469 -18.986  -6.150  1.00  0.00     0.124 S 
ATOM     74  O   UNL     1       1.370 -17.836  -6.148  1.00  0.00    -0.237 OA
ATOM     75  O   UNL     1       0.359 -19.715  -4.892  1.00  0.00    -0.237 OA
ATOM     76  O   UNL     1       0.535 -19.820  -7.349  1.00  0.00    -0.744 OA
ENDBRANCH  69  73
ENDBRANCH  52  66
BRANCH  53  77
ATOM     77  C   UNL     1      -5.141  -9.560   1.357  1.00  0.00     0.023 A 
ATOM     78  C   UNL     1      -5.307  -9.842   2.722  1.00  0.00     0.031 A 
ATOM     79  C   UNL     1      -5.441  -8.260   0.912  1.00  0.00     0.131 A 
ATOM     80  C   UNL     1      -5.819  -8.859   3.583  1.00  0.00     0.055 A 
ATOM     81  C   UNL     1      -5.895  -7.268   1.784  1.00  0.00     0.041 A 
ATOM     82  F   UNL     1      -5.296  -7.934  -0.382  1.00  0.00    -0.206 F 
ATOM     83  C   UNL     1      -6.103  -7.571   3.126  1.00  0.00     0.022 A 
BRANCH  80  84
ATOM     84  S   UNL     1      -6.220  -9.325   5.290  1.00  0.00     0.124 S 
ATOM     85  O   UNL     1      -7.100 -10.470   5.088  1.00  0.00    -0.237 OA
ATOM     86  O   UNL     1      -4.900  -9.618   5.839  1.00  0.00    -0.237 OA
ATOM     87  O   UNL     1      -6.865  -8.128   5.826  1.00  0.00    -0.744 OA
ENDBRANCH  80  84
ENDBRANCH  53  77
BRANCH  65  88
ATOM     88  C   UNL     1      -8.107 -15.524  -0.681  1.00  0.00     0.023 A 
ATOM     89  C   UNL     1      -9.396 -15.007  -0.896  1.00  0.00     0.031 A 
ATOM     90  C   UNL     1      -7.987 -16.743   0.008  1.00  0.00     0.131 A 
ATOM     91  C   UNL     1     -10.512 -15.679  -0.377  1.00  0.00     0.055 A 
ATOM     92  C   UNL     1      -9.104 -17.435   0.476  1.00  0.00     0.041 A 
ATOM     93  F   UNL     1      -6.778 -17.281   0.239  1.00  0.00    -0.206 F 
ATOM     94  C   UNL     1     -10.376 -16.896   0.296  1.00  0.00     0.022 A 
BRANCH  91  95
ATOM     95  S   UNL     1     -12.144 -14.900  -0.523  1.00  0.00     0.124 S 
ATOM     96  O   UNL     1     -11.942 -13.636   0.178  1.00  0.00    -0.237 OA
ATOM     97  O   UNL     1     -12.316 -14.806  -1.969  1.00  0.00    -0.237 OA
ATOM     98  O   UNL     1     -13.037 -15.845   0.145  1.00  0.00    -0.744 OA
ENDBRANCH  91  95
ENDBRANCH  65  88
ENDBRANCH  39  40
ENDBRANCH  31  34
ENDBRANCH  29  30
ENDBRANCH   1  29
TORSDOF 17
