REMARK SMILES Cc1cc(C)c2c(c1)C=C(C(=O)NCCCNC(=O)c1ccc(-c3c4nc(c(-c5cc(S(=O)(=O)[O-])ccc5F)c5ccc([nH]5)c(-c5cc(S(=O)(=O)[O-])ccc5F)c5nc(c(-c6cc(S(=O)(=O)[O-])ccc6F)c6ccc3[nH]6)C=C5)C=C4)cc1)[C@@H](C(F)(F)F)O2
REMARK SMILES IDX 16 1 15 2 14 3 13 4 11 5 12 6 10 8 1 9 2 10 3 11 8 12 4 13
REMARK SMILES IDX 7 14 5 15 6 16 9 17 88 18 83 19 84 20 85 21 86 22 87 23
REMARK SMILES IDX 17 24 18 25 19 27 20 28 21 29 82 30 22 31 81 32 23 33 24 34
REMARK SMILES IDX 25 35 75 36 26 37 80 38 74 39 76 40 27 41 79 42 73 43 72 44
REMARK SMILES IDX 28 46 60 47 40 48 59 49 41 50 44 51 58 52 77 53 42 54 43 55
REMARK SMILES IDX 57 57 78 58 45 59 29 60 30 61 38 62 31 63 37 64 39 65 36 66
REMARK SMILES IDX 32 67 33 68 34 69 35 70 61 71 62 72 70 73 63 74 69 75 71 76
REMARK SMILES IDX 68 77 64 78 65 79 66 80 67 81 46 82 47 83 55 84 48 85 54 86
REMARK SMILES IDX 56 87 53 88 49 89 50 90 51 91 52 92
REMARK H PARENT 13 7 17 26 76 45 44 56
REMARK Flexibility Score: inf
ROOT
ATOM      1  C   UNL     1       1.565  11.040   1.546  1.00  0.00     0.118 C 
ENDROOT
BRANCH   1   2
ATOM      2  C   UNL     1       0.743   9.783   1.807  1.00  0.00     0.042 C 
BRANCH   2   3
ATOM      3  C   UNL     1       0.262   9.136   0.517  1.00  0.00     0.118 C 
BRANCH   3   4
ATOM      4  N   UNL     1       1.328   8.404  -0.154  1.00  0.00    -0.352 N 
ATOM      5  C   UNL     1       1.671   7.112  -0.357  1.00  0.00     0.251 C 
ATOM      6  O   UNL     1       2.705   6.940  -1.011  1.00  0.00    -0.270 OA
ATOM      7  H   UNL     1       1.974   9.017  -0.573  1.00  0.00     0.163 HD
BRANCH   5   8
ATOM      8  C   UNL     1       0.902   5.932   0.133  1.00  0.00     0.067 C 
ATOM      9  C   UNL     1       0.956  -0.246  -0.062  1.00  0.00     0.044 C 
ATOM     10  C   UNL     1       0.507   1.115   0.382  1.00  0.00    -0.050 A 
ATOM     11  C   UNL     1      -0.618   1.256   1.206  1.00  0.00     0.010 A 
ATOM     12  C   UNL     1       1.182   2.260  -0.061  1.00  0.00     0.015 A 
ATOM     13  C   UNL     1      -1.055   2.523   1.614  1.00  0.00    -0.008 A 
ATOM     14  C   UNL     1       0.753   3.531   0.331  1.00  0.00     0.018 A 
ATOM     15  C   UNL     1      -2.254   2.670   2.506  1.00  0.00     0.048 C 
ATOM     16  C   UNL     1      -0.361   3.653   1.164  1.00  0.00     0.130 A 
ATOM     17  C   UNL     1       1.466   4.731  -0.090  1.00  0.00     0.025 C 
ATOM     18  O   UNL     1      -0.796   4.869   1.613  1.00  0.00    -0.475 OA
ATOM     19  C   UNL     1      -0.438   6.019   0.803  1.00  0.00     0.314 C 
BRANCH  19  20
ATOM     20  C   UNL     1      -1.580   6.312  -0.190  1.00  0.00     0.429 C 
ATOM     21  F   UNL     1      -2.686   6.738   0.470  1.00  0.00    -0.167 F 
ATOM     22  F   UNL     1      -1.264   7.287  -1.076  1.00  0.00    -0.167 F 
ATOM     23  F   UNL     1      -1.935   5.229  -0.917  1.00  0.00    -0.167 F 
ENDBRANCH  19  20
ENDBRANCH   5   8
ENDBRANCH   3   4
ENDBRANCH   2   3
ENDBRANCH   1   2
BRANCH   1  24
ATOM     24  N   UNL     1       0.759  12.091   0.932  1.00  0.00    -0.352 N 
ATOM     25  C   UNL     1       0.170  13.195   1.497  1.00  0.00     0.251 C 
ATOM     26  H   UNL     1       0.617  11.994  -0.037  1.00  0.00     0.163 HD
ATOM     27  O   UNL     1      -0.721  13.783   0.887  1.00  0.00    -0.269 OA
BRANCH  25  28
ATOM     28  C   UNL     1       0.601  13.662   2.829  1.00  0.00     0.039 A 
ATOM     29  C   UNL     1      -0.351  14.128   3.739  1.00  0.00     0.014 A 
ATOM     30  C   UNL     1       1.956  13.664   3.169  1.00  0.00     0.014 A 
ATOM     31  C   UNL     1       0.054  14.533   5.012  1.00  0.00     0.010 A 
ATOM     32  C   UNL     1       2.345  13.969   4.466  1.00  0.00     0.010 A 
ATOM     33  C   UNL     1       1.401  14.423   5.396  1.00  0.00    -0.014 A 
BRANCH  33  34
ATOM     34  C   UNL     1       1.854  14.825   6.749  1.00  0.00     0.031 A 
ATOM     35  C   UNL     1       2.822  15.967   6.903  1.00  0.00     0.074 A 
ATOM     36  C   UNL     1       1.423  14.144   7.828  1.00  0.00     0.049 A 
ATOM     37  N   UNL     1       3.377  16.439   7.988  1.00  0.00    -0.248 NA
ATOM     38  C   UNL     1       3.245  16.648   5.668  1.00  0.00     0.031 C 
ATOM     39  C   UNL     1       0.506  13.002   7.796  1.00  0.00     0.029 A 
ATOM     40  N   UNL     1       1.685  14.321   9.162  1.00  0.00    -0.354 N 
ATOM     41  C   UNL     1       4.208  17.470   7.567  1.00  0.00     0.074 A 
ATOM     42  C   UNL     1       4.153  17.495   6.122  1.00  0.00     0.031 C 
ATOM     43  C   UNL     1       0.234  12.623   9.055  1.00  0.00     0.029 A 
ATOM     44  C   UNL     1       0.990  13.461   9.980  1.00  0.00     0.049 A 
ATOM     45  H   UNL     1       2.312  14.999   9.503  1.00  0.00     0.167 HD
ATOM     46  C   UNL     1       4.918  18.347   8.316  1.00  0.00     0.034 A 
ATOM     47  C   UNL     1       0.960  13.368  11.323  1.00  0.00     0.034 A 
ATOM     48  C   UNL     1       4.945  18.326   9.755  1.00  0.00     0.049 A 
ATOM     49  C   UNL     1       1.806  14.310  12.136  1.00  0.00     0.074 A 
ATOM     50  C   UNL     1       5.606  19.181  10.617  1.00  0.00     0.029 A 
ATOM     51  N   UNL     1       4.276  17.400  10.543  1.00  0.00    -0.354 N 
ATOM     52  N   UNL     1       2.585  15.282  11.722  1.00  0.00    -0.248 NA
ATOM     53  C   UNL     1       1.779  14.138  13.595  1.00  0.00     0.031 C 
ATOM     54  C   UNL     1       5.378  18.742  11.925  1.00  0.00     0.029 A 
ATOM     55  C   UNL     1       4.529  17.647  11.881  1.00  0.00     0.049 A 
ATOM     56  H   UNL     1       3.704  16.675  10.201  1.00  0.00     0.167 HD
ATOM     57  C   UNL     1       3.127  15.849  12.870  1.00  0.00     0.074 A 
ATOM     58  C   UNL     1       2.585  15.113  13.995  1.00  0.00     0.031 C 
ATOM     59  C   UNL     1       3.992  16.887  12.983  1.00  0.00     0.034 A 
BRANCH  46  60
ATOM     60  C   UNL     1       5.708  19.399   7.583  1.00  0.00     0.023 A 
ATOM     61  C   UNL     1       5.065  20.385   6.815  1.00  0.00     0.031 A 
ATOM     62  C   UNL     1       7.112  19.406   7.625  1.00  0.00     0.131 A 
ATOM     63  C   UNL     1       5.823  21.292   6.062  1.00  0.00     0.055 A 
ATOM     64  C   UNL     1       7.862  20.360   6.934  1.00  0.00     0.041 A 
ATOM     65  F   UNL     1       7.780  18.477   8.327  1.00  0.00    -0.206 F 
ATOM     66  C   UNL     1       7.218  21.302   6.136  1.00  0.00     0.022 A 
BRANCH  63  67
ATOM     67  S   UNL     1       4.962  22.378   4.894  1.00  0.00     0.124 S 
ATOM     68  O   UNL     1       4.390  21.410   3.962  1.00  0.00    -0.237 OA
ATOM     69  O   UNL     1       4.013  23.078   5.752  1.00  0.00    -0.237 OA
ATOM     70  O   UNL     1       6.033  23.207   4.344  1.00  0.00    -0.744 OA
ENDBRANCH  63  67
ENDBRANCH  46  60
BRANCH  47  71
ATOM     71  C   UNL     1       0.080  12.363  11.978  1.00  0.00     0.023 A 
ATOM     72  C   UNL     1      -1.065  12.769  12.680  1.00  0.00     0.031 A 
ATOM     73  C   UNL     1       0.354  10.987  11.893  1.00  0.00     0.131 A 
ATOM     74  C   UNL     1      -1.890  11.809  13.285  1.00  0.00     0.055 A 
ATOM     75  C   UNL     1      -0.487  10.033  12.469  1.00  0.00     0.041 A 
ATOM     76  F   UNL     1       1.431  10.550  11.221  1.00  0.00    -0.206 F 
ATOM     77  C   UNL     1      -1.615  10.444  13.174  1.00  0.00     0.022 A 
BRANCH  74  78
ATOM     78  S   UNL     1      -3.329  12.371  14.234  1.00  0.00     0.124 S 
ATOM     79  O   UNL     1      -2.696  13.090  15.334  1.00  0.00    -0.237 OA
ATOM     80  O   UNL     1      -4.040  13.188  13.256  1.00  0.00    -0.237 OA
ATOM     81  O   UNL     1      -3.999  11.126  14.604  1.00  0.00    -0.744 OA
ENDBRANCH  74  78
ENDBRANCH  47  71
BRANCH  59  82
ATOM     82  C   UNL     1       4.405  17.298  14.369  1.00  0.00     0.023 A 
ATOM     83  C   UNL     1       5.317  16.531  15.111  1.00  0.00     0.031 A 
ATOM     84  C   UNL     1       3.942  18.507  14.917  1.00  0.00     0.131 A 
ATOM     85  C   UNL     1       5.731  16.977  16.374  1.00  0.00     0.055 A 
ATOM     86  C   UNL     1       4.388  18.965  16.156  1.00  0.00     0.041 A 
ATOM     87  F   UNL     1       3.074  19.275  14.239  1.00  0.00    -0.206 F 
ATOM     88  C   UNL     1       5.287  18.197  16.893  1.00  0.00     0.022 A 
BRANCH  85  89
ATOM     89  S   UNL     1       6.860  15.937  17.338  1.00  0.00     0.124 S 
ATOM     90  O   UNL     1       6.019  14.785  17.647  1.00  0.00    -0.237 OA
ATOM     91  O   UNL     1       7.951  15.695  16.400  1.00  0.00    -0.237 OA
ATOM     92  O   UNL     1       7.206  16.777  18.483  1.00  0.00    -0.744 OA
ENDBRANCH  85  89
ENDBRANCH  59  82
ENDBRANCH  33  34
ENDBRANCH  25  28
ENDBRANCH   1  24
TORSDOF 14
