REMARK SMILES O=C(CC1(NC(=O)c2cc([N+](=O)[O-])ccc2F)CCC1)NCCCNC(=O)c1ccc(-c2c3nc(c(-c4cc(S(=O)(=O)[O-])ccc4F)c4ccc([nH]4)c(-c4cc(S(=O)(=O)[O-])ccc4F)c4nc(c(-c5cc(S(=O)(=O)[O-])ccc5F)c5ccc2[nH]5)C=C4)C=C3)cc1
REMARK SMILES IDX 22 1 21 2 1 3 2 4 3 6 4 7 18 8 20 9 19 10 5 11 6 12 7 14
REMARK SMILES IDX 8 15 9 16 16 17 10 18 15 19 17 20 14 21 11 22 12 23 13 24
REMARK SMILES IDX 23 25 24 26 25 27 26 28 27 30 28 31 29 32 90 33 30 34 89 35
REMARK SMILES IDX 31 36 32 37 33 38 83 39 34 40 88 41 82 42 84 43 35 44 87 45
REMARK SMILES IDX 81 46 80 47 36 49 68 50 48 51 67 52 49 53 52 54 66 55 85 56
REMARK SMILES IDX 50 57 51 58 65 60 86 61 53 62 37 63 38 64 46 65 39 66 45 67
REMARK SMILES IDX 47 68 44 69 40 70 41 71 42 72 43 73 69 74 70 75 78 76 71 77
REMARK SMILES IDX 77 78 79 79 76 80 72 81 73 82 74 83 75 84 54 85 55 86 63 87
REMARK SMILES IDX 56 88 62 89 64 90 61 91 57 92 58 93 59 94 60 95
REMARK H PARENT 21 5 5 13 25 29 84 48 52 59
REMARK Flexibility Score: inf
ROOT
ATOM      1  C   UNL     1       2.033   1.394   2.505  1.00  0.00     0.117 C 
ENDROOT
BRANCH   1   2
ATOM      2  N   UNL     1       2.838   0.943   1.389  1.00  0.00    -0.356 N 
ATOM      3  O   UNL     1       1.110   0.095   0.154  1.00  0.00    -0.275 OA
ATOM      4  C   UNL     1       2.313   0.247   0.328  1.00  0.00     0.222 C 
ATOM      5  H   UNL     1       3.802   1.145   1.390  1.00  0.00     0.163 HD
BRANCH   4   6
ATOM      6  C   UNL     1       3.369  -0.352  -0.576  1.00  0.00     0.128 C 
BRANCH   6   7
ATOM      7  C   UNL     1       3.825   0.514  -1.754  1.00  0.00     0.049 C 
ATOM      8  C   UNL     1       3.610   2.065  -1.681  1.00  0.00     0.029 C 
ATOM      9  C   UNL     1       5.362   0.797  -1.598  1.00  0.00     0.029 C 
ATOM     10  C   UNL     1       5.121   2.295  -1.770  1.00  0.00     0.005 C 
BRANCH   7  11
ATOM     11  N   UNL     1       3.555   0.025  -3.150  1.00  0.00    -0.346 N 
ATOM     12  C   UNL     1       2.766  -0.929  -3.747  1.00  0.00     0.254 C 
ATOM     13  H   UNL     1       4.086   0.521  -3.815  1.00  0.00     0.164 HD
ATOM     14  O   UNL     1       2.798  -1.074  -4.967  1.00  0.00    -0.269 OA
BRANCH  12  15
ATOM     15  C   UNL     1       1.953  -1.858  -2.973  1.00  0.00     0.082 A 
ATOM     16  C   UNL     1       2.405  -3.175  -2.826  1.00  0.00     0.102 A 
ATOM     17  C   UNL     1       0.772  -1.436  -2.375  1.00  0.00     0.136 A 
ATOM     18  C   UNL     1       1.704  -4.033  -1.973  1.00  0.00     0.270 A 
ATOM     19  C   UNL     1       0.085  -2.292  -1.514  1.00  0.00     0.047 A 
ATOM     20  F   UNL     1       0.314  -0.192  -2.571  1.00  0.00    -0.206 F 
ATOM     21  C   UNL     1       0.560  -3.589  -1.291  1.00  0.00     0.088 A 
BRANCH  18  22
ATOM     22  N   UNL     1       2.190  -5.402  -1.770  1.00  0.00     0.062 N 
ATOM     23  O   UNL     1       3.020  -5.840  -2.578  1.00  0.00    -0.258 OA
ATOM     24  O   UNL     1       1.739  -6.034  -0.805  1.00  0.00    -0.258 OA
ENDBRANCH  18  22
ENDBRANCH  12  15
ENDBRANCH   7  11
ENDBRANCH   6   7
ENDBRANCH   4   6
ENDBRANCH   1   2
BRANCH   1  25
ATOM     25  C   UNL     1       2.307   0.548   3.744  1.00  0.00     0.042 C 
BRANCH  25  26
ATOM     26  C   UNL     1       3.787   0.435   4.104  1.00  0.00     0.118 C 
BRANCH  26  27
ATOM     27  N   UNL     1       4.438   1.730   4.232  1.00  0.00    -0.352 N 
ATOM     28  C   UNL     1       5.241   2.207   5.237  1.00  0.00     0.251 C 
ATOM     29  H   UNL     1       4.279   2.356   3.489  1.00  0.00     0.163 HD
ATOM     30  O   UNL     1       5.556   3.393   5.242  1.00  0.00    -0.269 OA
BRANCH  28  31
ATOM     31  C   UNL     1       5.696   1.302   6.311  1.00  0.00     0.039 A 
ATOM     32  C   UNL     1       5.644   1.752   7.630  1.00  0.00     0.014 A 
ATOM     33  C   UNL     1       6.171   0.019   6.020  1.00  0.00     0.014 A 
ATOM     34  C   UNL     1       6.022   0.895   8.663  1.00  0.00     0.010 A 
ATOM     35  C   UNL     1       6.469  -0.861   7.057  1.00  0.00     0.010 A 
ATOM     36  C   UNL     1       6.407  -0.429   8.389  1.00  0.00    -0.014 A 
BRANCH  36  37
ATOM     37  C   UNL     1       6.750  -1.356   9.497  1.00  0.00     0.031 A 
ATOM     38  C   UNL     1       8.145  -1.903   9.625  1.00  0.00     0.074 A 
ATOM     39  C   UNL     1       5.796  -1.704  10.385  1.00  0.00     0.049 A 
ATOM     40  N   UNL     1       8.635  -2.694  10.544  1.00  0.00    -0.248 NA
ATOM     41  C   UNL     1       9.111  -1.534   8.577  1.00  0.00     0.031 C 
ATOM     42  C   UNL     1       4.397  -1.272  10.331  1.00  0.00     0.029 A 
ATOM     43  N   UNL     1       5.857  -2.481  11.515  1.00  0.00    -0.354 N 
ATOM     44  C   UNL     1       9.960  -2.916  10.186  1.00  0.00     0.074 A 
ATOM     45  C   UNL     1      10.180  -2.231   8.932  1.00  0.00     0.031 C 
ATOM     46  C   UNL     1       3.750  -1.738  11.410  1.00  0.00     0.029 A 
ATOM     47  C   UNL     1       4.672  -2.538  12.211  1.00  0.00     0.049 A 
ATOM     48  H   UNL     1       6.672  -2.954  11.800  1.00  0.00     0.167 HD
ATOM     49  C   UNL     1      10.913  -3.601  10.860  1.00  0.00     0.034 A 
ATOM     50  C   UNL     1       4.361  -3.156  13.369  1.00  0.00     0.034 A 
ATOM     51  C   UNL     1      10.687  -4.253  12.123  1.00  0.00     0.049 A 
ATOM     52  C   UNL     1       5.433  -3.928  14.091  1.00  0.00     0.074 A 
ATOM     53  C   UNL     1      11.600  -4.922  12.918  1.00  0.00     0.029 A 
ATOM     54  N   UNL     1       9.464  -4.318  12.775  1.00  0.00    -0.354 N 
ATOM     55  N   UNL     1       6.690  -4.098  13.752  1.00  0.00    -0.248 NA
ATOM     56  C   UNL     1       5.053  -4.591  15.346  1.00  0.00     0.031 C 
ATOM     57  C   UNL     1      10.917  -5.448  14.016  1.00  0.00     0.029 A 
ATOM     58  C   UNL     1       9.593  -5.044  13.946  1.00  0.00     0.049 A 
ATOM     59  H   UNL     1       8.628  -3.908  12.453  1.00  0.00     0.167 HD
ATOM     60  C   UNL     1       7.255  -4.867  14.763  1.00  0.00     0.074 A 
ATOM     61  C   UNL     1       6.204  -5.133  15.724  1.00  0.00     0.031 C 
ATOM     62  C   UNL     1       8.532  -5.304  14.887  1.00  0.00     0.034 A 
BRANCH  49  63
ATOM     63  C   UNL     1      12.288  -3.683  10.251  1.00  0.00     0.023 A 
ATOM     64  C   UNL     1      13.105  -2.547  10.131  1.00  0.00     0.031 A 
ATOM     65  C   UNL     1      12.804  -4.919   9.824  1.00  0.00     0.131 A 
ATOM     66  C   UNL     1      14.381  -2.662   9.560  1.00  0.00     0.055 A 
ATOM     67  C   UNL     1      14.098  -5.038   9.317  1.00  0.00     0.041 A 
ATOM     68  F   UNL     1      12.058  -6.033   9.900  1.00  0.00    -0.206 F 
ATOM     69  C   UNL     1      14.893  -3.904   9.177  1.00  0.00     0.022 A 
BRANCH  66  70
ATOM     70  S   UNL     1      15.335  -1.151   9.257  1.00  0.00     0.124 S 
ATOM     71  O   UNL     1      14.502  -0.471   8.268  1.00  0.00    -0.237 OA
ATOM     72  O   UNL     1      15.387  -0.537  10.578  1.00  0.00    -0.237 OA
ATOM     73  O   UNL     1      16.613  -1.649   8.750  1.00  0.00    -0.744 OA
ENDBRANCH  66  70
ENDBRANCH  49  63
BRANCH  50  74
ATOM     74  C   UNL     1       2.979  -3.055  13.914  1.00  0.00     0.023 A 
ATOM     75  C   UNL     1       2.711  -2.321  15.079  1.00  0.00     0.031 A 
ATOM     76  C   UNL     1       1.899  -3.671  13.256  1.00  0.00     0.131 A 
ATOM     77  C   UNL     1       1.395  -2.232  15.561  1.00  0.00     0.055 A 
ATOM     78  C   UNL     1       0.587  -3.547  13.717  1.00  0.00     0.041 A 
ATOM     79  F   UNL     1       2.102  -4.373  12.130  1.00  0.00    -0.206 F 
ATOM     80  C   UNL     1       0.331  -2.828  14.880  1.00  0.00     0.022 A 
BRANCH  77  81
ATOM     81  S   UNL     1       1.091  -1.339  17.110  1.00  0.00     0.124 S 
ATOM     82  O   UNL     1       1.831  -2.151  18.070  1.00  0.00    -0.237 OA
ATOM     83  O   UNL     1       1.647  -0.022  16.818  1.00  0.00    -0.237 OA
ATOM     84  O   UNL     1      -0.363  -1.381  17.247  1.00  0.00    -0.744 OA
ENDBRANCH  77  81
ENDBRANCH  50  74
BRANCH  62  85
ATOM     85  C   UNL     1       8.892  -6.094  16.114  1.00  0.00     0.023 A 
ATOM     86  C   UNL     1       8.521  -7.441  16.251  1.00  0.00     0.031 A 
ATOM     87  C   UNL     1       9.718  -5.521  17.098  1.00  0.00     0.131 A 
ATOM     88  C   UNL     1       8.978  -8.176  17.355  1.00  0.00     0.055 A 
ATOM     89  C   UNL     1      10.200  -6.267  18.173  1.00  0.00     0.041 A 
ATOM     90  F   UNL     1      10.105  -4.239  17.001  1.00  0.00    -0.206 F 
ATOM     91  C   UNL     1       9.831  -7.603  18.305  1.00  0.00     0.022 A 
BRANCH  88  92
ATOM     92  S   UNL     1       8.456  -9.903  17.532  1.00  0.00     0.124 S 
ATOM     93  O   UNL     1       7.032  -9.760  17.813  1.00  0.00    -0.237 OA
ATOM     94  O   UNL     1       8.795 -10.473  16.232  1.00  0.00    -0.237 OA
ATOM     95  O   UNL     1       9.263 -10.392  18.649  1.00  0.00    -0.744 OA
ENDBRANCH  88  92
ENDBRANCH  62  85
ENDBRANCH  36  37
ENDBRANCH  28  31
ENDBRANCH  26  27
ENDBRANCH  25  26
ENDBRANCH   1  25
TORSDOF 17
