REMARK SMILES Cc1oc2cc(OCC(=O)NCCCNC(=O)c3ccc(-c4c5nc(c(-c6cc(S(=O)(=O)[O-])ccc6F)c6ccc([nH]6)c(-c6cc(S(=O)(=O)[O-])ccc6F)c6nc(c(-c7cc(S(=O)(=O)[O-])ccc7F)c7ccc4[nH]7)C=C6)C=C5)cc3)ccc2c(=O)c1Oc1ccc(Cl)cc1Cl
REMARK SMILES IDX 12 1 11 2 9 3 10 4 8 6 7 7 6 8 1 9 2 10 3 11 86 12 4 13
REMARK SMILES IDX 84 14 5 15 83 16 85 17 82 18 81 19 87 20 88 21 89 22 94 23
REMARK SMILES IDX 90 24 93 25 95 26 91 27 92 28 13 29 14 30 15 31 16 32 17 34
REMARK SMILES IDX 18 35 19 36 80 37 20 38 79 39 21 40 22 41 23 42 73 43 24 44
REMARK SMILES IDX 78 45 72 46 74 47 25 48 77 49 71 50 70 51 26 53 58 54 38 55
REMARK SMILES IDX 57 56 39 57 42 58 56 59 75 60 40 61 41 62 55 64 76 65 43 66
REMARK SMILES IDX 27 67 28 68 36 69 29 70 35 71 37 72 34 73 30 74 31 75 32 76
REMARK SMILES IDX 33 77 59 78 60 79 68 80 61 81 67 82 69 83 66 84 62 85 63 86
REMARK SMILES IDX 64 87 65 88 44 89 45 90 53 91 46 92 52 93 54 94 51 95 47 96
REMARK SMILES IDX 48 97 49 98 50 99
REMARK H PARENT 11 5 15 33 74 52 42 63
REMARK Flexibility Score: inf
ROOT
ATOM      1  C   UNL     1       5.222   3.197  -2.345  1.00  0.00     0.117 C 
ENDROOT
BRANCH   1   2
ATOM      2  N   UNL     1       3.999   3.943  -2.119  1.00  0.00    -0.353 N 
ATOM      3  C   UNL     1       3.302   4.077  -0.953  1.00  0.00     0.257 C 
ATOM      4  O   UNL     1       2.313   4.813  -0.931  1.00  0.00    -0.271 OA
ATOM      5  H   UNL     1       3.627   4.410  -2.901  1.00  0.00     0.163 HD
BRANCH   3   6
ATOM      6  C   UNL     1       3.786   3.343   0.303  1.00  0.00     0.329 C 
BRANCH   6   7
ATOM      7  O   UNL     1       3.874   1.927   0.199  1.00  0.00    -0.484 OA
BRANCH   7   8
ATOM      8  C   UNL     1       2.703   1.221   0.169  1.00  0.00     0.123 A 
ATOM      9  C   UNL     1      -3.215   1.788   0.508  1.00  0.00     0.092 C 
ATOM     10  C   UNL     1      -2.068   0.842   0.288  1.00  0.00     0.148 A 
ATOM     11  O   UNL     1      -0.899   1.582   0.240  1.00  0.00    -0.457 OA
ATOM     12  C   UNL     1      -2.107  -0.512   0.171  1.00  0.00     0.213 A 
ATOM     13  C   UNL     1       0.304   0.949   0.172  1.00  0.00     0.142 A 
ATOM     14  C   UNL     1      -0.793  -1.232   0.061  1.00  0.00     0.235 A 
ATOM     15  C   UNL     1       1.427   1.773   0.219  1.00  0.00     0.094 A 
ATOM     16  C   UNL     1       0.432  -0.422   0.077  1.00  0.00     0.069 A 
ATOM     17  O   UNL     1      -0.724  -2.455   0.006  1.00  0.00    -0.285 OA
ATOM     18  C   UNL     1       1.706  -0.995   0.028  1.00  0.00     0.020 A 
ATOM     19  C   UNL     1       2.837  -0.169   0.075  1.00  0.00     0.047 A 
BRANCH  12  20
ATOM     20  O   UNL     1      -3.201  -1.373   0.175  1.00  0.00    -0.448 OA
BRANCH  20  21
ATOM     21  C   UNL     1      -4.484  -0.903   0.133  1.00  0.00     0.146 A 
ATOM     22  C   UNL     1      -5.223  -0.997   1.317  1.00  0.00     0.050 A 
ATOM     23  C   UNL     1      -5.068  -0.374  -1.023  1.00  0.00     0.085 A 
ATOM     24  C   UNL     1      -6.508  -0.458   1.375  1.00  0.00     0.024 A 
ATOM     25  C   UNL     1      -6.352   0.170  -0.962  1.00  0.00     0.045 A 
ATOM     26  Cl  UNL     1      -4.226  -0.327  -2.528  1.00  0.00    -0.080 Cl
ATOM     27  C   UNL     1      -7.056   0.143   0.242  1.00  0.00     0.042 A 
ATOM     28  Cl  UNL     1      -8.611   0.873   0.338  1.00  0.00    -0.084 Cl
ENDBRANCH  20  21
ENDBRANCH  12  20
ENDBRANCH   7   8
ENDBRANCH   6   7
ENDBRANCH   3   6
ENDBRANCH   1   2
BRANCH   1  29
ATOM     29  C   UNL     1       4.988   1.886  -3.085  1.00  0.00     0.042 C 
BRANCH  29  30
ATOM     30  C   UNL     1       4.420   2.052  -4.491  1.00  0.00     0.118 C 
BRANCH  30  31
ATOM     31  N   UNL     1       5.298   2.815  -5.369  1.00  0.00    -0.352 N 
ATOM     32  C   UNL     1       5.920   2.446  -6.537  1.00  0.00     0.251 C 
ATOM     33  H   UNL     1       5.474   3.739  -5.079  1.00  0.00     0.163 HD
ATOM     34  O   UNL     1       6.774   3.185  -7.022  1.00  0.00    -0.269 OA
BRANCH  32  35
ATOM     35  C   UNL     1       5.582   1.165  -7.193  1.00  0.00     0.039 A 
ATOM     36  C   UNL     1       6.611   0.366  -7.700  1.00  0.00     0.014 A 
ATOM     37  C   UNL     1       4.253   0.756  -7.323  1.00  0.00     0.014 A 
ATOM     38  C   UNL     1       6.313  -0.878  -8.265  1.00  0.00     0.010 A 
ATOM     39  C   UNL     1       3.964  -0.512  -7.818  1.00  0.00     0.010 A 
ATOM     40  C   UNL     1       4.990  -1.345  -8.292  1.00  0.00    -0.014 A 
BRANCH  40  41
ATOM     41  C   UNL     1       4.636  -2.687  -8.828  1.00  0.00     0.031 A 
ATOM     42  C   UNL     1       3.731  -2.791 -10.026  1.00  0.00     0.074 A 
ATOM     43  C   UNL     1       5.048  -3.802  -8.192  1.00  0.00     0.049 A 
ATOM     44  N   UNL     1       3.147  -3.844 -10.536  1.00  0.00    -0.248 NA
ATOM     45  C   UNL     1       3.422  -1.533 -10.724  1.00  0.00     0.031 C 
ATOM     46  C   UNL     1       5.923  -3.834  -7.018  1.00  0.00     0.029 A 
ATOM     47  N   UNL     1       4.769  -5.126  -8.430  1.00  0.00    -0.354 N 
ATOM     48  C   UNL     1       2.385  -3.375 -11.602  1.00  0.00     0.074 A 
ATOM     49  C   UNL     1       2.542  -1.935 -11.628  1.00  0.00     0.031 C 
ATOM     50  C   UNL     1       6.116  -5.110  -6.647  1.00  0.00     0.029 A 
ATOM     51  C   UNL     1       5.332  -5.985  -7.514  1.00  0.00     0.049 A 
ATOM     52  H   UNL     1       4.217  -5.431  -9.186  1.00  0.00     0.167 HD
ATOM     53  C   UNL     1       1.641  -4.081 -12.488  1.00  0.00     0.034 A 
ATOM     54  C   UNL     1       5.208  -7.321  -7.371  1.00  0.00     0.034 A 
ATOM     55  C   UNL     1       1.505  -5.516 -12.458  1.00  0.00     0.049 A 
ATOM     56  C   UNL     1       4.330  -8.079  -8.339  1.00  0.00     0.074 A 
ATOM     57  C   UNL     1       0.788  -6.333 -13.315  1.00  0.00     0.029 A 
ATOM     58  N   UNL     1       2.103  -6.351 -11.522  1.00  0.00    -0.354 N 
ATOM     59  N   UNL     1       3.620  -7.621  -9.345  1.00  0.00    -0.248 NA
ATOM     60  C   UNL     1       4.242  -9.535  -8.159  1.00  0.00     0.031 C 
ATOM     61  C   UNL     1       0.906  -7.652 -12.866  1.00  0.00     0.029 A 
ATOM     62  C   UNL     1       1.760  -7.669 -11.775  1.00  0.00     0.049 A 
ATOM     63  H   UNL     1       2.684  -6.050 -10.787  1.00  0.00     0.167 HD
ATOM     64  C   UNL     1       3.047  -8.739  -9.945  1.00  0.00     0.074 A 
ATOM     65  C   UNL     1       3.492  -9.892  -9.192  1.00  0.00     0.031 C 
ATOM     66  C   UNL     1       2.234  -8.809 -11.029  1.00  0.00     0.034 A 
BRANCH  53  67
ATOM     67  C   UNL     1       0.902  -3.305 -13.551  1.00  0.00     0.023 A 
ATOM     68  C   UNL     1       1.588  -2.562 -14.528  1.00  0.00     0.031 A 
ATOM     69  C   UNL     1      -0.503  -3.298 -13.585  1.00  0.00     0.131 A 
ATOM     70  C   UNL     1       0.870  -1.790 -15.453  1.00  0.00     0.055 A 
ATOM     71  C   UNL     1      -1.212  -2.592 -14.559  1.00  0.00     0.041 A 
ATOM     72  F   UNL     1      -1.213  -3.972 -12.666  1.00  0.00    -0.206 F 
ATOM     73  C   UNL     1      -0.526  -1.822 -15.493  1.00  0.00     0.022 A 
BRANCH  70  74
ATOM     74  S   UNL     1       1.785  -0.645 -16.520  1.00  0.00     0.124 S 
ATOM     75  O   UNL     1       2.410   0.237 -15.537  1.00  0.00    -0.237 OA
ATOM     76  O   UNL     1       2.685  -1.536 -17.242  1.00  0.00    -0.237 OA
ATOM     77  O   UNL     1       0.741  -0.022 -17.330  1.00  0.00    -0.744 OA
ENDBRANCH  70  74
ENDBRANCH  53  67
BRANCH  54  78
ATOM     78  C   UNL     1       5.905  -8.042  -6.266  1.00  0.00     0.023 A 
ATOM     79  C   UNL     1       6.859  -9.033  -6.545  1.00  0.00     0.031 A 
ATOM     80  C   UNL     1       5.573  -7.810  -4.919  1.00  0.00     0.131 A 
ATOM     81  C   UNL     1       7.396  -9.803  -5.501  1.00  0.00     0.055 A 
ATOM     82  C   UNL     1       6.159  -8.535  -3.879  1.00  0.00     0.041 A 
ATOM     83  F   UNL     1       4.670  -6.872  -4.592  1.00  0.00    -0.206 F 
ATOM     84  C   UNL     1       7.062  -9.553  -4.169  1.00  0.00     0.022 A 
BRANCH  81  85
ATOM     85  S   UNL     1       8.443 -11.224  -5.925  1.00  0.00     0.124 S 
ATOM     86  O   UNL     1       7.567 -11.982  -6.811  1.00  0.00    -0.237 OA
ATOM     87  O   UNL     1       9.589 -10.576  -6.553  1.00  0.00    -0.237 OA
ATOM     88  O   UNL     1       8.711 -11.845  -4.630  1.00  0.00    -0.744 OA
ENDBRANCH  81  85
ENDBRANCH  54  78
BRANCH  66  89
ATOM     89  C   UNL     1       1.852 -10.183 -11.523  1.00  0.00     0.023 A 
ATOM     90  C   UNL     1       1.002 -11.033 -10.796  1.00  0.00     0.031 A 
ATOM     91  C   UNL     1       2.343 -10.637 -12.761  1.00  0.00     0.131 A 
ATOM     92  C   UNL     1       0.703 -12.311 -11.293  1.00  0.00     0.055 A 
ATOM     93  C   UNL     1       1.998 -11.886 -13.276  1.00  0.00     0.041 A 
ATOM     94  F   UNL     1       3.160  -9.864 -13.496  1.00  0.00    -0.206 F 
ATOM     95  C   UNL     1       1.181 -12.735 -12.537  1.00  0.00     0.022 A 
BRANCH  92  96
ATOM     96  S   UNL     1      -0.271 -13.444 -10.265  1.00  0.00     0.124 S 
ATOM     97  O   UNL     1       0.564 -13.568  -9.074  1.00  0.00    -0.237 OA
ATOM     98  O   UNL     1      -1.522 -12.713 -10.092  1.00  0.00    -0.237 OA
ATOM     99  O   UNL     1      -0.369 -14.652 -11.082  1.00  0.00    -0.744 OA
ENDBRANCH  92  96
ENDBRANCH  66  89
ENDBRANCH  40  41
ENDBRANCH  32  35
ENDBRANCH  30  31
ENDBRANCH  29  30
ENDBRANCH   1  29
TORSDOF 17
