REMARK SMILES COC(=O)c1cc(F)cc(-c2ccc(C(=O)NCCCNC(=O)c3ccc(-c4c5nc(c(-c6cc(S(=O)(=O)[O-])ccc6F)c6ccc([nH]6)c(-c6cc(S(=O)(=O)[O-])ccc6F)c6nc(c(-c7cc(S(=O)(=O)[O-])ccc7F)c7ccc4[nH]7)C=C6)C=C5)cc3)cc2C)c1
REMARK SMILES IDX 19 1 18 2 17 3 15 4 16 5 14 7 11 8 12 9 88 10 13 11 87 12
REMARK SMILES IDX 89 13 10 14 5 15 6 16 90 17 7 18 8 19 9 20 3 21 4 22 2 23
REMARK SMILES IDX 1 24 20 25 21 26 22 27 23 29 24 30 25 31 86 32 26 33 85 34
REMARK SMILES IDX 27 35 28 36 29 37 79 38 30 39 84 40 78 41 80 42 31 43 83 44
REMARK SMILES IDX 77 45 76 46 32 48 64 49 44 50 63 51 45 52 48 53 62 54 81 55
REMARK SMILES IDX 46 56 47 57 61 59 82 60 49 61 33 62 34 63 42 64 35 65 41 66
REMARK SMILES IDX 43 67 40 68 36 69 37 70 38 71 39 72 65 73 66 74 74 75 67 76
REMARK SMILES IDX 73 77 75 78 72 79 68 80 69 81 70 82 71 83 50 84 51 85 59 86
REMARK SMILES IDX 52 87 58 88 60 89 57 90 53 91 54 92 55 93 56 94
REMARK H PARENT 17 6 21 28 80 47 48 58
REMARK Flexibility Score: inf
ROOT
ATOM      1  C   UNL     1       5.993   3.552   9.762  1.00  0.00     0.042 C 
ENDROOT
BRANCH   1   2
ATOM      2  C   UNL     1       6.113   2.046   9.505  1.00  0.00     0.118 C 
BRANCH   2   3
ATOM      3  N   UNL     1       5.337   1.291  10.466  1.00  0.00    -0.352 N 
ATOM      4  C   UNL     1       4.093   0.724  10.431  1.00  0.00     0.251 C 
ATOM      5  O   UNL     1       3.744   0.095  11.432  1.00  0.00    -0.269 OA
ATOM      6  H   UNL     1       5.802   1.159  11.324  1.00  0.00     0.163 HD
BRANCH   4   7
ATOM      7  C   UNL     1       3.165   0.787   9.262  1.00  0.00     0.040 A 
ATOM      8  C   UNL     1       1.311   0.664   7.104  1.00  0.00    -0.015 A 
ATOM      9  C   UNL     1       2.364   1.596   7.125  1.00  0.00     0.010 A 
ATOM     10  C   UNL     1       1.155  -0.188   8.212  1.00  0.00    -0.042 A 
ATOM     11  C   UNL     1       3.254   1.680   8.200  1.00  0.00     0.014 A 
ATOM     12  C   UNL     1       2.092  -0.121   9.264  1.00  0.00     0.018 A 
ATOM     13  C   UNL     1       0.019  -1.162   8.367  1.00  0.00     0.045 C 
BRANCH   8  14
ATOM     14  C   UNL     1       0.444   0.641   5.921  1.00  0.00    -0.014 A 
ATOM     15  C   UNL     1       0.175   0.240   3.525  1.00  0.00     0.063 A 
ATOM     16  C   UNL     1      -1.120   0.759   3.578  1.00  0.00     0.055 A 
ATOM     17  C   UNL     1       0.944   0.169   4.695  1.00  0.00     0.024 A 
ATOM     18  C   UNL     1      -1.623   1.202   4.796  1.00  0.00     0.124 A 
ATOM     19  F   UNL     1      -2.865   1.699   4.850  1.00  0.00    -0.207 F 
ATOM     20  C   UNL     1      -0.858   1.155   5.958  1.00  0.00     0.048 A 
BRANCH  15  21
ATOM     21  C   UNL     1       0.788  -0.239   2.263  1.00  0.00     0.337 C 
ATOM     22  O   UNL     1       1.705  -1.038   2.221  1.00  0.00    -0.246 OA
BRANCH  21  23
ATOM     23  O   UNL     1       0.225   0.392   1.202  1.00  0.00    -0.465 OA
ATOM     24  C   UNL     1       0.835   0.065  -0.048  1.00  0.00     0.282 C 
ENDBRANCH  21  23
ENDBRANCH  15  21
ENDBRANCH   8  14
ENDBRANCH   4   7
ENDBRANCH   2   3
ENDBRANCH   1   2
BRANCH   1  25
ATOM     25  C   UNL     1       7.059   4.037  10.740  1.00  0.00     0.118 C 
BRANCH  25  26
ATOM     26  N   UNL     1       8.380   3.929  10.146  1.00  0.00    -0.352 N 
ATOM     27  C   UNL     1       9.566   4.543  10.422  1.00  0.00     0.251 C 
ATOM     28  H   UNL     1       8.429   3.288   9.399  1.00  0.00     0.163 HD
ATOM     29  O   UNL     1      10.493   4.339   9.636  1.00  0.00    -0.269 OA
BRANCH  27  30
ATOM     30  C   UNL     1       9.770   5.429  11.593  1.00  0.00     0.039 A 
ATOM     31  C   UNL     1      10.848   6.322  11.524  1.00  0.00     0.014 A 
ATOM     32  C   UNL     1       9.022   5.355  12.771  1.00  0.00     0.014 A 
ATOM     33  C   UNL     1      11.192   7.099  12.627  1.00  0.00     0.010 A 
ATOM     34  C   UNL     1       9.315   6.192  13.848  1.00  0.00     0.010 A 
ATOM     35  C   UNL     1      10.428   7.038  13.800  1.00  0.00    -0.014 A 
BRANCH  35  36
ATOM     36  C   UNL     1      10.840   7.806  14.997  1.00  0.00     0.031 A 
ATOM     37  C   UNL     1      11.300   7.076  16.232  1.00  0.00     0.074 A 
ATOM     38  C   UNL     1      10.818   9.152  14.953  1.00  0.00     0.049 A 
ATOM     39  N   UNL     1      11.718   7.569  17.367  1.00  0.00    -0.248 NA
ATOM     40  C   UNL     1      11.270   5.602  16.199  1.00  0.00     0.031 C 
ATOM     41  C   UNL     1      10.362   9.948  13.810  1.00  0.00     0.029 A 
ATOM     42  N   UNL     1      11.196  10.090  15.879  1.00  0.00    -0.354 N 
ATOM     43  C   UNL     1      11.996   6.475  18.178  1.00  0.00     0.074 A 
ATOM     44  C   UNL     1      11.649   5.289  17.431  1.00  0.00     0.031 C 
ATOM     45  C   UNL     1      10.527  11.250  14.087  1.00  0.00     0.029 A 
ATOM     46  C   UNL     1      11.055  11.387  15.440  1.00  0.00     0.049 A 
ATOM     47  H   UNL     1      11.536   9.858  16.773  1.00  0.00     0.167 HD
ATOM     48  C   UNL     1      12.523   6.465  19.424  1.00  0.00     0.034 A 
ATOM     49  C   UNL     1      11.316  12.553  16.064  1.00  0.00     0.034 A 
ATOM     50  C   UNL     1      12.904   7.656  20.133  1.00  0.00     0.049 A 
ATOM     51  C   UNL     1      11.880  12.510  17.460  1.00  0.00     0.074 A 
ATOM     52  C   UNL     1      13.512   7.756  21.371  1.00  0.00     0.029 A 
ATOM     53  N   UNL     1      12.715   8.949  19.669  1.00  0.00    -0.354 N 
ATOM     54  N   UNL     1      12.179  11.460  18.190  1.00  0.00    -0.248 NA
ATOM     55  C   UNL     1      12.141  13.796  18.118  1.00  0.00     0.031 C 
ATOM     56  C   UNL     1      13.627   9.111  21.687  1.00  0.00     0.029 A 
ATOM     57  C   UNL     1      13.156   9.855  20.616  1.00  0.00     0.049 A 
ATOM     58  H   UNL     1      12.325   9.187  18.797  1.00  0.00     0.167 HD
ATOM     59  C   UNL     1      12.675  11.961  19.388  1.00  0.00     0.074 A 
ATOM     60  C   UNL     1      12.649  13.405  19.280  1.00  0.00     0.031 C 
ATOM     61  C   UNL     1      13.113  11.289  20.480  1.00  0.00     0.034 A 
BRANCH  48  62
ATOM     62  C   UNL     1      12.729   5.143  20.110  1.00  0.00     0.023 A 
ATOM     63  C   UNL     1      13.734   4.252  19.698  1.00  0.00     0.031 A 
ATOM     64  C   UNL     1      11.974   4.814  21.249  1.00  0.00     0.131 A 
ATOM     65  C   UNL     1      13.951   3.067  20.417  1.00  0.00     0.055 A 
ATOM     66  C   UNL     1      12.229   3.659  21.990  1.00  0.00     0.041 A 
ATOM     67  F   UNL     1      10.992   5.625  21.673  1.00  0.00    -0.206 F 
ATOM     68  C   UNL     1      13.223   2.778  21.575  1.00  0.00     0.022 A 
BRANCH  65  69
ATOM     69  S   UNL     1      15.185   1.889  19.804  1.00  0.00     0.124 S 
ATOM     70  O   UNL     1      14.571   1.442  18.556  1.00  0.00    -0.237 OA
ATOM     71  O   UNL     1      16.378   2.718  19.666  1.00  0.00    -0.237 OA
ATOM     72  O   UNL     1      15.249   0.879  20.858  1.00  0.00    -0.744 OA
ENDBRANCH  65  69
ENDBRANCH  48  62
BRANCH  49  73
ATOM     73  C   UNL     1      11.028  13.847  15.383  1.00  0.00     0.023 A 
ATOM     74  C   UNL     1      12.060  14.733  15.038  1.00  0.00     0.031 A 
ATOM     75  C   UNL     1       9.707  14.219  15.075  1.00  0.00     0.131 A 
ATOM     76  C   UNL     1      11.751  15.961  14.432  1.00  0.00     0.055 A 
ATOM     77  C   UNL     1       9.409  15.420  14.429  1.00  0.00     0.041 A 
ATOM     78  F   UNL     1       8.684  13.404  15.379  1.00  0.00    -0.206 F 
ATOM     79  C   UNL     1      10.434  16.304  14.112  1.00  0.00     0.022 A 
BRANCH  76  80
ATOM     80  S   UNL     1      13.094  17.139  14.117  1.00  0.00     0.124 S 
ATOM     81  O   UNL     1      13.597  17.381  15.464  1.00  0.00    -0.237 OA
ATOM     82  O   UNL     1      13.967  16.374  13.232  1.00  0.00    -0.237 OA
ATOM     83  O   UNL     1      12.414  18.271  13.490  1.00  0.00    -0.744 OA
ENDBRANCH  76  80
ENDBRANCH  49  73
BRANCH  61  84
ATOM     84  C   UNL     1      13.607  12.095  21.648  1.00  0.00     0.023 A 
ATOM     85  C   UNL     1      12.710  12.766  22.492  1.00  0.00     0.031 A 
ATOM     86  C   UNL     1      14.972  12.092  21.982  1.00  0.00     0.131 A 
ATOM     87  C   UNL     1      13.191  13.416  23.636  1.00  0.00     0.055 A 
ATOM     88  C   UNL     1      15.439  12.704  23.144  1.00  0.00     0.041 A 
ATOM     89  F   UNL     1      15.863  11.452  21.207  1.00  0.00    -0.206 F 
ATOM     90  C   UNL     1      14.546  13.370  23.979  1.00  0.00     0.022 A 
BRANCH  87  91
ATOM     91  S   UNL     1      12.018  14.320  24.680  1.00  0.00     0.124 S 
ATOM     92  O   UNL     1      11.607  15.409  23.798  1.00  0.00    -0.237 OA
ATOM     93  O   UNL     1      11.001  13.313  24.963  1.00  0.00    -0.237 OA
ATOM     94  O   UNL     1      12.824  14.725  25.831  1.00  0.00    -0.744 OA
ENDBRANCH  87  91
ENDBRANCH  61  84
ENDBRANCH  35  36
ENDBRANCH  27  30
ENDBRANCH  25  26
ENDBRANCH   1  25
TORSDOF 16
