REMARK SMILES O=C(N[C@@H]1C=C[C@@H](C(=O)NCCCNC(=O)c2ccc(-c3c4nc(c(-c5cc(S(=O)(=O)[O-])ccc5F)c5ccc([nH]5)c(-c5cc(S(=O)(=O)[O-])ccc5F)c5nc(c(-c6cc(S(=O)(=O)[O-])ccc6F)c6ccc3[nH]6)C=C5)C=C4)cc2)C1)N[C@H]1CCCc2sccc21
REMARK SMILES IDX 12 1 11 2 10 3 8 4 9 5 7 7 4 8 5 9 80 10 6 11 3 12 1 13 2 14
REMARK SMILES IDX 81 15 82 18 83 19 90 20 84 21 86 22 89 23 85 24 87 25 88 26
REMARK SMILES IDX 13 27 14 28 15 29 16 31 17 32 18 33 79 34 19 35 78 36 20 37
REMARK SMILES IDX 21 38 22 39 72 40 23 41 77 42 71 43 73 44 24 45 76 46 70 47
REMARK SMILES IDX 69 48 25 50 57 51 37 52 56 53 38 54 41 55 55 56 74 57 39 58
REMARK SMILES IDX 40 59 54 61 75 62 42 63 26 64 27 65 35 66 28 67 34 68 36 69
REMARK SMILES IDX 33 70 29 71 30 72 31 73 32 74 58 75 59 76 67 77 60 78 66 79
REMARK SMILES IDX 68 80 65 81 61 82 62 83 63 84 64 85 43 86 44 87 52 88 45 89
REMARK SMILES IDX 51 90 53 91 50 92 46 93 47 94 48 95 49 96
REMARK H PARENT 10 6 3 16 81 17 14 30 73 49 41 60
REMARK Flexibility Score: inf
ROOT
ATOM      1  C   UNL     1       2.207   4.683   0.227  1.00  0.00     0.042 C 
ENDROOT
BRANCH   1   2
ATOM      2  C   UNL     1       3.252   4.203  -0.774  1.00  0.00     0.117 C 
BRANCH   2   3
ATOM      3  N   UNL     1       4.564   4.713  -0.436  1.00  0.00    -0.356 N 
ATOM      4  C   UNL     1       5.616   4.120   0.174  1.00  0.00     0.227 C 
ATOM      5  O   UNL     1       6.554   4.853   0.505  1.00  0.00    -0.274 OA
ATOM      6  H   UNL     1       4.716   5.651  -0.693  1.00  0.00     0.163 HD
BRANCH   4   7
ATOM      7  C   UNL     1       5.687   2.620   0.436  1.00  0.00     0.103 C 
ATOM      8  C   UNL     1       4.476   0.580   0.988  1.00  0.00     0.107 C 
ATOM      9  C   UNL     1       4.879   0.618  -0.456  1.00  0.00    -0.006 C 
ATOM     10  C   UNL     1       4.697   2.029   1.444  1.00  0.00     0.047 C 
ATOM     11  C   UNL     1       5.527   1.747  -0.769  1.00  0.00    -0.016 C 
BRANCH   8  12
ATOM     12  N   UNL     1       5.191  -0.506   1.649  1.00  0.00    -0.332 N 
ATOM     13  O   UNL     1       6.922  -1.837   2.105  1.00  0.00    -0.249 OA
ATOM     14  C   UNL     1       6.487  -0.695   2.009  1.00  0.00     0.315 C 
ATOM     15  N   UNL     1       7.227   0.408   2.238  1.00  0.00    -0.331 N 
ATOM     16  H   UNL     1       4.609  -1.264   1.884  1.00  0.00     0.165 HD
ATOM     17  H   UNL     1       6.747   1.262   2.340  1.00  0.00     0.166 HD
BRANCH  15  18
ATOM     18  C   UNL     1       8.678   0.439   2.348  1.00  0.00     0.115 C 
ATOM     19  C   UNL     1       9.245   1.508   1.378  1.00  0.00     0.030 C 
ATOM     20  C   UNL     1       9.060   0.836   3.746  1.00  0.00    -0.012 A 
ATOM     21  C   UNL     1       9.143   2.989   1.863  1.00  0.00     0.008 C 
ATOM     22  C   UNL     1       8.919   2.151   4.148  1.00  0.00     0.010 A 
ATOM     23  C   UNL     1       9.748   0.071   4.733  1.00  0.00     0.018 A 
ATOM     24  C   UNL     1       8.440   3.214   3.217  1.00  0.00     0.047 C 
ATOM     25  S   UNL     1       9.483   2.439   5.717  1.00  0.00    -0.149 S 
ATOM     26  C   UNL     1      10.057   0.828   5.846  1.00  0.00     0.065 A 
ENDBRANCH  15  18
ENDBRANCH   8  12
ENDBRANCH   4   7
ENDBRANCH   2   3
ENDBRANCH   1   2
BRANCH   1  27
ATOM     27  C   UNL     1       2.132   6.201   0.345  1.00  0.00     0.118 C 
BRANCH  27  28
ATOM     28  N   UNL     1       1.798   6.829  -0.924  1.00  0.00    -0.352 N 
ATOM     29  C   UNL     1       0.606   7.362  -1.348  1.00  0.00     0.251 C 
ATOM     30  H   UNL     1       2.536   6.880  -1.574  1.00  0.00     0.163 HD
ATOM     31  O   UNL     1       0.425   7.561  -2.544  1.00  0.00    -0.269 OA
BRANCH  29  32
ATOM     32  C   UNL     1      -0.450   7.674  -0.362  1.00  0.00     0.039 A 
ATOM     33  C   UNL     1      -1.780   7.383  -0.671  1.00  0.00     0.014 A 
ATOM     34  C   UNL     1      -0.127   8.273   0.858  1.00  0.00     0.014 A 
ATOM     35  C   UNL     1      -2.778   7.642   0.271  1.00  0.00     0.010 A 
ATOM     36  C   UNL     1      -1.106   8.440   1.829  1.00  0.00     0.010 A 
ATOM     37  C   UNL     1      -2.445   8.141   1.541  1.00  0.00    -0.014 A 
BRANCH  37  38
ATOM     38  C   UNL     1      -3.485   8.391   2.571  1.00  0.00     0.031 A 
ATOM     39  C   UNL     1      -3.713   9.789   3.081  1.00  0.00     0.074 A 
ATOM     40  C   UNL     1      -4.177   7.356   3.086  1.00  0.00     0.049 A 
ATOM     41  N   UNL     1      -4.513  10.206   4.028  1.00  0.00    -0.248 NA
ATOM     42  C   UNL     1      -2.906  10.855   2.466  1.00  0.00     0.031 C 
ATOM     43  C   UNL     1      -4.009   5.952   2.700  1.00  0.00     0.029 A 
ATOM     44  N   UNL     1      -5.156   7.320   4.045  1.00  0.00    -0.354 N 
ATOM     45  C   UNL     1      -4.295  11.576   4.132  1.00  0.00     0.074 A 
ATOM     46  C   UNL     1      -3.235  11.903   3.203  1.00  0.00     0.031 C 
ATOM     47  C   UNL     1      -4.880   5.199   3.391  1.00  0.00     0.029 A 
ATOM     48  C   UNL     1      -5.634   6.055   4.301  1.00  0.00     0.049 A 
ATOM     49  H   UNL     1      -5.485   8.124   4.508  1.00  0.00     0.167 HD
ATOM     50  C   UNL     1      -4.940  12.483   4.908  1.00  0.00     0.034 A 
ATOM     51  C   UNL     1      -6.569   5.635   5.175  1.00  0.00     0.034 A 
ATOM     52  C   UNL     1      -6.006  12.138   5.816  1.00  0.00     0.049 A 
ATOM     53  C   UNL     1      -7.262   6.657   6.040  1.00  0.00     0.074 A 
ATOM     54  C   UNL     1      -6.762  12.974   6.618  1.00  0.00     0.029 A 
ATOM     55  N   UNL     1      -6.466  10.847   6.046  1.00  0.00    -0.354 N 
ATOM     56  N   UNL     1      -7.074   7.957   6.096  1.00  0.00    -0.248 NA
ATOM     57  C   UNL     1      -8.299   6.158   6.950  1.00  0.00     0.031 C 
ATOM     58  C   UNL     1      -7.633  12.185   7.378  1.00  0.00     0.029 A 
ATOM     59  C   UNL     1      -7.477  10.862   6.995  1.00  0.00     0.049 A 
ATOM     60  H   UNL     1      -6.124  10.038   5.601  1.00  0.00     0.167 HD
ATOM     61  C   UNL     1      -7.995   8.432   7.025  1.00  0.00     0.074 A 
ATOM     62  C   UNL     1      -8.746   7.283   7.489  1.00  0.00     0.031 C 
ATOM     63  C   UNL     1      -8.206   9.703   7.455  1.00  0.00     0.034 A 
BRANCH  50  64
ATOM     64  C   UNL     1      -4.491  13.922   4.812  1.00  0.00     0.023 A 
ATOM     65  C   UNL     1      -4.580  14.644   3.608  1.00  0.00     0.031 A 
ATOM     66  C   UNL     1      -3.931  14.573   5.926  1.00  0.00     0.131 A 
ATOM     67  C   UNL     1      -4.042  15.937   3.522  1.00  0.00     0.055 A 
ATOM     68  C   UNL     1      -3.477  15.892   5.857  1.00  0.00     0.041 A 
ATOM     69  F   UNL     1      -3.798  13.931   7.097  1.00  0.00    -0.206 F 
ATOM     70  C   UNL     1      -3.516  16.577   4.646  1.00  0.00     0.022 A 
BRANCH  67  71
ATOM     71  S   UNL     1      -3.902  16.708   1.886  1.00  0.00     0.124 S 
ATOM     72  O   UNL     1      -3.057  15.747   1.180  1.00  0.00    -0.237 OA
ATOM     73  O   UNL     1      -5.291  16.779   1.450  1.00  0.00    -0.237 OA
ATOM     74  O   UNL     1      -3.268  17.995   2.167  1.00  0.00    -0.744 OA
ENDBRANCH  67  71
ENDBRANCH  50  64
BRANCH  51  75
ATOM     75  C   UNL     1      -6.913   4.188   5.277  1.00  0.00     0.023 A 
ATOM     76  C   UNL     1      -8.193   3.726   4.933  1.00  0.00     0.031 A 
ATOM     77  C   UNL     1      -5.980   3.251   5.755  1.00  0.00     0.131 A 
ATOM     78  C   UNL     1      -8.522   2.374   5.116  1.00  0.00     0.055 A 
ATOM     79  C   UNL     1      -6.295   1.897   5.885  1.00  0.00     0.041 A 
ATOM     80  F   UNL     1      -4.739   3.638   6.090  1.00  0.00    -0.206 F 
ATOM     81  C   UNL     1      -7.578   1.454   5.577  1.00  0.00     0.022 A 
BRANCH  78  82
ATOM     82  S   UNL     1     -10.232   1.849   4.817  1.00  0.00     0.124 S 
ATOM     83  O   UNL     1     -10.971   2.704   5.739  1.00  0.00    -0.237 OA
ATOM     84  O   UNL     1     -10.395   2.143   3.397  1.00  0.00    -0.237 OA
ATOM     85  O   UNL     1     -10.216   0.428   5.159  1.00  0.00    -0.744 OA
ENDBRANCH  78  82
ENDBRANCH  51  75
BRANCH  63  86
ATOM     86  C   UNL     1      -9.325   9.912   8.445  1.00  0.00     0.023 A 
ATOM     87  C   UNL     1      -9.266   9.387   9.748  1.00  0.00     0.031 A 
ATOM     88  C   UNL     1     -10.473  10.632   8.072  1.00  0.00     0.131 A 
ATOM     89  C   UNL     1     -10.362   9.537  10.611  1.00  0.00     0.055 A 
ATOM     90  C   UNL     1     -11.534  10.833   8.956  1.00  0.00     0.041 A 
ATOM     91  F   UNL     1     -10.583  11.153   6.840  1.00  0.00    -0.206 F 
ATOM     92  C   UNL     1     -11.488  10.271  10.229  1.00  0.00     0.022 A 
BRANCH  89  93
ATOM     93  S   UNL     1     -10.339   8.672  12.204  1.00  0.00     0.124 S 
ATOM     94  O   UNL     1     -10.175   7.281  11.792  1.00  0.00    -0.237 OA
ATOM     95  O   UNL     1      -9.191   9.278  12.872  1.00  0.00    -0.237 OA
ATOM     96  O   UNL     1     -11.638   8.996  12.790  1.00  0.00    -0.744 OA
ENDBRANCH  89  93
ENDBRANCH  63  86
ENDBRANCH  37  38
ENDBRANCH  29  32
ENDBRANCH  27  28
ENDBRANCH   1  27
TORSDOF 15
