REMARK SMILES CC(C)(C)c1cc2c(cc1Cl)C=C(C(=O)NCCCNC(=O)c1ccc(-c3c4nc(c(-c5cc(S(=O)(=O)[O-])ccc5F)c5ccc([nH]5)c(-c5cc(S(=O)(=O)[O-])ccc5F)c5nc(c(-c6cc(S(=O)(=O)[O-])ccc6F)c6ccc3[nH]6)C=C5)C=C4)cc1)[C@@H](C(F)(F)F)O2
REMARK SMILES IDX 19 1 18 2 17 3 16 4 14 5 15 6 13 8 5 9 6 10 10 11 7 12 9 13
REMARK SMILES IDX 11 14 8 15 91 16 12 17 86 18 2 19 1 20 3 21 4 22 87 23 88 24
REMARK SMILES IDX 89 25 90 26 20 27 21 28 22 30 23 31 24 32 85 33 25 34 84 35
REMARK SMILES IDX 26 36 27 37 28 38 78 39 29 40 83 41 77 42 79 43 30 44 82 45
REMARK SMILES IDX 76 46 75 47 31 49 63 50 43 51 62 52 44 53 47 54 61 55 80 56
REMARK SMILES IDX 45 57 46 58 60 60 81 61 48 62 32 63 33 64 41 65 34 66 40 67
REMARK SMILES IDX 42 68 39 69 35 70 36 71 37 72 38 73 64 74 65 75 73 76 66 77
REMARK SMILES IDX 72 78 74 79 71 80 67 81 68 82 69 83 70 84 49 85 50 86 58 87
REMARK SMILES IDX 51 88 57 89 59 90 56 91 52 92 53 93 54 94 55 95
REMARK H PARENT 16 7 20 29 79 48 47 59
REMARK Flexibility Score: inf
ROOT
ATOM      1  C   UNL     1       5.369  -7.072   8.636  1.00  0.00     0.118 C 
ENDROOT
BRANCH   1   2
ATOM      2  C   UNL     1       5.097  -5.829   7.799  1.00  0.00     0.042 C 
BRANCH   2   3
ATOM      3  C   UNL     1       5.436  -6.035   6.331  1.00  0.00     0.118 C 
BRANCH   3   4
ATOM      4  N   UNL     1       4.423  -6.820   5.641  1.00  0.00    -0.352 N 
ATOM      5  C   UNL     1       3.411  -6.594   4.773  1.00  0.00     0.251 C 
ATOM      6  O   UNL     1       2.781  -7.599   4.426  1.00  0.00    -0.270 OA
ATOM      7  H   UNL     1       4.494  -7.776   5.868  1.00  0.00     0.163 HD
BRANCH   5   8
ATOM      8  C   UNL     1       3.029  -5.261   4.226  1.00  0.00     0.067 C 
ATOM      9  C   UNL     1       0.729  -1.437   1.785  1.00  0.00    -0.020 A 
ATOM     10  C   UNL     1       1.652  -1.557   2.848  1.00  0.00     0.053 A 
ATOM     11  C   UNL     1       0.245  -2.656   1.247  1.00  0.00     0.045 A 
ATOM     12  C   UNL     1       2.065  -2.797   3.338  1.00  0.00     0.128 A 
ATOM     13  C   UNL     1       0.643  -3.902   1.770  1.00  0.00     0.032 A 
ATOM     14  Cl  UNL     1      -0.846  -2.762  -0.093  1.00  0.00    -0.084 Cl
ATOM     15  C   UNL     1       1.554  -3.976   2.819  1.00  0.00     0.019 A 
ATOM     16  O   UNL     1       2.963  -2.779   4.367  1.00  0.00    -0.475 OA
ATOM     17  C   UNL     1       1.964  -5.247   3.401  1.00  0.00     0.025 C 
ATOM     18  C   UNL     1       3.767  -3.983   4.513  1.00  0.00     0.314 C 
BRANCH   9  19
ATOM     19  C   UNL     1       0.324  -0.027   1.289  1.00  0.00    -0.012 C 
ATOM     20  C   UNL     1       0.842   0.206  -0.146  1.00  0.00     0.016 C 
ATOM     21  C   UNL     1       0.923   1.127   2.145  1.00  0.00     0.016 C 
ATOM     22  C   UNL     1      -1.206   0.179   1.355  1.00  0.00     0.016 C 
ENDBRANCH   9  19
BRANCH  18  23
ATOM     23  C   UNL     1       5.052  -3.848   3.672  1.00  0.00     0.429 C 
ATOM     24  F   UNL     1       5.864  -2.894   4.193  1.00  0.00    -0.167 F 
ATOM     25  F   UNL     1       5.776  -4.992   3.638  1.00  0.00    -0.167 F 
ATOM     26  F   UNL     1       4.805  -3.509   2.386  1.00  0.00    -0.167 F 
ENDBRANCH  18  23
ENDBRANCH   5   8
ENDBRANCH   3   4
ENDBRANCH   2   3
ENDBRANCH   1   2
BRANCH   1  27
ATOM     27  N   UNL     1       6.796  -7.381   8.716  1.00  0.00    -0.352 N 
ATOM     28  C   UNL     1       7.669  -7.292   9.774  1.00  0.00     0.251 C 
ATOM     29  H   UNL     1       7.196  -7.704   7.877  1.00  0.00     0.163 HD
ATOM     30  O   UNL     1       8.878  -7.368   9.568  1.00  0.00    -0.269 OA
BRANCH  28  31
ATOM     31  C   UNL     1       7.154  -7.085  11.144  1.00  0.00     0.039 A 
ATOM     32  C   UNL     1       6.004  -7.748  11.566  1.00  0.00     0.014 A 
ATOM     33  C   UNL     1       7.820  -6.217  12.014  1.00  0.00     0.014 A 
ATOM     34  C   UNL     1       5.404  -7.387  12.762  1.00  0.00     0.010 A 
ATOM     35  C   UNL     1       7.275  -5.946  13.274  1.00  0.00     0.010 A 
ATOM     36  C   UNL     1       6.032  -6.486  13.637  1.00  0.00    -0.014 A 
BRANCH  36  37
ATOM     37  C   UNL     1       5.363  -6.154  14.923  1.00  0.00     0.031 A 
ATOM     38  C   UNL     1       4.918  -4.749  15.227  1.00  0.00     0.074 A 
ATOM     39  C   UNL     1       5.079  -7.155  15.780  1.00  0.00     0.049 A 
ATOM     40  N   UNL     1       4.248  -4.308  16.261  1.00  0.00    -0.248 NA
ATOM     41  C   UNL     1       5.272  -3.701  14.257  1.00  0.00     0.031 C 
ATOM     42  C   UNL     1       5.468  -8.553  15.582  1.00  0.00     0.029 A 
ATOM     43  N   UNL     1       4.369  -7.173  16.954  1.00  0.00    -0.354 N 
ATOM     44  C   UNL     1       4.120  -2.935  16.078  1.00  0.00     0.074 A 
ATOM     45  C   UNL     1       4.809  -2.609  14.850  1.00  0.00     0.031 C 
ATOM     46  C   UNL     1       4.918  -9.303  16.545  1.00  0.00     0.029 A 
ATOM     47  C   UNL     1       4.212  -8.434  17.482  1.00  0.00     0.049 A 
ATOM     48  H   UNL     1       4.006  -6.361  17.377  1.00  0.00     0.167 HD
ATOM     49  C   UNL     1       3.473  -2.036  16.859  1.00  0.00     0.034 A 
ATOM     50  C   UNL     1       3.577  -8.851  18.596  1.00  0.00     0.034 A 
ATOM     51  C   UNL     1       2.767  -2.386  18.066  1.00  0.00     0.049 A 
ATOM     52  C   UNL     1       2.874  -7.830  19.448  1.00  0.00     0.074 A 
ATOM     53  C   UNL     1       2.059  -1.551  18.912  1.00  0.00     0.029 A 
ATOM     54  N   UNL     1       2.670  -3.665  18.595  1.00  0.00    -0.354 N 
ATOM     55  N   UNL     1       2.734  -6.542  19.241  1.00  0.00    -0.248 NA
ATOM     56  C   UNL     1       2.246  -8.310  20.686  1.00  0.00     0.031 C 
ATOM     57  C   UNL     1       1.584  -2.313  19.980  1.00  0.00     0.029 A 
ATOM     58  C   UNL     1       1.934  -3.637  19.769  1.00  0.00     0.049 A 
ATOM     59  H   UNL     1       3.065  -4.474  18.195  1.00  0.00     0.167 HD
ATOM     60  C   UNL     1       1.999  -6.057  20.317  1.00  0.00     0.074 A 
ATOM     61  C   UNL     1       1.690  -7.199  21.154  1.00  0.00     0.031 C 
ATOM     62  C   UNL     1       1.626  -4.782  20.593  1.00  0.00     0.034 A 
BRANCH  49  63
ATOM     63  C   UNL     1       3.477  -0.584  16.448  1.00  0.00     0.023 A 
ATOM     64  C   UNL     1       4.090   0.378  17.274  1.00  0.00     0.031 A 
ATOM     65  C   UNL     1       2.770  -0.136  15.319  1.00  0.00     0.131 A 
ATOM     66  C   UNL     1       3.954   1.740  16.977  1.00  0.00     0.055 A 
ATOM     67  C   UNL     1       2.671   1.221  15.005  1.00  0.00     0.041 A 
ATOM     68  F   UNL     1       2.170  -1.014  14.498  1.00  0.00    -0.206 F 
ATOM     69  C   UNL     1       3.254   2.166  15.843  1.00  0.00     0.022 A 
BRANCH  66  70
ATOM     70  S   UNL     1       4.627   3.014  18.079  1.00  0.00     0.124 S 
ATOM     71  O   UNL     1       5.536   3.731  17.188  1.00  0.00    -0.237 OA
ATOM     72  O   UNL     1       3.425   3.748  18.465  1.00  0.00    -0.237 OA
ATOM     73  O   UNL     1       5.272   2.253  19.143  1.00  0.00    -0.744 OA
ENDBRANCH  66  70
ENDBRANCH  49  63
BRANCH  50  74
ATOM     74  C   UNL     1       3.558 -10.309  18.918  1.00  0.00     0.023 A 
ATOM     75  C   UNL     1       4.756 -11.021  19.112  1.00  0.00     0.031 A 
ATOM     76  C   UNL     1       2.355 -11.035  18.906  1.00  0.00     0.131 A 
ATOM     77  C   UNL     1       4.733 -12.419  19.195  1.00  0.00     0.055 A 
ATOM     78  C   UNL     1       2.330 -12.421  19.072  1.00  0.00     0.041 A 
ATOM     79  F   UNL     1       1.186 -10.404  18.713  1.00  0.00    -0.206 F 
ATOM     80  C   UNL     1       3.526 -13.123  19.194  1.00  0.00     0.022 A 
BRANCH  77  81
ATOM     81  S   UNL     1       6.275 -13.375  19.137  1.00  0.00     0.124 S 
ATOM     82  O   UNL     1       6.262 -14.049  20.431  1.00  0.00    -0.237 OA
ATOM     83  O   UNL     1       6.052 -14.233  17.975  1.00  0.00    -0.237 OA
ATOM     84  O   UNL     1       7.305 -12.356  18.964  1.00  0.00    -0.744 OA
ENDBRANCH  77  81
ENDBRANCH  50  74
BRANCH  62  85
ATOM     85  C   UNL     1       0.845  -4.522  21.857  1.00  0.00     0.023 A 
ATOM     86  C   UNL     1      -0.463  -4.008  21.785  1.00  0.00     0.031 A 
ATOM     87  C   UNL     1       1.447  -4.640  23.122  1.00  0.00     0.131 A 
ATOM     88  C   UNL     1      -1.113  -3.594  22.954  1.00  0.00     0.055 A 
ATOM     89  C   UNL     1       0.777  -4.269  24.288  1.00  0.00     0.041 A 
ATOM     90  F   UNL     1       2.697  -5.114  23.241  1.00  0.00    -0.206 F 
ATOM     91  C   UNL     1      -0.504  -3.729  24.206  1.00  0.00     0.022 A 
BRANCH  88  92
ATOM     92  S   UNL     1      -2.733  -2.780  22.885  1.00  0.00     0.124 S 
ATOM     93  O   UNL     1      -3.569  -3.709  23.642  1.00  0.00    -0.237 OA
ATOM     94  O   UNL     1      -2.465  -1.504  23.543  1.00  0.00    -0.237 OA
ATOM     95  O   UNL     1      -3.028  -2.700  21.458  1.00  0.00    -0.744 OA
ENDBRANCH  88  92
ENDBRANCH  62  85
ENDBRANCH  36  37
ENDBRANCH  28  31
ENDBRANCH   1  27
TORSDOF 15
