REMARK SMILES Cc1cc(-c2ccc(/C=C/C(=O)NCCCNC(=O)c3ccc(-c4c5nc(c(-c6cc(S(=O)(=O)[O-])ccc6F)c6ccc([nH]6)c(-c6cc(S(=O)(=O)[O-])ccc6F)c6nc(c(-c7cc(S(=O)(=O)[O-])ccc7F)c7ccc4[nH]7)C=C6)C=C5)cc3)o2)c(C)cc1Br
REMARK SMILES IDX 15 1 14 2 13 3 11 4 12 5 10 7 9 8 8 9 5 10 6 11 83 12 7 13
REMARK SMILES IDX 4 14 1 15 2 16 3 17 87 18 86 19 88 20 84 21 85 22 16 23
REMARK SMILES IDX 17 24 18 25 19 27 20 28 21 29 82 30 22 31 81 32 23 33 24 34
REMARK SMILES IDX 25 35 75 36 26 37 80 38 74 39 76 40 27 41 79 42 73 43 72 44
REMARK SMILES IDX 28 46 60 47 40 48 59 49 41 50 44 51 58 52 77 53 42 54 43 55
REMARK SMILES IDX 57 57 78 58 45 59 29 60 30 61 38 62 31 63 37 64 39 65 36 66
REMARK SMILES IDX 32 67 33 68 34 69 35 70 61 71 62 72 70 73 63 74 69 75 71 76
REMARK SMILES IDX 68 77 64 78 65 79 66 80 67 81 46 82 47 83 55 84 48 85 54 86
REMARK SMILES IDX 56 87 53 88 49 89 50 90 51 91 52 92
REMARK H PARENT 13 6 17 26 76 45 44 56
REMARK Flexibility Score: inf
ROOT
ATOM      1  C   UNL     1       5.273 -10.800   1.224  1.00  0.00     0.042 C 
ENDROOT
BRANCH   1   2
ATOM      2  C   UNL     1       6.026  -9.706   0.473  1.00  0.00     0.118 C 
BRANCH   2   3
ATOM      3  N   UNL     1       5.708  -9.712  -0.945  1.00  0.00    -0.352 N 
ATOM      4  C   UNL     1       4.928  -8.884  -1.690  1.00  0.00     0.244 C 
ATOM      5  O   UNL     1       4.915  -9.009  -2.913  1.00  0.00    -0.270 OA
ATOM      6  H   UNL     1       6.130 -10.441  -1.454  1.00  0.00     0.163 HD
BRANCH   4   7
ATOM      7  C   UNL     1       4.167  -7.777  -1.074  1.00  0.00     0.075 C 
ATOM      8  C   UNL     1       3.475  -7.862   0.070  1.00  0.00     0.053 C 
BRANCH   8   9
ATOM      9  C   UNL     1       2.779  -6.737   0.579  1.00  0.00     0.127 A 
ATOM     10  C   UNL     1       1.605  -4.854   0.598  1.00  0.00     0.135 A 
ATOM     11  C   UNL     1       1.775  -5.206   1.916  1.00  0.00     0.051 A 
ATOM     12  O   UNL     1       2.241  -5.746  -0.208  1.00  0.00    -0.457 OA
ATOM     13  C   UNL     1       2.498  -6.422   1.903  1.00  0.00     0.051 A 
BRANCH  10  14
ATOM     14  C   UNL     1       0.905  -3.775  -0.077  1.00  0.00     0.020 A 
ATOM     15  C   UNL     1       1.004   0.031   0.038  1.00  0.00     0.045 C 
ATOM     16  C   UNL     1       0.590  -1.357  -0.364  1.00  0.00    -0.036 A 
ATOM     17  C   UNL     1       1.246  -2.448   0.233  1.00  0.00     0.016 A 
ATOM     18  C   UNL     1      -0.456  -1.621  -1.258  1.00  0.00     0.021 A 
ATOM     19  C   UNL     1      -0.800  -2.938  -1.581  1.00  0.00     0.020 A 
ATOM     20  Br  UNL     1      -1.476  -0.235  -2.064  1.00  0.00    -0.051 Br
ATOM     21  C   UNL     1      -0.129  -4.025  -1.000  1.00  0.00    -0.039 A 
ATOM     22  C   UNL     1      -0.537  -5.425  -1.378  1.00  0.00     0.045 C 
ENDBRANCH  10  14
ENDBRANCH   8   9
ENDBRANCH   4   7
ENDBRANCH   2   3
ENDBRANCH   1   2
BRANCH   1  23
ATOM     23  C   UNL     1       5.837 -12.196   0.985  1.00  0.00     0.118 C 
BRANCH  23  24
ATOM     24  N   UNL     1       7.122 -12.396   1.643  1.00  0.00    -0.352 N 
ATOM     25  C   UNL     1       7.499 -13.332   2.580  1.00  0.00     0.251 C 
ATOM     26  H   UNL     1       7.828 -11.764   1.376  1.00  0.00     0.163 HD
ATOM     27  O   UNL     1       8.574 -13.208   3.152  1.00  0.00    -0.269 OA
BRANCH  25  28
ATOM     28  C   UNL     1       6.596 -14.457   2.915  1.00  0.00     0.039 A 
ATOM     29  C   UNL     1       5.895 -15.137   1.918  1.00  0.00     0.014 A 
ATOM     30  C   UNL     1       6.450 -14.838   4.253  1.00  0.00     0.014 A 
ATOM     31  C   UNL     1       4.920 -16.064   2.269  1.00  0.00     0.010 A 
ATOM     32  C   UNL     1       5.534 -15.838   4.596  1.00  0.00     0.010 A 
ATOM     33  C   UNL     1       4.721 -16.421   3.613  1.00  0.00    -0.014 A 
BRANCH  33  34
ATOM     34  C   UNL     1       3.656 -17.400   3.960  1.00  0.00     0.031 A 
ATOM     35  C   UNL     1       2.468 -16.985   4.783  1.00  0.00     0.074 A 
ATOM     36  C   UNL     1       3.729 -18.652   3.467  1.00  0.00     0.049 A 
ATOM     37  N   UNL     1       1.420 -17.687   5.131  1.00  0.00    -0.248 NA
ATOM     38  C   UNL     1       2.451 -15.601   5.285  1.00  0.00     0.031 C 
ATOM     39  C   UNL     1       4.829 -19.159   2.646  1.00  0.00     0.029 A 
ATOM     40  N   UNL     1       2.859 -19.710   3.549  1.00  0.00    -0.354 N 
ATOM     41  C   UNL     1       0.622 -16.837   5.889  1.00  0.00     0.074 A 
ATOM     42  C   UNL     1       1.333 -15.582   5.997  1.00  0.00     0.031 C 
ATOM     43  C   UNL     1       4.537 -20.401   2.241  1.00  0.00     0.029 A 
ATOM     44  C   UNL     1       3.265 -20.812   2.832  1.00  0.00     0.049 A 
ATOM     45  H   UNL     1       2.025 -19.683   4.070  1.00  0.00     0.167 HD
ATOM     46  C   UNL     1      -0.600 -17.073   6.425  1.00  0.00     0.034 A 
ATOM     47  C   UNL     1       2.685 -22.019   2.666  1.00  0.00     0.034 A 
ATOM     48  C   UNL     1      -1.294 -18.331   6.311  1.00  0.00     0.049 A 
ATOM     49  C   UNL     1       1.352 -22.279   3.317  1.00  0.00     0.074 A 
ATOM     50  C   UNL     1      -2.528 -18.678   6.832  1.00  0.00     0.029 A 
ATOM     51  N   UNL     1      -0.824 -19.444   5.626  1.00  0.00    -0.354 N 
ATOM     52  N   UNL     1       0.607 -21.459   4.021  1.00  0.00    -0.248 NA
ATOM     53  C   UNL     1       0.779 -23.622   3.156  1.00  0.00     0.031 C 
ATOM     54  C   UNL     1      -2.778 -20.014   6.510  1.00  0.00     0.029 A 
ATOM     55  C   UNL     1      -1.736 -20.483   5.727  1.00  0.00     0.049 A 
ATOM     56  H   UNL     1       0.031 -19.489   5.140  1.00  0.00     0.167 HD
ATOM     57  C   UNL     1      -0.529 -22.181   4.375  1.00  0.00     0.074 A 
ATOM     58  C   UNL     1      -0.384 -23.496   3.783  1.00  0.00     0.031 C 
ATOM     59  C   UNL     1      -1.589 -21.790   5.127  1.00  0.00     0.034 A 
BRANCH  46  60
ATOM     60  C   UNL     1      -1.282 -15.952   7.174  1.00  0.00     0.023 A 
ATOM     61  C   UNL     1      -1.576 -16.086   8.544  1.00  0.00     0.031 A 
ATOM     62  C   UNL     1      -1.726 -14.794   6.510  1.00  0.00     0.131 A 
ATOM     63  C   UNL     1      -2.311 -15.089   9.200  1.00  0.00     0.055 A 
ATOM     64  C   UNL     1      -2.423 -13.785   7.177  1.00  0.00     0.041 A 
ATOM     65  F   UNL     1      -1.470 -14.616   5.204  1.00  0.00    -0.206 F 
ATOM     66  C   UNL     1      -2.728 -13.936   8.526  1.00  0.00     0.022 A 
BRANCH  63  67
ATOM     67  S   UNL     1      -2.806 -15.272  10.935  1.00  0.00     0.124 S 
ATOM     68  O   UNL     1      -2.118 -14.144  11.561  1.00  0.00    -0.237 OA
ATOM     69  O   UNL     1      -4.259 -15.148  10.854  1.00  0.00    -0.237 OA
ATOM     70  O   UNL     1      -2.305 -16.590  11.306  1.00  0.00    -0.744 OA
ENDBRANCH  63  67
ENDBRANCH  46  60
BRANCH  47  71
ATOM     71  C   UNL     1       3.356 -23.026   1.792  1.00  0.00     0.023 A 
ATOM     72  C   UNL     1       4.645 -23.502   2.096  1.00  0.00     0.031 A 
ATOM     73  C   UNL     1       2.780 -23.411   0.571  1.00  0.00     0.131 A 
ATOM     74  C   UNL     1       5.350 -24.256   1.150  1.00  0.00     0.055 A 
ATOM     75  C   UNL     1       3.457 -24.229  -0.336  1.00  0.00     0.041 A 
ATOM     76  F   UNL     1       1.558 -22.974   0.232  1.00  0.00    -0.206 F 
ATOM     77  C   UNL     1       4.758 -24.637  -0.058  1.00  0.00     0.022 A 
BRANCH  74  78
ATOM     78  S   UNL     1       7.109 -24.634   1.389  1.00  0.00     0.124 S 
ATOM     79  O   UNL     1       7.123 -26.091   1.299  1.00  0.00    -0.237 OA
ATOM     80  O   UNL     1       7.719 -23.926   0.267  1.00  0.00    -0.237 OA
ATOM     81  O   UNL     1       7.404 -24.081   2.706  1.00  0.00    -0.744 OA
ENDBRANCH  74  78
ENDBRANCH  47  71
BRANCH  59  82
ATOM     82  C   UNL     1      -2.702 -22.780   5.377  1.00  0.00     0.023 A 
ATOM     83  C   UNL     1      -4.003 -22.509   4.910  1.00  0.00     0.031 A 
ATOM     84  C   UNL     1      -2.512 -23.900   6.205  1.00  0.00     0.131 A 
ATOM     85  C   UNL     1      -5.071 -23.321   5.312  1.00  0.00     0.055 A 
ATOM     86  C   UNL     1      -3.573 -24.734   6.563  1.00  0.00     0.041 A 
ATOM     87  F   UNL     1      -1.293 -24.194   6.685  1.00  0.00    -0.206 F 
ATOM     88  C   UNL     1      -4.861 -24.436   6.129  1.00  0.00     0.022 A 
BRANCH  85  89
ATOM     89  S   UNL     1      -6.780 -22.907   4.867  1.00  0.00     0.124 S 
ATOM     90  O   UNL     1      -7.192 -24.090   4.115  1.00  0.00    -0.237 OA
ATOM     91  O   UNL     1      -7.408 -22.752   6.177  1.00  0.00    -0.237 OA
ATOM     92  O   UNL     1      -6.655 -21.683   4.083  1.00  0.00    -0.744 OA
ENDBRANCH  85  89
ENDBRANCH  59  82
ENDBRANCH  33  34
ENDBRANCH  25  28
ENDBRANCH  23  24
ENDBRANCH   1  23
TORSDOF 15
