REMARK SMILES CC(=O)N/C(=C\c1ccccc1)C(=O)N[C@H](C(=O)NCCCNC(=O)c1ccc(-c2c3nc(c(-c4cc(S(=O)(=O)[O-])ccc4F)c4ccc([nH]4)c(-c4cc(S(=O)(=O)[O-])ccc4F)c4nc(c(-c5cc(S(=O)(=O)[O-])ccc5F)c5ccc2[nH]5)C=C4)C=C3)cc1)C(C)C
REMARK SMILES IDX 21 1 20 2 19 3 17 4 18 5 16 7 15 8 13 9 14 10 5 12 6 13 4 14
REMARK SMILES IDX 1 15 2 16 3 17 7 19 8 20 12 21 9 22 11 23 10 24 89 25 90 26
REMARK SMILES IDX 91 27 22 28 23 29 24 30 25 32 26 33 27 34 88 35 28 36 87 37
REMARK SMILES IDX 29 38 30 39 31 40 81 41 32 42 86 43 80 44 82 45 33 46 85 47
REMARK SMILES IDX 79 48 78 49 34 51 66 52 46 53 65 54 47 55 50 56 64 57 83 58
REMARK SMILES IDX 48 59 49 60 63 62 84 63 51 64 35 65 36 66 44 67 37 68 43 69
REMARK SMILES IDX 45 70 42 71 38 72 39 73 40 74 41 75 67 76 68 77 76 78 69 79
REMARK SMILES IDX 75 80 77 81 74 82 70 83 71 84 72 85 73 86 52 87 53 88 61 89
REMARK SMILES IDX 54 90 60 91 62 92 59 93 55 94 56 95 57 96 58 97
REMARK H PARENT 19 6 15 11 4 18 23 31 82 50 50 61
REMARK Flexibility Score: inf
ROOT
ATOM      1  C   UNL     1       4.394   1.210   1.552  1.00  0.00     0.042 C 
ENDROOT
BRANCH   1   2
ATOM      2  C   UNL     1       3.213   0.524   2.248  1.00  0.00     0.117 C 
BRANCH   2   3
ATOM      3  N   UNL     1       3.176  -0.897   1.936  1.00  0.00    -0.354 N 
ATOM      4  C   UNL     1       3.440  -2.015   2.670  1.00  0.00     0.242 C 
ATOM      5  O   UNL     1       3.475  -3.076   2.039  1.00  0.00    -0.273 OA
ATOM      6  H   UNL     1       2.908  -1.090   1.009  1.00  0.00     0.163 HD
BRANCH   4   7
ATOM      7  C   UNL     1       3.595  -1.984   4.221  1.00  0.00     0.174 C 
BRANCH   7   8
ATOM      8  N   UNL     1       3.085  -3.320   4.688  1.00  0.00    -0.339 N 
ATOM      9  C   UNL     1       3.542  -4.607   4.818  1.00  0.00     0.268 C 
ATOM     10  O   UNL     1       2.664  -5.470   4.730  1.00  0.00    -0.268 OA
ATOM     11  H   UNL     1       2.151  -3.250   4.989  1.00  0.00     0.164 HD
BRANCH   9  12
ATOM     12  C   UNL     1       4.964  -5.001   5.169  1.00  0.00     0.107 C 
ATOM     13  C   UNL     1       5.963  -4.530   4.395  1.00  0.00     0.040 C 
BRANCH  12  14
ATOM     14  N   UNL     1       5.280  -5.890   6.189  1.00  0.00    -0.322 N 
ATOM     15  C   UNL     1       3.153  -7.099   6.815  1.00  0.00     0.114 C 
ATOM     16  C   UNL     1       4.616  -6.807   6.946  1.00  0.00     0.221 C 
ATOM     17  O   UNL     1       5.289  -7.464   7.752  1.00  0.00    -0.275 OA
ATOM     18  H   UNL     1       6.234  -5.845   6.426  1.00  0.00     0.170 HD
ENDBRANCH  12  14
BRANCH  13  19
ATOM     19  C   UNL     1       7.420  -4.571   4.652  1.00  0.00    -0.023 A 
ATOM     20  C   UNL     1       8.070  -3.416   5.126  1.00  0.00     0.008 A 
ATOM     21  C   UNL     1       8.194  -5.692   4.358  1.00  0.00     0.008 A 
ATOM     22  C   UNL     1       9.460  -3.349   5.221  1.00  0.00     0.001 A 
ATOM     23  C   UNL     1       9.590  -5.631   4.471  1.00  0.00     0.001 A 
ATOM     24  C   UNL     1      10.223  -4.455   4.878  1.00  0.00     0.000 A 
ENDBRANCH  13  19
ENDBRANCH   9  12
ENDBRANCH   7   8
BRANCH   7  25
ATOM     25  C   UNL     1       4.930  -1.540   4.833  1.00  0.00     0.015 C 
ATOM     26  C   UNL     1       5.736  -0.483   4.094  1.00  0.00     0.010 C 
ATOM     27  C   UNL     1       4.796  -1.171   6.308  1.00  0.00     0.010 C 
ENDBRANCH   7  25
ENDBRANCH   4   7
ENDBRANCH   2   3
ENDBRANCH   1   2
BRANCH   1  28
ATOM     28  C   UNL     1       4.270   1.266   0.034  1.00  0.00     0.118 C 
BRANCH  28  29
ATOM     29  N   UNL     1       3.506   2.422  -0.402  1.00  0.00    -0.352 N 
ATOM     30  C   UNL     1       3.955   3.582  -0.994  1.00  0.00     0.251 C 
ATOM     31  H   UNL     1       2.534   2.369  -0.254  1.00  0.00     0.163 HD
ATOM     32  O   UNL     1       3.219   4.559  -1.039  1.00  0.00    -0.269 OA
BRANCH  30  33
ATOM     33  C   UNL     1       5.330   3.649  -1.547  1.00  0.00     0.039 A 
ATOM     34  C   UNL     1       6.105   4.790  -1.321  1.00  0.00     0.014 A 
ATOM     35  C   UNL     1       5.852   2.591  -2.294  1.00  0.00     0.014 A 
ATOM     36  C   UNL     1       7.423   4.840  -1.787  1.00  0.00     0.010 A 
ATOM     37  C   UNL     1       7.191   2.603  -2.674  1.00  0.00     0.010 A 
ATOM     38  C   UNL     1       7.991   3.732  -2.435  1.00  0.00    -0.014 A 
BRANCH  38  39
ATOM     39  C   UNL     1       9.403   3.728  -2.908  1.00  0.00     0.031 A 
ATOM     40  C   UNL     1       9.696   3.541  -4.372  1.00  0.00     0.074 A 
ATOM     41  C   UNL     1      10.417   3.792  -2.022  1.00  0.00     0.049 A 
ATOM     42  N   UNL     1      10.840   3.337  -4.974  1.00  0.00    -0.248 NA
ATOM     43  C   UNL     1       8.534   3.541  -5.273  1.00  0.00     0.031 C 
ATOM     44  C   UNL     1      10.266   3.941  -0.574  1.00  0.00     0.029 A 
ATOM     45  N   UNL     1      11.776   3.710  -2.207  1.00  0.00    -0.354 N 
ATOM     46  C   UNL     1      10.532   3.155  -6.319  1.00  0.00     0.074 A 
ATOM     47  C   UNL     1       9.089   3.204  -6.425  1.00  0.00     0.031 C 
ATOM     48  C   UNL     1      11.481   3.942  -0.004  1.00  0.00     0.029 A 
ATOM     49  C   UNL     1      12.495   3.734  -1.034  1.00  0.00     0.049 A 
ATOM     50  H   UNL     1      12.196   3.640  -3.095  1.00  0.00     0.167 HD
ATOM     51  C   UNL     1      11.375   2.984  -7.369  1.00  0.00     0.034 A 
ATOM     52  C   UNL     1      13.814   3.572  -0.805  1.00  0.00     0.034 A 
ATOM     53  C   UNL     1      12.811   2.946  -7.239  1.00  0.00     0.049 A 
ATOM     54  C   UNL     1      14.737   3.348  -1.976  1.00  0.00     0.074 A 
ATOM     55  C   UNL     1      13.765   2.841  -8.236  1.00  0.00     0.029 A 
ATOM     56  N   UNL     1      13.503   2.994  -6.034  1.00  0.00    -0.354 N 
ATOM     57  N   UNL     1      14.439   3.227  -3.249  1.00  0.00    -0.248 NA
ATOM     58  C   UNL     1      16.173   3.250  -1.683  1.00  0.00     0.031 C 
ATOM     59  C   UNL     1      15.022   2.739  -7.631  1.00  0.00     0.029 A 
ATOM     60  C   UNL     1      14.866   2.879  -6.261  1.00  0.00     0.049 A 
ATOM     61  H   UNL     1      13.086   3.094  -5.148  1.00  0.00     0.167 HD
ATOM     62  C   UNL     1      15.654   3.069  -3.912  1.00  0.00     0.074 A 
ATOM     63  C   UNL     1      16.687   3.113  -2.898  1.00  0.00     0.031 C 
ATOM     64  C   UNL     1      15.890   2.915  -5.240  1.00  0.00     0.034 A 
BRANCH  51  65
ATOM     65  C   UNL     1      10.750   2.785  -8.733  1.00  0.00     0.023 A 
ATOM     66  C   UNL     1       9.899   3.748  -9.305  1.00  0.00     0.031 A 
ATOM     67  C   UNL     1      10.953   1.589  -9.444  1.00  0.00     0.131 A 
ATOM     68  C   UNL     1       9.194   3.452 -10.482  1.00  0.00     0.055 A 
ATOM     69  C   UNL     1      10.331   1.345 -10.671  1.00  0.00     0.041 A 
ATOM     70  F   UNL     1      11.738   0.621  -8.946  1.00  0.00    -0.206 F 
ATOM     71  C   UNL     1       9.426   2.269 -11.184  1.00  0.00     0.022 A 
BRANCH  68  72
ATOM     72  S   UNL     1       7.825   4.542 -10.961  1.00  0.00     0.124 S 
ATOM     73  O   UNL     1       6.999   4.524  -9.755  1.00  0.00    -0.237 OA
ATOM     74  O   UNL     1       8.507   5.798 -11.248  1.00  0.00    -0.237 OA
ATOM     75  O   UNL     1       7.239   3.868 -12.117  1.00  0.00    -0.744 OA
ENDBRANCH  68  72
ENDBRANCH  51  65
BRANCH  52  76
ATOM     76  C   UNL     1      14.330   3.578   0.594  1.00  0.00     0.023 A 
ATOM     77  C   UNL     1      15.174   4.598   1.060  1.00  0.00     0.031 A 
ATOM     78  C   UNL     1      13.975   2.554   1.492  1.00  0.00     0.131 A 
ATOM     79  C   UNL     1      15.656   4.558   2.378  1.00  0.00     0.055 A 
ATOM     80  C   UNL     1      14.417   2.545   2.816  1.00  0.00     0.041 A 
ATOM     81  F   UNL     1      13.165   1.557   1.100  1.00  0.00    -0.206 F 
ATOM     82  C   UNL     1      15.270   3.548   3.264  1.00  0.00     0.022 A 
BRANCH  79  83
ATOM     83  S   UNL     1      16.846   5.819   2.911  1.00  0.00     0.124 S 
ATOM     84  O   UNL     1      17.948   5.598   1.981  1.00  0.00    -0.237 OA
ATOM     85  O   UNL     1      16.086   7.051   2.725  1.00  0.00    -0.237 OA
ATOM     86  O   UNL     1      17.120   5.463   4.301  1.00  0.00    -0.744 OA
ENDBRANCH  79  83
ENDBRANCH  52  76
BRANCH  64  87
ATOM     87  C   UNL     1      17.331   2.842  -5.688  1.00  0.00     0.023 A 
ATOM     88  C   UNL     1      18.160   1.752  -5.371  1.00  0.00     0.031 A 
ATOM     89  C   UNL     1      17.870   3.875  -6.477  1.00  0.00     0.131 A 
ATOM     90  C   UNL     1      19.494   1.739  -5.811  1.00  0.00     0.055 A 
ATOM     91  C   UNL     1      19.177   3.827  -6.962  1.00  0.00     0.041 A 
ATOM     92  F   UNL     1      17.125   4.943  -6.805  1.00  0.00    -0.206 F 
ATOM     93  C   UNL     1      20.000   2.759  -6.622  1.00  0.00     0.022 A 
BRANCH  90  94
ATOM     94  S   UNL     1      20.587   0.404  -5.251  1.00  0.00     0.124 S 
ATOM     95  O   UNL     1      20.544   0.567  -3.801  1.00  0.00    -0.237 OA
ATOM     96  O   UNL     1      19.927  -0.785  -5.780  1.00  0.00    -0.237 OA
ATOM     97  O   UNL     1      21.870   0.728  -5.873  1.00  0.00    -0.744 OA
ENDBRANCH  90  94
ENDBRANCH  64  87
ENDBRANCH  38  39
ENDBRANCH  30  33
ENDBRANCH  28  29
ENDBRANCH   1  28
TORSDOF 18
