REMARK SMILES Cc1ccc([C@H](C)Nc2ccc(C(=O)NCCCNC(=O)c3ccc(-c4c5nc(c(-c6cc(S(=O)(=O)[O-])ccc6F)c6ccc([nH]6)c(-c6cc(S(=O)(=O)[O-])ccc6F)c6nc(c(-c7cc(S(=O)(=O)[O-])ccc7F)c7ccc4[nH]7)C=C6)C=C5)cc3)cc2Cl)cc1F
REMARK SMILES IDX 17 1 16 2 15 3 13 4 14 5 12 7 9 8 10 9 86 10 11 11 85 12
REMARK SMILES IDX 87 13 8 14 6 16 7 17 5 18 1 19 2 20 3 21 89 22 4 23 88 24
REMARK SMILES IDX 90 25 18 26 19 27 20 28 21 30 22 31 23 32 84 33 24 34 83 35
REMARK SMILES IDX 25 36 26 37 27 38 77 39 28 40 82 41 76 42 78 43 29 44 81 45
REMARK SMILES IDX 75 46 74 47 30 49 62 50 42 51 61 52 43 53 46 54 60 55 79 56
REMARK SMILES IDX 44 57 45 58 59 60 80 61 47 62 31 63 32 64 40 65 33 66 39 67
REMARK SMILES IDX 41 68 38 69 34 70 35 71 36 72 37 73 63 74 64 75 72 76 65 77
REMARK SMILES IDX 71 78 73 79 70 80 66 81 67 82 68 83 69 84 48 85 49 86 57 87
REMARK SMILES IDX 50 88 56 89 58 90 55 91 51 92 52 93 53 94 54 95
REMARK H PARENT 15 6 8 15 19 29 78 48 46 59
REMARK Flexibility Score: inf
ROOT
ATOM      1  C   UNL     1      -9.054  -2.856   3.030  1.00  0.00     0.042 C 
ENDROOT
BRANCH   1   2
ATOM      2  C   UNL     1      -8.569  -1.557   3.686  1.00  0.00     0.118 C 
BRANCH   2   3
ATOM      3  N   UNL     1      -7.920  -1.851   4.950  1.00  0.00    -0.352 N 
ATOM      4  C   UNL     1      -6.648  -2.297   5.217  1.00  0.00     0.251 C 
ATOM      5  O   UNL     1      -6.329  -2.495   6.388  1.00  0.00    -0.269 OA
ATOM      6  H   UNL     1      -8.483  -1.708   5.745  1.00  0.00     0.163 HD
BRANCH   4   7
ATOM      7  C   UNL     1      -5.630  -2.471   4.141  1.00  0.00     0.041 A 
ATOM      8  C   UNL     1      -3.661  -2.534   2.079  1.00  0.00     0.053 A 
ATOM      9  C   UNL     1      -3.318  -2.532   3.450  1.00  0.00     0.028 A 
ATOM     10  C   UNL     1      -5.019  -2.486   1.778  1.00  0.00     0.065 A 
ATOM     11  C   UNL     1      -4.282  -2.464   4.468  1.00  0.00     0.016 A 
ATOM     12  C   UNL     1      -5.947  -2.586   2.798  1.00  0.00     0.036 A 
ATOM     13  Cl  UNL     1      -5.756  -2.305   0.219  1.00  0.00    -0.082 Cl
BRANCH   8  14
ATOM     14  N   UNL     1      -2.626  -2.549   1.171  1.00  0.00    -0.377 N 
ATOM     15  H   UNL     1      -1.832  -3.077   1.414  1.00  0.00     0.161 HD
BRANCH  14  16
ATOM     16  C   UNL     1      -2.588  -1.865  -0.112  1.00  0.00     0.106 C 
ATOM     17  C   UNL     1      -1.495  -0.790   0.018  1.00  0.00     0.036 C 
BRANCH  16  18
ATOM     18  C   UNL     1      -2.486  -2.884  -1.244  1.00  0.00    -0.023 A 
ATOM     19  C   UNL     1      -2.842  -5.479  -4.710  1.00  0.00     0.047 C 
ATOM     20  C   UNL     1      -2.672  -4.609  -3.506  1.00  0.00    -0.015 A 
ATOM     21  C   UNL     1      -1.707  -3.599  -3.449  1.00  0.00     0.007 A 
ATOM     22  C   UNL     1      -3.515  -4.772  -2.416  1.00  0.00     0.126 A 
ATOM     23  C   UNL     1      -1.621  -2.744  -2.337  1.00  0.00     0.006 A 
ATOM     24  C   UNL     1      -3.402  -3.955  -1.297  1.00  0.00     0.045 A 
ATOM     25  F   UNL     1      -4.472  -5.711  -2.443  1.00  0.00    -0.207 F 
ENDBRANCH  16  18
ENDBRANCH  14  16
ENDBRANCH   8  14
ENDBRANCH   4   7
ENDBRANCH   2   3
ENDBRANCH   1   2
BRANCH   1  26
ATOM     26  C   UNL     1     -10.455  -3.121   3.447  1.00  0.00     0.118 C 
BRANCH  26  27
ATOM     27  N   UNL     1     -11.324  -2.199   2.729  1.00  0.00    -0.352 N 
ATOM     28  C   UNL     1     -12.556  -2.499   2.227  1.00  0.00     0.251 C 
ATOM     29  H   UNL     1     -10.994  -1.281   2.595  1.00  0.00     0.163 HD
ATOM     30  O   UNL     1     -13.000  -1.841   1.279  1.00  0.00    -0.269 OA
BRANCH  28  31
ATOM     31  C   UNL     1     -13.307  -3.552   2.908  1.00  0.00     0.039 A 
ATOM     32  C   UNL     1     -14.286  -4.316   2.279  1.00  0.00     0.014 A 
ATOM     33  C   UNL     1     -13.034  -3.711   4.268  1.00  0.00     0.014 A 
ATOM     34  C   UNL     1     -15.079  -5.139   3.066  1.00  0.00     0.010 A 
ATOM     35  C   UNL     1     -13.585  -4.729   4.954  1.00  0.00     0.010 A 
ATOM     36  C   UNL     1     -14.740  -5.271   4.409  1.00  0.00    -0.014 A 
BRANCH  36  37
ATOM     37  C   UNL     1     -15.562  -5.830   5.452  1.00  0.00     0.031 A 
ATOM     38  C   UNL     1     -15.669  -7.282   5.533  1.00  0.00     0.074 A 
ATOM     39  C   UNL     1     -15.822  -4.952   6.455  1.00  0.00     0.049 A 
ATOM     40  N   UNL     1     -16.518  -7.896   6.269  1.00  0.00    -0.248 NA
ATOM     41  C   UNL     1     -14.800  -8.177   4.771  1.00  0.00     0.031 C 
ATOM     42  C   UNL     1     -16.111  -5.196   7.855  1.00  0.00     0.029 A 
ATOM     43  N   UNL     1     -15.852  -3.547   6.380  1.00  0.00    -0.354 N 
ATOM     44  C   UNL     1     -16.053  -9.187   6.393  1.00  0.00     0.074 A 
ATOM     45  C   UNL     1     -15.115  -9.359   5.309  1.00  0.00     0.031 C 
ATOM     46  C   UNL     1     -16.613  -4.064   8.392  1.00  0.00     0.029 A 
ATOM     47  C   UNL     1     -16.819  -3.129   7.292  1.00  0.00     0.049 A 
ATOM     48  H   UNL     1     -15.302  -2.974   5.799  1.00  0.00     0.167 HD
ATOM     49  C   UNL     1     -16.345  -9.863   7.541  1.00  0.00     0.034 A 
ATOM     50  C   UNL     1     -18.035  -2.673   6.854  1.00  0.00     0.034 A 
ATOM     51  C   UNL     1     -17.211  -9.032   8.398  1.00  0.00     0.049 A 
ATOM     52  C   UNL     1     -19.142  -3.642   7.238  1.00  0.00     0.074 A 
ATOM     53  C   UNL     1     -16.956  -8.249   9.514  1.00  0.00     0.029 A 
ATOM     54  N   UNL     1     -18.445  -8.602   7.907  1.00  0.00    -0.354 N 
ATOM     55  N   UNL     1     -18.936  -4.897   7.539  1.00  0.00    -0.248 NA
ATOM     56  C   UNL     1     -20.546  -3.272   7.365  1.00  0.00     0.031 C 
ATOM     57  C   UNL     1     -18.000  -7.283   9.625  1.00  0.00     0.029 A 
ATOM     58  C   UNL     1     -18.902  -7.482   8.591  1.00  0.00     0.049 A 
ATOM     59  H   UNL     1     -18.930  -9.037   7.169  1.00  0.00     0.167 HD
ATOM     60  C   UNL     1     -20.108  -5.506   7.890  1.00  0.00     0.074 A 
ATOM     61  C   UNL     1     -21.083  -4.431   7.791  1.00  0.00     0.031 C 
ATOM     62  C   UNL     1     -20.171  -6.836   8.217  1.00  0.00     0.034 A 
BRANCH  49  63
ATOM     63  C   UNL     1     -15.600 -11.107   8.002  1.00  0.00     0.023 A 
ATOM     64  C   UNL     1     -14.801 -11.921   7.165  1.00  0.00     0.031 A 
ATOM     65  C   UNL     1     -15.637 -11.509   9.354  1.00  0.00     0.131 A 
ATOM     66  C   UNL     1     -14.046 -13.002   7.663  1.00  0.00     0.055 A 
ATOM     67  C   UNL     1     -14.917 -12.610   9.846  1.00  0.00     0.041 A 
ATOM     68  F   UNL     1     -16.349 -10.838  10.269  1.00  0.00    -0.206 F 
ATOM     69  C   UNL     1     -14.105 -13.355   9.005  1.00  0.00     0.022 A 
BRANCH  66  70
ATOM     70  S   UNL     1     -12.919 -13.943   6.586  1.00  0.00     0.124 S 
ATOM     71  O   UNL     1     -11.653 -13.865   7.314  1.00  0.00    -0.237 OA
ATOM     72  O   UNL     1     -13.541 -15.263   6.560  1.00  0.00    -0.237 OA
ATOM     73  O   UNL     1     -12.946 -13.210   5.323  1.00  0.00    -0.744 OA
ENDBRANCH  66  70
ENDBRANCH  49  63
BRANCH  50  74
ATOM     74  C   UNL     1     -17.939  -1.894   5.573  1.00  0.00     0.023 A 
ATOM     75  C   UNL     1     -18.181  -2.486   4.321  1.00  0.00     0.031 A 
ATOM     76  C   UNL     1     -17.160  -0.712   5.600  1.00  0.00     0.131 A 
ATOM     77  C   UNL     1     -17.532  -1.978   3.176  1.00  0.00     0.055 A 
ATOM     78  C   UNL     1     -16.478  -0.248   4.471  1.00  0.00     0.041 A 
ATOM     79  F   UNL     1     -16.937  -0.077   6.763  1.00  0.00    -0.206 F 
ATOM     80  C   UNL     1     -16.629  -0.911   3.260  1.00  0.00     0.022 A 
BRANCH  77  81
ATOM     81  S   UNL     1     -17.764  -2.774   1.555  1.00  0.00     0.124 S 
ATOM     82  O   UNL     1     -18.841  -1.968   0.989  1.00  0.00    -0.237 OA
ATOM     83  O   UNL     1     -16.466  -2.609   0.910  1.00  0.00    -0.237 OA
ATOM     84  O   UNL     1     -18.108  -4.146   1.905  1.00  0.00    -0.744 OA
ENDBRANCH  77  81
ENDBRANCH  50  74
BRANCH  62  85
ATOM     85  C   UNL     1     -21.435  -7.675   8.283  1.00  0.00     0.023 A 
ATOM     86  C   UNL     1     -21.338  -8.998   8.786  1.00  0.00     0.031 A 
ATOM     87  C   UNL     1     -22.684  -7.328   7.741  1.00  0.00     0.131 A 
ATOM     88  C   UNL     1     -22.402  -9.902   8.701  1.00  0.00     0.055 A 
ATOM     89  C   UNL     1     -23.783  -8.195   7.765  1.00  0.00     0.041 A 
ATOM     90  F   UNL     1     -22.890  -6.173   7.098  1.00  0.00    -0.206 F 
ATOM     91  C   UNL     1     -23.641  -9.495   8.226  1.00  0.00     0.022 A 
BRANCH  88  92
ATOM     92  S   UNL     1     -22.140 -11.668   9.029  1.00  0.00     0.124 S 
ATOM     93  O   UNL     1     -22.786 -11.826  10.328  1.00  0.00    -0.237 OA
ATOM     94  O   UNL     1     -22.832 -12.294   7.904  1.00  0.00    -0.237 OA
ATOM     95  O   UNL     1     -20.689 -11.811   9.018  1.00  0.00    -0.744 OA
ENDBRANCH  88  92
ENDBRANCH  62  85
ENDBRANCH  36  37
ENDBRANCH  28  31
ENDBRANCH  26  27
ENDBRANCH   1  26
TORSDOF 16
