REMARK SMILES CC(C)[NH2+][C@@]1(C(=O)NCCCNC(=O)c2ccc(-c3c4nc(c(-c5cc(S(=O)(=O)[O-])ccc5F)c5ccc([nH]5)c(-c5cc(S(=O)(=O)[O-])ccc5F)c5nc(c(-c6cc(S(=O)(=O)[O-])ccc6F)c6ccc3[nH]6)C=C5)C=C4)cc2)CCC[C@@H]([NH+]2CCS(=O)CC2)C1
REMARK SMILES IDX 10 1 9 2 8 3 6 4 7 5 5 7 78 8 89 9 79 10 81 11 80 12 4 13
REMARK SMILES IDX 2 16 1 17 3 18 82 19 83 20 88 21 84 23 87 24 85 25 86 26
REMARK SMILES IDX 11 27 12 28 13 29 14 31 15 32 16 33 77 34 17 35 76 36 18 37
REMARK SMILES IDX 19 38 20 39 70 40 21 41 75 42 69 43 71 44 22 45 74 46 68 47
REMARK SMILES IDX 67 48 23 50 55 51 35 52 54 53 36 54 39 55 53 56 72 57 37 58
REMARK SMILES IDX 38 59 52 61 73 62 40 63 24 64 25 65 33 66 26 67 32 68 34 69
REMARK SMILES IDX 31 70 27 71 28 72 29 73 30 74 56 75 57 76 65 77 58 78 64 79
REMARK SMILES IDX 66 80 63 81 59 82 60 83 61 84 62 85 41 86 42 87 50 88 43 89
REMARK SMILES IDX 49 90 51 91 48 92 44 93 45 94 46 95 47 96
REMARK H PARENT 8 6 4 14 4 15 82 22 12 30 71 49 39 60
REMARK Flexibility Score: inf
ROOT
ATOM      1  C   UNL     1      -1.242   2.256  -6.785  1.00  0.00     0.042 C 
ENDROOT
BRANCH   1   2
ATOM      2  C   UNL     1      -1.690   0.946  -6.161  1.00  0.00     0.118 C 
BRANCH   2   3
ATOM      3  N   UNL     1      -0.769   0.469  -5.146  1.00  0.00    -0.351 N 
ATOM      4  C   UNL     1      -1.216  -0.201  -4.040  1.00  0.00     0.281 C 
ATOM      5  O   UNL     1      -1.079  -1.430  -4.026  1.00  0.00    -0.268 OA
ATOM      6  H   UNL     1       0.196   0.630  -5.255  1.00  0.00     0.163 HD
BRANCH   4   7
ATOM      7  C   UNL     1      -1.751   0.570  -2.773  1.00  0.00     0.181 C 
ATOM      8  C   UNL     1      -3.260   0.291  -2.602  1.00  0.00     0.079 C 
ATOM      9  C   UNL     1      -1.490   2.080  -2.677  1.00  0.00     0.144 C 
ATOM     10  C   UNL     1      -4.172   1.156  -3.471  1.00  0.00     0.013 C 
ATOM     11  C   UNL     1      -2.358   2.991  -3.550  1.00  0.00     0.190 C 
ATOM     12  C   UNL     1      -3.854   2.655  -3.413  1.00  0.00     0.065 C 
BRANCH   7  13
ATOM     13  N   UNL     1      -1.078  -0.095  -1.589  1.00  0.00    -0.331 N 
ATOM     14  H   UNL     1      -1.605   0.163  -0.756  1.00  0.00     0.347 HD
ATOM     15  H   UNL     1      -1.076  -1.089  -1.822  1.00  0.00     0.347 HD
BRANCH  13  16
ATOM     16  C   UNL     1       0.340   0.226  -1.330  1.00  0.00     0.176 C 
ATOM     17  C   UNL     1       0.648  -0.188   0.113  1.00  0.00     0.075 C 
ATOM     18  C   UNL     1       1.334  -0.459  -2.271  1.00  0.00     0.075 C 
ENDBRANCH  13  16
ENDBRANCH   7  13
BRANCH  11  19
ATOM     19  N   UNL     1      -1.988   4.419  -3.535  1.00  0.00    -0.331 N 
ATOM     20  C   UNL     1      -2.841   5.409  -2.886  1.00  0.00     0.276 C 
ATOM     21  C   UNL     1      -0.563   4.766  -3.403  1.00  0.00     0.276 C 
ATOM     22  H   UNL     1      -2.235   4.521  -4.519  1.00  0.00     0.348 HD
ATOM     23  C   UNL     1      -2.608   5.545  -1.388  1.00  0.00     0.166 C 
ATOM     24  C   UNL     1      -0.049   4.872  -1.964  1.00  0.00     0.166 C 
ATOM     25  S   UNL     1      -0.930   6.125  -0.997  1.00  0.00     0.032 S 
ATOM     26  O   UNL     1      -0.719   7.458  -1.648  1.00  0.00    -0.259 OA
ENDBRANCH  11  19
ENDBRANCH   4   7
ENDBRANCH   2   3
ENDBRANCH   1   2
BRANCH   1  27
ATOM     27  C   UNL     1      -0.407   2.051  -8.028  1.00  0.00     0.118 C 
BRANCH  27  28
ATOM     28  N   UNL     1      -1.196   1.485  -9.115  1.00  0.00    -0.352 N 
ATOM     29  C   UNL     1      -1.645   2.074 -10.274  1.00  0.00     0.251 C 
ATOM     30  H   UNL     1      -1.446   0.539  -9.003  1.00  0.00     0.163 HD
ATOM     31  O   UNL     1      -2.532   1.532 -10.923  1.00  0.00    -0.269 OA
BRANCH  29  32
ATOM     32  C   UNL     1      -1.062   3.360 -10.712  1.00  0.00     0.039 A 
ATOM     33  C   UNL     1      -1.875   4.321 -11.316  1.00  0.00     0.014 A 
ATOM     34  C   UNL     1       0.296   3.614 -10.520  1.00  0.00     0.014 A 
ATOM     35  C   UNL     1      -1.330   5.558 -11.670  1.00  0.00     0.010 A 
ATOM     36  C   UNL     1       0.798   4.886 -10.736  1.00  0.00     0.010 A 
ATOM     37  C   UNL     1       0.003   5.862 -11.349  1.00  0.00    -0.014 A 
BRANCH  37  38
ATOM     38  C   UNL     1       0.632   7.157 -11.711  1.00  0.00     0.031 A 
ATOM     39  C   UNL     1       1.852   7.152 -12.597  1.00  0.00     0.074 A 
ATOM     40  C   UNL     1       0.164   8.309 -11.192  1.00  0.00     0.049 A 
ATOM     41  N   UNL     1       2.655   8.135 -12.911  1.00  0.00    -0.248 NA
ATOM     42  C   UNL     1       2.250   5.852 -13.166  1.00  0.00     0.031 C 
ATOM     43  C   UNL     1      -0.990   8.431 -10.299  1.00  0.00     0.029 A 
ATOM     44  N   UNL     1       0.608   9.599 -11.336  1.00  0.00    -0.354 N 
ATOM     45  C   UNL     1       3.658   7.567 -13.690  1.00  0.00     0.074 A 
ATOM     46  C   UNL     1       3.413   6.143 -13.723  1.00  0.00     0.031 C 
ATOM     47  C   UNL     1      -1.185   9.727 -10.006  1.00  0.00     0.029 A 
ATOM     48  C   UNL     1      -0.137  10.522 -10.637  1.00  0.00     0.049 A 
ATOM     49  H   UNL     1       1.386   9.842 -11.887  1.00  0.00     0.167 HD
ATOM     50  C   UNL     1       4.668   8.181 -14.352  1.00  0.00     0.034 A 
ATOM     51  C   UNL     1       0.023  11.854 -10.511  1.00  0.00     0.034 A 
ATOM     52  C   UNL     1       4.875   9.606 -14.331  1.00  0.00     0.049 A 
ATOM     53  C   UNL     1       1.179  12.512 -11.227  1.00  0.00     0.074 A 
ATOM     54  C   UNL     1       5.841  10.347 -14.987  1.00  0.00     0.029 A 
ATOM     55  N   UNL     1       4.094  10.508 -13.619  1.00  0.00    -0.354 N 
ATOM     56  N   UNL     1       2.105  11.964 -11.981  1.00  0.00    -0.248 NA
ATOM     57  C   UNL     1       1.306  13.968 -11.083  1.00  0.00     0.031 C 
ATOM     58  C   UNL     1       5.686  11.687 -14.620  1.00  0.00     0.029 A 
ATOM     59  C   UNL     1       4.570  11.795 -13.806  1.00  0.00     0.049 A 
ATOM     60  H   UNL     1       3.318  10.268 -13.064  1.00  0.00     0.167 HD
ATOM     61  C   UNL     1       2.892  13.018 -12.440  1.00  0.00     0.074 A 
ATOM     62  C   UNL     1       2.327  14.229 -11.884  1.00  0.00     0.031 C 
ATOM     63  C   UNL     1       3.979  12.990 -13.253  1.00  0.00     0.034 A 
BRANCH  50  64
ATOM     64  C   UNL     1       5.617   7.310 -15.140  1.00  0.00     0.023 A 
ATOM     65  C   UNL     1       5.171   6.521 -16.215  1.00  0.00     0.031 A 
ATOM     66  C   UNL     1       6.979   7.244 -14.799  1.00  0.00     0.131 A 
ATOM     67  C   UNL     1       6.057   5.644 -16.858  1.00  0.00     0.055 A 
ATOM     68  C   UNL     1       7.876   6.437 -15.502  1.00  0.00     0.041 A 
ATOM     69  F   UNL     1       7.461   7.953 -13.766  1.00  0.00    -0.206 F 
ATOM     70  C   UNL     1       7.413   5.619 -16.529  1.00  0.00     0.022 A 
BRANCH  67  71
ATOM     71  S   UNL     1       5.379   4.432 -18.024  1.00  0.00     0.124 S 
ATOM     72  O   UNL     1       4.463   3.682 -17.169  1.00  0.00    -0.237 OA
ATOM     73  O   UNL     1       4.759   5.279 -19.036  1.00  0.00    -0.237 OA
ATOM     74  O   UNL     1       6.556   3.688 -18.468  1.00  0.00    -0.744 OA
ENDBRANCH  67  71
ENDBRANCH  50  64
BRANCH  51  75
ATOM     75  C   UNL     1      -0.919  12.665  -9.684  1.00  0.00     0.023 A 
ATOM     76  C   UNL     1      -1.684  13.689 -10.264  1.00  0.00     0.031 A 
ATOM     77  C   UNL     1      -1.019  12.479  -8.294  1.00  0.00     0.131 A 
ATOM     78  C   UNL     1      -2.458  14.533  -9.453  1.00  0.00     0.055 A 
ATOM     79  C   UNL     1      -1.844  13.278  -7.499  1.00  0.00     0.041 A 
ATOM     80  F   UNL     1      -0.312  11.514  -7.684  1.00  0.00    -0.206 F 
ATOM     81  C   UNL     1      -2.555  14.326  -8.076  1.00  0.00     0.022 A 
BRANCH  78  82
ATOM     82  S   UNL     1      -3.232  15.988 -10.211  1.00  0.00     0.124 S 
ATOM     83  O   UNL     1      -2.081  16.659 -10.805  1.00  0.00    -0.237 OA
ATOM     84  O   UNL     1      -4.171  15.378 -11.146  1.00  0.00    -0.237 OA
ATOM     85  O   UNL     1      -3.842  16.678  -9.077  1.00  0.00    -0.744 OA
ENDBRANCH  78  82
ENDBRANCH  51  75
BRANCH  63  86
ATOM     86  C   UNL     1       4.576  14.317 -13.653  1.00  0.00     0.023 A 
ATOM     87  C   UNL     1       5.205  15.163 -12.725  1.00  0.00     0.031 A 
ATOM     88  C   UNL     1       4.521  14.730 -14.997  1.00  0.00     0.131 A 
ATOM     89  C   UNL     1       5.706  16.405 -13.143  1.00  0.00     0.055 A 
ATOM     90  C   UNL     1       5.080  15.936 -15.418  1.00  0.00     0.041 A 
ATOM     91  F   UNL     1       3.930  13.960 -15.925  1.00  0.00    -0.206 F 
ATOM     92  C   UNL     1       5.666  16.787 -14.487  1.00  0.00     0.022 A 
BRANCH  89  93
ATOM     93  S   UNL     1       6.332  17.557 -11.891  1.00  0.00     0.124 S 
ATOM     94  O   UNL     1       5.168  17.731 -11.029  1.00  0.00    -0.237 OA
ATOM     95  O   UNL     1       7.447  16.814 -11.313  1.00  0.00    -0.237 OA
ATOM     96  O   UNL     1       6.710  18.736 -12.668  1.00  0.00    -0.744 OA
ENDBRANCH  89  93
ENDBRANCH  63  86
ENDBRANCH  37  38
ENDBRANCH  29  32
ENDBRANCH  27  28
ENDBRANCH   1  27
TORSDOF 16
