REMARK SMILES O=C(NCCCNC(=O)[C@H](CC1=c2ccccc2=NC1)NC(=O)c1ccc(N2CCCCC2=O)cc1)c1ccc(-c2c3nc(c(-c4cc(S(=O)(=O)[O-])ccc4F)c4ccc([nH]4)c(-c4cc(S(=O)(=O)[O-])ccc4F)c4nc(c(-c5cc(S(=O)(=O)[O-])ccc5F)c5ccc2[nH]5)C=C4)C=C3)cc1
REMARK SMILES IDX 5 1 4 2 3 3 1 4 2 5 37 7 38 8 99 9 39 10 98 11 40 12 41 13
REMARK SMILES IDX 42 14 92 15 43 16 97 17 91 18 93 19 44 20 96 21 90 22 89 23
REMARK SMILES IDX 45 25 77 26 57 27 76 28 58 29 61 30 75 31 94 32 59 33 60 34
REMARK SMILES IDX 74 36 95 37 62 38 46 39 47 40 55 41 48 42 54 43 56 44 53 45
REMARK SMILES IDX 49 46 50 47 51 48 52 49 78 50 79 51 87 52 80 53 86 54 88 55
REMARK SMILES IDX 85 56 81 57 82 58 83 59 84 60 63 61 64 62 72 63 65 64 71 65
REMARK SMILES IDX 73 66 70 67 66 68 67 69 68 70 69 71 6 72 7 73 8 74 9 76
REMARK SMILES IDX 10 77 21 78 22 79 23 81 24 82 25 83 36 84 26 85 35 86 27 87
REMARK SMILES IDX 28 88 29 89 33 90 30 91 32 92 34 93 31 94 11 95 12 96 13 97
REMARK SMILES IDX 20 98 14 99 18 100 19 101 15 102 17 103 16 104
REMARK H PARENT 3 6 93 24 61 35 7 75 21 80
REMARK Flexibility Score: inf
ROOT
ATOM      1  C   UNL     1       7.410   3.357  -8.030  1.00  0.00     0.042 C 
ENDROOT
BRANCH   1   2
ATOM      2  C   UNL     1       8.937   3.470  -7.988  1.00  0.00     0.118 C 
BRANCH   2   3
ATOM      3  N   UNL     1       9.566   2.584  -8.950  1.00  0.00    -0.352 N 
ATOM      4  O   UNL     1      10.421   1.971 -10.923  1.00  0.00    -0.269 OA
ATOM      5  C   UNL     1      10.249   2.876 -10.106  1.00  0.00     0.251 C 
ATOM      6  H   UNL     1       9.491   1.625  -8.742  1.00  0.00     0.163 HD
BRANCH   5   7
ATOM      7  C   UNL     1      10.800   4.229 -10.392  1.00  0.00     0.039 A 
ATOM      8  C   UNL     1      10.836   4.660 -11.723  1.00  0.00     0.014 A 
ATOM      9  C   UNL     1      11.410   5.014  -9.407  1.00  0.00     0.014 A 
ATOM     10  C   UNL     1      11.487   5.851 -12.066  1.00  0.00     0.010 A 
ATOM     11  C   UNL     1      12.007   6.238  -9.743  1.00  0.00     0.010 A 
ATOM     12  C   UNL     1      12.088   6.653 -11.081  1.00  0.00    -0.014 A 
BRANCH  12  13
ATOM     13  C   UNL     1      12.845   7.880 -11.470  1.00  0.00     0.031 A 
ATOM     14  C   UNL     1      14.337   7.967 -11.265  1.00  0.00     0.074 A 
ATOM     15  C   UNL     1      12.201   8.919 -12.038  1.00  0.00     0.049 A 
ATOM     16  N   UNL     1      15.165   8.923 -11.608  1.00  0.00    -0.248 NA
ATOM     17  C   UNL     1      14.980   6.846 -10.563  1.00  0.00     0.031 C 
ATOM     18  C   UNL     1      10.758   8.988 -12.255  1.00  0.00     0.029 A 
ATOM     19  N   UNL     1      12.674  10.105 -12.548  1.00  0.00    -0.354 N 
ATOM     20  C   UNL     1      16.422   8.515 -11.174  1.00  0.00     0.074 A 
ATOM     21  C   UNL     1      16.233   7.266 -10.469  1.00  0.00     0.031 C 
ATOM     22  C   UNL     1      10.466  10.132 -12.892  1.00  0.00     0.029 A 
ATOM     23  C   UNL     1      11.696  10.896 -13.105  1.00  0.00     0.049 A 
ATOM     24  H   UNL     1      13.624  10.364 -12.518  1.00  0.00     0.167 HD
ATOM     25  C   UNL     1      17.629   9.099 -11.376  1.00  0.00     0.034 A 
ATOM     26  C   UNL     1      11.771  12.092 -13.728  1.00  0.00     0.034 A 
ATOM     27  C   UNL     1      17.818  10.338 -12.090  1.00  0.00     0.049 A 
ATOM     28  C   UNL     1      13.120  12.729 -13.948  1.00  0.00     0.074 A 
ATOM     29  C   UNL     1      19.006  10.988 -12.378  1.00  0.00     0.029 A 
ATOM     30  N   UNL     1      16.802  11.112 -12.633  1.00  0.00    -0.354 N 
ATOM     31  N   UNL     1      14.307  12.287 -13.601  1.00  0.00    -0.248 NA
ATOM     32  C   UNL     1      13.146  14.018 -14.655  1.00  0.00     0.031 C 
ATOM     33  C   UNL     1      18.706  12.180 -13.042  1.00  0.00     0.029 A 
ATOM     34  C   UNL     1      17.334  12.245 -13.230  1.00  0.00     0.049 A 
ATOM     35  H   UNL     1      15.844  10.889 -12.599  1.00  0.00     0.167 HD
ATOM     36  C   UNL     1      15.219  13.240 -14.051  1.00  0.00     0.074 A 
ATOM     37  C   UNL     1      14.449  14.259 -14.734  1.00  0.00     0.031 C 
ATOM     38  C   UNL     1      16.568  13.271 -13.899  1.00  0.00     0.034 A 
BRANCH  25  39
ATOM     39  C   UNL     1      18.859   8.392 -10.853  1.00  0.00     0.023 A 
ATOM     40  C   UNL     1      19.684   9.006  -9.893  1.00  0.00     0.031 A 
ATOM     41  C   UNL     1      19.266   7.150 -11.378  1.00  0.00     0.131 A 
ATOM     42  C   UNL     1      20.878   8.386  -9.500  1.00  0.00     0.055 A 
ATOM     43  C   UNL     1      20.432   6.515 -10.950  1.00  0.00     0.041 A 
ATOM     44  F   UNL     1      18.519   6.523 -12.302  1.00  0.00    -0.206 F 
ATOM     45  C   UNL     1      21.250   7.139 -10.014  1.00  0.00     0.022 A 
BRANCH  42  46
ATOM     46  S   UNL     1      22.027   9.193  -8.352  1.00  0.00     0.124 S 
ATOM     47  O   UNL     1      22.058   8.242  -7.243  1.00  0.00    -0.237 OA
ATOM     48  O   UNL     1      23.250   9.266  -9.146  1.00  0.00    -0.237 OA
ATOM     49  O   UNL     1      21.388  10.472  -8.058  1.00  0.00    -0.744 OA
ENDBRANCH  42  46
ENDBRANCH  25  39
BRANCH  26  50
ATOM     50  C   UNL     1      10.515  12.709 -14.247  1.00  0.00     0.023 A 
ATOM     51  C   UNL     1       9.477  13.066 -13.368  1.00  0.00     0.031 A 
ATOM     52  C   UNL     1      10.282  12.825 -15.627  1.00  0.00     0.131 A 
ATOM     53  C   UNL     1       8.227  13.434 -13.880  1.00  0.00     0.055 A 
ATOM     54  C   UNL     1       9.058  13.270 -16.133  1.00  0.00     0.041 A 
ATOM     55  F   UNL     1      11.239  12.488 -16.506  1.00  0.00    -0.206 F 
ATOM     56  C   UNL     1       8.015  13.555 -15.257  1.00  0.00     0.022 A 
BRANCH  53  57
ATOM     57  S   UNL     1       6.795  13.611 -12.780  1.00  0.00     0.124 S 
ATOM     58  O   UNL     1       6.378  14.984 -13.041  1.00  0.00    -0.237 OA
ATOM     59  O   UNL     1       5.904  12.571 -13.288  1.00  0.00    -0.237 OA
ATOM     60  O   UNL     1       7.350  13.359 -11.454  1.00  0.00    -0.744 OA
ENDBRANCH  53  57
ENDBRANCH  26  50
BRANCH  38  61
ATOM     61  C   UNL     1      17.326  14.463 -14.441  1.00  0.00     0.023 A 
ATOM     62  C   UNL     1      18.308  14.294 -15.437  1.00  0.00     0.031 A 
ATOM     63  C   UNL     1      17.168  15.743 -13.880  1.00  0.00     0.131 A 
ATOM     64  C   UNL     1      19.112  15.377 -15.818  1.00  0.00     0.055 A 
ATOM     65  C   UNL     1      17.939  16.830 -14.296  1.00  0.00     0.041 A 
ATOM     66  F   UNL     1      16.257  15.957 -12.917  1.00  0.00    -0.206 F 
ATOM     67  C   UNL     1      18.925  16.646 -15.260  1.00  0.00     0.022 A 
BRANCH  64  68
ATOM     68  S   UNL     1      20.487  15.165 -16.983  1.00  0.00     0.124 S 
ATOM     69  O   UNL     1      20.068  16.008 -18.100  1.00  0.00    -0.237 OA
ATOM     70  O   UNL     1      21.623  15.668 -16.214  1.00  0.00    -0.237 OA
ATOM     71  O   UNL     1      20.500  13.731 -17.254  1.00  0.00    -0.744 OA
ENDBRANCH  64  68
ENDBRANCH  38  61
ENDBRANCH  12  13
ENDBRANCH   5   7
ENDBRANCH   2   3
ENDBRANCH   1   2
BRANCH   1  72
ATOM     72  C   UNL     1       6.729   2.489  -6.962  1.00  0.00     0.117 C 
BRANCH  72  73
ATOM     73  N   UNL     1       7.361   2.389  -5.650  1.00  0.00    -0.354 N 
ATOM     74  C   UNL     1       7.045   2.855  -4.402  1.00  0.00     0.242 C 
ATOM     75  H   UNL     1       8.200   1.873  -5.666  1.00  0.00     0.163 HD
ATOM     76  O   UNL     1       7.610   2.269  -3.470  1.00  0.00    -0.273 OA
BRANCH  74  77
ATOM     77  C   UNL     1       6.303   4.199  -4.158  1.00  0.00     0.175 C 
BRANCH  77  78
ATOM     78  N   UNL     1       5.191   4.444  -5.074  1.00  0.00    -0.340 N 
ATOM     79  C   UNL     1       4.965   5.446  -5.985  1.00  0.00     0.251 C 
ATOM     80  H   UNL     1       4.475   3.769  -5.030  1.00  0.00     0.164 HD
ATOM     81  O   UNL     1       3.889   5.454  -6.580  1.00  0.00    -0.269 OA
BRANCH  79  82
ATOM     82  C   UNL     1       5.966   6.510  -6.255  1.00  0.00     0.039 A 
ATOM     83  C   UNL     1       7.339   6.255  -6.304  1.00  0.00     0.016 A 
ATOM     84  C   UNL     1       5.519   7.810  -6.493  1.00  0.00     0.016 A 
ATOM     85  C   UNL     1       8.258   7.278  -6.495  1.00  0.00     0.027 A 
ATOM     86  C   UNL     1       6.445   8.846  -6.672  1.00  0.00     0.027 A 
ATOM     87  C   UNL     1       7.822   8.590  -6.653  1.00  0.00     0.044 A 
BRANCH  87  88
ATOM     88  N   UNL     1       8.794   9.624  -6.710  1.00  0.00    -0.312 N 
ATOM     89  C   UNL     1       9.896   9.460  -7.668  1.00  0.00     0.125 C 
ATOM     90  C   UNL     1       8.614  10.807  -5.989  1.00  0.00     0.226 C 
ATOM     91  C   UNL     1      11.180  10.117  -7.204  1.00  0.00     0.022 C 
ATOM     92  C   UNL     1       9.846  11.679  -5.814  1.00  0.00     0.101 C 
ATOM     93  O   UNL     1       7.604  11.082  -5.336  1.00  0.00    -0.275 OA
ATOM     94  C   UNL     1      10.886  11.575  -6.911  1.00  0.00     0.012 C 
ENDBRANCH  87  88
ENDBRANCH  79  82
ENDBRANCH  77  78
BRANCH  77  95
ATOM     95  C   UNL     1       5.885   4.429  -2.670  1.00  0.00     0.068 C 
BRANCH  95  96
ATOM     96  C   UNL     1       6.307   5.747  -2.046  1.00  0.00    -0.037 C 
ATOM     97  C   UNL     1       5.938   6.247  -0.864  1.00  0.00     0.001 A 
ATOM     98  C   UNL     1       7.310   6.673  -2.683  1.00  0.00     0.174 C 
ATOM     99  C   UNL     1       5.071   5.836   0.195  1.00  0.00     0.010 A 
ATOM    100  C   UNL     1       6.736   7.483  -0.753  1.00  0.00     0.065 A 
ATOM    101  N   UNL     1       7.547   7.766  -1.721  1.00  0.00    -0.280 NA
ATOM    102  C   UNL     1       4.970   6.612   1.288  1.00  0.00     0.001 A 
ATOM    103  C   UNL     1       6.560   8.291   0.469  1.00  0.00     0.028 A 
ATOM    104  C   UNL     1       5.716   7.854   1.416  1.00  0.00     0.002 A 
ENDBRANCH  95  96
ENDBRANCH  77  95
ENDBRANCH  74  77
ENDBRANCH  72  73
ENDBRANCH   1  72
TORSDOF 18
