REMARK SMILES CS(=O)(=O)Nc1ccc(-c2cc(Cl)cc3c2O[C@H](C(F)(F)F)C(C(=O)NCCCNC(=O)c2ccc(-c4c5nc(c(-c6cc(S(=O)(=O)[O-])ccc6F)c6ccc([nH]6)c(-c6cc(S(=O)(=O)[O-])ccc6F)c6nc(c(-c7cc(S(=O)(=O)[O-])ccc7F)c7ccc4[nH]7)C=C6)C=C5)cc2)=C3)cc1
REMARK SMILES IDX 28 1 27 2 26 3 24 4 25 5 23 7 10 8 11 9 16 10 12 11 15 12
REMARK SMILES IDX 17 13 13 14 14 15 96 16 18 17 9 18 6 19 7 20 98 21 8 22
REMARK SMILES IDX 97 23 5 24 2 26 1 27 3 28 4 29 19 30 20 31 21 32 22 33 29 34
REMARK SMILES IDX 30 35 31 36 32 38 33 39 34 40 95 41 35 42 94 43 36 44 37 45
REMARK SMILES IDX 38 46 88 47 39 48 93 49 87 50 89 51 40 52 92 53 86 54 85 55
REMARK SMILES IDX 41 57 73 58 53 59 72 60 54 61 57 62 71 63 90 64 55 65 56 66
REMARK SMILES IDX 70 68 91 69 58 70 42 71 43 72 51 73 44 74 50 75 52 76 49 77
REMARK SMILES IDX 45 78 46 79 47 80 48 81 74 82 75 83 83 84 76 85 82 86 84 87
REMARK SMILES IDX 81 88 77 89 78 90 79 91 80 92 59 93 60 94 68 95 61 96 67 97
REMARK SMILES IDX 69 98 66 99 62 100 63 101 64 102 65 103
REMARK H PARENT 26 6 5 25 30 37 89 56 57 67
REMARK Flexibility Score: inf
ROOT
ATOM      1  C   UNL     1      11.195  -0.865  10.717  1.00  0.00     0.042 C 
ENDROOT
BRANCH   1   2
ATOM      2  C   UNL     1      10.742  -1.635   9.473  1.00  0.00     0.118 C 
BRANCH   2   3
ATOM      3  N   UNL     1       9.306  -1.837   9.506  1.00  0.00    -0.352 N 
ATOM      4  C   UNL     1       8.391  -1.359   8.627  1.00  0.00     0.251 C 
ATOM      5  O   UNL     1       7.304  -0.965   9.034  1.00  0.00    -0.270 OA
ATOM      6  H   UNL     1       8.958  -2.381  10.249  1.00  0.00     0.163 HD
BRANCH   4   7
ATOM      7  C   UNL     1       8.709  -1.489   7.175  1.00  0.00     0.067 C 
ATOM      8  C   UNL     1       5.166  -0.234   5.611  1.00  0.00     0.026 A 
ATOM      9  C   UNL     1       4.145  -0.900   6.346  1.00  0.00     0.033 A 
ATOM     10  C   UNL     1       6.470  -0.733   5.781  1.00  0.00     0.135 A 
ATOM     11  C   UNL     1       4.367  -2.070   7.067  1.00  0.00     0.042 A 
ATOM     12  C   UNL     1       6.651  -1.992   6.414  1.00  0.00     0.019 A 
ATOM     13  O   UNL     1       7.614  -0.031   5.420  1.00  0.00    -0.475 OA
ATOM     14  Cl  UNL     1       3.082  -2.781   7.959  1.00  0.00    -0.084 Cl
ATOM     15  C   UNL     1       5.609  -2.666   7.044  1.00  0.00     0.032 A 
ATOM     16  C   UNL     1       8.032  -2.493   6.585  1.00  0.00     0.025 C 
ATOM     17  C   UNL     1       8.746  -0.185   6.391  1.00  0.00     0.314 C 
BRANCH   8  18
ATOM     18  C   UNL     1       4.653   0.767   4.628  1.00  0.00    -0.014 A 
ATOM     19  C   UNL     1       2.671   1.694   2.792  1.00  0.00     0.048 A 
ATOM     20  C   UNL     1       2.661   2.104   4.127  1.00  0.00     0.027 A 
ATOM     21  C   UNL     1       3.765   0.958   2.342  1.00  0.00     0.027 A 
ATOM     22  C   UNL     1       3.657   1.683   5.023  1.00  0.00     0.011 A 
ATOM     23  C   UNL     1       4.752   0.506   3.249  1.00  0.00     0.011 A 
BRANCH  19  24
ATOM     24  N   UNL     1       1.443   1.847   2.077  1.00  0.00    -0.284 N 
ATOM     25  H   UNL     1       0.659   2.111   2.611  1.00  0.00     0.180 HD
BRANCH  24  26
ATOM     26  S   UNL     1       1.185   1.632   0.450  1.00  0.00     0.229 S 
ATOM     27  C   UNL     1       1.150  -0.141   0.251  1.00  0.00     0.183 C 
ATOM     28  O   UNL     1       2.296   2.174  -0.303  1.00  0.00    -0.207 OA
ATOM     29  O   UNL     1      -0.166   2.102   0.223  1.00  0.00    -0.207 OA
ENDBRANCH  24  26
ENDBRANCH  19  24
ENDBRANCH   8  18
BRANCH  17  30
ATOM     30  C   UNL     1      10.125  -0.098   5.694  1.00  0.00     0.429 C 
ATOM     31  F   UNL     1      10.032  -0.163   4.346  1.00  0.00    -0.167 F 
ATOM     32  F   UNL     1      10.763   1.054   6.007  1.00  0.00    -0.167 F 
ATOM     33  F   UNL     1      10.961  -1.105   6.066  1.00  0.00    -0.167 F 
ENDBRANCH  17  30
ENDBRANCH   4   7
ENDBRANCH   2   3
ENDBRANCH   1   2
BRANCH   1  34
ATOM     34  C   UNL     1      10.892  -1.557  12.046  1.00  0.00     0.118 C 
BRANCH  34  35
ATOM     35  N   UNL     1      11.525  -2.860  12.165  1.00  0.00    -0.352 N 
ATOM     36  C   UNL     1      12.331  -3.352  13.164  1.00  0.00     0.251 C 
ATOM     37  H   UNL     1      11.351  -3.481  11.422  1.00  0.00     0.163 HD
ATOM     38  O   UNL     1      12.911  -4.420  12.995  1.00  0.00    -0.269 OA
BRANCH  36  39
ATOM     39  C   UNL     1      12.521  -2.584  14.415  1.00  0.00     0.039 A 
ATOM     40  C   UNL     1      13.803  -2.499  14.962  1.00  0.00     0.014 A 
ATOM     41  C   UNL     1      11.447  -1.956  15.052  1.00  0.00     0.014 A 
ATOM     42  C   UNL     1      14.015  -1.738  16.113  1.00  0.00     0.010 A 
ATOM     43  C   UNL     1      11.677  -1.121  16.143  1.00  0.00     0.010 A 
ATOM     44  C   UNL     1      12.961  -1.012  16.696  1.00  0.00    -0.014 A 
BRANCH  44  45
ATOM     45  C   UNL     1      13.197  -0.155  17.889  1.00  0.00     0.031 A 
ATOM     46  C   UNL     1      12.491  -0.444  19.187  1.00  0.00     0.074 A 
ATOM     47  C   UNL     1      14.021   0.908  17.791  1.00  0.00     0.049 A 
ATOM     48  N   UNL     1      12.564   0.190  20.330  1.00  0.00    -0.248 NA
ATOM     49  C   UNL     1      11.550  -1.574  19.190  1.00  0.00     0.031 C 
ATOM     50  C   UNL     1      14.711   1.331  16.570  1.00  0.00     0.029 A 
ATOM     51  N   UNL     1      14.419   1.827  18.729  1.00  0.00    -0.354 N 
ATOM     52  C   UNL     1      11.671  -0.454  21.181  1.00  0.00     0.074 A 
ATOM     53  C   UNL     1      11.015  -1.478  20.397  1.00  0.00     0.031 C 
ATOM     54  C   UNL     1      15.476   2.399  16.843  1.00  0.00     0.029 A 
ATOM     55  C   UNL     1      15.299   2.768  18.244  1.00  0.00     0.049 A 
ATOM     56  H   UNL     1      14.105   1.815  19.662  1.00  0.00     0.167 HD
ATOM     57  C   UNL     1      11.438  -0.231  22.499  1.00  0.00     0.034 A 
ATOM     58  C   UNL     1      15.893   3.812  18.854  1.00  0.00     0.034 A 
ATOM     59  C   UNL     1      12.111   0.792  23.265  1.00  0.00     0.049 A 
ATOM     60  C   UNL     1      15.628   4.039  20.320  1.00  0.00     0.074 A 
ATOM     61  C   UNL     1      12.007   1.065  24.618  1.00  0.00     0.029 A 
ATOM     62  N   UNL     1      13.004   1.721  22.743  1.00  0.00    -0.354 N 
ATOM     63  N   UNL     1      14.839   3.372  21.132  1.00  0.00    -0.248 NA
ATOM     64  C   UNL     1      16.352   5.145  20.956  1.00  0.00     0.031 C 
ATOM     65  C   UNL     1      12.768   2.207  24.895  1.00  0.00     0.029 A 
ATOM     66  C   UNL     1      13.426   2.592  23.738  1.00  0.00     0.049 A 
ATOM     67  H   UNL     1      13.295   1.757  21.803  1.00  0.00     0.167 HD
ATOM     68  C   UNL     1      14.992   3.965  22.383  1.00  0.00     0.074 A 
ATOM     69  C   UNL     1      15.970   5.022  22.218  1.00  0.00     0.031 C 
ATOM     70  C   UNL     1      14.383   3.662  23.559  1.00  0.00     0.034 A 
BRANCH  57  71
ATOM     71  C   UNL     1      10.390  -1.088  23.176  1.00  0.00     0.023 A 
ATOM     72  C   UNL     1      10.503  -2.489  23.243  1.00  0.00     0.031 A 
ATOM     73  C   UNL     1       9.235  -0.500  23.723  1.00  0.00     0.131 A 
ATOM     74  C   UNL     1       9.444  -3.257  23.752  1.00  0.00     0.055 A 
ATOM     75  C   UNL     1       8.227  -1.265  24.316  1.00  0.00     0.041 A 
ATOM     76  F   UNL     1       9.054   0.829  23.673  1.00  0.00    -0.206 F 
ATOM     77  C   UNL     1       8.319  -2.653  24.315  1.00  0.00     0.022 A 
BRANCH  74  78
ATOM     78  S   UNL     1       9.481  -5.054  23.503  1.00  0.00     0.124 S 
ATOM     79  O   UNL     1       9.600  -5.148  22.049  1.00  0.00    -0.237 OA
ATOM     80  O   UNL     1      10.656  -5.454  24.267  1.00  0.00    -0.237 OA
ATOM     81  O   UNL     1       8.199  -5.501  24.044  1.00  0.00    -0.744 OA
ENDBRANCH  74  78
ENDBRANCH  57  71
BRANCH  58  82
ATOM     82  C   UNL     1      16.789   4.723  18.084  1.00  0.00     0.023 A 
ATOM     83  C   UNL     1      18.159   4.822  18.375  1.00  0.00     0.031 A 
ATOM     84  C   UNL     1      16.277   5.529  17.051  1.00  0.00     0.131 A 
ATOM     85  C   UNL     1      18.961   5.734  17.670  1.00  0.00     0.055 A 
ATOM     86  C   UNL     1      17.088   6.394  16.316  1.00  0.00     0.041 A 
ATOM     87  F   UNL     1      14.975   5.470  16.726  1.00  0.00    -0.206 F 
ATOM     88  C   UNL     1      18.438   6.509  16.632  1.00  0.00     0.022 A 
BRANCH  85  89
ATOM     89  S   UNL     1      20.690   5.949  18.176  1.00  0.00     0.124 S 
ATOM     90  O   UNL     1      20.544   6.368  19.565  1.00  0.00    -0.237 OA
ATOM     91  O   UNL     1      21.236   4.613  17.963  1.00  0.00    -0.237 OA
ATOM     92  O   UNL     1      21.187   6.975  17.262  1.00  0.00    -0.744 OA
ENDBRANCH  85  89
ENDBRANCH  58  82
BRANCH  70  93
ATOM     93  C   UNL     1      14.794   4.472  24.768  1.00  0.00     0.023 A 
ATOM     94  C   UNL     1      14.579   5.860  24.838  1.00  0.00     0.031 A 
ATOM     95  C   UNL     1      15.452   3.854  25.847  1.00  0.00     0.131 A 
ATOM     96  C   UNL     1      15.094   6.595  25.917  1.00  0.00     0.055 A 
ATOM     97  C   UNL     1      15.889   4.579  26.957  1.00  0.00     0.041 A 
ATOM     98  F   UNL     1      15.690   2.532  25.837  1.00  0.00    -0.206 F 
ATOM     99  C   UNL     1      15.730   5.961  26.986  1.00  0.00     0.022 A 
BRANCH  96 100
ATOM    100  S   UNL     1      15.056   8.407  25.829  1.00  0.00     0.124 S 
ATOM    101  O   UNL     1      15.737   8.662  24.563  1.00  0.00    -0.237 OA
ATOM    102  O   UNL     1      13.625   8.689  25.851  1.00  0.00    -0.237 OA
ATOM    103  O   UNL     1      15.790   8.823  27.023  1.00  0.00    -0.744 OA
ENDBRANCH  96 100
ENDBRANCH  70  93
ENDBRANCH  44  45
ENDBRANCH  36  39
ENDBRANCH  34  35
ENDBRANCH   1  34
TORSDOF 17
