REMARK SMILES CCOc1cnc(C(=O)c2[nH]c3cc(Cl)ccc3c2CC(=O)NCCCNC(=O)c2ccc(-c3c4nc(c(-c5cc(S(=O)(=O)[O-])ccc5F)c5ccc([nH]5)c(-c5cc(S(=O)(=O)[O-])ccc5F)c5nc(c(-c6cc(S(=O)(=O)[O-])ccc6F)c6ccc3[nH]6)C=C5)C=C4)cc2)cc1CC
REMARK SMILES IDX 24 1 23 2 21 3 22 4 20 6 19 7 10 8 11 9 12 10 18 12 13 13
REMARK SMILES IDX 17 14 14 15 16 16 15 17 8 18 9 19 7 20 4 21 5 22 94 23 6 24
REMARK SMILES IDX 93 25 3 26 2 27 1 28 95 29 96 30 25 31 26 32 27 33 28 34
REMARK SMILES IDX 29 36 30 37 31 38 92 39 32 40 91 41 33 42 34 43 35 44 85 45
REMARK SMILES IDX 36 46 90 47 84 48 86 49 37 50 89 51 83 52 82 53 38 55 70 56
REMARK SMILES IDX 50 57 69 58 51 59 54 60 68 61 87 62 52 63 53 64 67 66 88 67
REMARK SMILES IDX 55 68 39 69 40 70 48 71 41 72 47 73 49 74 46 75 42 76 43 77
REMARK SMILES IDX 44 78 45 79 71 80 72 81 80 82 73 83 79 84 81 85 78 86 74 87
REMARK SMILES IDX 75 88 76 89 77 90 56 91 57 92 65 93 58 94 64 95 66 96 63 97
REMARK SMILES IDX 59 98 60 99 61 100 62 101
REMARK H PARENT 23 5 11 11 27 35 86 54 54 65
REMARK Flexibility Score: inf
ROOT
ATOM      1  C   UNL     1      11.352  -3.432   0.557  1.00  0.00     0.117 C 
ENDROOT
BRANCH   1   2
ATOM      2  N   UNL     1      10.510  -4.212  -0.328  1.00  0.00    -0.356 N 
ATOM      3  C   UNL     1       9.470  -3.808  -1.117  1.00  0.00     0.224 C 
ATOM      4  O   UNL     1       9.050  -4.603  -1.963  1.00  0.00    -0.275 OA
ATOM      5  H   UNL     1      10.718  -5.173  -0.366  1.00  0.00     0.163 HD
BRANCH   3   6
ATOM      6  C   UNL     1       8.940  -2.383  -1.054  1.00  0.00     0.138 C 
BRANCH   6   7
ATOM      7  C   UNL     1       8.422  -1.957   0.290  1.00  0.00    -0.002 A 
ATOM      8  C   UNL     1       7.310  -2.456   0.962  1.00  0.00     0.093 A 
ATOM      9  N   UNL     1       7.308  -1.887   2.217  1.00  0.00    -0.351 N 
ATOM     10  C   UNL     1       8.203  -0.847   2.273  1.00  0.00     0.048 A 
ATOM     11  H   UNL     1       6.744  -2.184   2.968  1.00  0.00     0.167 HD
ATOM     12  C   UNL     1       8.921  -0.864   1.079  1.00  0.00     0.004 A 
ATOM     13  C   UNL     1       8.435   0.089   3.289  1.00  0.00     0.047 A 
ATOM     14  C   UNL     1       9.925   0.109   0.887  1.00  0.00     0.012 A 
ATOM     15  C   UNL     1       9.427   1.047   3.063  1.00  0.00     0.043 A 
ATOM     16  C   UNL     1      10.166   1.061   1.885  1.00  0.00     0.021 A 
ATOM     17  Cl  UNL     1       9.733   2.241   4.266  1.00  0.00    -0.084 Cl
BRANCH   8  18
ATOM     18  C   UNL     1       6.320  -3.424   0.508  1.00  0.00     0.227 C 
ATOM     19  O   UNL     1       6.643  -4.552   0.158  1.00  0.00    -0.285 OA
BRANCH  18  20
ATOM     20  C   UNL     1       4.870  -2.985   0.456  1.00  0.00     0.113 A 
ATOM     21  C   UNL     1       2.208  -2.290   0.399  1.00  0.00     0.140 A 
ATOM     22  C   UNL     1       2.667  -3.555   0.046  1.00  0.00     0.158 A 
ATOM     23  C   UNL     1       3.128  -1.343   0.845  1.00  0.00    -0.002 A 
ATOM     24  N   UNL     1       3.969  -3.924   0.073  1.00  0.00    -0.249 NA
ATOM     25  C   UNL     1       4.486  -1.688   0.803  1.00  0.00     0.040 A 
BRANCH  21  26
ATOM     26  O   UNL     1       0.872  -2.012   0.388  1.00  0.00    -0.492 OA
BRANCH  26  27
ATOM     27  C   UNL     1       0.406  -1.676  -0.926  1.00  0.00     0.226 C 
ATOM     28  C   UNL     1       0.072  -0.194  -0.981  1.00  0.00     0.049 C 
ENDBRANCH  26  27
ENDBRANCH  21  26
BRANCH  23  29
ATOM     29  C   UNL     1       2.714   0.015   1.360  1.00  0.00     0.036 C 
ATOM     30  C   UNL     1       3.276   0.325   2.744  1.00  0.00     0.009 C 
ENDBRANCH  23  29
ENDBRANCH  18  20
ENDBRANCH   8  18
ENDBRANCH   6   7
ENDBRANCH   3   6
ENDBRANCH   1   2
BRANCH   1  31
ATOM     31  C   UNL     1      11.022  -3.620   2.034  1.00  0.00     0.042 C 
BRANCH  31  32
ATOM     32  C   UNL     1      11.325  -5.011   2.585  1.00  0.00     0.118 C 
BRANCH  32  33
ATOM     33  N   UNL     1      12.743  -5.331   2.550  1.00  0.00    -0.352 N 
ATOM     34  C   UNL     1      13.617  -5.666   3.554  1.00  0.00     0.251 C 
ATOM     35  H   UNL     1      13.146  -5.302   1.652  1.00  0.00     0.163 HD
ATOM     36  O   UNL     1      14.819  -5.701   3.294  1.00  0.00    -0.269 OA
BRANCH  34  37
ATOM     37  C   UNL     1      13.151  -5.966   4.930  1.00  0.00     0.039 A 
ATOM     38  C   UNL     1      13.956  -5.571   6.005  1.00  0.00     0.014 A 
ATOM     39  C   UNL     1      11.981  -6.690   5.178  1.00  0.00     0.014 A 
ATOM     40  C   UNL     1      13.568  -5.854   7.318  1.00  0.00     0.010 A 
ATOM     41  C   UNL     1      11.560  -6.914   6.491  1.00  0.00     0.010 A 
ATOM     42  C   UNL     1      12.352  -6.506   7.575  1.00  0.00    -0.014 A 
BRANCH  42  43
ATOM     43  C   UNL     1      11.910  -6.784   8.968  1.00  0.00     0.031 A 
ATOM     44  C   UNL     1      11.791  -8.203   9.457  1.00  0.00     0.074 A 
ATOM     45  C   UNL     1      11.567  -5.762   9.777  1.00  0.00     0.049 A 
ATOM     46  N   UNL     1      11.354  -8.650  10.607  1.00  0.00    -0.248 NA
ATOM     47  C   UNL     1      12.192  -9.258   8.515  1.00  0.00     0.031 C 
ATOM     48  C   UNL     1      11.603  -4.345   9.409  1.00  0.00     0.029 A 
ATOM     49  N   UNL     1      11.110  -5.757  11.071  1.00  0.00    -0.354 N 
ATOM     50  C   UNL     1      11.414 -10.038  10.524  1.00  0.00     0.074 A 
ATOM     51  C   UNL     1      11.878 -10.354   9.189  1.00  0.00     0.031 C 
ATOM     52  C   UNL     1      11.199  -3.609  10.457  1.00  0.00     0.029 A 
ATOM     53  C   UNL     1      10.841  -4.498  11.557  1.00  0.00     0.049 A 
ATOM     54  H   UNL     1      10.986  -6.577  11.602  1.00  0.00     0.167 HD
ATOM     55  C   UNL     1      11.128 -10.962  11.476  1.00  0.00     0.034 A 
ATOM     56  C   UNL     1      10.351  -4.105  12.749  1.00  0.00     0.034 A 
ATOM     57  C   UNL     1      10.677 -10.634  12.807  1.00  0.00     0.049 A 
ATOM     58  C   UNL     1      10.044  -5.147  13.793  1.00  0.00     0.074 A 
ATOM     59  C   UNL     1      10.392 -11.488  13.860  1.00  0.00     0.029 A 
ATOM     60  N   UNL     1      10.442  -9.346  13.272  1.00  0.00    -0.354 N 
ATOM     61  N   UNL     1      10.138  -6.454  13.709  1.00  0.00    -0.248 NA
ATOM     62  C   UNL     1       9.581  -4.659  15.098  1.00  0.00     0.031 C 
ATOM     63  C   UNL     1       9.938 -10.722  14.941  1.00  0.00     0.029 A 
ATOM     64  C   UNL     1      10.000  -9.384  14.586  1.00  0.00     0.049 A 
ATOM     65  H   UNL     1      10.571  -8.525  12.744  1.00  0.00     0.167 HD
ATOM     66  C   UNL     1       9.771  -6.941  14.960  1.00  0.00     0.074 A 
ATOM     67  C   UNL     1       9.471  -5.788  15.783  1.00  0.00     0.031 C 
ATOM     68  C   UNL     1       9.693  -8.226  15.391  1.00  0.00     0.034 A 
BRANCH  55  69
ATOM     69  C   UNL     1      11.274 -12.416  11.092  1.00  0.00     0.023 A 
ATOM     70  C   UNL     1      12.521 -12.963  10.742  1.00  0.00     0.031 A 
ATOM     71  C   UNL     1      10.149 -13.257  11.037  1.00  0.00     0.131 A 
ATOM     72  C   UNL     1      12.601 -14.284  10.275  1.00  0.00     0.055 A 
ATOM     73  C   UNL     1      10.248 -14.595  10.649  1.00  0.00     0.041 A 
ATOM     74  F   UNL     1       8.929 -12.788  11.343  1.00  0.00    -0.206 F 
ATOM     75  C   UNL     1      11.477 -15.111  10.249  1.00  0.00     0.022 A 
BRANCH  72  76
ATOM     76  S   UNL     1      14.170 -14.858   9.568  1.00  0.00     0.124 S 
ATOM     77  O   UNL     1      14.357 -13.918   8.466  1.00  0.00    -0.237 OA
ATOM     78  O   UNL     1      15.091 -14.720  10.690  1.00  0.00    -0.237 OA
ATOM     79  O   UNL     1      13.880 -16.233   9.163  1.00  0.00    -0.744 OA
ENDBRANCH  72  76
ENDBRANCH  55  69
BRANCH  56  80
ATOM     80  C   UNL     1      10.111  -2.661  13.025  1.00  0.00     0.023 A 
ATOM     81  C   UNL     1      10.866  -1.974  13.988  1.00  0.00     0.031 A 
ATOM     82  C   UNL     1       9.095  -1.958  12.354  1.00  0.00     0.131 A 
ATOM     83  C   UNL     1      10.563  -0.637  14.288  1.00  0.00     0.055 A 
ATOM     84  C   UNL     1       8.829  -0.615  12.623  1.00  0.00     0.041 A 
ATOM     85  F   UNL     1       8.352  -2.568  11.417  1.00  0.00    -0.206 F 
ATOM     86  C   UNL     1       9.557   0.050  13.605  1.00  0.00     0.022 A 
BRANCH  83  87
ATOM     87  S   UNL     1      11.456   0.172  15.644  1.00  0.00     0.124 S 
ATOM     88  O   UNL     1      11.163  -0.714  16.765  1.00  0.00    -0.237 OA
ATOM     89  O   UNL     1      12.830   0.153  15.153  1.00  0.00    -0.237 OA
ATOM     90  O   UNL     1      10.840   1.495  15.715  1.00  0.00    -0.744 OA
ENDBRANCH  83  87
ENDBRANCH  56  80
BRANCH  68  91
ATOM     91  C   UNL     1       9.308  -8.435  16.835  1.00  0.00     0.023 A 
ATOM     92  C   UNL     1       8.020  -8.133  17.307  1.00  0.00     0.031 A 
ATOM     93  C   UNL     1      10.257  -8.916  17.755  1.00  0.00     0.131 A 
ATOM     94  C   UNL     1       7.730  -8.258  18.675  1.00  0.00     0.055 A 
ATOM     95  C   UNL     1       9.947  -9.089  19.104  1.00  0.00     0.041 A 
ATOM     96  F   UNL     1      11.503  -9.218  17.356  1.00  0.00    -0.206 F 
ATOM     97  C   UNL     1       8.682  -8.746  19.574  1.00  0.00     0.022 A 
BRANCH  94  98
ATOM     98  S   UNL     1       6.120  -7.682  19.281  1.00  0.00     0.124 S 
ATOM     99  O   UNL     1       6.114  -6.287  18.852  1.00  0.00    -0.237 OA
ATOM    100  O   UNL     1       5.191  -8.567  18.586  1.00  0.00    -0.237 OA
ATOM    101  O   UNL     1       6.205  -7.885  20.726  1.00  0.00    -0.744 OA
ENDBRANCH  94  98
ENDBRANCH  68  91
ENDBRANCH  42  43
ENDBRANCH  34  37
ENDBRANCH  32  33
ENDBRANCH  31  32
ENDBRANCH   1  31
TORSDOF 19
