REMARK SMILES Cc1ccc(NC(=O)C[C@H]2SC[C@H](C(=O)NCCCNC(=O)c3ccc(-c4c5nc(c(-c6cc(S(=O)(=O)[O-])ccc6F)c6ccc([nH]6)c(-c6cc(S(=O)(=O)[O-])ccc6F)c6nc(c(-c7cc(S(=O)(=O)[O-])ccc7F)c7ccc4[nH]7)C=C6)C=C5)cc3)NC2=O)cc1
REMARK SMILES IDX 18 1 17 2 16 3 14 4 15 5 13 7 10 8 11 9 87 10 12 11 86 12
REMARK SMILES IDX 88 13 9 15 7 16 6 17 8 19 5 20 1 21 2 22 3 23 90 24 4 25
REMARK SMILES IDX 89 26 19 27 20 28 21 29 22 31 23 32 24 33 85 34 25 35 84 36
REMARK SMILES IDX 26 37 27 38 28 39 78 40 29 41 83 42 77 43 79 44 30 45 82 46
REMARK SMILES IDX 76 47 75 48 31 50 63 51 43 52 62 53 44 54 47 55 61 56 80 57
REMARK SMILES IDX 45 58 46 59 60 61 81 62 48 63 32 64 33 65 41 66 34 67 40 68
REMARK SMILES IDX 42 69 39 70 35 71 36 72 37 73 38 74 64 75 65 76 73 77 66 78
REMARK SMILES IDX 72 79 74 80 71 81 67 82 68 83 69 84 70 85 49 86 50 87 58 88
REMARK SMILES IDX 51 89 57 90 59 91 56 92 52 93 53 94 54 95 55 96
REMARK H PARENT 16 6 86 14 6 18 20 30 79 49 47 60
REMARK Flexibility Score: inf
ROOT
ATOM      1  C   UNL     1      -6.465  -3.026  -0.357  1.00  0.00     0.042 C 
ENDROOT
BRANCH   1   2
ATOM      2  C   UNL     1      -5.798  -4.265  -0.956  1.00  0.00     0.117 C 
BRANCH   2   3
ATOM      3  N   UNL     1      -6.244  -4.529  -2.317  1.00  0.00    -0.354 N 
ATOM      4  C   UNL     1      -5.673  -4.252  -3.524  1.00  0.00     0.243 C 
ATOM      5  O   UNL     1      -6.330  -4.436  -4.553  1.00  0.00    -0.273 OA
ATOM      6  H   UNL     1      -7.112  -4.991  -2.377  1.00  0.00     0.163 HD
BRANCH   4   7
ATOM      7  C   UNL     1      -4.258  -3.651  -3.627  1.00  0.00     0.181 C 
ATOM      8  C   UNL     1      -1.921  -2.750  -1.932  1.00  0.00     0.145 C 
ATOM      9  S   UNL     1      -2.570  -1.485  -3.105  1.00  0.00    -0.145 SA
ATOM     10  C   UNL     1      -2.018  -4.132  -2.588  1.00  0.00     0.234 C 
ATOM     11  C   UNL     1      -4.251  -2.174  -3.236  1.00  0.00     0.105 C 
ATOM     12  N   UNL     1      -3.273  -4.523  -2.981  1.00  0.00    -0.343 N 
ATOM     13  O   UNL     1      -1.087  -4.925  -2.695  1.00  0.00    -0.274 OA
ATOM     14  H   UNL     1      -3.530  -5.459  -2.818  1.00  0.00     0.164 HD
BRANCH   8  15
ATOM     15  C   UNL     1      -0.576  -2.295  -1.360  1.00  0.00     0.124 C 
BRANCH  15  16
ATOM     16  C   UNL     1       0.453  -3.345  -0.999  1.00  0.00     0.226 C 
ATOM     17  N   UNL     1       0.189  -4.415  -0.205  1.00  0.00    -0.326 N 
ATOM     18  H   UNL     1       0.923  -5.071  -0.180  1.00  0.00     0.169 HD
ATOM     19  O   UNL     1       1.605  -3.234  -1.438  1.00  0.00    -0.275 OA
BRANCH  17  20
ATOM     20  C   UNL     1      -0.906  -4.782   0.587  1.00  0.00     0.041 A 
ATOM     21  C   UNL     1      -4.263  -6.223   2.883  1.00  0.00     0.044 C 
ATOM     22  C   UNL     1      -3.071  -5.726   2.118  1.00  0.00    -0.051 A 
ATOM     23  C   UNL     1      -2.845  -4.352   1.968  1.00  0.00     0.005 A 
ATOM     24  C   UNL     1      -2.191  -6.625   1.513  1.00  0.00     0.005 A 
ATOM     25  C   UNL     1      -1.764  -3.882   1.211  1.00  0.00     0.026 A 
ATOM     26  C   UNL     1      -1.107  -6.155   0.771  1.00  0.00     0.026 A 
ENDBRANCH  17  20
ENDBRANCH  15  16
ENDBRANCH   8  15
ENDBRANCH   4   7
ENDBRANCH   2   3
ENDBRANCH   1   2
BRANCH   1  27
ATOM     27  C   UNL     1      -7.963  -3.178  -0.106  1.00  0.00     0.118 C 
BRANCH  27  28
ATOM     28  N   UNL     1      -8.314  -3.094   1.311  1.00  0.00    -0.352 N 
ATOM     29  C   UNL     1      -9.561  -2.916   1.884  1.00  0.00     0.251 C 
ATOM     30  H   UNL     1      -7.563  -3.176   1.942  1.00  0.00     0.163 HD
ATOM     31  O   UNL     1      -9.722  -2.898   3.095  1.00  0.00    -0.269 OA
BRANCH  29  32
ATOM     32  C   UNL     1     -10.732  -2.870   0.982  1.00  0.00     0.039 A 
ATOM     33  C   UNL     1     -11.649  -3.922   1.072  1.00  0.00     0.014 A 
ATOM     34  C   UNL     1     -10.767  -1.977  -0.085  1.00  0.00     0.014 A 
ATOM     35  C   UNL     1     -12.449  -4.218  -0.027  1.00  0.00     0.010 A 
ATOM     36  C   UNL     1     -11.503  -2.318  -1.207  1.00  0.00     0.010 A 
ATOM     37  C   UNL     1     -12.289  -3.478  -1.202  1.00  0.00    -0.014 A 
BRANCH  37  38
ATOM     38  C   UNL     1     -12.748  -3.979  -2.497  1.00  0.00     0.031 A 
ATOM     39  C   UNL     1     -13.906  -3.386  -3.193  1.00  0.00     0.074 A 
ATOM     40  C   UNL     1     -12.124  -5.035  -3.068  1.00  0.00     0.049 A 
ATOM     41  N   UNL     1     -14.724  -4.062  -3.932  1.00  0.00    -0.248 NA
ATOM     42  C   UNL     1     -14.254  -1.975  -3.084  1.00  0.00     0.031 C 
ATOM     43  C   UNL     1     -12.324  -5.556  -4.418  1.00  0.00     0.029 A 
ATOM     44  N   UNL     1     -11.356  -6.006  -2.430  1.00  0.00    -0.354 N 
ATOM     45  C   UNL     1     -15.517  -3.162  -4.600  1.00  0.00     0.074 A 
ATOM     46  C   UNL     1     -15.233  -1.881  -3.990  1.00  0.00     0.031 C 
ATOM     47  C   UNL     1     -11.940  -6.841  -4.445  1.00  0.00     0.029 A 
ATOM     48  C   UNL     1     -11.590  -7.224  -3.089  1.00  0.00     0.049 A 
ATOM     49  H   UNL     1     -10.761  -5.865  -1.659  1.00  0.00     0.167 HD
ATOM     50  C   UNL     1     -16.229  -3.546  -5.697  1.00  0.00     0.034 A 
ATOM     51  C   UNL     1     -12.058  -8.318  -2.424  1.00  0.00     0.034 A 
ATOM     52  C   UNL     1     -16.025  -4.950  -6.032  1.00  0.00     0.049 A 
ATOM     53  C   UNL     1     -13.370  -8.835  -2.965  1.00  0.00     0.074 A 
ATOM     54  C   UNL     1     -15.213  -5.577  -6.962  1.00  0.00     0.029 A 
ATOM     55  N   UNL     1     -16.502  -5.947  -5.189  1.00  0.00    -0.354 N 
ATOM     56  N   UNL     1     -14.150  -8.155  -3.759  1.00  0.00    -0.248 NA
ATOM     57  C   UNL     1     -13.919 -10.146  -2.632  1.00  0.00     0.031 C 
ATOM     58  C   UNL     1     -15.158  -6.956  -6.638  1.00  0.00     0.029 A 
ATOM     59  C   UNL     1     -15.960  -7.171  -5.531  1.00  0.00     0.049 A 
ATOM     60  H   UNL     1     -17.137  -5.801  -4.450  1.00  0.00     0.167 HD
ATOM     61  C   UNL     1     -15.284  -8.882  -4.021  1.00  0.00     0.074 A 
ATOM     62  C   UNL     1     -15.076 -10.134  -3.316  1.00  0.00     0.031 C 
ATOM     63  C   UNL     1     -16.299  -8.379  -4.789  1.00  0.00     0.034 A 
BRANCH  50  64
ATOM     64  C   UNL     1     -16.849  -2.542  -6.635  1.00  0.00     0.023 A 
ATOM     65  C   UNL     1     -16.790  -2.748  -8.028  1.00  0.00     0.031 A 
ATOM     66  C   UNL     1     -17.473  -1.353  -6.215  1.00  0.00     0.131 A 
ATOM     67  C   UNL     1     -17.230  -1.763  -8.930  1.00  0.00     0.055 A 
ATOM     68  C   UNL     1     -17.857  -0.345  -7.109  1.00  0.00     0.041 A 
ATOM     69  F   UNL     1     -17.744  -1.132  -4.919  1.00  0.00    -0.206 F 
ATOM     70  C   UNL     1     -17.721  -0.541  -8.477  1.00  0.00     0.022 A 
BRANCH  67  71
ATOM     71  S   UNL     1     -17.155  -2.102 -10.712  1.00  0.00     0.124 S 
ATOM     72  O   UNL     1     -15.742  -2.407 -10.913  1.00  0.00    -0.237 OA
ATOM     73  O   UNL     1     -18.083  -3.219 -10.851  1.00  0.00    -0.237 OA
ATOM     74  O   UNL     1     -17.606  -0.848 -11.315  1.00  0.00    -0.744 OA
ENDBRANCH  67  71
ENDBRANCH  50  64
BRANCH  51  75
ATOM     75  C   UNL     1     -11.612  -8.387  -1.004  1.00  0.00     0.023 A 
ATOM     76  C   UNL     1     -10.220  -8.367  -0.771  1.00  0.00     0.031 A 
ATOM     77  C   UNL     1     -12.459  -8.087   0.069  1.00  0.00     0.131 A 
ATOM     78  C   UNL     1      -9.710  -7.879   0.439  1.00  0.00     0.055 A 
ATOM     79  C   UNL     1     -11.944  -7.682   1.308  1.00  0.00     0.041 A 
ATOM     80  F   UNL     1     -13.790  -8.059  -0.096  1.00  0.00    -0.206 F 
ATOM     81  C   UNL     1     -10.566  -7.530   1.483  1.00  0.00     0.022 A 
BRANCH  78  82
ATOM     82  S   UNL     1      -7.955  -7.410   0.498  1.00  0.00     0.124 S 
ATOM     83  O   UNL     1      -7.311  -8.648   0.917  1.00  0.00    -0.237 OA
ATOM     84  O   UNL     1      -7.692  -6.982  -0.877  1.00  0.00    -0.237 OA
ATOM     85  O   UNL     1      -7.911  -6.318   1.469  1.00  0.00    -0.744 OA
ENDBRANCH  78  82
ENDBRANCH  51  75
BRANCH  63  86
ATOM     86  C   UNL     1     -17.656  -9.019  -4.998  1.00  0.00     0.023 A 
ATOM     87  C   UNL     1     -18.186 -10.005  -4.152  1.00  0.00     0.031 A 
ATOM     88  C   UNL     1     -18.509  -8.592  -6.046  1.00  0.00     0.131 A 
ATOM     89  C   UNL     1     -19.441 -10.589  -4.408  1.00  0.00     0.055 A 
ATOM     90  C   UNL     1     -19.789  -9.118  -6.252  1.00  0.00     0.041 A 
ATOM     91  F   UNL     1     -18.139  -7.640  -6.915  1.00  0.00    -0.206 F 
ATOM     92  C   UNL     1     -20.256 -10.138  -5.441  1.00  0.00     0.022 A 
BRANCH  89  93
ATOM     93  S   UNL     1     -19.953 -12.001  -3.393  1.00  0.00     0.124 S 
ATOM     94  O   UNL     1     -18.927 -12.989  -3.715  1.00  0.00    -0.237 OA
ATOM     95  O   UNL     1     -19.901 -11.451  -2.042  1.00  0.00    -0.237 OA
ATOM     96  O   UNL     1     -21.292 -12.314  -3.886  1.00  0.00    -0.744 OA
ENDBRANCH  89  93
ENDBRANCH  63  86
ENDBRANCH  37  38
ENDBRANCH  29  32
ENDBRANCH  27  28
ENDBRANCH   1  27
TORSDOF 16
