REMARK SMILES O=C(NCCCNC(=O)c1ccc(O[C@@H]2CCCCNC2=O)cn1)c1ccc(-c2c3nc(c(-c4cc(S(=O)(=O)[O-])ccc4F)c4ccc([nH]4)c(-c4cc(S(=O)(=O)[O-])ccc4F)c4nc(c(-c5cc(S(=O)(=O)[O-])ccc5F)c5ccc2[nH]5)C=C4)C=C3)cc1
REMARK SMILES IDX 6 1 5 2 4 3 3 4 1 5 2 6 25 8 26 9 87 10 27 11 86 12 28 13
REMARK SMILES IDX 29 14 30 15 80 16 31 17 85 18 79 19 81 20 32 21 84 22 78 23
REMARK SMILES IDX 77 24 33 26 65 27 45 28 64 29 46 30 49 31 63 32 82 33 47 34
REMARK SMILES IDX 48 35 62 37 83 38 50 39 34 40 35 41 43 42 36 43 42 44 44 45
REMARK SMILES IDX 41 46 37 47 38 48 39 49 40 50 66 51 67 52 75 53 68 54 74 55
REMARK SMILES IDX 76 56 73 57 69 58 70 59 71 60 72 61 51 62 52 63 60 64 53 65
REMARK SMILES IDX 59 66 61 67 58 68 54 69 55 70 56 71 57 72 7 73 8 74 9 76
REMARK SMILES IDX 10 77 11 78 24 79 12 80 23 81 13 82 14 83 15 84 16 85 17 86
REMARK SMILES IDX 18 87 21 89 20 90 22 91 19 93
REMARK H PARENT 3 7 81 25 49 36 7 75 20 92
REMARK Flexibility Score: 90.00
ROOT
ATOM      1  C   UNL     1       1.931   1.611  14.882  1.00  0.00     0.118 C 
ENDROOT
BRANCH   1   2
ATOM      2  C   UNL     1       1.210   0.554  15.707  1.00  0.00     0.042 C 
BRANCH   2   3
ATOM      3  C   UNL     1       0.183   1.120  16.680  1.00  0.00     0.118 C 
BRANCH   3   4
ATOM      4  N   UNL     1      -0.986   1.674  16.012  1.00  0.00    -0.352 N 
ATOM      5  O   UNL     1      -3.142   1.831  15.394  1.00  0.00    -0.269 OA
ATOM      6  C   UNL     1      -2.313   1.347  16.162  1.00  0.00     0.251 C 
ATOM      7  H   UNL     1      -0.800   2.385  15.357  1.00  0.00     0.163 HD
BRANCH   6   8
ATOM      8  C   UNL     1      -2.740   0.403  17.220  1.00  0.00     0.039 A 
ATOM      9  C   UNL     1      -2.227   0.485  18.518  1.00  0.00     0.014 A 
ATOM     10  C   UNL     1      -3.687  -0.575  16.907  1.00  0.00     0.014 A 
ATOM     11  C   UNL     1      -2.555  -0.487  19.460  1.00  0.00     0.010 A 
ATOM     12  C   UNL     1      -4.077  -1.501  17.878  1.00  0.00     0.010 A 
ATOM     13  C   UNL     1      -3.493  -1.484  19.155  1.00  0.00    -0.014 A 
BRANCH  13  14
ATOM     14  C   UNL     1      -3.893  -2.483  20.180  1.00  0.00     0.031 A 
ATOM     15  C   UNL     1      -3.620  -3.946  19.970  1.00  0.00     0.074 A 
ATOM     16  C   UNL     1      -4.539  -2.073  21.288  1.00  0.00     0.049 A 
ATOM     17  N   UNL     1      -3.998  -4.972  20.689  1.00  0.00    -0.248 NA
ATOM     18  C   UNL     1      -2.831  -4.299  18.782  1.00  0.00     0.031 C 
ATOM     19  C   UNL     1      -4.851  -0.679  21.610  1.00  0.00     0.029 A 
ATOM     20  N   UNL     1      -5.065  -2.783  22.338  1.00  0.00    -0.354 N 
ATOM     21  C   UNL     1      -3.513  -6.098  20.032  1.00  0.00     0.074 A 
ATOM     22  C   UNL     1      -2.848  -5.623  18.834  1.00  0.00     0.031 C 
ATOM     23  C   UNL     1      -5.512  -0.636  22.776  1.00  0.00     0.029 A 
ATOM     24  C   UNL     1      -5.738  -1.999  23.245  1.00  0.00     0.049 A 
ATOM     25  H   UNL     1      -4.970  -3.759  22.432  1.00  0.00     0.167 HD
ATOM     26  C   UNL     1      -3.611  -7.402  20.398  1.00  0.00     0.034 A 
ATOM     27  C   UNL     1      -6.497  -2.334  24.307  1.00  0.00     0.034 A 
ATOM     28  C   UNL     1      -4.292  -7.849  21.591  1.00  0.00     0.049 A 
ATOM     29  C   UNL     1      -6.665  -3.788  24.657  1.00  0.00     0.074 A 
ATOM     30  C   UNL     1      -4.420  -9.139  22.079  1.00  0.00     0.029 A 
ATOM     31  N   UNL     1      -4.982  -7.025  22.474  1.00  0.00    -0.354 N 
ATOM     32  N   UNL     1      -6.188  -4.843  24.038  1.00  0.00    -0.248 NA
ATOM     33  C   UNL     1      -7.465  -4.098  25.848  1.00  0.00     0.031 C 
ATOM     34  C   UNL     1      -5.262  -9.105  23.196  1.00  0.00     0.029 A 
ATOM     35  C   UNL     1      -5.575  -7.783  23.473  1.00  0.00     0.049 A 
ATOM     36  H   UNL     1      -5.042  -6.045  22.400  1.00  0.00     0.167 HD
ATOM     37  C   UNL     1      -6.604  -5.942  24.785  1.00  0.00     0.074 A 
ATOM     38  C   UNL     1      -7.374  -5.421  25.896  1.00  0.00     0.031 C 
ATOM     39  C   UNL     1      -6.351  -7.259  24.576  1.00  0.00     0.034 A 
BRANCH  26  40
ATOM     40  C   UNL     1      -3.022  -8.433  19.460  1.00  0.00     0.023 A 
ATOM     41  C   UNL     1      -1.657  -8.436  19.122  1.00  0.00     0.031 A 
ATOM     42  C   UNL     1      -3.848  -9.392  18.846  1.00  0.00     0.131 A 
ATOM     43  C   UNL     1      -1.184  -9.298  18.121  1.00  0.00     0.055 A 
ATOM     44  C   UNL     1      -3.350 -10.317  17.926  1.00  0.00     0.041 A 
ATOM     45  F   UNL     1      -5.164  -9.431  19.109  1.00  0.00    -0.206 F 
ATOM     46  C   UNL     1      -2.015 -10.258  17.540  1.00  0.00     0.022 A 
BRANCH  43  47
ATOM     47  S   UNL     1       0.474  -9.003  17.444  1.00  0.00     0.124 S 
ATOM     48  O   UNL     1       0.388  -7.597  17.055  1.00  0.00    -0.237 OA
ATOM     49  O   UNL     1       1.335  -9.301  18.582  1.00  0.00    -0.237 OA
ATOM     50  O   UNL     1       0.561  -9.944  16.329  1.00  0.00    -0.744 OA
ENDBRANCH  43  47
ENDBRANCH  26  40
BRANCH  27  51
ATOM     51  C   UNL     1      -7.196  -1.263  25.072  1.00  0.00     0.023 A 
ATOM     52  C   UNL     1      -6.848  -0.964  26.397  1.00  0.00     0.031 A 
ATOM     53  C   UNL     1      -8.213  -0.502  24.465  1.00  0.00     0.131 A 
ATOM     54  C   UNL     1      -7.526   0.057  27.080  1.00  0.00     0.055 A 
ATOM     55  C   UNL     1      -8.848   0.546  25.132  1.00  0.00     0.041 A 
ATOM     56  F   UNL     1      -8.578  -0.745  23.196  1.00  0.00    -0.206 F 
ATOM     57  C   UNL     1      -8.509   0.826  26.451  1.00  0.00     0.022 A 
BRANCH  54  58
ATOM     58  S   UNL     1      -7.140   0.339  28.829  1.00  0.00     0.124 S 
ATOM     59  O   UNL     1      -7.487  -0.948  29.420  1.00  0.00    -0.237 OA
ATOM     60  O   UNL     1      -5.718   0.661  28.779  1.00  0.00    -0.237 OA
ATOM     61  O   UNL     1      -8.015   1.451  29.196  1.00  0.00    -0.744 OA
ENDBRANCH  54  58
ENDBRANCH  27  51
BRANCH  39  62
ATOM     62  C   UNL     1      -6.852  -8.240  25.609  1.00  0.00     0.023 A 
ATOM     63  C   UNL     1      -8.219  -8.514  25.787  1.00  0.00     0.031 A 
ATOM     64  C   UNL     1      -5.927  -8.946  26.401  1.00  0.00     0.131 A 
ATOM     65  C   UNL     1      -8.622  -9.452  26.752  1.00  0.00     0.055 A 
ATOM     66  C   UNL     1      -6.330  -9.916  27.318  1.00  0.00     0.041 A 
ATOM     67  F   UNL     1      -4.609  -8.717  26.278  1.00  0.00    -0.206 F 
ATOM     68  C   UNL     1      -7.685 -10.170  27.502  1.00  0.00     0.022 A 
BRANCH  65  69
ATOM     69  S   UNL     1     -10.394  -9.689  27.062  1.00  0.00     0.124 S 
ATOM     70  O   UNL     1     -10.805  -8.358  27.497  1.00  0.00    -0.237 OA
ATOM     71  O   UNL     1     -10.887 -10.114  25.757  1.00  0.00    -0.237 OA
ATOM     72  O   UNL     1     -10.427 -10.717  28.101  1.00  0.00    -0.744 OA
ENDBRANCH  65  69
ENDBRANCH  39  62
ENDBRANCH  13  14
ENDBRANCH   6   8
ENDBRANCH   3   4
ENDBRANCH   2   3
ENDBRANCH   1   2
BRANCH   1  73
ATOM     73  N   UNL     1       2.718   2.508  15.719  1.00  0.00    -0.351 N 
ATOM     74  C   UNL     1       4.087   2.657  15.754  1.00  0.00     0.269 C 
ATOM     75  H   UNL     1       2.207   3.079  16.337  1.00  0.00     0.163 HD
ATOM     76  O   UNL     1       4.615   3.352  16.621  1.00  0.00    -0.268 OA
BRANCH  74  77
ATOM     77  C   UNL     1       4.883   2.085  14.644  1.00  0.00     0.128 A 
ATOM     78  C   UNL     1       4.699   2.644  13.391  1.00  0.00     0.038 A 
ATOM     79  N   UNL     1       5.710   1.042  14.894  1.00  0.00    -0.247 NA
ATOM     80  C   UNL     1       5.369   2.069  12.324  1.00  0.00     0.050 A 
ATOM     81  C   UNL     1       6.322   0.493  13.811  1.00  0.00     0.158 A 
ATOM     82  C   UNL     1       6.117   0.918  12.502  1.00  0.00     0.138 A 
BRANCH  82  83
ATOM     83  O   UNL     1       6.776   0.334  11.474  1.00  0.00    -0.479 OA
BRANCH  83  84
ATOM     84  C   UNL     1       6.042  -0.262  10.403  1.00  0.00     0.262 C 
BRANCH  84  85
ATOM     85  C   UNL     1       5.704   0.647   9.204  1.00  0.00     0.055 C 
BRANCH  85  86
ATOM     86  C   UNL     1       4.464   1.543   9.164  1.00  0.00     0.006 C 
BRANCH  86  87
ATOM     87  C   UNL     1       3.116   1.079   9.715  1.00  0.00     0.021 CG0
ATOM     88  G   UNL     1       3.058   0.076  10.852  1.00  0.00     0.000 G0
ENDBRANCH  86  87
ENDBRANCH  85  86
ENDBRANCH  84  85
BRANCH  84  89
ATOM     89  C   UNL     1       5.035  -1.426  10.558  1.00  0.00     0.261 C 
ATOM     90  N   UNL     1       3.698  -1.177  10.580  1.00  0.00    -0.353 N 
ATOM     91  O   UNL     1       5.408  -2.601  10.581  1.00  0.00    -0.271 OA
ATOM     92  H   UNL     1       3.106  -1.940  10.388  1.00  0.00     0.163 HD
BRANCH  90  93
ATOM     93  C   UNL     1       3.058   0.076  10.852  1.00  0.00     0.116 CG0
ATOM     94  G   UNL     1       3.116   1.079   9.715  1.00  0.00     0.000 G0
ENDBRANCH  90  93
ENDBRANCH  84  89
ENDBRANCH  83  84
ENDBRANCH  82  83
ENDBRANCH  74  77
ENDBRANCH   1  73
TORSDOF 15
