REMARK SMILES CC1(C)CCCN(c2cncc(C(=O)NCCCNC(=O)c3ccc(-c4c5nc(c(-c6cc(S(=O)(=O)[O-])ccc6F)c6ccc([nH]6)c(-c6cc(S(=O)(=O)[O-])ccc6F)c6nc(c(-c7cc(S(=O)(=O)[O-])ccc7F)c7ccc4[nH]7)C=C6)C=C5)cc3)n2)CC1
REMARK SMILES IDX 16 1 15 2 13 3 14 4 12 6 8 7 9 8 85 9 10 10 11 11 7 12 86 13
REMARK SMILES IDX 87 14 2 15 1 16 3 17 4 18 6 20 5 21 17 23 18 24 19 25 20 26
REMARK SMILES IDX 21 28 22 29 23 30 84 31 24 32 83 33 25 34 26 35 27 36 77 37
REMARK SMILES IDX 28 38 82 39 76 40 78 41 29 42 81 43 75 44 74 45 30 47 62 48
REMARK SMILES IDX 42 49 61 50 43 51 46 52 60 53 79 54 44 55 45 56 59 58 80 59
REMARK SMILES IDX 47 60 31 61 32 62 40 63 33 64 39 65 41 66 38 67 34 68 35 69
REMARK SMILES IDX 36 70 37 71 63 72 64 73 72 74 65 75 71 76 73 77 70 78 66 79
REMARK SMILES IDX 67 80 68 81 69 82 48 83 49 84 57 85 50 86 56 87 58 88 55 89
REMARK SMILES IDX 51 90 52 91 53 92 54 93
REMARK H PARENT 15 5 19 27 78 46 46 57
REMARK Flexibility Score: 80.00
ROOT
ATOM      1  C   UNL     1      -5.961   0.383   2.878  1.00  0.00     0.118 C 
ENDROOT
BRANCH   1   2
ATOM      2  N   UNL     1      -6.628  -0.227   4.018  1.00  0.00    -0.351 N 
ATOM      3  C   UNL     1      -6.133  -0.834   5.149  1.00  0.00     0.271 C 
ATOM      4  O   UNL     1      -6.951  -1.270   5.963  1.00  0.00    -0.267 OA
ATOM      5  H   UNL     1      -7.611  -0.201   3.971  1.00  0.00     0.163 HD
BRANCH   3   6
ATOM      6  C   UNL     1      -4.677  -0.988   5.435  1.00  0.00     0.148 A 
ATOM      7  C   UNL     1      -2.461  -0.683   4.856  1.00  0.00     0.148 A 
ATOM      8  C   UNL     1      -2.100  -1.371   6.019  1.00  0.00     0.157 A 
ATOM      9  N   UNL     1      -3.764  -0.484   4.569  1.00  0.00    -0.222 NA
ATOM     10  N   UNL     1      -2.991  -1.863   6.916  1.00  0.00    -0.258 NA
ATOM     11  C   UNL     1      -4.291  -1.657   6.589  1.00  0.00     0.145 A 
BRANCH   7  12
ATOM     12  N   UNL     1      -1.493  -0.231   3.955  1.00  0.00    -0.355 N 
BRANCH  12  13
ATOM     13  C   UNL     1      -0.872  -1.313   3.193  1.00  0.00     0.118 C 
BRANCH  13  14
ATOM     14  C   UNL     1      -0.524  -0.987   1.737  1.00  0.00     0.028 C 
BRANCH  14  15
ATOM     15  C   UNL     1       0.616   0.031   1.485  1.00  0.00    -0.034 C 
ATOM     16  C   UNL     1       1.021  -0.075  -0.008  1.00  0.00     0.011 C 
ATOM     17  C   UNL     1       1.861  -0.299   2.328  1.00  0.00     0.011 C 
BRANCH  15  18
ATOM     18  C   UNL     1       0.160   1.488   1.728  1.00  0.00     0.008 CG0
ATOM     19  G   UNL     1      -0.438   1.807   3.096  1.00  0.00     0.000 G0
ENDBRANCH  15  18
ENDBRANCH  14  15
ENDBRANCH  13  14
ENDBRANCH  12  13
BRANCH  12  20
ATOM     20  C   UNL     1      -1.752   1.079   3.373  1.00  0.00     0.118 C 
BRANCH  20  21
ATOM     21  C   UNL     1      -0.438   1.807   3.096  1.00  0.00     0.022 CG0
ATOM     22  G   UNL     1       0.160   1.488   1.728  1.00  0.00     0.000 G0
ENDBRANCH  20  21
ENDBRANCH  12  20
ENDBRANCH   7  12
ENDBRANCH   3   6
ENDBRANCH   1   2
BRANCH   1  23
ATOM     23  C   UNL     1      -6.028  -0.497   1.634  1.00  0.00     0.042 C 
BRANCH  23  24
ATOM     24  C   UNL     1      -7.424  -0.564   1.016  1.00  0.00     0.118 C 
BRANCH  24  25
ATOM     25  N   UNL     1      -7.892   0.743   0.563  1.00  0.00    -0.352 N 
ATOM     26  C   UNL     1      -8.209   1.185  -0.696  1.00  0.00     0.251 C 
ATOM     27  H   UNL     1      -7.998   1.413   1.276  1.00  0.00     0.163 HD
ATOM     28  O   UNL     1      -8.349   2.393  -0.891  1.00  0.00    -0.269 OA
BRANCH  26  29
ATOM     29  C   UNL     1      -8.368   0.228  -1.808  1.00  0.00     0.039 A 
ATOM     30  C   UNL     1      -7.860   0.555  -3.068  1.00  0.00     0.014 A 
ATOM     31  C   UNL     1      -9.038  -0.983  -1.617  1.00  0.00     0.014 A 
ATOM     32  C   UNL     1      -7.958  -0.365  -4.115  1.00  0.00     0.010 A 
ATOM     33  C   UNL     1      -9.061  -1.930  -2.636  1.00  0.00     0.010 A 
ATOM     34  C   UNL     1      -8.521  -1.632  -3.896  1.00  0.00    -0.014 A 
BRANCH  34  35
ATOM     35  C   UNL     1      -8.559  -2.666  -4.964  1.00  0.00     0.031 A 
ATOM     36  C   UNL     1      -9.881  -3.189  -5.455  1.00  0.00     0.074 A 
ATOM     37  C   UNL     1      -7.407  -3.188  -5.429  1.00  0.00     0.049 A 
ATOM     38  N   UNL     1     -10.127  -4.174  -6.279  1.00  0.00    -0.248 NA
ATOM     39  C   UNL     1     -11.086  -2.537  -4.920  1.00  0.00     0.031 C 
ATOM     40  C   UNL     1      -6.064  -2.780  -5.009  1.00  0.00     0.029 A 
ATOM     41  N   UNL     1      -7.177  -4.185  -6.344  1.00  0.00    -0.354 N 
ATOM     42  C   UNL     1     -11.513  -4.272  -6.350  1.00  0.00     0.074 A 
ATOM     43  C   UNL     1     -12.049  -3.285  -5.436  1.00  0.00     0.031 C 
ATOM     44  C   UNL     1      -5.154  -3.505  -5.680  1.00  0.00     0.029 A 
ATOM     45  C   UNL     1      -5.843  -4.469  -6.531  1.00  0.00     0.049 A 
ATOM     46  H   UNL     1      -7.899  -4.654  -6.822  1.00  0.00     0.167 HD
ATOM     47  C   UNL     1     -12.267  -5.094  -7.121  1.00  0.00     0.034 A 
ATOM     48  C   UNL     1      -5.243  -5.413  -7.283  1.00  0.00     0.034 A 
ATOM     49  C   UNL     1     -11.712  -6.066  -8.032  1.00  0.00     0.049 A 
ATOM     50  C   UNL     1      -6.103  -6.348  -8.099  1.00  0.00     0.074 A 
ATOM     51  C   UNL     1     -12.381  -6.918  -8.894  1.00  0.00     0.029 A 
ATOM     52  N   UNL     1     -10.357  -6.325  -8.193  1.00  0.00    -0.354 N 
ATOM     53  N   UNL     1      -7.412  -6.403  -8.183  1.00  0.00    -0.248 NA
ATOM     54  C   UNL     1      -5.405  -7.339  -8.927  1.00  0.00     0.031 C 
ATOM     55  C   UNL     1     -11.438  -7.743  -9.514  1.00  0.00     0.029 A 
ATOM     56  C   UNL     1     -10.172  -7.345  -9.114  1.00  0.00     0.049 A 
ATOM     57  H   UNL     1      -9.632  -5.853  -7.721  1.00  0.00     0.167 HD
ATOM     58  C   UNL     1      -7.691  -7.407  -9.107  1.00  0.00     0.074 A 
ATOM     59  C   UNL     1      -6.415  -7.925  -9.553  1.00  0.00     0.031 C 
ATOM     60  C   UNL     1      -8.893  -7.853  -9.552  1.00  0.00     0.034 A 
BRANCH  47  61
ATOM     61  C   UNL     1     -13.769  -4.995  -6.987  1.00  0.00     0.023 A 
ATOM     62  C   UNL     1     -14.463  -3.811  -7.296  1.00  0.00     0.031 A 
ATOM     63  C   UNL     1     -14.517  -6.091  -6.523  1.00  0.00     0.131 A 
ATOM     64  C   UNL     1     -15.844  -3.727  -7.063  1.00  0.00     0.055 A 
ATOM     65  C   UNL     1     -15.905  -6.029  -6.379  1.00  0.00     0.041 A 
ATOM     66  F   UNL     1     -13.911  -7.242  -6.190  1.00  0.00    -0.206 F 
ATOM     67  C   UNL     1     -16.575  -4.837  -6.633  1.00  0.00     0.022 A 
BRANCH  64  68
ATOM     68  S   UNL     1     -16.643  -2.103  -7.182  1.00  0.00     0.124 S 
ATOM     69  O   UNL     1     -15.883  -1.329  -6.203  1.00  0.00    -0.237 OA
ATOM     70  O   UNL     1     -16.432  -1.749  -8.580  1.00  0.00    -0.237 OA
ATOM     71  O   UNL     1     -18.029  -2.375  -6.808  1.00  0.00    -0.744 OA
ENDBRANCH  64  68
ENDBRANCH  47  61
BRANCH  48  72
ATOM     72  C   UNL     1      -3.756  -5.541  -7.293  1.00  0.00     0.023 A 
ATOM     73  C   UNL     1      -3.021  -5.334  -8.471  1.00  0.00     0.031 A 
ATOM     74  C   UNL     1      -3.051  -5.916  -6.135  1.00  0.00     0.131 A 
ATOM     75  C   UNL     1      -1.635  -5.553  -8.479  1.00  0.00     0.055 A 
ATOM     76  C   UNL     1      -1.664  -6.072  -6.133  1.00  0.00     0.041 A 
ATOM     77  F   UNL     1      -3.703  -6.124  -4.980  1.00  0.00    -0.206 F 
ATOM     78  C   UNL     1      -0.949  -5.905  -7.315  1.00  0.00     0.022 A 
BRANCH  75  79
ATOM     79  S   UNL     1      -0.752  -5.467 -10.061  1.00  0.00     0.124 S 
ATOM     80  O   UNL     1      -1.460  -6.468 -10.850  1.00  0.00    -0.237 OA
ATOM     81  O   UNL     1      -0.962  -4.076 -10.449  1.00  0.00    -0.237 OA
ATOM     82  O   UNL     1       0.622  -5.811  -9.702  1.00  0.00    -0.744 OA
ENDBRANCH  75  79
ENDBRANCH  48  72
BRANCH  60  83
ATOM     83  C   UNL     1      -8.884  -8.910 -10.631  1.00  0.00     0.023 A 
ATOM     84  C   UNL     1      -8.410 -10.213 -10.399  1.00  0.00     0.031 A 
ATOM     85  C   UNL     1      -9.370  -8.603 -11.915  1.00  0.00     0.131 A 
ATOM     86  C   UNL     1      -8.387 -11.145 -11.448  1.00  0.00     0.055 A 
ATOM     87  C   UNL     1      -9.406  -9.553 -12.936  1.00  0.00     0.041 A 
ATOM     88  F   UNL     1      -9.831  -7.373 -12.195  1.00  0.00    -0.206 F 
ATOM     89  C   UNL     1      -8.902 -10.829 -12.709  1.00  0.00     0.022 A 
BRANCH  86  90
ATOM     90  S   UNL     1      -7.596 -12.753 -11.171  1.00  0.00     0.124 S 
ATOM     91  O   UNL     1      -6.240 -12.363 -10.798  1.00  0.00    -0.237 OA
ATOM     92  O   UNL     1      -8.411 -13.323 -10.103  1.00  0.00    -0.237 OA
ATOM     93  O   UNL     1      -7.715 -13.422 -12.465  1.00  0.00    -0.744 OA
ENDBRANCH  86  90
ENDBRANCH  60  83
ENDBRANCH  34  35
ENDBRANCH  26  29
ENDBRANCH  24  25
ENDBRANCH  23  24
ENDBRANCH   1  23
TORSDOF 14
