REMARK SMILES O=C(CS[C@H](C(=O)Nc1ccc(C(F)(F)F)cc1)c1ccccc1)NCCCNC(=O)c1ccc(-c2c3nc(c(-c4cc(S(=O)(=O)[O-])ccc4F)c4ccc([nH]4)c(-c4cc(S(=O)(=O)[O-])ccc4F)c4nc(c(-c5cc(S(=O)(=O)[O-])ccc5F)c5ccc2[nH]5)C=C4)C=C3)cc1
REMARK SMILES IDX 26 1 25 2 1 3 2 4 3 6 4 7 5 8 19 9 20 10 24 11 21 12 23 13
REMARK SMILES IDX 22 14 6 15 7 16 8 17 9 19 10 20 18 21 11 22 17 23 12 24
REMARK SMILES IDX 13 25 14 26 15 27 16 28 27 29 28 30 29 31 30 32 31 34 32 35
REMARK SMILES IDX 33 36 94 37 34 38 93 39 35 40 36 41 37 42 87 43 38 44 92 45
REMARK SMILES IDX 86 46 88 47 39 48 91 49 85 50 84 51 40 53 72 54 52 55 71 56
REMARK SMILES IDX 53 57 56 58 70 59 89 60 54 61 55 62 69 64 90 65 57 66 41 67
REMARK SMILES IDX 42 68 50 69 43 70 49 71 51 72 48 73 44 74 45 75 46 76 47 77
REMARK SMILES IDX 73 78 74 79 82 80 75 81 81 82 83 83 80 84 76 85 77 86 78 87
REMARK SMILES IDX 79 88 58 89 59 90 67 91 60 92 66 93 68 94 65 95 61 96 62 97
REMARK SMILES IDX 63 98 64 99
REMARK H PARENT 25 5 8 18 29 33 88 52 56 63
REMARK Flexibility Score: inf
ROOT
ATOM      1  C   UNL     1      -0.542   0.764  -0.304  1.00  0.00     0.117 C 
ENDROOT
BRANCH   1   2
ATOM      2  N   UNL     1       0.362  -0.364  -0.142  1.00  0.00    -0.355 N 
ATOM      3  O   UNL     1      -0.977  -1.811  -1.306  1.00  0.00    -0.274 OA
ATOM      4  C   UNL     1       0.080  -1.589  -0.719  1.00  0.00     0.230 C 
ATOM      5  H   UNL     1       1.186  -0.255   0.386  1.00  0.00     0.163 HD
BRANCH   4   6
ATOM      6  C   UNL     1       1.169  -2.638  -0.560  1.00  0.00     0.170 C 
BRANCH   6   7
ATOM      7  S   UNL     1       1.745  -3.318  -2.155  1.00  0.00    -0.134 SA
BRANCH   7   8
ATOM      8  C   UNL     1       2.877  -1.984  -2.810  1.00  0.00     0.166 C 
BRANCH   8   9
ATOM      9  C   UNL     1       2.245  -1.077  -3.867  1.00  0.00    -0.026 A 
ATOM     10  C   UNL     1       3.067  -0.371  -4.770  1.00  0.00     0.005 A 
ATOM     11  C   UNL     1       0.855  -0.900  -4.009  1.00  0.00     0.005 A 
ATOM     12  C   UNL     1       2.528   0.553  -5.677  1.00  0.00     0.000 A 
ATOM     13  C   UNL     1       0.315   0.019  -4.913  1.00  0.00     0.000 A 
ATOM     14  C   UNL     1       1.153   0.764  -5.732  1.00  0.00     0.000 A 
ENDBRANCH   8   9
BRANCH   8  15
ATOM     15  C   UNL     1       3.845  -1.479  -1.694  1.00  0.00     0.242 C 
ATOM     16  O   UNL     1       4.331  -2.309  -0.903  1.00  0.00    -0.273 OA
ATOM     17  N   UNL     1       4.357  -0.225  -1.536  1.00  0.00    -0.325 N 
ATOM     18  H   UNL     1       5.163  -0.199  -0.971  1.00  0.00     0.169 HD
BRANCH  17  19
ATOM     19  C   UNL     1       3.974   1.029  -2.011  1.00  0.00     0.041 A 
ATOM     20  C   UNL     1       4.960   1.984  -2.270  1.00  0.00     0.027 A 
ATOM     21  C   UNL     1       2.649   1.355  -2.239  1.00  0.00     0.027 A 
ATOM     22  C   UNL     1       4.631   3.158  -2.960  1.00  0.00     0.015 A 
ATOM     23  C   UNL     1       2.319   2.507  -2.945  1.00  0.00     0.015 A 
ATOM     24  C   UNL     1       3.311   3.394  -3.366  1.00  0.00     0.056 A 
BRANCH  24  25
ATOM     25  C   UNL     1       2.965   4.533  -4.296  1.00  0.00     0.416 C 
ATOM     26  F   UNL     1       3.288   5.761  -3.815  1.00  0.00    -0.166 F 
ATOM     27  F   UNL     1       3.637   4.414  -5.482  1.00  0.00    -0.166 F 
ATOM     28  F   UNL     1       1.647   4.576  -4.647  1.00  0.00    -0.166 F 
ENDBRANCH  24  25
ENDBRANCH  17  19
ENDBRANCH   8  15
ENDBRANCH   7   8
ENDBRANCH   6   7
ENDBRANCH   4   6
ENDBRANCH   1   2
BRANCH   1  29
ATOM     29  C   UNL     1      -0.427   1.807   0.806  1.00  0.00     0.042 C 
BRANCH  29  30
ATOM     30  C   UNL     1       0.839   2.659   0.751  1.00  0.00     0.118 C 
BRANCH  30  31
ATOM     31  N   UNL     1       0.844   3.587  -0.362  1.00  0.00    -0.352 N 
ATOM     32  C   UNL     1       1.645   4.661  -0.661  1.00  0.00     0.251 C 
ATOM     33  H   UNL     1       0.140   3.416  -1.029  1.00  0.00     0.163 HD
ATOM     34  O   UNL     1       1.392   5.261  -1.709  1.00  0.00    -0.269 OA
BRANCH  32  35
ATOM     35  C   UNL     1       2.722   5.169   0.231  1.00  0.00     0.039 A 
ATOM     36  C   UNL     1       3.087   6.513   0.061  1.00  0.00     0.014 A 
ATOM     37  C   UNL     1       3.314   4.436   1.261  1.00  0.00     0.014 A 
ATOM     38  C   UNL     1       3.881   7.154   1.008  1.00  0.00     0.010 A 
ATOM     39  C   UNL     1       4.051   5.088   2.251  1.00  0.00     0.010 A 
ATOM     40  C   UNL     1       4.273   6.466   2.162  1.00  0.00    -0.014 A 
BRANCH  40  41
ATOM     41  C   UNL     1       4.731   7.231   3.344  1.00  0.00     0.031 A 
ATOM     42  C   UNL     1       6.149   7.157   3.808  1.00  0.00     0.074 A 
ATOM     43  C   UNL     1       3.808   7.973   3.990  1.00  0.00     0.049 A 
ATOM     44  N   UNL     1       6.726   7.791   4.792  1.00  0.00    -0.248 NA
ATOM     45  C   UNL     1       7.028   6.230   3.083  1.00  0.00     0.031 C 
ATOM     46  C   UNL     1       2.388   8.045   3.622  1.00  0.00     0.029 A 
ATOM     47  N   UNL     1       3.908   8.819   5.062  1.00  0.00    -0.354 N 
ATOM     48  C   UNL     1       8.044   7.349   4.806  1.00  0.00     0.074 A 
ATOM     49  C   UNL     1       8.159   6.350   3.763  1.00  0.00     0.031 C 
ATOM     50  C   UNL     1       1.768   8.934   4.411  1.00  0.00     0.029 A 
ATOM     51  C   UNL     1       2.727   9.459   5.372  1.00  0.00     0.049 A 
ATOM     52  H   UNL     1       4.743   8.956   5.564  1.00  0.00     0.167 HD
ATOM     53  C   UNL     1       9.056   7.756   5.613  1.00  0.00     0.034 A 
ATOM     54  C   UNL     1       2.457  10.376   6.320  1.00  0.00     0.034 A 
ATOM     55  C   UNL     1       8.875   8.732   6.665  1.00  0.00     0.049 A 
ATOM     56  C   UNL     1       3.603  10.823   7.188  1.00  0.00     0.074 A 
ATOM     57  C   UNL     1       9.797   9.211   7.579  1.00  0.00     0.029 A 
ATOM     58  N   UNL     1       7.671   9.377   6.946  1.00  0.00    -0.354 N 
ATOM     59  N   UNL     1       4.854  10.416   7.174  1.00  0.00    -0.248 NA
ATOM     60  C   UNL     1       3.313  11.861   8.180  1.00  0.00     0.031 C 
ATOM     61  C   UNL     1       9.139  10.099   8.441  1.00  0.00     0.029 A 
ATOM     62  C   UNL     1       7.824  10.237   8.023  1.00  0.00     0.049 A 
ATOM     63  H   UNL     1       6.832   9.241   6.450  1.00  0.00     0.167 HD
ATOM     64  C   UNL     1       5.508  11.166   8.144  1.00  0.00     0.074 A 
ATOM     65  C   UNL     1       4.515  12.072   8.694  1.00  0.00     0.031 C 
ATOM     66  C   UNL     1       6.802  11.112   8.554  1.00  0.00     0.034 A 
BRANCH  53  67
ATOM     67  C   UNL     1      10.403   7.098   5.409  1.00  0.00     0.023 A 
ATOM     68  C   UNL     1      11.092   7.195   4.185  1.00  0.00     0.031 A 
ATOM     69  C   UNL     1      10.970   6.293   6.413  1.00  0.00     0.131 A 
ATOM     70  C   UNL     1      12.244   6.422   3.962  1.00  0.00     0.055 A 
ATOM     71  C   UNL     1      12.167   5.598   6.216  1.00  0.00     0.041 A 
ATOM     72  F   UNL     1      10.353   6.139   7.596  1.00  0.00    -0.206 F 
ATOM     73  C   UNL     1      12.800   5.643   4.978  1.00  0.00     0.022 A 
BRANCH  70  74
ATOM     74  S   UNL     1      12.899   6.311   2.273  1.00  0.00     0.124 S 
ATOM     75  O   UNL     1      11.762   5.739   1.554  1.00  0.00    -0.237 OA
ATOM     76  O   UNL     1      13.217   7.700   1.964  1.00  0.00    -0.237 OA
ATOM     77  O   UNL     1      14.051   5.422   2.409  1.00  0.00    -0.744 OA
ENDBRANCH  70  74
ENDBRANCH  53  67
BRANCH  54  78
ATOM     78  C   UNL     1       1.079  10.930   6.482  1.00  0.00     0.023 A 
ATOM     79  C   UNL     1       0.810  12.296   6.293  1.00  0.00     0.031 A 
ATOM     80  C   UNL     1       0.002  10.098   6.843  1.00  0.00     0.131 A 
ATOM     81  C   UNL     1      -0.487  12.794   6.503  1.00  0.00     0.055 A 
ATOM     82  C   UNL     1      -1.296  10.588   6.997  1.00  0.00     0.041 A 
ATOM     83  F   UNL     1       0.194   8.782   7.030  1.00  0.00    -0.206 F 
ATOM     84  C   UNL     1      -1.545  11.947   6.840  1.00  0.00     0.022 A 
BRANCH  81  85
ATOM     85  S   UNL     1      -0.762  14.586   6.411  1.00  0.00     0.124 S 
ATOM     86  O   UNL     1       0.215  15.088   7.370  1.00  0.00    -0.237 OA
ATOM     87  O   UNL     1      -0.483  14.862   5.006  1.00  0.00    -0.237 OA
ATOM     88  O   UNL     1      -2.160  14.737   6.808  1.00  0.00    -0.744 OA
ENDBRANCH  81  85
ENDBRANCH  54  78
BRANCH  66  89
ATOM     89  C   UNL     1       7.196  12.093   9.629  1.00  0.00     0.023 A 
ATOM     90  C   UNL     1       6.646  12.026  10.921  1.00  0.00     0.031 A 
ATOM     91  C   UNL     1       8.086  13.140   9.339  1.00  0.00     0.131 A 
ATOM     92  C   UNL     1       6.922  13.039  11.848  1.00  0.00     0.055 A 
ATOM     93  C   UNL     1       8.416  14.105  10.291  1.00  0.00     0.041 A 
ATOM     94  F   UNL     1       8.638  13.251   8.120  1.00  0.00    -0.206 F 
ATOM     95  C   UNL     1       7.817  14.069  11.548  1.00  0.00     0.022 A 
BRANCH  92  96
ATOM     96  S   UNL     1       5.984  13.069  13.400  1.00  0.00     0.124 S 
ATOM     97  O   UNL     1       4.606  13.088  12.920  1.00  0.00    -0.237 OA
ATOM     98  O   UNL     1       6.416  11.835  14.048  1.00  0.00    -0.237 OA
ATOM     99  O   UNL     1       6.433  14.300  14.048  1.00  0.00    -0.744 OA
ENDBRANCH  92  96
ENDBRANCH  66  89
ENDBRANCH  40  41
ENDBRANCH  32  35
ENDBRANCH  30  31
ENDBRANCH  29  30
ENDBRANCH   1  29
TORSDOF 19
