REMARK SMILES CCN1C(=O)C[C@@H](C(=O)Nc2cccc(C(=O)NCCCNC(=O)c3ccc(-c4c5nc(c(-c6cc(S(=O)(=O)[O-])ccc6F)c6ccc([nH]6)c(-c6cc(S(=O)(=O)[O-])ccc6F)c6nc(c(-c7cc(S(=O)(=O)[O-])ccc7F)c7ccc4[nH]7)C=C6)C=C5)cc3)c2)S/C1=[NH+]/c1ccccc1
REMARK SMILES IDX 20 1 19 2 18 3 16 4 17 5 15 7 11 8 12 9 88 10 13 11 14 12
REMARK SMILES IDX 10 13 8 14 9 15 7 17 3 18 4 19 90 20 5 21 6 22 89 23 91 24
REMARK SMILES IDX 2 26 1 27 92 28 93 29 97 30 94 31 96 32 95 33 21 34 22 35
REMARK SMILES IDX 23 36 24 38 25 39 26 40 87 41 27 42 86 43 28 44 29 45 30 46
REMARK SMILES IDX 80 47 31 48 85 49 79 50 81 51 32 52 84 53 78 54 77 55 33 57
REMARK SMILES IDX 65 58 45 59 64 60 46 61 49 62 63 63 82 64 47 65 48 66 62 68
REMARK SMILES IDX 83 69 50 70 34 71 35 72 43 73 36 74 42 75 44 76 41 77 37 78
REMARK SMILES IDX 38 79 39 80 40 81 66 82 67 83 75 84 68 85 74 86 76 87 73 88
REMARK SMILES IDX 69 89 70 90 71 91 72 92 51 93 52 94 60 95 53 96 59 97 61 98
REMARK SMILES IDX 58 99 54 100 55 101 56 102 57 103
REMARK H PARENT 18 6 10 16 91 25 22 37 81 56 49 67
REMARK Flexibility Score: inf
ROOT
ATOM      1  C   UNL     1      -1.967   4.838   1.377  1.00  0.00     0.042 C 
ENDROOT
BRANCH   1   2
ATOM      2  C   UNL     1      -1.485   3.418   1.129  1.00  0.00     0.118 C 
BRANCH   2   3
ATOM      3  N   UNL     1      -1.551   3.031  -0.259  1.00  0.00    -0.352 N 
ATOM      4  C   UNL     1      -0.601   2.808  -1.217  1.00  0.00     0.251 C 
ATOM      5  O   UNL     1      -1.009   2.298  -2.264  1.00  0.00    -0.269 OA
ATOM      6  H   UNL     1      -2.471   2.900  -0.584  1.00  0.00     0.163 HD
BRANCH   4   7
ATOM      7  C   UNL     1       0.866   3.097  -1.087  1.00  0.00     0.041 A 
ATOM      8  C   UNL     1       2.887   4.005  -0.071  1.00  0.00     0.041 A 
ATOM      9  C   UNL     1       3.644   3.591  -1.168  1.00  0.00     0.026 A 
ATOM     10  C   UNL     1       1.499   3.817  -0.064  1.00  0.00     0.040 A 
ATOM     11  C   UNL     1       3.038   2.874  -2.193  1.00  0.00     0.003 A 
ATOM     12  C   UNL     1       1.669   2.615  -2.140  1.00  0.00     0.014 A 
BRANCH   8  13
ATOM     13  N   UNL     1       3.559   4.660   0.969  1.00  0.00    -0.325 N 
ATOM     14  C   UNL     1       3.545   4.468   2.326  1.00  0.00     0.238 C 
ATOM     15  O   UNL     1       4.093   5.341   3.013  1.00  0.00    -0.273 OA
ATOM     16  H   UNL     1       4.149   5.390   0.671  1.00  0.00     0.169 HD
BRANCH  14  17
ATOM     17  C   UNL     1       3.027   3.186   3.006  1.00  0.00     0.160 C 
ATOM     18  N   UNL     1       1.321   0.814   2.546  1.00  0.00    -0.191 N 
ATOM     19  C   UNL     1       2.690   0.704   2.688  1.00  0.00     0.311 C 
ATOM     20  C   UNL     1       0.617   1.744   3.290  1.00  0.00     0.319 C 
ATOM     21  O   UNL     1       3.259  -0.360   2.936  1.00  0.00    -0.247 OA
ATOM     22  C   UNL     1       3.476   1.921   2.324  1.00  0.00     0.153 C 
ATOM     23  S   UNL     1       1.303   3.353   3.449  1.00  0.00    -0.024 SA
ATOM     24  N   UNL     1      -0.546   1.636   3.853  1.00  0.00    -0.235 N 
ATOM     25  H   UNL     1      -0.981   2.465   4.158  1.00  0.00     0.313 HD
BRANCH  18  26
ATOM     26  C   UNL     1       0.665  -0.314   1.879  1.00  0.00     0.243 C 
ATOM     27  C   UNL     1       1.188  -0.543   0.462  1.00  0.00     0.054 C 
ENDBRANCH  18  26
BRANCH  24  28
ATOM     28  C   UNL     1      -1.234   0.434   4.059  1.00  0.00     0.125 A 
ATOM     29  C   UNL     1      -2.527   0.271   3.552  1.00  0.00     0.051 A 
ATOM     30  C   UNL     1      -0.695  -0.579   4.859  1.00  0.00     0.051 A 
ATOM     31  C   UNL     1      -3.247  -0.903   3.791  1.00  0.00     0.004 A 
ATOM     32  C   UNL     1      -1.410  -1.755   5.099  1.00  0.00     0.004 A 
ATOM     33  C   UNL     1      -2.684  -1.919   4.561  1.00  0.00     0.000 A 
ENDBRANCH  24  28
ENDBRANCH  14  17
ENDBRANCH   8  13
ENDBRANCH   4   7
ENDBRANCH   2   3
ENDBRANCH   1   2
BRANCH   1  34
ATOM     34  C   UNL     1      -3.363   4.857   1.985  1.00  0.00     0.118 C 
BRANCH  34  35
ATOM     35  N   UNL     1      -3.392   4.346   3.354  1.00  0.00    -0.352 N 
ATOM     36  C   UNL     1      -4.008   4.862   4.470  1.00  0.00     0.251 C 
ATOM     37  H   UNL     1      -2.898   3.507   3.498  1.00  0.00     0.163 HD
ATOM     38  O   UNL     1      -3.849   4.322   5.562  1.00  0.00    -0.269 OA
BRANCH  36  39
ATOM     39  C   UNL     1      -4.809   6.099   4.366  1.00  0.00     0.039 A 
ATOM     40  C   UNL     1      -4.624   7.100   5.324  1.00  0.00     0.014 A 
ATOM     41  C   UNL     1      -5.692   6.299   3.304  1.00  0.00     0.014 A 
ATOM     42  C   UNL     1      -5.255   8.335   5.163  1.00  0.00     0.010 A 
ATOM     43  C   UNL     1      -6.233   7.561   3.090  1.00  0.00     0.010 A 
ATOM     44  C   UNL     1      -6.020   8.594   4.015  1.00  0.00    -0.014 A 
BRANCH  44  45
ATOM     45  C   UNL     1      -6.612   9.934   3.758  1.00  0.00     0.031 A 
ATOM     46  C   UNL     1      -8.102  10.073   3.603  1.00  0.00     0.074 A 
ATOM     47  C   UNL     1      -5.805  10.999   3.578  1.00  0.00     0.049 A 
ATOM     48  N   UNL     1      -8.806  11.116   3.247  1.00  0.00    -0.248 NA
ATOM     49  C   UNL     1      -8.902   8.860   3.833  1.00  0.00     0.031 C 
ATOM     50  C   UNL     1      -4.341  10.976   3.649  1.00  0.00     0.029 A 
ATOM     51  N   UNL     1      -6.098  12.308   3.289  1.00  0.00    -0.354 N 
ATOM     52  C   UNL     1     -10.125  10.678   3.181  1.00  0.00     0.074 A 
ATOM     53  C   UNL     1     -10.109   9.259   3.463  1.00  0.00     0.031 C 
ATOM     54  C   UNL     1      -3.869  12.216   3.444  1.00  0.00     0.029 A 
ATOM     55  C   UNL     1      -4.987  13.113   3.175  1.00  0.00     0.049 A 
ATOM     56  H   UNL     1      -7.017  12.641   3.173  1.00  0.00     0.167 HD
ATOM     57  C   UNL     1     -11.248  11.398   2.937  1.00  0.00     0.034 A 
ATOM     58  C   UNL     1      -4.882  14.424   2.877  1.00  0.00     0.034 A 
ATOM     59  C   UNL     1     -11.243  12.819   2.695  1.00  0.00     0.049 A 
ATOM     60  C   UNL     1      -6.144  15.207   2.619  1.00  0.00     0.074 A 
ATOM     61  C   UNL     1     -12.320  13.667   2.503  1.00  0.00     0.029 A 
ATOM     62  N   UNL     1     -10.100  13.606   2.612  1.00  0.00    -0.354 N 
ATOM     63  N   UNL     1      -7.389  14.787   2.607  1.00  0.00    -0.248 NA
ATOM     64  C   UNL     1      -5.988  16.640   2.344  1.00  0.00     0.031 C 
ATOM     65  C   UNL     1     -11.827  14.951   2.247  1.00  0.00     0.029 A 
ATOM     66  C   UNL     1     -10.445  14.922   2.348  1.00  0.00     0.049 A 
ATOM     67  H   UNL     1      -9.179  13.276   2.724  1.00  0.00     0.167 HD
ATOM     68  C   UNL     1      -8.165  15.913   2.349  1.00  0.00     0.074 A 
ATOM     69  C   UNL     1      -7.249  17.030   2.232  1.00  0.00     0.031 C 
ATOM     70  C   UNL     1      -9.513  16.018   2.223  1.00  0.00     0.034 A 
BRANCH  57  71
ATOM     71  C   UNL     1     -12.560  10.649   2.905  1.00  0.00     0.023 A 
ATOM     72  C   UNL     1     -13.045   9.961   4.033  1.00  0.00     0.031 A 
ATOM     73  C   UNL     1     -13.316  10.582   1.722  1.00  0.00     0.131 A 
ATOM     74  C   UNL     1     -14.196   9.167   3.929  1.00  0.00     0.055 A 
ATOM     75  C   UNL     1     -14.510   9.862   1.650  1.00  0.00     0.041 A 
ATOM     76  F   UNL     1     -12.896  11.200   0.607  1.00  0.00    -0.206 F 
ATOM     77  C   UNL     1     -14.947   9.133   2.752  1.00  0.00     0.022 A 
BRANCH  74  78
ATOM     78  S   UNL     1     -14.606   8.056   5.303  1.00  0.00     0.124 S 
ATOM     79  O   UNL     1     -13.412   7.217   5.369  1.00  0.00    -0.237 OA
ATOM     80  O   UNL     1     -14.799   8.983   6.412  1.00  0.00    -0.237 OA
ATOM     81  O   UNL     1     -15.814   7.373   4.843  1.00  0.00    -0.744 OA
ENDBRANCH  74  78
ENDBRANCH  57  71
BRANCH  58  82
ATOM     82  C   UNL     1      -3.545  15.081   2.803  1.00  0.00     0.023 A 
ATOM     83  C   UNL     1      -3.185  16.088   3.713  1.00  0.00     0.031 A 
ATOM     84  C   UNL     1      -2.621  14.739   1.800  1.00  0.00     0.131 A 
ATOM     85  C   UNL     1      -1.956  16.751   3.575  1.00  0.00     0.055 A 
ATOM     86  C   UNL     1      -1.377  15.366   1.698  1.00  0.00     0.041 A 
ATOM     87  F   UNL     1      -2.911  13.779   0.908  1.00  0.00    -0.206 F 
ATOM     88  C   UNL     1      -1.044  16.388   2.582  1.00  0.00     0.022 A 
BRANCH  85  89
ATOM     89  S   UNL     1      -1.599  18.156   4.665  1.00  0.00     0.124 S 
ATOM     90  O   UNL     1      -2.721  19.044   4.383  1.00  0.00    -0.237 OA
ATOM     91  O   UNL     1      -1.595  17.525   5.981  1.00  0.00    -0.237 OA
ATOM     92  O   UNL     1      -0.297  18.628   4.198  1.00  0.00    -0.744 OA
ENDBRANCH  85  89
ENDBRANCH  58  82
BRANCH  70  93
ATOM     93  C   UNL     1     -10.068  17.399   1.982  1.00  0.00     0.023 A 
ATOM     94  C   UNL     1      -9.830  18.091   0.782  1.00  0.00     0.031 A 
ATOM     95  C   UNL     1     -10.835  18.035   2.974  1.00  0.00     0.131 A 
ATOM     96  C   UNL     1     -10.307  19.401   0.626  1.00  0.00     0.055 A 
ATOM     97  C   UNL     1     -11.358  19.315   2.789  1.00  0.00     0.041 A 
ATOM     98  F   UNL     1     -11.090  17.419   4.140  1.00  0.00    -0.206 F 
ATOM     99  C   UNL     1     -11.084  20.010   1.615  1.00  0.00     0.022 A 
BRANCH  96 100
ATOM    100  S   UNL     1      -9.824  20.332  -0.853  1.00  0.00     0.124 S 
ATOM    101  O   UNL     1      -8.368  20.328  -0.751  1.00  0.00    -0.237 OA
ATOM    102  O   UNL     1     -10.389  19.525  -1.929  1.00  0.00    -0.237 OA
ATOM    103  O   UNL     1     -10.456  21.636  -0.659  1.00  0.00    -0.744 OA
ENDBRANCH  96 100
ENDBRANCH  70  93
ENDBRANCH  44  45
ENDBRANCH  36  39
ENDBRANCH  34  35
ENDBRANCH   1  34
TORSDOF 17
