REMARK SMILES O=C(NCCCNC(=O)c1cc(SCCn2cccn2)cs1)c1ccc(-c2c3nc(c(-c4cc(S(=O)(=O)[O-])ccc4F)c4ccc([nH]4)c(-c4cc(S(=O)(=O)[O-])ccc4F)c4nc(c(-c5cc(S(=O)(=O)[O-])ccc5F)c5ccc2[nH]5)C=C4)C=C3)cc1
REMARK SMILES IDX 5 1 4 2 3 3 1 4 2 5 23 7 24 8 85 9 25 10 84 11 26 12 27 13
REMARK SMILES IDX 28 14 78 15 29 16 83 17 77 18 79 19 30 20 82 21 76 22 75 23
REMARK SMILES IDX 31 25 63 26 43 27 62 28 44 29 47 30 61 31 80 32 45 33 46 34
REMARK SMILES IDX 60 36 81 37 48 38 32 39 33 40 41 41 34 42 40 43 42 44 39 45
REMARK SMILES IDX 35 46 36 47 37 48 38 49 64 50 65 51 73 52 66 53 72 54 74 55
REMARK SMILES IDX 71 56 67 57 68 58 69 59 70 60 49 61 50 62 58 63 51 64 57 65
REMARK SMILES IDX 59 66 56 67 52 68 53 69 54 70 55 71 6 72 7 73 8 74 9 76
REMARK SMILES IDX 10 77 11 78 22 79 12 80 21 81 13 82 14 83 15 84 16 85 17 86
REMARK SMILES IDX 20 87 18 88 19 89
REMARK H PARENT 3 6 79 24 47 35 7 75
REMARK Flexibility Score: inf
ROOT
ATOM      1  C   UNL     1       5.687  -1.616  -0.901  1.00  0.00     0.042 C 
ENDROOT
BRANCH   1   2
ATOM      2  C   UNL     1       4.624  -0.554  -1.180  1.00  0.00     0.118 C 
BRANCH   2   3
ATOM      3  N   UNL     1       3.268  -0.970  -0.865  1.00  0.00    -0.352 N 
ATOM      4  O   UNL     1       1.409   0.268  -1.053  1.00  0.00    -0.269 OA
ATOM      5  C   UNL     1       2.316  -0.130  -0.325  1.00  0.00     0.251 C 
ATOM      6  H   UNL     1       3.015  -1.904  -1.046  1.00  0.00     0.163 HD
BRANCH   5   7
ATOM      7  C   UNL     1       2.247   0.076   1.152  1.00  0.00     0.039 A 
ATOM      8  C   UNL     1       3.316  -0.110   2.033  1.00  0.00     0.014 A 
ATOM      9  C   UNL     1       0.979   0.391   1.676  1.00  0.00     0.014 A 
ATOM     10  C   UNL     1       3.099  -0.032   3.417  1.00  0.00     0.010 A 
ATOM     11  C   UNL     1       0.759   0.440   3.051  1.00  0.00     0.010 A 
ATOM     12  C   UNL     1       1.813   0.201   3.932  1.00  0.00    -0.014 A 
BRANCH  12  13
ATOM     13  C   UNL     1       1.621   0.411   5.378  1.00  0.00     0.031 A 
ATOM     14  C   UNL     1       2.193   1.698   5.869  1.00  0.00     0.074 A 
ATOM     15  C   UNL     1       0.838  -0.344   6.186  1.00  0.00     0.049 A 
ATOM     16  N   UNL     1       3.175   1.873   6.692  1.00  0.00    -0.248 NA
ATOM     17  C   UNL     1       1.715   2.946   5.250  1.00  0.00     0.031 C 
ATOM     18  C   UNL     1      -0.008  -1.474   5.794  1.00  0.00     0.029 A 
ATOM     19  N   UNL     1       0.547  -0.206   7.521  1.00  0.00    -0.354 N 
ATOM     20  C   UNL     1       3.265   3.249   6.891  1.00  0.00     0.074 A 
ATOM     21  C   UNL     1       2.514   3.846   5.822  1.00  0.00     0.031 C 
ATOM     22  C   UNL     1      -0.865  -1.770   6.799  1.00  0.00     0.029 A 
ATOM     23  C   UNL     1      -0.570  -0.933   7.953  1.00  0.00     0.049 A 
ATOM     24  H   UNL     1       1.080   0.358   8.125  1.00  0.00     0.167 HD
ATOM     25  C   UNL     1       3.711   3.764   8.072  1.00  0.00     0.034 A 
ATOM     26  C   UNL     1      -1.240  -0.834   9.142  1.00  0.00     0.034 A 
ATOM     27  C   UNL     1       4.445   2.765   8.824  1.00  0.00     0.049 A 
ATOM     28  C   UNL     1      -0.308  -0.216  10.114  1.00  0.00     0.074 A 
ATOM     29  C   UNL     1       5.538   1.959   8.562  1.00  0.00     0.029 A 
ATOM     30  N   UNL     1       3.850   2.209   9.936  1.00  0.00    -0.354 N 
ATOM     31  N   UNL     1       0.771  -0.806  10.543  1.00  0.00    -0.248 NA
ATOM     32  C   UNL     1      -0.316   1.233  10.239  1.00  0.00     0.031 C 
ATOM     33  C   UNL     1       5.231   0.710   9.180  1.00  0.00     0.029 A 
ATOM     34  C   UNL     1       4.020   0.852   9.857  1.00  0.00     0.049 A 
ATOM     35  H   UNL     1       3.387   2.697  10.655  1.00  0.00     0.167 HD
ATOM     36  C   UNL     1       1.735   0.189  10.556  1.00  0.00     0.074 A 
ATOM     37  C   UNL     1       0.986   1.442  10.452  1.00  0.00     0.031 C 
ATOM     38  C   UNL     1       3.055  -0.104  10.361  1.00  0.00     0.034 A 
BRANCH  25  39
ATOM     39  C   UNL     1       3.112   4.992   8.750  1.00  0.00     0.023 A 
ATOM     40  C   UNL     1       3.563   5.261  10.056  1.00  0.00     0.031 A 
ATOM     41  C   UNL     1       1.932   5.671   8.369  1.00  0.00     0.131 A 
ATOM     42  C   UNL     1       2.758   5.959  10.970  1.00  0.00     0.055 A 
ATOM     43  C   UNL     1       1.173   6.435   9.262  1.00  0.00     0.041 A 
ATOM     44  F   UNL     1       1.400   5.588   7.147  1.00  0.00    -0.206 F 
ATOM     45  C   UNL     1       1.554   6.538  10.587  1.00  0.00     0.022 A 
BRANCH  42  46
ATOM     46  S   UNL     1       3.200   5.870  12.723  1.00  0.00     0.124 S 
ATOM     47  O   UNL     1       3.270   4.421  12.914  1.00  0.00    -0.237 OA
ATOM     48  O   UNL     1       4.479   6.580  12.742  1.00  0.00    -0.237 OA
ATOM     49  O   UNL     1       2.099   6.543  13.388  1.00  0.00    -0.744 OA
ENDBRANCH  42  46
ENDBRANCH  25  39
BRANCH  26  50
ATOM     50  C   UNL     1      -2.715  -0.954   9.399  1.00  0.00     0.023 A 
ATOM     51  C   UNL     1      -3.288  -1.130  10.687  1.00  0.00     0.031 A 
ATOM     52  C   UNL     1      -3.616  -0.635   8.360  1.00  0.00     0.131 A 
ATOM     53  C   UNL     1      -4.690  -0.989  10.878  1.00  0.00     0.055 A 
ATOM     54  C   UNL     1      -4.993  -0.496   8.555  1.00  0.00     0.041 A 
ATOM     55  F   UNL     1      -3.179  -0.355   7.122  1.00  0.00    -0.206 F 
ATOM     56  C   UNL     1      -5.536  -0.664   9.816  1.00  0.00     0.022 A 
BRANCH  53  57
ATOM     57  S   UNL     1      -5.452  -1.141  12.536  1.00  0.00     0.124 S 
ATOM     58  O   UNL     1      -5.282  -2.559  12.829  1.00  0.00    -0.237 OA
ATOM     59  O   UNL     1      -4.664  -0.211  13.335  1.00  0.00    -0.237 OA
ATOM     60  O   UNL     1      -6.839  -0.727  12.315  1.00  0.00    -0.744 OA
ENDBRANCH  53  57
ENDBRANCH  26  50
BRANCH  38  61
ATOM     61  C   UNL     1       3.507  -1.544  10.477  1.00  0.00     0.023 A 
ATOM     62  C   UNL     1       2.989  -2.625   9.729  1.00  0.00     0.031 A 
ATOM     63  C   UNL     1       4.599  -1.800  11.325  1.00  0.00     0.131 A 
ATOM     64  C   UNL     1       3.558  -3.908   9.861  1.00  0.00     0.055 A 
ATOM     65  C   UNL     1       5.173  -3.064  11.436  1.00  0.00     0.041 A 
ATOM     66  F   UNL     1       5.152  -0.809  12.045  1.00  0.00    -0.206 F 
ATOM     67  C   UNL     1       4.650  -4.125  10.708  1.00  0.00     0.022 A 
BRANCH  64  68
ATOM     68  S   UNL     1       2.871  -5.331   8.951  1.00  0.00     0.124 S 
ATOM     69  O   UNL     1       1.437  -5.235   9.193  1.00  0.00    -0.237 OA
ATOM     70  O   UNL     1       3.304  -5.074   7.580  1.00  0.00    -0.237 OA
ATOM     71  O   UNL     1       3.518  -6.483   9.583  1.00  0.00    -0.744 OA
ENDBRANCH  64  68
ENDBRANCH  38  61
ENDBRANCH  12  13
ENDBRANCH   5   7
ENDBRANCH   2   3
ENDBRANCH   1   2
BRANCH   1  72
ATOM     72  C   UNL     1       5.441  -3.050  -1.377  1.00  0.00     0.118 C 
BRANCH  72  73
ATOM     73  N   UNL     1       5.655  -3.409  -2.756  1.00  0.00    -0.351 N 
ATOM     74  C   UNL     1       5.832  -4.720  -3.200  1.00  0.00     0.261 C 
ATOM     75  H   UNL     1       5.679  -2.686  -3.425  1.00  0.00     0.163 HD
ATOM     76  O   UNL     1       5.882  -4.914  -4.413  1.00  0.00    -0.268 OA
BRANCH  74  77
ATOM     77  C   UNL     1       5.992  -5.789  -2.214  1.00  0.00     0.093 A 
ATOM     78  C   UNL     1       5.055  -6.588  -1.565  1.00  0.00     0.040 A 
ATOM     79  S   UNL     1       7.593  -6.241  -1.791  1.00  0.00    -0.137 S 
ATOM     80  C   UNL     1       5.662  -7.539  -0.676  1.00  0.00     0.019 A 
ATOM     81  C   UNL     1       7.038  -7.447  -0.716  1.00  0.00     0.080 A 
BRANCH  80  82
ATOM     82  S   UNL     1       4.886  -8.808   0.285  1.00  0.00    -0.123 SA
BRANCH  82  83
ATOM     83  C   UNL     1       3.291  -8.175   0.912  1.00  0.00     0.098 C 
BRANCH  83  84
ATOM     84  C   UNL     1       3.279  -7.569   2.326  1.00  0.00     0.155 C 
BRANCH  84  85
ATOM     85  N   UNL     1       3.619  -6.163   2.269  1.00  0.00    -0.272 N 
ATOM     86  C   UNL     1       2.732  -5.127   2.150  1.00  0.00     0.108 A 
ATOM     87  N   UNL     1       4.870  -5.829   1.925  1.00  0.00    -0.182 NA
ATOM     88  C   UNL     1       3.410  -4.141   1.474  1.00  0.00     0.042 A 
ATOM     89  C   UNL     1       4.732  -4.608   1.424  1.00  0.00     0.135 A 
ENDBRANCH  84  85
ENDBRANCH  83  84
ENDBRANCH  82  83
ENDBRANCH  80  82
ENDBRANCH  74  77
ENDBRANCH  72  73
ENDBRANCH   1  72
TORSDOF 17
