REMARK SMILES O=C(C[NH+]1CCN(c2nccc(N3CCCCC3)n2)CC1)NCCCNC(=O)c1ccc(-c2c3nc(c(-c4cc(S(=O)(=O)[O-])ccc4F)c4ccc([nH]4)c(-c4cc(S(=O)(=O)[O-])ccc4F)c4nc(c(-c5cc(S(=O)(=O)[O-])ccc5F)c5ccc2[nH]5)C=C4)C=C3)cc1
REMARK SMILES IDX 24 1 23 2 22 3 1 4 2 5 3 7 4 8 5 9 21 10 6 12 20 13 7 14
REMARK SMILES IDX 8 15 9 16 19 17 10 18 12 19 11 20 13 21 14 22 18 23 15 24
REMARK SMILES IDX 17 25 16 26 25 27 26 28 27 29 28 31 29 32 30 33 91 34 31 35
REMARK SMILES IDX 90 36 32 37 33 38 34 39 84 40 35 41 89 42 83 43 85 44 36 45
REMARK SMILES IDX 88 46 82 47 81 48 37 50 69 51 49 52 68 53 50 54 53 55 67 56
REMARK SMILES IDX 86 57 51 58 52 59 66 61 87 62 54 63 38 64 39 65 47 66 40 67
REMARK SMILES IDX 46 68 48 69 45 70 41 71 42 72 43 73 44 74 70 75 71 76 79 77
REMARK SMILES IDX 72 78 78 79 80 80 77 81 73 82 74 83 75 84 76 85 55 86 56 87
REMARK SMILES IDX 64 88 57 89 63 90 65 91 62 92 58 93 59 94 60 95 61 96
REMARK H PARENT 22 6 4 11 26 30 85 49 53 60
REMARK Flexibility Score: inf
ROOT
ATOM      1  C   UNL     1       2.300  -0.186  -3.692  1.00  0.00     0.042 C 
ENDROOT
BRANCH   1   2
ATOM      2  C   UNL     1       1.895  -0.702  -2.319  1.00  0.00     0.118 C 
BRANCH   2   3
ATOM      3  N   UNL     1       2.531   0.013  -1.231  1.00  0.00    -0.351 N 
ATOM      4  O   UNL     1       0.949  -0.544   0.340  1.00  0.00    -0.269 OA
ATOM      5  C   UNL     1       2.023  -0.025   0.052  1.00  0.00     0.275 C 
ATOM      6  H   UNL     1       3.345   0.537  -1.410  1.00  0.00     0.163 HD
BRANCH   5   7
ATOM      7  C   UNL     1       2.937   0.611   1.096  1.00  0.00     0.363 C 
BRANCH   7   8
ATOM      8  N   UNL     1       3.819  -0.336   1.793  1.00  0.00    -0.324 N 
ATOM      9  C   UNL     1       3.119  -1.288   2.680  1.00  0.00     0.284 C 
ATOM     10  C   UNL     1       4.835  -1.006   0.961  1.00  0.00     0.284 C 
ATOM     11  H   UNL     1       4.349   0.291   2.398  1.00  0.00     0.348 HD
ATOM     12  C   UNL     1       2.713  -2.658   2.079  1.00  0.00     0.181 C 
ATOM     13  C   UNL     1       4.471  -2.385   0.367  1.00  0.00     0.181 C 
ATOM     14  N   UNL     1       3.854  -3.231   1.381  1.00  0.00    -0.329 N 
BRANCH  14  15
ATOM     15  C   UNL     1       3.852  -4.575   1.081  1.00  0.00     0.227 A 
ATOM     16  N   UNL     1       2.694  -5.245   1.023  1.00  0.00    -0.221 NA
ATOM     17  N   UNL     1       5.046  -5.147   0.861  1.00  0.00    -0.196 NA
ATOM     18  C   UNL     1       2.765  -6.533   0.651  1.00  0.00     0.119 A 
ATOM     19  C   UNL     1       5.099  -6.446   0.529  1.00  0.00     0.134 A 
ATOM     20  C   UNL     1       3.944  -7.181   0.376  1.00  0.00     0.067 A 
BRANCH  19  21
ATOM     21  N   UNL     1       6.336  -7.063   0.419  1.00  0.00    -0.356 N 
ATOM     22  C   UNL     1       7.401  -6.595   1.304  1.00  0.00     0.118 C 
ATOM     23  C   UNL     1       6.727  -7.636  -0.866  1.00  0.00     0.118 C 
ATOM     24  C   UNL     1       8.361  -5.658   0.577  1.00  0.00     0.022 C 
ATOM     25  C   UNL     1       7.696  -6.705  -1.601  1.00  0.00     0.022 C 
ATOM     26  C   UNL     1       8.870  -6.302  -0.710  1.00  0.00     0.004 C 
ENDBRANCH  19  21
ENDBRANCH  14  15
ENDBRANCH   7   8
ENDBRANCH   5   7
ENDBRANCH   2   3
ENDBRANCH   1   2
BRANCH   1  27
ATOM     27  C   UNL     1       3.788  -0.286  -4.011  1.00  0.00     0.118 C 
BRANCH  27  28
ATOM     28  N   UNL     1       4.269  -1.647  -4.199  1.00  0.00    -0.352 N 
ATOM     29  C   UNL     1       5.023  -2.158  -5.234  1.00  0.00     0.251 C 
ATOM     30  H   UNL     1       4.023  -2.288  -3.494  1.00  0.00     0.163 HD
ATOM     31  O   UNL     1       5.275  -3.359  -5.278  1.00  0.00    -0.269 OA
BRANCH  29  32
ATOM     32  C   UNL     1       5.481  -1.260  -6.319  1.00  0.00     0.039 A 
ATOM     33  C   UNL     1       5.211  -1.608  -7.645  1.00  0.00     0.014 A 
ATOM     34  C   UNL     1       6.114  -0.049  -6.027  1.00  0.00     0.014 A 
ATOM     35  C   UNL     1       5.476  -0.694  -8.670  1.00  0.00     0.010 A 
ATOM     36  C   UNL     1       6.310   0.887  -7.040  1.00  0.00     0.010 A 
ATOM     37  C   UNL     1       5.972   0.585  -8.370  1.00  0.00    -0.014 A 
BRANCH  37  38
ATOM     38  C   UNL     1       6.119   1.639  -9.412  1.00  0.00     0.031 A 
ATOM     39  C   UNL     1       7.475   2.217  -9.710  1.00  0.00     0.074 A 
ATOM     40  C   UNL     1       5.024   2.152 -10.009  1.00  0.00     0.049 A 
ATOM     41  N   UNL     1       7.792   3.259 -10.435  1.00  0.00    -0.248 NA
ATOM     42  C   UNL     1       8.622   1.550  -9.077  1.00  0.00     0.031 C 
ATOM     43  C   UNL     1       3.648   1.700  -9.790  1.00  0.00     0.029 A 
ATOM     44  N   UNL     1       4.891   3.185 -10.906  1.00  0.00    -0.354 N 
ATOM     45  C   UNL     1       9.172   3.392 -10.324  1.00  0.00     0.074 A 
ATOM     46  C   UNL     1       9.620   2.349  -9.423  1.00  0.00     0.031 C 
ATOM     47  C   UNL     1       2.815   2.444 -10.535  1.00  0.00     0.029 A 
ATOM     48  C   UNL     1       3.585   3.462 -11.243  1.00  0.00     0.049 A 
ATOM     49  H   UNL     1       5.658   3.681 -11.273  1.00  0.00     0.167 HD
ATOM     50  C   UNL     1       9.991   4.290 -10.928  1.00  0.00     0.034 A 
ATOM     51  C   UNL     1       3.062   4.439 -12.011  1.00  0.00     0.034 A 
ATOM     52  C   UNL     1       9.533   5.310 -11.840  1.00  0.00     0.049 A 
ATOM     53  C   UNL     1       3.987   5.439 -12.658  1.00  0.00     0.074 A 
ATOM     54  C   UNL     1      10.283   6.238 -12.543  1.00  0.00     0.029 A 
ATOM     55  N   UNL     1       8.205   5.540 -12.175  1.00  0.00    -0.354 N 
ATOM     56  N   UNL     1       5.293   5.537 -12.559  1.00  0.00    -0.248 NA
ATOM     57  C   UNL     1       3.371   6.454 -13.522  1.00  0.00     0.031 C 
ATOM     58  C   UNL     1       9.407   7.062 -13.258  1.00  0.00     0.029 A 
ATOM     59  C   UNL     1       8.114   6.606 -13.057  1.00  0.00     0.049 A 
ATOM     60  H   UNL     1       7.440   5.021 -11.837  1.00  0.00     0.167 HD
ATOM     61  C   UNL     1       5.655   6.602 -13.380  1.00  0.00     0.074 A 
ATOM     62  C   UNL     1       4.433   7.113 -13.964  1.00  0.00     0.031 C 
ATOM     63  C   UNL     1       6.889   7.103 -13.636  1.00  0.00     0.034 A 
BRANCH  50  64
ATOM     64  C   UNL     1      11.461   4.221 -10.592  1.00  0.00     0.023 A 
ATOM     65  C   UNL     1      12.238   3.095 -10.909  1.00  0.00     0.031 A 
ATOM     66  C   UNL     1      12.087   5.284  -9.916  1.00  0.00     0.131 A 
ATOM     67  C   UNL     1      13.572   3.020 -10.480  1.00  0.00     0.055 A 
ATOM     68  C   UNL     1      13.438   5.239  -9.566  1.00  0.00     0.041 A 
ATOM     69  F   UNL     1      11.392   6.378  -9.569  1.00  0.00    -0.206 F 
ATOM     70  C   UNL     1      14.185   4.095  -9.833  1.00  0.00     0.022 A 
BRANCH  67  71
ATOM     71  S   UNL     1      14.445   1.440 -10.647  1.00  0.00     0.124 S 
ATOM     72  O   UNL     1      13.593   0.549  -9.862  1.00  0.00    -0.237 OA
ATOM     73  O   UNL     1      14.437   1.225 -12.089  1.00  0.00    -0.237 OA
ATOM     74  O   UNL     1      15.757   1.710 -10.062  1.00  0.00    -0.744 OA
ENDBRANCH  67  71
ENDBRANCH  50  64
BRANCH  51  75
ATOM     75  C   UNL     1       1.587   4.543 -12.198  1.00  0.00     0.023 A 
ATOM     76  C   UNL     1       1.003   4.332 -13.457  1.00  0.00     0.031 A 
ATOM     77  C   UNL     1       0.743   4.892 -11.129  1.00  0.00     0.131 A 
ATOM     78  C   UNL     1      -0.378   4.514 -13.627  1.00  0.00     0.055 A 
ATOM     79  C   UNL     1      -0.637   5.025 -11.293  1.00  0.00     0.041 A 
ATOM     80  F   UNL     1       1.250   5.098  -9.903  1.00  0.00    -0.206 F 
ATOM     81  C   UNL     1      -1.203   4.848 -12.551  1.00  0.00     0.022 A 
BRANCH  78  82
ATOM     82  S   UNL     1      -1.071   4.385 -15.299  1.00  0.00     0.124 S 
ATOM     83  O   UNL     1      -0.318   5.411 -16.012  1.00  0.00    -0.237 OA
ATOM     84  O   UNL     1      -0.762   3.002 -15.648  1.00  0.00    -0.237 OA
ATOM     85  O   UNL     1      -2.489   4.675 -15.102  1.00  0.00    -0.744 OA
ENDBRANCH  78  82
ENDBRANCH  51  75
BRANCH  63  86
ATOM     86  C   UNL     1       6.985   8.218 -14.645  1.00  0.00     0.023 A 
ATOM     87  C   UNL     1       6.514   9.514 -14.372  1.00  0.00     0.031 A 
ATOM     88  C   UNL     1       7.572   7.975 -15.900  1.00  0.00     0.131 A 
ATOM     89  C   UNL     1       6.606  10.510 -15.357  1.00  0.00     0.055 A 
ATOM     90  C   UNL     1       7.703   8.981 -16.857  1.00  0.00     0.041 A 
ATOM     91  F   UNL     1       8.037   6.754 -16.210  1.00  0.00    -0.206 F 
ATOM     92  C   UNL     1       7.211  10.255 -16.591  1.00  0.00     0.022 A 
BRANCH  89  93
ATOM     93  S   UNL     1       5.874  12.136 -15.026  1.00  0.00     0.124 S 
ATOM     94  O   UNL     1       4.466  11.804 -14.841  1.00  0.00    -0.237 OA
ATOM     95  O   UNL     1       6.591  12.565 -13.829  1.00  0.00    -0.237 OA
ATOM     96  O   UNL     1       6.178  12.902 -16.234  1.00  0.00    -0.744 OA
ENDBRANCH  89  93
ENDBRANCH  63  86
ENDBRANCH  37  38
ENDBRANCH  29  32
ENDBRANCH  27  28
ENDBRANCH   1  27
TORSDOF 16
