REMARK SMILES Cc1ccc(C)n1-c1ccccc1S[C@H](C)C(=O)NCCCNC(=O)c1ccc(-c2c3nc(c(-c4cc(S(=O)(=O)[O-])ccc4F)c4ccc([nH]4)c(-c4cc(S(=O)(=O)[O-])ccc4F)c4nc(c(-c5cc(S(=O)(=O)[O-])ccc5F)c5ccc2[nH]5)C=C4)C=C3)cc1
REMARK SMILES IDX 21 1 20 2 19 3 17 4 18 5 15 7 16 8 14 9 13 10 8 11 9 12
REMARK SMILES IDX 10 13 12 14 11 15 7 16 1 17 2 18 3 19 4 20 5 21 6 22 22 23
REMARK SMILES IDX 23 24 24 25 25 27 26 28 27 29 88 30 28 31 87 32 29 33 30 34
REMARK SMILES IDX 31 35 81 36 32 37 86 38 80 39 82 40 33 41 85 42 79 43 78 44
REMARK SMILES IDX 34 46 66 47 46 48 65 49 47 50 50 51 64 52 83 53 48 54 49 55
REMARK SMILES IDX 63 57 84 58 51 59 35 60 36 61 44 62 37 63 43 64 45 65 42 66
REMARK SMILES IDX 38 67 39 68 40 69 41 70 67 71 68 72 76 73 69 74 75 75 77 76
REMARK SMILES IDX 74 77 70 78 71 79 72 80 73 81 52 82 53 83 61 84 54 85 60 86
REMARK SMILES IDX 62 87 59 88 55 89 56 90 57 91 58 92
REMARK H PARENT 19 6 23 26 82 45 50 56
REMARK Flexibility Score: inf
ROOT
ATOM      1  C   UNL     1       2.154   4.482  -0.815  1.00  0.00     0.042 C 
ENDROOT
BRANCH   1   2
ATOM      2  C   UNL     1       0.987   3.622  -1.307  1.00  0.00     0.117 C 
BRANCH   2   3
ATOM      3  N   UNL     1       1.353   2.768  -2.418  1.00  0.00    -0.355 N 
ATOM      4  C   UNL     1       1.855   1.516  -2.525  1.00  0.00     0.233 C 
ATOM      5  O   UNL     1       2.092   1.145  -3.684  1.00  0.00    -0.274 OA
ATOM      6  H   UNL     1       1.202   3.194  -3.292  1.00  0.00     0.163 HD
BRANCH   4   7
ATOM      7  C   UNL     1       2.198   0.577  -1.366  1.00  0.00     0.137 C 
ATOM      8  C   UNL     1       3.626   0.646  -0.842  1.00  0.00     0.030 C 
BRANCH   7   9
ATOM      9  S   UNL     1       0.768   0.061  -0.349  1.00  0.00    -0.111 SA
BRANCH   9  10
ATOM     10  C   UNL     1       0.627   0.938   1.208  1.00  0.00     0.032 A 
ATOM     11  C   UNL     1      -0.551   0.809   1.991  1.00  0.00     0.059 A 
ATOM     12  C   UNL     1      -0.736   1.575   3.161  1.00  0.00     0.028 A 
ATOM     13  C   UNL     1       0.234   2.479   3.575  1.00  0.00     0.002 A 
ATOM     14  C   UNL     1       1.585   1.847   1.673  1.00  0.00     0.017 A 
ATOM     15  C   UNL     1       1.396   2.611   2.833  1.00  0.00     0.001 A 
BRANCH  11  16
ATOM     16  N   UNL     1      -1.653  -0.008   1.591  1.00  0.00    -0.317 N 
ATOM     17  C   UNL     1      -0.505  -2.296   1.695  1.00  0.00     0.065 C 
ATOM     18  C   UNL     1      -1.660  -1.393   1.424  1.00  0.00     0.020 A 
ATOM     19  C   UNL     1      -2.923  -1.767   1.003  1.00  0.00     0.023 A 
ATOM     20  C   UNL     1      -3.732  -0.619   0.991  1.00  0.00     0.023 A 
ATOM     21  C   UNL     1      -2.952   0.455   1.373  1.00  0.00     0.020 A 
ATOM     22  C   UNL     1      -3.377   1.883   1.456  1.00  0.00     0.065 C 
ENDBRANCH  11  16
ENDBRANCH   9  10
ENDBRANCH   7   9
ENDBRANCH   4   7
ENDBRANCH   2   3
ENDBRANCH   1   2
BRANCH   1  23
ATOM     23  C   UNL     1       2.767   5.417  -1.878  1.00  0.00     0.118 C 
BRANCH  23  24
ATOM     24  N   UNL     1       2.280   6.776  -1.817  1.00  0.00    -0.352 N 
ATOM     25  C   UNL     1       2.907   7.935  -2.242  1.00  0.00     0.251 C 
ATOM     26  H   UNL     1       1.386   6.893  -1.422  1.00  0.00     0.163 HD
ATOM     27  O   UNL     1       2.326   8.996  -2.023  1.00  0.00    -0.269 OA
BRANCH  25  28
ATOM     28  C   UNL     1       4.292   7.934  -2.845  1.00  0.00     0.039 A 
ATOM     29  C   UNL     1       5.359   8.278  -2.029  1.00  0.00     0.014 A 
ATOM     30  C   UNL     1       4.567   7.842  -4.221  1.00  0.00     0.014 A 
ATOM     31  C   UNL     1       6.669   8.470  -2.571  1.00  0.00     0.010 A 
ATOM     32  C   UNL     1       5.888   8.127  -4.780  1.00  0.00     0.010 A 
ATOM     33  C   UNL     1       6.998   8.471  -3.977  1.00  0.00    -0.014 A 
BRANCH  33  34
ATOM     34  C   UNL     1       8.249   9.426  -4.406  1.00  0.00     0.031 A 
ATOM     35  C   UNL     1       7.907  10.684  -3.672  1.00  0.00     0.074 A 
ATOM     36  C   UNL     1       9.378   9.512  -5.232  1.00  0.00     0.049 A 
ATOM     37  N   UNL     1       6.734  11.227  -3.847  1.00  0.00    -0.248 NA
ATOM     38  C   UNL     1       8.591  11.109  -2.449  1.00  0.00     0.031 C 
ATOM     39  C   UNL     1       9.841   8.539  -6.237  1.00  0.00     0.029 A 
ATOM     40  N   UNL     1      10.412  10.507  -5.388  1.00  0.00    -0.354 N 
ATOM     41  C   UNL     1       6.660  12.287  -2.980  1.00  0.00     0.074 A 
ATOM     42  C   UNL     1       7.701  12.001  -1.996  1.00  0.00     0.031 C 
ATOM     43  C   UNL     1      11.059   8.877  -6.762  1.00  0.00     0.029 A 
ATOM     44  C   UNL     1      11.547  10.152  -6.229  1.00  0.00     0.049 A 
ATOM     45  H   UNL     1      10.352  11.385  -4.947  1.00  0.00     0.167 HD
ATOM     46  C   UNL     1       6.375  13.486  -3.569  1.00  0.00     0.034 A 
ATOM     47  C   UNL     1      12.735  10.836  -6.544  1.00  0.00     0.034 A 
ATOM     48  C   UNL     1       7.575  14.236  -3.837  1.00  0.00     0.049 A 
ATOM     49  C   UNL     1      12.436  12.260  -6.411  1.00  0.00     0.074 A 
ATOM     50  C   UNL     1       8.693  14.517  -3.077  1.00  0.00     0.029 A 
ATOM     51  N   UNL     1       7.945  14.380  -5.158  1.00  0.00    -0.354 N 
ATOM     52  N   UNL     1      11.758  12.900  -7.309  1.00  0.00    -0.248 NA
ATOM     53  C   UNL     1      12.928  13.061  -5.297  1.00  0.00     0.031 C 
ATOM     54  C   UNL     1       9.778  14.305  -3.954  1.00  0.00     0.029 A 
ATOM     55  C   UNL     1       9.317  14.308  -5.267  1.00  0.00     0.049 A 
ATOM     56  H   UNL     1       7.323  14.513  -5.910  1.00  0.00     0.167 HD
ATOM     57  C   UNL     1      11.266  13.950  -6.600  1.00  0.00     0.074 A 
ATOM     58  C   UNL     1      12.226  14.171  -5.533  1.00  0.00     0.031 C 
ATOM     59  C   UNL     1       9.914  14.076  -6.569  1.00  0.00     0.034 A 
BRANCH  46  60
ATOM     60  C   UNL     1       5.189  13.436  -4.497  1.00  0.00     0.023 A 
ATOM     61  C   UNL     1       3.995  14.053  -4.106  1.00  0.00     0.031 A 
ATOM     62  C   UNL     1       5.184  12.700  -5.704  1.00  0.00     0.131 A 
ATOM     63  C   UNL     1       2.833  13.873  -4.876  1.00  0.00     0.055 A 
ATOM     64  C   UNL     1       4.018  12.474  -6.431  1.00  0.00     0.041 A 
ATOM     65  F   UNL     1       6.322  12.194  -6.206  1.00  0.00    -0.206 F 
ATOM     66  C   UNL     1       2.829  13.057  -6.012  1.00  0.00     0.022 A 
BRANCH  63  67
ATOM     67  S   UNL     1       1.331  14.762  -4.391  1.00  0.00     0.124 S 
ATOM     68  O   UNL     1       1.010  14.168  -3.101  1.00  0.00    -0.237 OA
ATOM     69  O   UNL     1       1.786  16.147  -4.355  1.00  0.00    -0.237 OA
ATOM     70  O   UNL     1       0.383  14.456  -5.470  1.00  0.00    -0.744 OA
ENDBRANCH  63  67
ENDBRANCH  46  60
BRANCH  47  71
ATOM     71  C   UNL     1      14.180  10.697  -7.141  1.00  0.00     0.023 A 
ATOM     72  C   UNL     1      14.902  11.823  -7.729  1.00  0.00     0.031 A 
ATOM     73  C   UNL     1      15.003   9.621  -6.790  1.00  0.00     0.131 A 
ATOM     74  C   UNL     1      16.323  11.847  -7.883  1.00  0.00     0.055 A 
ATOM     75  C   UNL     1      16.413   9.645  -6.955  1.00  0.00     0.041 A 
ATOM     76  F   UNL     1      14.485   8.550  -6.172  1.00  0.00    -0.206 F 
ATOM     77  C   UNL     1      17.077  10.755  -7.480  1.00  0.00     0.022 A 
BRANCH  74  78
ATOM     78  S   UNL     1      17.252  13.356  -8.425  1.00  0.00     0.124 S 
ATOM     79  O   UNL     1      17.032  13.379  -9.865  1.00  0.00    -0.237 OA
ATOM     80  O   UNL     1      16.626  14.423  -7.651  1.00  0.00    -0.237 OA
ATOM     81  O   UNL     1      18.634  13.068  -8.029  1.00  0.00    -0.744 OA
ENDBRANCH  74  78
ENDBRANCH  47  71
BRANCH  59  82
ATOM     82  C   UNL     1       9.151  13.785  -7.867  1.00  0.00     0.023 A 
ATOM     83  C   UNL     1       9.367  12.689  -8.749  1.00  0.00     0.031 A 
ATOM     84  C   UNL     1       8.198  14.729  -8.282  1.00  0.00     0.131 A 
ATOM     85  C   UNL     1       8.689  12.597  -9.983  1.00  0.00     0.055 A 
ATOM     86  C   UNL     1       7.490  14.614  -9.481  1.00  0.00     0.041 A 
ATOM     87  F   UNL     1       7.938  15.804  -7.521  1.00  0.00    -0.206 F 
ATOM     88  C   UNL     1       7.745  13.556 -10.346  1.00  0.00     0.022 A 
BRANCH  85  89
ATOM     89  S   UNL     1       9.090  11.269 -11.174  1.00  0.00     0.124 S 
ATOM     90  O   UNL     1      10.546  11.314 -11.254  1.00  0.00    -0.237 OA
ATOM     91  O   UNL     1       8.524  10.084 -10.536  1.00  0.00    -0.237 OA
ATOM     92  O   UNL     1       8.404  11.690 -12.397  1.00  0.00    -0.744 OA
ENDBRANCH  85  89
ENDBRANCH  59  82
ENDBRANCH  33  34
ENDBRANCH  25  28
ENDBRANCH  23  24
ENDBRANCH   1  23
TORSDOF 16
