REMARK SMILES Cc1cccc(Nc2ccccc2C(=O)NCCCNC(=O)c2ccc(-c3c4nc(c(-c5cc(S(=O)(=O)[O-])ccc5F)c5ccc([nH]5)c(-c5cc(S(=O)(=O)[O-])ccc5F)c5nc(c(-c6cc(S(=O)(=O)[O-])ccc6F)c6ccc3[nH]6)C=C5)C=C4)cc2)c1C
REMARK SMILES IDX 18 1 17 2 16 3 14 4 15 5 13 7 8 8 9 9 10 10 12 11 11 12 7 13
REMARK SMILES IDX 6 15 1 16 2 17 3 18 86 19 4 20 87 21 5 22 19 23 20 24 21 25
REMARK SMILES IDX 22 27 23 28 24 29 85 30 25 31 84 32 26 33 27 34 28 35 78 36
REMARK SMILES IDX 29 37 83 38 77 39 79 40 30 41 82 42 76 43 75 44 31 46 63 47
REMARK SMILES IDX 43 48 62 49 44 50 47 51 61 52 80 53 45 54 46 55 60 57 81 58
REMARK SMILES IDX 48 59 32 60 33 61 41 62 34 63 40 64 42 65 39 66 35 67 36 68
REMARK SMILES IDX 37 69 38 70 64 71 65 72 73 73 66 74 72 75 74 76 71 77 67 78
REMARK SMILES IDX 68 79 69 80 70 81 49 82 50 83 58 84 51 85 57 86 59 87 56 88
REMARK SMILES IDX 52 89 53 90 54 91 55 92
REMARK H PARENT 16 6 7 14 20 26 79 45 47 56
REMARK Flexibility Score: inf
ROOT
ATOM      1  C   UNL     1      -2.488  -2.228   2.362  1.00  0.00     0.042 C 
ENDROOT
BRANCH   1   2
ATOM      2  C   UNL     1      -1.181  -2.188   1.603  1.00  0.00     0.118 C 
BRANCH   2   3
ATOM      3  N   UNL     1       0.025  -2.227   2.384  1.00  0.00    -0.352 N 
ATOM      4  C   UNL     1       1.277  -2.628   1.979  1.00  0.00     0.253 C 
ATOM      5  O   UNL     1       2.228  -2.293   2.693  1.00  0.00    -0.269 OA
ATOM      6  H   UNL     1      -0.054  -1.933   3.320  1.00  0.00     0.163 HD
BRANCH   4   7
ATOM      7  C   UNL     1       1.537  -3.571   0.839  1.00  0.00     0.063 A 
ATOM      8  C   UNL     1       0.971  -3.618  -0.455  1.00  0.00     0.051 A 
ATOM      9  C   UNL     1       1.319  -4.713  -1.289  1.00  0.00     0.027 A 
ATOM     10  C   UNL     1       2.241  -5.686  -0.910  1.00  0.00     0.002 A 
ATOM     11  C   UNL     1       2.492  -4.562   1.191  1.00  0.00     0.016 A 
ATOM     12  C   UNL     1       2.850  -5.597   0.328  1.00  0.00     0.001 A 
BRANCH   8  13
ATOM     13  N   UNL     1       0.165  -2.655  -1.103  1.00  0.00    -0.355 N 
ATOM     14  H   UNL     1      -0.519  -3.068  -1.679  1.00  0.00     0.167 HD
BRANCH  13  15
ATOM     15  C   UNL     1       0.103  -1.247  -1.125  1.00  0.00     0.042 A 
ATOM     16  C   UNL     1       1.976   1.940  -0.129  1.00  0.00     0.044 C 
ATOM     17  C   UNL     1       0.898   0.994  -0.586  1.00  0.00    -0.046 A 
ATOM     18  C   UNL     1      -0.393   1.503  -0.794  1.00  0.00     0.004 A 
ATOM     19  C   UNL     1       1.166  -0.384  -0.801  1.00  0.00    -0.025 A 
ATOM     20  C   UNL     1      -1.420   0.670  -1.212  1.00  0.00     0.002 A 
ATOM     21  C   UNL     1       2.586  -0.878  -0.709  1.00  0.00     0.047 C 
ATOM     22  C   UNL     1      -1.173  -0.689  -1.377  1.00  0.00     0.026 A 
ENDBRANCH  13  15
ENDBRANCH   8  13
ENDBRANCH   4   7
ENDBRANCH   2   3
ENDBRANCH   1   2
BRANCH   1  23
ATOM     23  C   UNL     1      -2.871  -0.916   3.031  1.00  0.00     0.118 C 
BRANCH  23  24
ATOM     24  N   UNL     1      -3.037   0.215   2.114  1.00  0.00    -0.352 N 
ATOM     25  C   UNL     1      -4.151   0.927   1.711  1.00  0.00     0.251 C 
ATOM     26  H   UNL     1      -2.196   0.526   1.708  1.00  0.00     0.163 HD
ATOM     27  O   UNL     1      -4.043   1.777   0.842  1.00  0.00    -0.269 OA
BRANCH  25  28
ATOM     28  C   UNL     1      -5.481   0.625   2.290  1.00  0.00     0.039 A 
ATOM     29  C   UNL     1      -6.611   0.633   1.465  1.00  0.00     0.014 A 
ATOM     30  C   UNL     1      -5.617   0.307   3.637  1.00  0.00     0.014 A 
ATOM     31  C   UNL     1      -7.844   0.207   1.971  1.00  0.00     0.010 A 
ATOM     32  C   UNL     1      -6.796  -0.258   4.095  1.00  0.00     0.010 A 
ATOM     33  C   UNL     1      -7.932  -0.303   3.275  1.00  0.00    -0.014 A 
BRANCH  33  34
ATOM     34  C   UNL     1      -9.195  -0.844   3.843  1.00  0.00     0.031 A 
ATOM     35  C   UNL     1      -9.735  -0.259   5.123  1.00  0.00     0.074 A 
ATOM     36  C   UNL     1      -9.784  -1.921   3.287  1.00  0.00     0.049 A 
ATOM     37  N   UNL     1     -10.688  -0.696   5.904  1.00  0.00    -0.248 NA
ATOM     38  C   UNL     1      -9.057   0.948   5.624  1.00  0.00     0.031 C 
ATOM     39  C   UNL     1      -9.319  -2.619   2.085  1.00  0.00     0.029 A 
ATOM     40  N   UNL     1     -10.892  -2.634   3.671  1.00  0.00    -0.354 N 
ATOM     41  C   UNL     1     -10.692   0.156   7.004  1.00  0.00     0.074 A 
ATOM     42  C   UNL     1      -9.584   1.069   6.830  1.00  0.00     0.031 C 
ATOM     43  C   UNL     1     -10.149  -3.640   1.818  1.00  0.00     0.029 A 
ATOM     44  C   UNL     1     -11.173  -3.706   2.855  1.00  0.00     0.049 A 
ATOM     45  H   UNL     1     -11.435  -2.401   4.459  1.00  0.00     0.167 HD
ATOM     46  C   UNL     1     -11.563   0.202   8.043  1.00  0.00     0.034 A 
ATOM     47  C   UNL     1     -12.138  -4.643   2.942  1.00  0.00     0.034 A 
ATOM     48  C   UNL     1     -12.684  -0.696   8.172  1.00  0.00     0.049 A 
ATOM     49  C   UNL     1     -13.117  -4.562   4.085  1.00  0.00     0.074 A 
ATOM     50  C   UNL     1     -13.668  -0.720   9.143  1.00  0.00     0.029 A 
ATOM     51  N   UNL     1     -12.973  -1.730   7.287  1.00  0.00    -0.354 N 
ATOM     52  N   UNL     1     -13.136  -3.726   5.099  1.00  0.00    -0.248 NA
ATOM     53  C   UNL     1     -14.213  -5.537   4.087  1.00  0.00     0.031 C 
ATOM     54  C   UNL     1     -14.519  -1.799   8.877  1.00  0.00     0.029 A 
ATOM     55  C   UNL     1     -14.111  -2.405   7.699  1.00  0.00     0.049 A 
ATOM     56  H   UNL     1     -12.446  -1.950   6.486  1.00  0.00     0.167 HD
ATOM     57  C   UNL     1     -14.262  -4.059   5.845  1.00  0.00     0.074 A 
ATOM     58  C   UNL     1     -14.904  -5.160   5.153  1.00  0.00     0.031 C 
ATOM     59  C   UNL     1     -14.728  -3.506   6.995  1.00  0.00     0.034 A 
BRANCH  46  60
ATOM     60  C   UNL     1     -11.315   1.250   9.106  1.00  0.00     0.023 A 
ATOM     61  C   UNL     1     -11.278   2.622   8.792  1.00  0.00     0.031 A 
ATOM     62  C   UNL     1     -11.036   0.879  10.433  1.00  0.00     0.131 A 
ATOM     63  C   UNL     1     -10.854   3.553   9.751  1.00  0.00     0.055 A 
ATOM     64  C   UNL     1     -10.716   1.824  11.412  1.00  0.00     0.041 A 
ATOM     65  F   UNL     1     -11.036  -0.413  10.797  1.00  0.00    -0.206 F 
ATOM     66  C   UNL     1     -10.600   3.168  11.068  1.00  0.00     0.022 A 
BRANCH  63  67
ATOM     67  S   UNL     1     -10.453   5.235   9.199  1.00  0.00     0.124 S 
ATOM     68  O   UNL     1      -9.408   4.977   8.210  1.00  0.00    -0.237 OA
ATOM     69  O   UNL     1     -11.728   5.707   8.672  1.00  0.00    -0.237 OA
ATOM     70  O   UNL     1      -9.996   5.896  10.419  1.00  0.00    -0.744 OA
ENDBRANCH  63  67
ENDBRANCH  46  60
BRANCH  47  71
ATOM     71  C   UNL     1     -12.227  -5.728   1.923  1.00  0.00     0.023 A 
ATOM     72  C   UNL     1     -13.311  -5.801   1.035  1.00  0.00     0.031 A 
ATOM     73  C   UNL     1     -11.230  -6.715   1.829  1.00  0.00     0.131 A 
ATOM     74  C   UNL     1     -13.393  -6.859   0.114  1.00  0.00     0.055 A 
ATOM     75  C   UNL     1     -11.292  -7.739   0.880  1.00  0.00     0.041 A 
ATOM     76  F   UNL     1     -10.165  -6.686   2.646  1.00  0.00    -0.206 F 
ATOM     77  C   UNL     1     -12.384  -7.820   0.023  1.00  0.00     0.022 A 
BRANCH  74  78
ATOM     78  S   UNL     1     -14.873  -6.995  -0.926  1.00  0.00     0.124 S 
ATOM     79  O   UNL     1     -15.930  -7.104   0.073  1.00  0.00    -0.237 OA
ATOM     80  O   UNL     1     -14.829  -5.747  -1.680  1.00  0.00    -0.237 OA
ATOM     81  O   UNL     1     -14.628  -8.203  -1.711  1.00  0.00    -0.744 OA
ENDBRANCH  74  78
ENDBRANCH  47  71
BRANCH  59  82
ATOM     82  C   UNL     1     -16.019  -4.060   7.544  1.00  0.00     0.023 A 
ATOM     83  C   UNL     1     -16.108  -5.368   8.050  1.00  0.00     0.031 A 
ATOM     84  C   UNL     1     -17.179  -3.264   7.553  1.00  0.00     0.131 A 
ATOM     85  C   UNL     1     -17.345  -5.862   8.491  1.00  0.00     0.055 A 
ATOM     86  C   UNL     1     -18.391  -3.740   8.051  1.00  0.00     0.041 A 
ATOM     87  F   UNL     1     -17.149  -2.007   7.080  1.00  0.00    -0.206 F 
ATOM     88  C   UNL     1     -18.482  -5.050   8.511  1.00  0.00     0.022 A 
BRANCH  85  89
ATOM     89  S   UNL     1     -17.468  -7.612   8.948  1.00  0.00     0.124 S 
ATOM     90  O   UNL     1     -17.039  -8.277   7.722  1.00  0.00    -0.237 OA
ATOM     91  O   UNL     1     -16.550  -7.704  10.079  1.00  0.00    -0.237 OA
ATOM     92  O   UNL     1     -18.881  -7.780   9.283  1.00  0.00    -0.744 OA
ENDBRANCH  85  89
ENDBRANCH  59  82
ENDBRANCH  33  34
ENDBRANCH  25  28
ENDBRANCH  23  24
ENDBRANCH   1  23
TORSDOF 15
