REMARK SMILES CC(=O)c1ccc(N2/C(=[NH+]/C(=O)CCCC(=O)NCCCNC(=O)c3ccc(-c4c5nc(c(-c6cc(S(=O)(=O)[O-])ccc6F)c6ccc([nH]6)c(-c6cc(S(=O)(=O)[O-])ccc6F)c6nc(c(-c7cc(S(=O)(=O)[O-])ccc7F)c7ccc4[nH]7)C=C6)C=C5)cc3)S[C@H]3CS(=O)(=O)C[C@H]32)cc1
REMARK SMILES IDX 19 1 18 2 16 3 17 4 15 6 14 7 13 8 11 9 8 10 9 11 95 12
REMARK SMILES IDX 10 13 88 14 89 15 94 16 90 18 91 19 12 20 92 21 93 22 7 23
REMARK SMILES IDX 4 24 5 25 97 26 6 27 96 28 2 29 1 30 3 31 20 32 21 33 22 34
REMARK SMILES IDX 23 35 24 37 25 38 26 39 87 40 27 41 86 42 28 43 29 44 30 45
REMARK SMILES IDX 80 46 31 47 85 48 79 49 81 50 32 51 84 52 78 53 77 54 33 56
REMARK SMILES IDX 65 57 45 58 64 59 46 60 49 61 63 62 82 63 47 64 48 65 62 67
REMARK SMILES IDX 83 68 50 69 34 70 35 71 43 72 36 73 42 74 44 75 41 76 37 77
REMARK SMILES IDX 38 78 39 79 40 80 66 81 67 82 75 83 68 84 74 85 76 86 73 87
REMARK SMILES IDX 69 88 70 89 71 90 72 91 51 92 52 93 60 94 53 95 59 96 61 97
REMARK SMILES IDX 58 98 54 99 55 100 56 101 57 102
REMARK H PARENT 18 5 10 17 22 36 81 55 49 66
REMARK Flexibility Score: inf
ROOT
ATOM      1  C   UNL     1       2.797  -3.179   7.929  1.00  0.00     0.117 C 
ENDROOT
BRANCH   1   2
ATOM      2  N   UNL     1       3.155  -1.776   7.891  1.00  0.00    -0.356 N 
ATOM      3  C   UNL     1       4.071  -1.128   7.121  1.00  0.00     0.220 C 
ATOM      4  O   UNL     1       4.254   0.074   7.321  1.00  0.00    -0.275 OA
ATOM      5  H   UNL     1       2.659  -1.203   8.519  1.00  0.00     0.163 HD
BRANCH   3   6
ATOM      6  C   UNL     1       4.804  -1.847   6.007  1.00  0.00     0.100 C 
BRANCH   6   7
ATOM      7  C   UNL     1       6.109  -2.546   6.398  1.00  0.00     0.022 C 
BRANCH   7   8
ATOM      8  C   UNL     1       6.040  -3.979   6.927  1.00  0.00     0.128 C 
BRANCH   8   9
ATOM      9  C   UNL     1       5.583  -5.067   5.954  1.00  0.00     0.307 C 
ATOM     10  N   UNL     1       2.368  -5.381   4.220  1.00  0.00    -0.217 N 
ATOM     11  C   UNL     1       3.587  -5.646   4.849  1.00  0.00     0.319 C 
ATOM     12  C   UNL     1       1.445  -6.527   4.099  1.00  0.00     0.212 C 
ATOM     13  N   UNL     1       4.447  -4.763   5.242  1.00  0.00    -0.204 N 
ATOM     14  S   UNL     1       3.728  -7.393   5.117  1.00  0.00    -0.029 SA
ATOM     15  C   UNL     1       2.330  -7.781   4.027  1.00  0.00     0.120 C 
ATOM     16  C   UNL     1       0.541  -6.679   5.317  1.00  0.00     0.188 C 
ATOM     17  H   UNL     1       4.278  -3.820   5.018  1.00  0.00     0.316 HD
ATOM     18  C   UNL     1       1.557  -9.005   4.484  1.00  0.00     0.156 C 
ATOM     19  S   UNL     1       0.112  -8.397   5.318  1.00  0.00     0.155 S 
ATOM     20  O   UNL     1       6.218  -6.115   5.890  1.00  0.00    -0.247 OA
ATOM     21  O   UNL     1       0.098  -8.882   6.675  1.00  0.00    -0.229 OA
ATOM     22  O   UNL     1      -1.014  -8.561   4.417  1.00  0.00    -0.229 OA
BRANCH  10  23
ATOM     23  C   UNL     1       1.971  -4.163   3.631  1.00  0.00     0.128 A 
ATOM     24  C   UNL     1       1.107  -1.800   2.285  1.00  0.00     0.018 A 
ATOM     25  C   UNL     1       0.225  -2.528   3.081  1.00  0.00     0.016 A 
ATOM     26  C   UNL     1       2.434  -2.226   2.190  1.00  0.00     0.016 A 
ATOM     27  C   UNL     1       0.651  -3.692   3.732  1.00  0.00     0.052 A 
ATOM     28  C   UNL     1       2.859  -3.385   2.870  1.00  0.00     0.052 A 
BRANCH  24  29
ATOM     29  C   UNL     1       0.568  -0.605   1.571  1.00  0.00     0.159 C 
ATOM     30  C   UNL     1       1.200  -0.175   0.274  1.00  0.00     0.093 C 
ATOM     31  O   UNL     1      -0.436  -0.043   2.004  1.00  0.00    -0.295 OA
ENDBRANCH  24  29
ENDBRANCH  10  23
ENDBRANCH   8   9
ENDBRANCH   7   8
ENDBRANCH   6   7
ENDBRANCH   3   6
ENDBRANCH   1   2
BRANCH   1  32
ATOM     32  C   UNL     1       3.286  -3.837   9.214  1.00  0.00     0.042 C 
BRANCH  32  33
ATOM     33  C   UNL     1       2.369  -3.594  10.400  1.00  0.00     0.118 C 
BRANCH  33  34
ATOM     34  N   UNL     1       1.131  -4.351  10.298  1.00  0.00    -0.352 N 
ATOM     35  C   UNL     1       0.588  -5.260  11.174  1.00  0.00     0.251 C 
ATOM     36  H   UNL     1       0.606  -4.189   9.481  1.00  0.00     0.163 HD
ATOM     37  O   UNL     1      -0.369  -5.938  10.812  1.00  0.00    -0.269 OA
BRANCH  35  38
ATOM     38  C   UNL     1       1.164  -5.431  12.528  1.00  0.00     0.039 A 
ATOM     39  C   UNL     1       1.254  -6.714  13.075  1.00  0.00     0.014 A 
ATOM     40  C   UNL     1       1.606  -4.330  13.265  1.00  0.00     0.014 A 
ATOM     41  C   UNL     1       1.838  -6.894  14.333  1.00  0.00     0.010 A 
ATOM     42  C   UNL     1       2.279  -4.520  14.466  1.00  0.00     0.010 A 
ATOM     43  C   UNL     1       2.386  -5.802  15.025  1.00  0.00    -0.014 A 
BRANCH  43  44
ATOM     44  C   UNL     1       3.033  -5.960  16.355  1.00  0.00     0.031 A 
ATOM     45  C   UNL     1       2.464  -5.237  17.549  1.00  0.00     0.074 A 
ATOM     46  C   UNL     1       4.159  -6.690  16.477  1.00  0.00     0.049 A 
ATOM     47  N   UNL     1       2.937  -5.141  18.765  1.00  0.00    -0.248 NA
ATOM     48  C   UNL     1       1.214  -4.491  17.333  1.00  0.00     0.031 C 
ATOM     49  C   UNL     1       4.822  -7.412  15.389  1.00  0.00     0.029 A 
ATOM     50  N   UNL     1       4.954  -6.937  17.569  1.00  0.00    -0.354 N 
ATOM     51  C   UNL     1       2.056  -4.309  19.450  1.00  0.00     0.074 A 
ATOM     52  C   UNL     1       1.063  -3.873  18.493  1.00  0.00     0.031 C 
ATOM     53  C   UNL     1       5.904  -8.042  15.873  1.00  0.00     0.029 A 
ATOM     54  C   UNL     1       6.049  -7.724  17.290  1.00  0.00     0.049 A 
ATOM     55  H   UNL     1       4.760  -6.585  18.467  1.00  0.00     0.167 HD
ATOM     56  C   UNL     1       2.060  -3.964  20.761  1.00  0.00     0.034 A 
ATOM     57  C   UNL     1       7.063  -8.127  18.082  1.00  0.00     0.034 A 
ATOM     58  C   UNL     1       3.050  -4.424  21.703  1.00  0.00     0.049 A 
ATOM     59  C   UNL     1       7.067  -7.700  19.529  1.00  0.00     0.074 A 
ATOM     60  C   UNL     1       3.124  -4.180  23.063  1.00  0.00     0.029 A 
ATOM     61  N   UNL     1       4.145  -5.218  21.383  1.00  0.00    -0.354 N 
ATOM     62  N   UNL     1       6.204  -6.946  20.172  1.00  0.00    -0.248 NA
ATOM     63  C   UNL     1       8.177  -8.185  20.360  1.00  0.00     0.031 C 
ATOM     64  C   UNL     1       4.302  -4.757  23.548  1.00  0.00     0.029 A 
ATOM     65  C   UNL     1       4.917  -5.443  22.512  1.00  0.00     0.049 A 
ATOM     66  H   UNL     1       4.343  -5.570  20.485  1.00  0.00     0.167 HD
ATOM     67  C   UNL     1       6.649  -6.900  21.491  1.00  0.00     0.074 A 
ATOM     68  C   UNL     1       7.847  -7.711  21.552  1.00  0.00     0.031 C 
ATOM     69  C   UNL     1       6.114  -6.250  22.557  1.00  0.00     0.034 A 
BRANCH  56  70
ATOM     70  C   UNL     1       0.976  -3.024  21.238  1.00  0.00     0.023 A 
ATOM     71  C   UNL     1      -0.386  -3.365  21.163  1.00  0.00     0.031 A 
ATOM     72  C   UNL     1       1.306  -1.756  21.750  1.00  0.00     0.131 A 
ATOM     73  C   UNL     1      -1.366  -2.424  21.513  1.00  0.00     0.055 A 
ATOM     74  C   UNL     1       0.329  -0.858  22.183  1.00  0.00     0.041 A 
ATOM     75  F   UNL     1       2.587  -1.362  21.825  1.00  0.00    -0.206 F 
ATOM     76  C   UNL     1      -1.018  -1.183  22.049  1.00  0.00     0.022 A 
BRANCH  73  77
ATOM     77  S   UNL     1      -3.097  -2.785  21.107  1.00  0.00     0.124 S 
ATOM     78  O   UNL     1      -3.026  -2.971  19.659  1.00  0.00    -0.237 OA
ATOM     79  O   UNL     1      -3.362  -3.983  21.893  1.00  0.00    -0.237 OA
ATOM     80  O   UNL     1      -3.808  -1.583  21.538  1.00  0.00    -0.744 OA
ENDBRANCH  73  77
ENDBRANCH  56  70
BRANCH  57  81
ATOM     81  C   UNL     1       8.168  -8.967  17.532  1.00  0.00     0.023 A 
ATOM     82  C   UNL     1       8.400 -10.264  18.016  1.00  0.00     0.031 A 
ATOM     83  C   UNL     1       9.040  -8.467  16.548  1.00  0.00     0.131 A 
ATOM     84  C   UNL     1       9.506 -10.997  17.556  1.00  0.00     0.055 A 
ATOM     85  C   UNL     1      10.102  -9.223  16.048  1.00  0.00     0.041 A 
ATOM     86  F   UNL     1       8.865  -7.233  16.049  1.00  0.00    -0.206 F 
ATOM     87  C   UNL     1      10.349 -10.492  16.564  1.00  0.00     0.022 A 
BRANCH  84  88
ATOM     88  S   UNL     1       9.889 -12.582  18.351  1.00  0.00     0.124 S 
ATOM     89  O   UNL     1      10.046 -12.184  19.745  1.00  0.00    -0.237 OA
ATOM     90  O   UNL     1       8.702 -13.372  18.038  1.00  0.00    -0.237 OA
ATOM     91  O   UNL     1      11.115 -13.011  17.681  1.00  0.00    -0.744 OA
ENDBRANCH  84  88
ENDBRANCH  57  81
BRANCH  69  92
ATOM     92  C   UNL     1       6.791  -6.441  23.893  1.00  0.00     0.023 A 
ATOM     93  C   UNL     1       8.092  -5.970  24.142  1.00  0.00     0.031 A 
ATOM     94  C   UNL     1       6.121  -7.111  24.933  1.00  0.00     0.131 A 
ATOM     95  C   UNL     1       8.702  -6.226  25.380  1.00  0.00     0.055 A 
ATOM     96  C   UNL     1       6.707  -7.300  26.185  1.00  0.00     0.041 A 
ATOM     97  F   UNL     1       4.878  -7.586  24.751  1.00  0.00    -0.206 F 
ATOM     98  C   UNL     1       8.011  -6.869  26.409  1.00  0.00     0.022 A 
BRANCH  95  99
ATOM     99  S   UNL     1      10.452  -5.798  25.593  1.00  0.00     0.124 S 
ATOM    100  O   UNL     1      11.083  -6.561  24.521  1.00  0.00    -0.237 OA
ATOM    101  O   UNL     1      10.442  -4.348  25.422  1.00  0.00    -0.237 OA
ATOM    102  O   UNL     1      10.756  -6.260  26.946  1.00  0.00    -0.744 OA
ENDBRANCH  95  99
ENDBRANCH  69  92
ENDBRANCH  43  44
ENDBRANCH  35  38
ENDBRANCH  33  34
ENDBRANCH  32  33
ENDBRANCH   1  32
TORSDOF 18
