REMARK SMILES Cc1noc(-c2cc(=O)n(CC(=O)NCCCNC(=O)c3ccc(-c4c5nc(c(-c6cc(S(=O)(=O)[O-])ccc6F)c6ccc([nH]6)c(-c6cc(S(=O)(=O)[O-])ccc6F)c6nc(c(-c7cc(S(=O)(=O)[O-])ccc7F)c7ccc4[nH]7)C=C6)C=C5)cc3)c3ccccc23)n1
REMARK SMILES IDX 16 1 15 2 14 3 12 4 13 5 11 7 10 8 6 9 7 10 89 11 8 12 84 13
REMARK SMILES IDX 88 14 9 15 85 16 87 17 86 18 5 19 1 20 2 21 3 22 90 23 4 24
REMARK SMILES IDX 17 25 18 26 19 27 20 29 21 30 22 31 83 32 23 33 82 34 24 35
REMARK SMILES IDX 25 36 26 37 76 38 27 39 81 40 75 41 77 42 28 43 80 44 74 45
REMARK SMILES IDX 73 46 29 48 61 49 41 50 60 51 42 52 45 53 59 54 78 55 43 56
REMARK SMILES IDX 44 57 58 59 79 60 46 61 30 62 31 63 39 64 32 65 38 66 40 67
REMARK SMILES IDX 37 68 33 69 34 70 35 71 36 72 62 73 63 74 71 75 64 76 70 77
REMARK SMILES IDX 72 78 69 79 65 80 66 81 67 82 68 83 47 84 48 85 56 86 49 87
REMARK SMILES IDX 55 88 57 89 54 90 50 91 51 92 52 93 53 94
REMARK H PARENT 14 6 18 28 77 47 45 58
REMARK Flexibility Score: inf
ROOT
ATOM      1  C   UNL     1       2.865   4.845  -3.002  1.00  0.00     0.042 C 
ENDROOT
BRANCH   1   2
ATOM      2  C   UNL     1       4.372   5.049  -3.107  1.00  0.00     0.117 C 
BRANCH   2   3
ATOM      3  N   UNL     1       4.898   5.897  -2.056  1.00  0.00    -0.354 N 
ATOM      4  C   UNL     1       5.603   5.563  -0.939  1.00  0.00     0.240 C 
ATOM      5  O   UNL     1       6.091   6.484  -0.276  1.00  0.00    -0.273 OA
ATOM      6  H   UNL     1       4.719   6.859  -2.165  1.00  0.00     0.163 HD
BRANCH   4   7
ATOM      7  C   UNL     1       5.883   4.102  -0.565  1.00  0.00     0.225 C 
BRANCH   7   8
ATOM      8  N   UNL     1       4.712   3.247  -0.349  1.00  0.00    -0.299 N 
ATOM      9  C   UNL     1       2.426   1.564  -0.059  1.00  0.00     0.055 A 
ATOM     10  C   UNL     1       3.361   1.309  -0.986  1.00  0.00     0.086 A 
ATOM     11  C   UNL     1       2.647   2.708   0.856  1.00  0.00     0.011 A 
ATOM     12  C   UNL     1       4.567   2.138  -1.165  1.00  0.00     0.252 A 
ATOM     13  C   UNL     1       3.788   3.522   0.709  1.00  0.00     0.053 A 
ATOM     14  C   UNL     1       1.740   2.982   1.898  1.00  0.00     0.011 A 
ATOM     15  O   UNL     1       5.364   1.812  -2.042  1.00  0.00    -0.269 OA
ATOM     16  C   UNL     1       3.992   4.573   1.619  1.00  0.00     0.027 A 
ATOM     17  C   UNL     1       1.949   4.041   2.779  1.00  0.00     0.001 A 
ATOM     18  C   UNL     1       3.077   4.834   2.642  1.00  0.00     0.002 A 
BRANCH   9  19
ATOM     19  C   UNL     1       1.276   0.706  -0.069  1.00  0.00     0.258 A 
ATOM     20  C   UNL     1      -2.160  -0.109   0.071  1.00  0.00     0.093 C 
ATOM     21  C   UNL     1      -0.689  -0.083  -0.014  1.00  0.00     0.169 A 
ATOM     22  N   UNL     1       0.055  -1.166  -0.250  1.00  0.00    -0.062 NA
ATOM     23  N   UNL     1       0.022   1.078   0.118  1.00  0.00    -0.192 NA
ATOM     24  O   UNL     1       1.349  -0.658  -0.297  1.00  0.00    -0.334 OA
ENDBRANCH   9  19
ENDBRANCH   7   8
ENDBRANCH   4   7
ENDBRANCH   2   3
ENDBRANCH   1   2
BRANCH   1  25
ATOM     25  C   UNL     1       2.043   6.124  -3.148  1.00  0.00     0.118 C 
BRANCH  25  26
ATOM     26  N   UNL     1       2.160   6.740  -4.465  1.00  0.00    -0.352 N 
ATOM     27  C   UNL     1       1.192   7.056  -5.389  1.00  0.00     0.251 C 
ATOM     28  H   UNL     1       3.080   6.966  -4.735  1.00  0.00     0.163 HD
ATOM     29  O   UNL     1       1.532   7.451  -6.503  1.00  0.00    -0.269 OA
BRANCH  27  30
ATOM     30  C   UNL     1      -0.243   6.887  -5.068  1.00  0.00     0.039 A 
ATOM     31  C   UNL     1      -0.757   7.279  -3.831  1.00  0.00     0.014 A 
ATOM     32  C   UNL     1      -1.092   6.322  -6.026  1.00  0.00     0.014 A 
ATOM     33  C   UNL     1      -2.062   6.939  -3.485  1.00  0.00     0.010 A 
ATOM     34  C   UNL     1      -2.429   6.060  -5.706  1.00  0.00     0.010 A 
ATOM     35  C   UNL     1      -2.911   6.312  -4.413  1.00  0.00    -0.014 A 
BRANCH  35  36
ATOM     36  C   UNL     1      -4.288   5.922  -4.002  1.00  0.00     0.031 A 
ATOM     37  C   UNL     1      -4.693   4.472  -3.946  1.00  0.00     0.074 A 
ATOM     38  C   UNL     1      -5.159   6.878  -3.622  1.00  0.00     0.049 A 
ATOM     39  N   UNL     1      -5.831   3.950  -3.564  1.00  0.00    -0.248 NA
ATOM     40  C   UNL     1      -3.697   3.477  -4.377  1.00  0.00     0.031 C 
ATOM     41  C   UNL     1      -4.879   8.314  -3.637  1.00  0.00     0.029 A 
ATOM     42  N   UNL     1      -6.436   6.793  -3.127  1.00  0.00    -0.354 N 
ATOM     43  C   UNL     1      -5.696   2.574  -3.722  1.00  0.00     0.074 A 
ATOM     44  C   UNL     1      -4.378   2.343  -4.271  1.00  0.00     0.031 C 
ATOM     45  C   UNL     1      -5.926   8.970  -3.119  1.00  0.00     0.029 A 
ATOM     46  C   UNL     1      -6.981   8.013  -2.794  1.00  0.00     0.049 A 
ATOM     47  H   UNL     1      -6.918   5.941  -3.020  1.00  0.00     0.167 HD
ATOM     48  C   UNL     1      -6.580   1.595  -3.414  1.00  0.00     0.034 A 
ATOM     49  C   UNL     1      -8.190   8.330  -2.288  1.00  0.00     0.034 A 
ATOM     50  C   UNL     1      -7.874   1.836  -2.830  1.00  0.00     0.049 A 
ATOM     51  C   UNL     1      -9.161   7.222  -1.971  1.00  0.00     0.074 A 
ATOM     52  C   UNL     1      -8.821   0.904  -2.443  1.00  0.00     0.029 A 
ATOM     53  N   UNL     1      -8.401   3.085  -2.537  1.00  0.00    -0.354 N 
ATOM     54  N   UNL     1      -8.994   5.925  -2.077  1.00  0.00    -0.248 NA
ATOM     55  C   UNL     1     -10.484   7.614  -1.464  1.00  0.00     0.031 C 
ATOM     56  C   UNL     1      -9.938   1.589  -1.966  1.00  0.00     0.029 A 
ATOM     57  C   UNL     1      -9.668   2.948  -1.995  1.00  0.00     0.049 A 
ATOM     58  H   UNL     1      -7.942   3.942  -2.692  1.00  0.00     0.167 HD
ATOM     59  C   UNL     1     -10.179   5.347  -1.633  1.00  0.00     0.074 A 
ATOM     60  C   UNL     1     -11.046   6.435  -1.230  1.00  0.00     0.031 C 
ATOM     61  C   UNL     1     -10.519   4.035  -1.573  1.00  0.00     0.034 A 
BRANCH  48  62
ATOM     62  C   UNL     1      -6.186   0.158  -3.653  1.00  0.00     0.023 A 
ATOM     63  C   UNL     1      -6.899  -0.637  -4.569  1.00  0.00     0.031 A 
ATOM     64  C   UNL     1      -5.199  -0.460  -2.866  1.00  0.00     0.131 A 
ATOM     65  C   UNL     1      -6.632  -2.010  -4.652  1.00  0.00     0.055 A 
ATOM     66  C   UNL     1      -4.905  -1.818  -2.982  1.00  0.00     0.041 A 
ATOM     67  F   UNL     1      -4.510   0.256  -1.965  1.00  0.00    -0.206 F 
ATOM     68  C   UNL     1      -5.633  -2.603  -3.871  1.00  0.00     0.022 A 
BRANCH  65  69
ATOM     69  S   UNL     1      -7.615  -3.096  -5.721  1.00  0.00     0.124 S 
ATOM     70  O   UNL     1      -6.592  -3.653  -6.603  1.00  0.00    -0.237 OA
ATOM     71  O   UNL     1      -8.187  -4.034  -4.758  1.00  0.00    -0.237 OA
ATOM     72  O   UNL     1      -8.563  -2.192  -6.362  1.00  0.00    -0.744 OA
ENDBRANCH  65  69
ENDBRANCH  48  62
BRANCH  49  73
ATOM     73  C   UNL     1      -8.508   9.761  -2.005  1.00  0.00     0.023 A 
ATOM     74  C   UNL     1      -8.512  10.719  -3.036  1.00  0.00     0.031 A 
ATOM     75  C   UNL     1      -8.700  10.209  -0.688  1.00  0.00     0.131 A 
ATOM     76  C   UNL     1      -8.627  12.080  -2.724  1.00  0.00     0.055 A 
ATOM     77  C   UNL     1      -8.889  11.560  -0.389  1.00  0.00     0.041 A 
ATOM     78  F   UNL     1      -8.692   9.336   0.331  1.00  0.00    -0.206 F 
ATOM     79  C   UNL     1      -8.833  12.505  -1.408  1.00  0.00     0.022 A 
BRANCH  76  80
ATOM     80  S   UNL     1      -8.365  13.349  -3.994  1.00  0.00     0.124 S 
ATOM     81  O   UNL     1      -9.655  14.032  -4.012  1.00  0.00    -0.237 OA
ATOM     82  O   UNL     1      -7.254  14.112  -3.429  1.00  0.00    -0.237 OA
ATOM     83  O   UNL     1      -8.041  12.578  -5.189  1.00  0.00    -0.744 OA
ENDBRANCH  76  80
ENDBRANCH  49  73
BRANCH  61  84
ATOM     84  C   UNL     1     -11.884   3.663  -1.048  1.00  0.00     0.023 A 
ATOM     85  C   UNL     1     -12.000   2.888   0.123  1.00  0.00     0.031 A 
ATOM     86  C   UNL     1     -13.048   3.930  -1.788  1.00  0.00     0.131 A 
ATOM     87  C   UNL     1     -13.247   2.370   0.494  1.00  0.00     0.055 A 
ATOM     88  C   UNL     1     -14.296   3.451  -1.387  1.00  0.00     0.041 A 
ATOM     89  F   UNL     1     -12.986   4.655  -2.917  1.00  0.00    -0.206 F 
ATOM     90  C   UNL     1     -14.396   2.653  -0.251  1.00  0.00     0.022 A 
BRANCH  87  91
ATOM     91  S   UNL     1     -13.407   1.233   1.899  1.00  0.00     0.124 S 
ATOM     92  O   UNL     1     -14.307   1.970   2.782  1.00  0.00    -0.237 OA
ATOM     93  O   UNL     1     -13.982   0.047   1.271  1.00  0.00    -0.237 OA
ATOM     94  O   UNL     1     -12.040   1.083   2.389  1.00  0.00    -0.744 OA
ENDBRANCH  87  91
ENDBRANCH  61  84
ENDBRANCH  35  36
ENDBRANCH  27  30
ENDBRANCH  25  26
ENDBRANCH   1  25
TORSDOF 15
