REMARK SMILES CCCSc1nc2n(n1)[C@@H](c1ccc(C(=O)NCCCNC(=O)c3ccc(-c4c5nc(c(-c6cc(S(=O)(=O)[O-])ccc6F)c6ccc([nH]6)c(-c6cc(S(=O)(=O)[O-])ccc6F)c6nc(c(-c7cc(S(=O)(=O)[O-])ccc7F)c7ccc4[nH]7)C=C6)C=C5)cc3)cc1)C(C(=O)Nc1cccc(C)c1)=C(C)N2
REMARK SMILES IDX 18 1 17 2 15 3 16 4 14 6 11 7 12 8 88 9 13 10 87 11 10 12
REMARK SMILES IDX 5 13 6 14 9 15 7 16 8 17 102 18 100 19 89 21 101 22 4 23
REMARK SMILES IDX 3 24 2 25 1 26 90 27 91 28 92 29 93 31 94 32 99 33 95 34
REMARK SMILES IDX 97 35 96 36 98 37 19 38 20 39 21 40 22 41 23 43 24 44 25 45
REMARK SMILES IDX 86 46 26 47 85 48 27 49 28 50 29 51 79 52 30 53 84 54 78 55
REMARK SMILES IDX 80 56 31 57 83 58 77 59 76 60 32 62 64 63 44 64 63 65 45 66
REMARK SMILES IDX 48 67 62 68 81 69 46 70 47 71 61 73 82 74 49 75 33 76 34 77
REMARK SMILES IDX 42 78 35 79 41 80 43 81 40 82 36 83 37 84 38 85 39 86 65 87
REMARK SMILES IDX 66 88 74 89 67 90 73 91 75 92 72 93 68 94 69 95 70 96 71 97
REMARK SMILES IDX 50 98 51 99 59 100 52 101 58 102 60 103 57 104 53 105 54 106
REMARK SMILES IDX 55 107 56 108
REMARK H PARENT 17 5 102 20 92 30 21 42 80 61 48 72
REMARK Flexibility Score: inf
ROOT
ATOM      1  C   UNL     1      -2.683  -2.218  -7.726  1.00  0.00     0.118 C 
ENDROOT
BRANCH   1   2
ATOM      2  N   UNL     1      -3.683  -1.736  -6.783  1.00  0.00    -0.352 N 
ATOM      3  C   UNL     1      -3.555  -1.017  -5.617  1.00  0.00     0.251 C 
ATOM      4  O   UNL     1      -4.567  -0.561  -5.089  1.00  0.00    -0.269 OA
ATOM      5  H   UNL     1      -4.611  -1.963  -7.022  1.00  0.00     0.163 HD
BRANCH   3   6
ATOM      6  C   UNL     1      -2.233  -0.716  -5.011  1.00  0.00     0.039 A 
ATOM      7  C   UNL     1       0.309   0.050  -4.005  1.00  0.00    -0.019 A 
ATOM      8  C   UNL     1      -0.816   0.890  -3.875  1.00  0.00     0.007 A 
ATOM      9  C   UNL     1       0.090  -1.229  -4.528  1.00  0.00     0.007 A 
ATOM     10  C   UNL     1      -2.071   0.508  -4.363  1.00  0.00     0.014 A 
ATOM     11  C   UNL     1      -1.159  -1.602  -5.025  1.00  0.00     0.014 A 
BRANCH   7  12
ATOM     12  C   UNL     1       1.767   0.532  -3.767  1.00  0.00     0.179 C 
ATOM     13  C   UNL     1       1.225   2.554  -1.010  1.00  0.00     0.210 A 
ATOM     14  N   UNL     1       1.317   3.552  -1.954  1.00  0.00    -0.185 NA
ATOM     15  N   UNL     1       1.616   1.345  -1.424  1.00  0.00    -0.141 NA
ATOM     16  C   UNL     1       1.667   2.900  -3.032  1.00  0.00     0.227 A 
ATOM     17  N   UNL     1       1.799   1.572  -2.735  1.00  0.00    -0.218 N 
ATOM     18  N   UNL     1       1.746   3.275  -4.321  1.00  0.00    -0.328 N 
ATOM     19  C   UNL     1       2.066   2.402  -5.364  1.00  0.00     0.026 C 
ATOM     20  H   UNL     1       1.567   4.218  -4.542  1.00  0.00     0.169 HD
ATOM     21  C   UNL     1       2.329   1.089  -5.101  1.00  0.00     0.065 C 
ATOM     22  C   UNL     1       1.975   3.036  -6.727  1.00  0.00     0.065 C 
BRANCH  13  23
ATOM     23  S   UNL     1       0.430   2.811   0.518  1.00  0.00    -0.084 SA
BRANCH  23  24
ATOM     24  C   UNL     1       1.135   1.522   1.580  1.00  0.00     0.078 C 
BRANCH  24  25
ATOM     25  C   UNL     1       0.371   0.195   1.635  1.00  0.00     0.008 C 
ATOM     26  C   UNL     1       0.627  -0.751   0.472  1.00  0.00     0.005 C 
ENDBRANCH  24  25
ENDBRANCH  23  24
ENDBRANCH  13  23
BRANCH  21  27
ATOM     27  C   UNL     1       2.924   0.014  -5.981  1.00  0.00     0.255 C 
ATOM     28  O   UNL     1       2.740  -1.176  -5.721  1.00  0.00    -0.269 OA
ATOM     29  N   UNL     1       3.692   0.276  -7.077  1.00  0.00    -0.322 N 
ATOM     30  H   UNL     1       3.706  -0.439  -7.753  1.00  0.00     0.170 HD
BRANCH  29  31
ATOM     31  C   UNL     1       4.462   1.395  -7.390  1.00  0.00     0.041 A 
ATOM     32  C   UNL     1       4.542   1.774  -8.731  1.00  0.00     0.026 A 
ATOM     33  C   UNL     1       5.058   2.174  -6.399  1.00  0.00     0.029 A 
ATOM     34  C   UNL     1       5.078   3.018  -9.058  1.00  0.00     0.002 A 
ATOM     35  C   UNL     1       5.601   3.420  -6.720  1.00  0.00    -0.049 A 
ATOM     36  C   UNL     1       5.585   3.847  -8.053  1.00  0.00     0.003 A 
ATOM     37  C   UNL     1       6.075   4.330  -5.628  1.00  0.00     0.044 C 
ENDBRANCH  29  31
ENDBRANCH  21  27
ENDBRANCH   7  12
ENDBRANCH   3   6
ENDBRANCH   1   2
BRANCH   1  38
ATOM     38  C   UNL     1      -2.333  -3.699  -7.524  1.00  0.00     0.042 C 
BRANCH  38  39
ATOM     39  C   UNL     1      -3.358  -4.644  -8.119  1.00  0.00     0.118 C 
BRANCH  39  40
ATOM     40  N   UNL     1      -3.328  -4.680  -9.583  1.00  0.00    -0.352 N 
ATOM     41  C   UNL     1      -4.172  -5.374 -10.443  1.00  0.00     0.251 C 
ATOM     42  H   UNL     1      -2.622  -4.145 -10.012  1.00  0.00     0.163 HD
ATOM     43  O   UNL     1      -3.818  -5.632 -11.578  1.00  0.00    -0.269 OA
BRANCH  41  44
ATOM     44  C   UNL     1      -5.495  -5.794  -9.935  1.00  0.00     0.039 A 
ATOM     45  C   UNL     1      -6.088  -7.010 -10.283  1.00  0.00     0.014 A 
ATOM     46  C   UNL     1      -6.115  -4.944  -9.031  1.00  0.00     0.014 A 
ATOM     47  C   UNL     1      -7.271  -7.383  -9.641  1.00  0.00     0.010 A 
ATOM     48  C   UNL     1      -7.103  -5.427  -8.225  1.00  0.00     0.010 A 
ATOM     49  C   UNL     1      -7.762  -6.587  -8.594  1.00  0.00    -0.014 A 
BRANCH  49  50
ATOM     50  C   UNL     1      -8.923  -6.957  -7.792  1.00  0.00     0.031 A 
ATOM     51  C   UNL     1      -8.823  -8.294  -7.161  1.00  0.00     0.074 A 
ATOM     52  C   UNL     1      -9.874  -6.064  -7.431  1.00  0.00     0.049 A 
ATOM     53  N   UNL     1      -9.449  -9.372  -7.495  1.00  0.00    -0.248 NA
ATOM     54  C   UNL     1      -7.764  -8.511  -6.162  1.00  0.00     0.031 C 
ATOM     55  C   UNL     1      -9.921  -4.621  -7.712  1.00  0.00     0.029 A 
ATOM     56  N   UNL     1     -10.951  -6.234  -6.618  1.00  0.00    -0.354 N 
ATOM     57  C   UNL     1      -9.076 -10.327  -6.556  1.00  0.00     0.074 A 
ATOM     58  C   UNL     1      -7.868  -9.827  -5.960  1.00  0.00     0.031 C 
ATOM     59  C   UNL     1     -10.812  -4.021  -6.893  1.00  0.00     0.029 A 
ATOM     60  C   UNL     1     -11.540  -5.051  -6.177  1.00  0.00     0.049 A 
ATOM     61  H   UNL     1     -11.288  -7.123  -6.362  1.00  0.00     0.167 HD
ATOM     62  C   UNL     1      -9.957 -11.285  -6.149  1.00  0.00     0.034 A 
ATOM     63  C   UNL     1     -12.554  -4.913  -5.282  1.00  0.00     0.034 A 
ATOM     64  C   UNL     1     -11.097 -11.340  -7.046  1.00  0.00     0.049 A 
ATOM     65  C   UNL     1     -13.263  -6.215  -5.252  1.00  0.00     0.074 A 
ATOM     66  C   UNL     1     -11.255 -11.545  -8.404  1.00  0.00     0.029 A 
ATOM     67  N   UNL     1     -12.273 -10.754  -6.627  1.00  0.00    -0.354 N 
ATOM     68  N   UNL     1     -13.897  -6.704  -6.284  1.00  0.00    -0.248 NA
ATOM     69  C   UNL     1     -12.853  -7.198  -4.261  1.00  0.00     0.031 C 
ATOM     70  C   UNL     1     -12.275 -10.627  -8.799  1.00  0.00     0.029 A 
ATOM     71  C   UNL     1     -12.752  -9.980  -7.655  1.00  0.00     0.049 A 
ATOM     72  H   UNL     1     -12.695 -10.870  -5.745  1.00  0.00     0.167 HD
ATOM     73  C   UNL     1     -13.572  -8.052  -6.299  1.00  0.00     0.074 A 
ATOM     74  C   UNL     1     -13.026  -8.319  -4.969  1.00  0.00     0.031 C 
ATOM     75  C   UNL     1     -13.504  -8.750  -7.473  1.00  0.00     0.034 A 
BRANCH  62  76
ATOM     76  C   UNL     1     -10.019 -11.875  -4.750  1.00  0.00     0.023 A 
ATOM     77  C   UNL     1     -11.060 -12.790  -4.501  1.00  0.00     0.031 A 
ATOM     78  C   UNL     1      -9.341 -11.403  -3.603  1.00  0.00     0.131 A 
ATOM     79  C   UNL     1     -11.481 -13.075  -3.191  1.00  0.00     0.055 A 
ATOM     80  C   UNL     1      -9.721 -11.743  -2.300  1.00  0.00     0.041 A 
ATOM     81  F   UNL     1      -8.330 -10.532  -3.653  1.00  0.00    -0.206 F 
ATOM     82  C   UNL     1     -10.823 -12.550  -2.085  1.00  0.00     0.022 A 
BRANCH  79  83
ATOM     83  S   UNL     1     -13.030 -13.984  -2.974  1.00  0.00     0.124 S 
ATOM     84  O   UNL     1     -13.944 -13.200  -3.797  1.00  0.00    -0.237 OA
ATOM     85  O   UNL     1     -12.674 -15.305  -3.482  1.00  0.00    -0.237 OA
ATOM     86  O   UNL     1     -13.265 -13.911  -1.534  1.00  0.00    -0.744 OA
ENDBRANCH  79  83
ENDBRANCH  62  76
BRANCH  63  87
ATOM     87  C   UNL     1     -12.701  -3.855  -4.244  1.00  0.00     0.023 A 
ATOM     88  C   UNL     1     -13.936  -3.500  -3.661  1.00  0.00     0.031 A 
ATOM     89  C   UNL     1     -11.538  -3.331  -3.634  1.00  0.00     0.131 A 
ATOM     90  C   UNL     1     -13.969  -2.660  -2.520  1.00  0.00     0.055 A 
ATOM     91  C   UNL     1     -11.577  -2.503  -2.510  1.00  0.00     0.041 A 
ATOM     92  F   UNL     1     -10.315  -3.679  -4.066  1.00  0.00    -0.206 F 
ATOM     93  C   UNL     1     -12.795  -2.170  -1.942  1.00  0.00     0.022 A 
BRANCH  90  94
ATOM     94  S   UNL     1     -15.554  -2.244  -1.716  1.00  0.00     0.124 S 
ATOM     95  O   UNL     1     -16.251  -1.502  -2.760  1.00  0.00    -0.237 OA
ATOM     96  O   UNL     1     -16.091  -3.559  -1.386  1.00  0.00    -0.237 OA
ATOM     97  O   UNL     1     -15.153  -1.440  -0.560  1.00  0.00    -0.744 OA
ENDBRANCH  90  94
ENDBRANCH  63  87
BRANCH  75  98
ATOM     98  C   UNL     1     -14.088  -8.112  -8.722  1.00  0.00     0.023 A 
ATOM     99  C   UNL     1     -13.667  -6.885  -9.287  1.00  0.00     0.031 A 
ATOM    100  C   UNL     1     -15.046  -8.858  -9.431  1.00  0.00     0.131 A 
ATOM    101  C   UNL     1     -14.211  -6.448 -10.514  1.00  0.00     0.055 A 
ATOM    102  C   UNL     1     -15.566  -8.433 -10.653  1.00  0.00     0.041 A 
ATOM    103  F   UNL     1     -15.468 -10.044  -8.962  1.00  0.00    -0.206 F 
ATOM    104  C   UNL     1     -15.155  -7.222 -11.196  1.00  0.00     0.022 A 
BRANCH 101 105
ATOM    105  S   UNL     1     -13.715  -4.851 -11.244  1.00  0.00     0.124 S 
ATOM    106  O   UNL     1     -13.827  -3.916 -10.132  1.00  0.00    -0.237 OA
ATOM    107  O   UNL     1     -12.361  -5.125 -11.716  1.00  0.00    -0.237 OA
ATOM    108  O   UNL     1     -14.697  -4.646 -12.312  1.00  0.00    -0.744 OA
ENDBRANCH 101 105
ENDBRANCH  75  98
ENDBRANCH  49  50
ENDBRANCH  41  44
ENDBRANCH  39  40
ENDBRANCH  38  39
ENDBRANCH   1  38
TORSDOF 19
