REMARK SMILES O=C(NCCCNC(=O)c1ccc(-c2c3nc(c(-c4cc(S(=O)(=O)[O-])ccc4F)c4ccc([nH]4)c(-c4cc(S(=O)(=O)[O-])ccc4F)c4nc(c(-c5cc(S(=O)(=O)[O-])ccc5F)c5ccc2[nH]5)C=C4)C=C3)cc1)C1=Cc2cc(Cl)cc(-c3ccc(O)cc3)c2O[C@@H]1C(F)(F)F
REMARK SMILES IDX 5 1 4 2 3 3 1 4 2 5 73 7 74 8 90 9 75 10 89 11 76 12 88 13
REMARK SMILES IDX 77 14 80 15 78 16 79 17 91 18 92 19 93 20 94 21 81 22 82 23
REMARK SMILES IDX 87 24 83 25 86 26 84 27 85 28 6 30 7 31 8 32 9 34 10 35
REMARK SMILES IDX 11 36 72 37 12 38 71 39 13 40 14 41 15 42 65 43 16 44 70 45
REMARK SMILES IDX 64 46 66 47 17 48 69 49 63 50 62 51 18 53 50 54 30 55 49 56
REMARK SMILES IDX 31 57 34 58 48 59 67 60 32 61 33 62 47 64 68 65 35 66 19 67
REMARK SMILES IDX 20 68 28 69 21 70 27 71 29 72 26 73 22 74 23 75 24 76 25 77
REMARK SMILES IDX 51 78 52 79 60 80 53 81 59 82 61 83 58 84 54 85 55 86 56 87
REMARK SMILES IDX 57 88 36 89 37 90 45 91 38 92 44 93 46 94 43 95 39 96 40 97
REMARK SMILES IDX 41 98 42 99
REMARK H PARENT 3 6 85 29 7 33 66 52 34 63
REMARK Flexibility Score: inf
ROOT
ATOM      1  C   UNL     1       4.050   0.300  -3.008  1.00  0.00     0.042 C 
ENDROOT
BRANCH   1   2
ATOM      2  C   UNL     1       3.037   0.614  -1.908  1.00  0.00     0.118 C 
BRANCH   2   3
ATOM      3  N   UNL     1       2.264  -0.564  -1.493  1.00  0.00    -0.352 N 
ATOM      4  O   UNL     1       1.392  -2.061  -0.021  1.00  0.00    -0.270 OA
ATOM      5  C   UNL     1       2.261  -1.246  -0.302  1.00  0.00     0.251 C 
ATOM      6  H   UNL     1       1.652  -0.920  -2.177  1.00  0.00     0.163 HD
BRANCH   5   7
ATOM      7  C   UNL     1       3.317  -0.901   0.659  1.00  0.00     0.067 C 
ATOM      8  C   UNL     1       4.581  -1.153   0.302  1.00  0.00     0.025 C 
ATOM      9  C   UNL     1       2.959   0.022   1.778  1.00  0.00     0.314 C 
ATOM     10  C   UNL     1       5.536  -0.113   0.693  1.00  0.00     0.019 A 
ATOM     11  O   UNL     1       3.770   1.220   1.741  1.00  0.00    -0.475 OA
ATOM     12  C   UNL     1       6.826  -0.177   0.163  1.00  0.00     0.032 A 
ATOM     13  C   UNL     1       5.037   1.102   1.212  1.00  0.00     0.135 A 
ATOM     14  C   UNL     1       7.574   0.989   0.050  1.00  0.00     0.042 A 
ATOM     15  C   UNL     1       5.764   2.292   1.036  1.00  0.00     0.026 A 
ATOM     16  Cl  UNL     1       9.102   0.937  -0.739  1.00  0.00    -0.084 Cl
ATOM     17  C   UNL     1       7.042   2.214   0.452  1.00  0.00     0.033 A 
BRANCH   9  18
ATOM     18  C   UNL     1       3.014  -0.674   3.149  1.00  0.00     0.429 C 
ATOM     19  F   UNL     1       2.602   0.158   4.138  1.00  0.00    -0.167 F 
ATOM     20  F   UNL     1       2.204  -1.758   3.197  1.00  0.00    -0.167 F 
ATOM     21  F   UNL     1       4.260  -1.091   3.477  1.00  0.00    -0.167 F 
ENDBRANCH   9  18
BRANCH  15  22
ATOM     22  C   UNL     1       5.154   3.615   1.240  1.00  0.00    -0.014 A 
ATOM     23  C   UNL     1       4.395   4.202   0.211  1.00  0.00     0.012 A 
ATOM     24  C   UNL     1       5.354   4.347   2.416  1.00  0.00     0.012 A 
ATOM     25  C   UNL     1       3.902   5.500   0.321  1.00  0.00     0.047 A 
ATOM     26  C   UNL     1       4.852   5.649   2.535  1.00  0.00     0.047 A 
ATOM     27  C   UNL     1       4.149   6.220   1.478  1.00  0.00     0.115 A 
BRANCH  27  28
ATOM     28  O   UNL     1       3.690   7.501   1.536  1.00  0.00    -0.508 OA
ATOM     29  H   UNL     1       3.219   7.863   0.811  1.00  0.00     0.293 HD
ENDBRANCH  27  28
ENDBRANCH  15  22
ENDBRANCH   5   7
ENDBRANCH   2   3
ENDBRANCH   1   2
BRANCH   1  30
ATOM     30  C   UNL     1       4.529   1.544  -3.757  1.00  0.00     0.118 C 
BRANCH  30  31
ATOM     31  N   UNL     1       5.255   2.518  -2.956  1.00  0.00    -0.352 N 
ATOM     32  C   UNL     1       5.997   3.609  -3.371  1.00  0.00     0.251 C 
ATOM     33  H   UNL     1       5.213   2.380  -1.982  1.00  0.00     0.163 HD
ATOM     34  O   UNL     1       6.511   4.344  -2.530  1.00  0.00    -0.269 OA
BRANCH  32  35
ATOM     35  C   UNL     1       6.290   3.808  -4.813  1.00  0.00     0.039 A 
ATOM     36  C   UNL     1       7.615   4.067  -5.180  1.00  0.00     0.014 A 
ATOM     37  C   UNL     1       5.331   3.587  -5.799  1.00  0.00     0.014 A 
ATOM     38  C   UNL     1       8.009   3.913  -6.511  1.00  0.00     0.010 A 
ATOM     39  C   UNL     1       5.741   3.332  -7.103  1.00  0.00     0.010 A 
ATOM     40  C   UNL     1       7.095   3.434  -7.459  1.00  0.00    -0.014 A 
BRANCH  40  41
ATOM     41  C   UNL     1       7.533   2.933  -8.790  1.00  0.00     0.031 A 
ATOM     42  C   UNL     1       6.948   3.515 -10.045  1.00  0.00     0.074 A 
ATOM     43  C   UNL     1       8.352   1.861  -8.854  1.00  0.00     0.049 A 
ATOM     44  N   UNL     1       7.033   3.085 -11.277  1.00  0.00    -0.248 NA
ATOM     45  C   UNL     1       6.114   4.714  -9.880  1.00  0.00     0.031 C 
ATOM     46  C   UNL     1       8.939   1.169  -7.701  1.00  0.00     0.029 A 
ATOM     47  N   UNL     1       8.822   1.149  -9.930  1.00  0.00    -0.354 N 
ATOM     48  C   UNL     1       6.240   3.942 -12.031  1.00  0.00     0.074 A 
ATOM     49  C   UNL     1       5.636   4.877 -11.103  1.00  0.00     0.031 C 
ATOM     50  C   UNL     1       9.714   0.162  -8.133  1.00  0.00     0.029 A 
ATOM     51  C   UNL     1       9.633   0.091  -9.586  1.00  0.00     0.049 A 
ATOM     52  H   UNL     1       8.599   1.375 -10.863  1.00  0.00     0.167 HD
ATOM     53  C   UNL     1       6.052   3.962 -13.375  1.00  0.00     0.034 A 
ATOM     54  C   UNL     1      10.229  -0.844 -10.353  1.00  0.00     0.034 A 
ATOM     55  C   UNL     1       6.688   3.040 -14.283  1.00  0.00     0.049 A 
ATOM     56  C   UNL     1      10.007  -0.800 -11.842  1.00  0.00     0.074 A 
ATOM     57  C   UNL     1       6.610   2.992 -15.664  1.00  0.00     0.029 A 
ATOM     58  N   UNL     1       7.530   2.004 -13.898  1.00  0.00    -0.354 N 
ATOM     59  N   UNL     1       9.271   0.032 -12.541  1.00  0.00    -0.248 NA
ATOM     60  C   UNL     1      10.692  -1.821 -12.645  1.00  0.00     0.031 C 
ATOM     61  C   UNL     1       7.370   1.904 -16.110  1.00  0.00     0.029 A 
ATOM     62  C   UNL     1       7.966   1.305 -15.012  1.00  0.00     0.049 A 
ATOM     63  H   UNL     1       7.780   1.797 -12.969  1.00  0.00     0.167 HD
ATOM     64  C   UNL     1       9.426  -0.350 -13.869  1.00  0.00     0.074 A 
ATOM     65  C   UNL     1      10.334  -1.479 -13.874  1.00  0.00     0.031 C 
ATOM     66  C   UNL     1       8.871   0.182 -14.986  1.00  0.00     0.034 A 
BRANCH  53  67
ATOM     67  C   UNL     1       5.111   5.007 -13.921  1.00  0.00     0.023 A 
ATOM     68  C   UNL     1       5.380   6.379 -13.776  1.00  0.00     0.031 A 
ATOM     69  C   UNL     1       3.905   4.636 -14.540  1.00  0.00     0.131 A 
ATOM     70  C   UNL     1       4.417   7.326 -14.151  1.00  0.00     0.055 A 
ATOM     71  C   UNL     1       2.988   5.587 -14.994  1.00  0.00     0.041 A 
ATOM     72  F   UNL     1       3.584   3.341 -14.692  1.00  0.00    -0.206 F 
ATOM     73  C   UNL     1       3.232   6.941 -14.783  1.00  0.00     0.022 A 
BRANCH  70  74
ATOM     74  S   UNL     1       4.666   9.052 -13.654  1.00  0.00     0.124 S 
ATOM     75  O   UNL     1       4.671   8.937 -12.197  1.00  0.00    -0.237 OA
ATOM     76  O   UNL     1       5.946   9.378 -14.273  1.00  0.00    -0.237 OA
ATOM     77  O   UNL     1       3.506   9.741 -14.215  1.00  0.00    -0.744 OA
ENDBRANCH  70  74
ENDBRANCH  53  67
BRANCH  54  78
ATOM     78  C   UNL     1      11.079  -1.906  -9.742  1.00  0.00     0.023 A 
ATOM     79  C   UNL     1      12.456  -1.965 -10.014  1.00  0.00     0.031 A 
ATOM     80  C   UNL     1      10.527  -2.904  -8.920  1.00  0.00     0.131 A 
ATOM     81  C   UNL     1      13.226  -3.025  -9.510  1.00  0.00     0.055 A 
ATOM     82  C   UNL     1      11.307  -3.930  -8.380  1.00  0.00     0.041 A 
ATOM     83  F   UNL     1       9.218  -2.892  -8.622  1.00  0.00    -0.206 F 
ATOM     84  C   UNL     1      12.662  -4.002  -8.686  1.00  0.00     0.022 A 
BRANCH  81  85
ATOM     85  S   UNL     1      14.960  -3.158 -10.024  1.00  0.00     0.124 S 
ATOM     86  O   UNL     1      14.839  -3.183 -11.477  1.00  0.00    -0.237 OA
ATOM     87  O   UNL     1      15.539  -1.949  -9.448  1.00  0.00    -0.237 OA
ATOM     88  O   UNL     1      15.400  -4.411  -9.413  1.00  0.00    -0.744 OA
ENDBRANCH  81  85
ENDBRANCH  54  78
BRANCH  66  89
ATOM     89  C   UNL     1       9.274  -0.431 -16.300  1.00  0.00     0.023 A 
ATOM     90  C   UNL     1       8.826  -1.706 -16.684  1.00  0.00     0.031 A 
ATOM     91  C   UNL     1      10.120   0.272 -17.174  1.00  0.00     0.131 A 
ATOM     92  C   UNL     1       9.259  -2.259 -17.897  1.00  0.00     0.055 A 
ATOM     93  C   UNL     1      10.511  -0.264 -18.401  1.00  0.00     0.041 A 
ATOM     94  F   UNL     1      10.575   1.493 -16.850  1.00  0.00    -0.206 F 
ATOM     95  C   UNL     1      10.087  -1.540 -18.765  1.00  0.00     0.022 A 
BRANCH  92  96
ATOM     96  S   UNL     1       8.767  -3.955 -18.307  1.00  0.00     0.124 S 
ATOM     97  O   UNL     1       9.405  -4.721 -17.242  1.00  0.00    -0.237 OA
ATOM     98  O   UNL     1       7.310  -3.881 -18.253  1.00  0.00    -0.237 OA
ATOM     99  O   UNL     1       9.326  -4.161 -19.642  1.00  0.00    -0.744 OA
ENDBRANCH  92  96
ENDBRANCH  66  89
ENDBRANCH  40  41
ENDBRANCH  32  35
ENDBRANCH  30  31
ENDBRANCH   1  30
TORSDOF 16
