REMARK SMILES O=C(NCCCNC(=O)c1ccccc1C(=O)Nc1ccc(N2C(=O)[C@H]3[C@@H]4CC[C@@H](C4)[C@@H]3C2=O)cc1)c1ccc(-c2c3nc(c(-c4cc(S(=O)(=O)[O-])ccc4F)c4ccc([nH]4)c(-c4cc(S(=O)(=O)[O-])ccc4F)c4nc(c(-c5cc(S(=O)(=O)[O-])ccc5F)c5ccc2[nH]5)C=C4)C=C3)cc1
REMARK SMILES IDX 5 1 4 2 3 3 1 4 2 5 37 7 38 8 99 9 39 10 98 11 40 12 41 13
REMARK SMILES IDX 42 14 92 15 43 16 97 17 91 18 93 19 44 20 96 21 90 22 89 23
REMARK SMILES IDX 45 25 77 26 57 27 76 28 58 29 61 30 75 31 94 32 59 33 60 34
REMARK SMILES IDX 74 36 95 37 62 38 46 39 47 40 55 41 48 42 54 43 56 44 53 45
REMARK SMILES IDX 49 46 50 47 51 48 52 49 78 50 79 51 87 52 80 53 86 54 88 55
REMARK SMILES IDX 85 56 81 57 82 58 83 59 84 60 63 61 64 62 72 63 65 64 71 65
REMARK SMILES IDX 73 66 70 67 66 68 67 69 68 70 69 71 6 72 7 73 8 74 9 76
REMARK SMILES IDX 10 77 11 78 15 79 12 80 14 81 13 82 16 83 17 84 18 85 19 87
REMARK SMILES IDX 20 88 36 89 21 90 35 91 22 92 23 93 24 94 33 95 25 96 26 97
REMARK SMILES IDX 32 98 34 99 27 100 30 101 28 102 31 103 29 104
REMARK H PARENT 3 6 93 24 61 35 7 75 18 86
REMARK Flexibility Score: inf
ROOT
ATOM      1  C   UNL     1       5.116   1.766  -1.684  1.00  0.00     0.042 C 
ENDROOT
BRANCH   1   2
ATOM      2  C   UNL     1       4.660   1.051  -0.418  1.00  0.00     0.118 C 
BRANCH   2   3
ATOM      3  N   UNL     1       3.214   1.068  -0.221  1.00  0.00    -0.352 N 
ATOM      4  O   UNL     1       1.151   0.163   0.015  1.00  0.00    -0.269 OA
ATOM      5  C   UNL     1       2.362  -0.006  -0.074  1.00  0.00     0.251 C 
ATOM      6  H   UNL     1       2.795   1.958  -0.189  1.00  0.00     0.163 HD
BRANCH   5   7
ATOM      7  C   UNL     1       2.938  -1.367  -0.073  1.00  0.00     0.039 A 
ATOM      8  C   UNL     1       4.008  -1.669   0.770  1.00  0.00     0.014 A 
ATOM      9  C   UNL     1       2.479  -2.303  -1.002  1.00  0.00     0.014 A 
ATOM     10  C   UNL     1       4.740  -2.828   0.551  1.00  0.00     0.010 A 
ATOM     11  C   UNL     1       3.155  -3.519  -1.144  1.00  0.00     0.010 A 
ATOM     12  C   UNL     1       4.318  -3.772  -0.401  1.00  0.00    -0.014 A 
BRANCH  12  13
ATOM     13  C   UNL     1       5.089  -5.033  -0.562  1.00  0.00     0.031 A 
ATOM     14  C   UNL     1       5.768  -5.377  -1.862  1.00  0.00     0.074 A 
ATOM     15  C   UNL     1       5.198  -5.856   0.500  1.00  0.00     0.049 A 
ATOM     16  N   UNL     1       6.457  -6.446  -2.173  1.00  0.00    -0.248 NA
ATOM     17  C   UNL     1       5.651  -4.403  -2.958  1.00  0.00     0.031 C 
ATOM     18  C   UNL     1       4.583  -5.619   1.810  1.00  0.00     0.029 A 
ATOM     19  N   UNL     1       5.872  -7.038   0.661  1.00  0.00    -0.354 N 
ATOM     20  C   UNL     1       6.833  -6.290  -3.504  1.00  0.00     0.074 A 
ATOM     21  C   UNL     1       6.278  -5.028  -3.947  1.00  0.00     0.031 C 
ATOM     22  C   UNL     1       4.950  -6.594   2.652  1.00  0.00     0.029 A 
ATOM     23  C   UNL     1       5.752  -7.569   1.924  1.00  0.00     0.049 A 
ATOM     24  H   UNL     1       6.392  -7.465  -0.057  1.00  0.00     0.167 HD
ATOM     25  C   UNL     1       7.573  -7.124  -4.278  1.00  0.00     0.034 A 
ATOM     26  C   UNL     1       6.206  -8.728   2.437  1.00  0.00     0.034 A 
ATOM     27  C   UNL     1       8.133  -8.371  -3.810  1.00  0.00     0.049 A 
ATOM     28  C   UNL     1       7.002  -9.642   1.548  1.00  0.00     0.074 A 
ATOM     29  C   UNL     1       8.924  -9.275  -4.499  1.00  0.00     0.029 A 
ATOM     30  N   UNL     1       7.959  -8.894  -2.534  1.00  0.00    -0.354 N 
ATOM     31  N   UNL     1       7.344  -9.477   0.292  1.00  0.00    -0.248 NA
ATOM     32  C   UNL     1       7.471 -10.897   2.146  1.00  0.00     0.031 C 
ATOM     33  C   UNL     1       9.176 -10.369  -3.663  1.00  0.00     0.029 A 
ATOM     34  C   UNL     1       8.602 -10.119  -2.428  1.00  0.00     0.049 A 
ATOM     35  H   UNL     1       7.453  -8.459  -1.811  1.00  0.00     0.167 HD
ATOM     36  C   UNL     1       8.082 -10.605  -0.048  1.00  0.00     0.074 A 
ATOM     37  C   UNL     1       8.155 -11.427   1.144  1.00  0.00     0.031 C 
ATOM     38  C   UNL     1       8.646 -10.935  -1.237  1.00  0.00     0.034 A 
BRANCH  25  39
ATOM     39  C   UNL     1       7.780  -6.743  -5.726  1.00  0.00     0.023 A 
ATOM     40  C   UNL     1       8.538  -5.621  -6.103  1.00  0.00     0.031 A 
ATOM     41  C   UNL     1       7.214  -7.528  -6.748  1.00  0.00     0.131 A 
ATOM     42  C   UNL     1       8.666  -5.286  -7.461  1.00  0.00     0.055 A 
ATOM     43  C   UNL     1       7.401  -7.228  -8.099  1.00  0.00     0.041 A 
ATOM     44  F   UNL     1       6.466  -8.601  -6.449  1.00  0.00    -0.206 F 
ATOM     45  C   UNL     1       8.122  -6.095  -8.462  1.00  0.00     0.022 A 
BRANCH  42  46
ATOM     46  S   UNL     1       9.462  -3.716  -7.901  1.00  0.00     0.124 S 
ATOM     47  O   UNL     1       8.607  -2.748  -7.218  1.00  0.00    -0.237 OA
ATOM     48  O   UNL     1      10.804  -3.879  -7.355  1.00  0.00    -0.237 OA
ATOM     49  O   UNL     1       9.382  -3.686  -9.360  1.00  0.00    -0.744 OA
ENDBRANCH  42  46
ENDBRANCH  25  39
BRANCH  26  50
ATOM     50  C   UNL     1       5.878  -9.104   3.840  1.00  0.00     0.023 A 
ATOM     51  C   UNL     1       6.883  -9.247   4.807  1.00  0.00     0.031 A 
ATOM     52  C   UNL     1       4.547  -9.344   4.228  1.00  0.00     0.131 A 
ATOM     53  C   UNL     1       6.546  -9.655   6.106  1.00  0.00     0.055 A 
ATOM     54  C   UNL     1       4.211  -9.695   5.535  1.00  0.00     0.041 A 
ATOM     55  F   UNL     1       3.547  -9.216   3.341  1.00  0.00    -0.206 F 
ATOM     56  C   UNL     1       5.217  -9.866   6.481  1.00  0.00     0.022 A 
BRANCH  53  57
ATOM     57  S   UNL     1       7.884  -9.990   7.284  1.00  0.00     0.124 S 
ATOM     58  O   UNL     1       8.678 -10.977   6.561  1.00  0.00    -0.237 OA
ATOM     59  O   UNL     1       8.487  -8.670   7.438  1.00  0.00    -0.237 OA
ATOM     60  O   UNL     1       7.182 -10.494   8.462  1.00  0.00    -0.744 OA
ENDBRANCH  53  57
ENDBRANCH  26  50
BRANCH  38  61
ATOM     61  C   UNL     1       9.416 -12.229  -1.279  1.00  0.00     0.023 A 
ATOM     62  C   UNL     1       8.771 -13.472  -1.162  1.00  0.00     0.031 A 
ATOM     63  C   UNL     1      10.817 -12.216  -1.398  1.00  0.00     0.131 A 
ATOM     64  C   UNL     1       9.530 -14.650  -1.105  1.00  0.00     0.055 A 
ATOM     65  C   UNL     1      11.563 -13.395  -1.398  1.00  0.00     0.041 A 
ATOM     66  F   UNL     1      11.482 -11.055  -1.509  1.00  0.00    -0.206 F 
ATOM     67  C   UNL     1      10.921 -14.620  -1.236  1.00  0.00     0.022 A 
BRANCH  64  68
ATOM     68  S   UNL     1       8.683 -16.216  -0.759  1.00  0.00     0.124 S 
ATOM     69  O   UNL     1       8.065 -15.947   0.536  1.00  0.00    -0.237 OA
ATOM     70  O   UNL     1       7.769 -16.332  -1.890  1.00  0.00    -0.237 OA
ATOM     71  O   UNL     1       9.768 -17.195  -0.737  1.00  0.00    -0.744 OA
ENDBRANCH  64  68
ENDBRANCH  38  61
ENDBRANCH  12  13
ENDBRANCH   5   7
ENDBRANCH   2   3
ENDBRANCH   1   2
BRANCH   1  72
ATOM     72  C   UNL     1       5.156   3.274  -1.536  1.00  0.00     0.118 C 
BRANCH  72  73
ATOM     73  N   UNL     1       6.105   3.700  -0.523  1.00  0.00    -0.352 N 
ATOM     74  C   UNL     1       6.667   4.928  -0.330  1.00  0.00     0.252 C 
ATOM     75  H   UNL     1       6.383   3.003   0.114  1.00  0.00     0.163 HD
ATOM     76  O   UNL     1       7.537   5.083   0.525  1.00  0.00    -0.269 OA
BRANCH  74  77
ATOM     77  C   UNL     1       6.351   6.052  -1.222  1.00  0.00     0.052 A 
ATOM     78  C   UNL     1       7.499   6.534  -1.890  1.00  0.00     0.014 A 
ATOM     79  C   UNL     1       5.090   6.612  -1.481  1.00  0.00     0.052 A 
ATOM     80  C   UNL     1       7.406   7.517  -2.867  1.00  0.00     0.001 A 
ATOM     81  C   UNL     1       5.025   7.601  -2.490  1.00  0.00     0.014 A 
ATOM     82  C   UNL     1       6.161   8.041  -3.179  1.00  0.00     0.001 A 
BRANCH  79  83
ATOM     83  C   UNL     1       3.753   6.199  -0.949  1.00  0.00     0.256 C 
ATOM     84  O   UNL     1       2.795   6.254  -1.729  1.00  0.00    -0.269 OA
ATOM     85  N   UNL     1       3.495   5.660   0.289  1.00  0.00    -0.322 N 
ATOM     86  H   UNL     1       2.600   5.258   0.371  1.00  0.00     0.170 HD
BRANCH  85  87
ATOM     87  C   UNL     1       4.263   5.577   1.447  1.00  0.00     0.041 A 
ATOM     88  C   UNL     1       4.239   4.359   2.132  1.00  0.00     0.028 A 
ATOM     89  C   UNL     1       5.072   6.616   1.891  1.00  0.00     0.028 A 
ATOM     90  C   UNL     1       5.202   4.100   3.105  1.00  0.00     0.029 A 
ATOM     91  C   UNL     1       5.957   6.391   2.948  1.00  0.00     0.029 A 
ATOM     92  C   UNL     1       6.098   5.102   3.486  1.00  0.00     0.052 A 
BRANCH  92  93
ATOM     93  N   UNL     1       7.237   4.792   4.254  1.00  0.00    -0.250 N 
ATOM     94  C   UNL     1       7.851   5.684   5.143  1.00  0.00     0.237 C 
ATOM     95  C   UNL     1       8.033   3.652   4.011  1.00  0.00     0.237 C 
ATOM     96  O   UNL     1       7.409   6.667   5.711  1.00  0.00    -0.274 OA
ATOM     97  C   UNL     1       9.275   5.251   5.107  1.00  0.00     0.095 C 
ATOM     98  C   UNL     1       9.088   3.745   5.070  1.00  0.00     0.095 C 
ATOM     99  O   UNL     1       7.896   2.743   3.218  1.00  0.00    -0.274 OA
ATOM    100  C   UNL     1      10.492   5.405   6.021  1.00  0.00     0.002 C 
ATOM    101  C   UNL     1      10.526   3.276   5.244  1.00  0.00     0.002 C 
ATOM    102  C   UNL     1      11.686   5.430   5.040  1.00  0.00     0.005 C 
ATOM    103  C   UNL     1      10.747   3.993   6.600  1.00  0.00     0.009 C 
ATOM    104  C   UNL     1      11.569   4.029   4.369  1.00  0.00     0.005 C 
ENDBRANCH  92  93
ENDBRANCH  85  87
ENDBRANCH  79  83
ENDBRANCH  74  77
ENDBRANCH  72  73
ENDBRANCH   1  72
TORSDOF 16
