REMARK SMILES CC[NH+]1CCN(c2ccc(NC(=O)C3CCCC3)c(C(=O)NCCCNC(=O)c3ccc(-c4c5nc(c(-c6cc(S(=O)(=O)[O-])ccc6F)c6ccc([nH]6)c(-c6cc(S(=O)(=O)[O-])ccc6F)c6nc(c(-c7cc(S(=O)(=O)[O-])ccc7F)c7ccc4[nH]7)C=C6)C=C5)cc3)c2)CC1
REMARK SMILES IDX 24 1 23 2 22 3 20 4 21 5 19 7 7 8 8 9 92 10 9 11 10 12 6 13
REMARK SMILES IDX 3 14 4 15 94 16 5 18 93 19 2 20 1 21 11 22 12 23 13 25 14 26
REMARK SMILES IDX 15 27 18 28 16 29 17 30 25 31 26 32 27 33 28 35 29 36 30 37
REMARK SMILES IDX 91 38 31 39 90 40 32 41 33 42 34 43 84 44 35 45 89 46 83 47
REMARK SMILES IDX 85 48 36 49 88 50 82 51 81 52 37 54 69 55 49 56 68 57 50 58
REMARK SMILES IDX 53 59 67 60 86 61 51 62 52 63 66 65 87 66 54 67 38 68 39 69
REMARK SMILES IDX 47 70 40 71 46 72 48 73 45 74 41 75 42 76 43 77 44 78 70 79
REMARK SMILES IDX 71 80 79 81 72 82 78 83 80 84 77 85 73 86 74 87 75 88 76 89
REMARK SMILES IDX 55 90 56 91 64 92 57 93 63 94 65 95 62 96 58 97 59 98 60 99
REMARK SMILES IDX 61 100
REMARK H PARENT 22 6 3 17 11 24 26 34 85 53 53 64
REMARK Flexibility Score: inf
ROOT
ATOM      1  C   UNL     1       0.753   2.008   7.566  1.00  0.00     0.042 C 
ENDROOT
BRANCH   1   2
ATOM      2  C   UNL     1      -0.684   2.261   7.136  1.00  0.00     0.118 C 
BRANCH   2   3
ATOM      3  N   UNL     1      -1.231   3.581   7.466  1.00  0.00    -0.352 N 
ATOM      4  C   UNL     1      -1.699   4.634   6.695  1.00  0.00     0.253 C 
ATOM      5  O   UNL     1      -2.187   5.613   7.260  1.00  0.00    -0.269 OA
ATOM      6  H   UNL     1      -1.274   3.756   8.434  1.00  0.00     0.163 HD
BRANCH   4   7
ATOM      7  C   UNL     1      -1.495   4.674   5.223  1.00  0.00     0.065 A 
ATOM      8  C   UNL     1      -0.722   3.362   3.316  1.00  0.00     0.038 A 
ATOM      9  C   UNL     1      -0.047   4.526   2.918  1.00  0.00     0.028 A 
ATOM     10  C   UNL     1      -1.494   3.497   4.470  1.00  0.00     0.042 A 
ATOM     11  C   UNL     1      -0.226   5.752   3.552  1.00  0.00     0.029 A 
ATOM     12  C   UNL     1      -1.118   5.858   4.591  1.00  0.00     0.054 A 
BRANCH   8  13
ATOM     13  N   UNL     1      -0.574   2.163   2.652  1.00  0.00    -0.360 N 
ATOM     14  N   UNL     1       0.847  -0.409   2.298  1.00  0.00    -0.332 N 
ATOM     15  C   UNL     1       1.472   0.912   2.118  1.00  0.00     0.283 C 
ATOM     16  C   UNL     1      -0.254  -0.255   3.284  1.00  0.00     0.283 C 
ATOM     17  H   UNL     1       1.564  -1.051   2.635  1.00  0.00     0.348 HD
ATOM     18  C   UNL     1       0.479   1.983   1.639  1.00  0.00     0.178 C 
ATOM     19  C   UNL     1      -1.267   0.896   2.992  1.00  0.00     0.178 C 
BRANCH  14  20
ATOM     20  C   UNL     1       0.368  -1.034   1.054  1.00  0.00     0.258 C 
ATOM     21  C   UNL     1       1.195  -0.768  -0.206  1.00  0.00     0.071 C 
ENDBRANCH  14  20
ENDBRANCH   8  13
BRANCH  12  22
ATOM     22  N   UNL     1      -1.648   7.102   4.954  1.00  0.00    -0.325 N 
ATOM     23  C   UNL     1      -1.987   8.195   4.206  1.00  0.00     0.227 C 
ATOM     24  H   UNL     1      -1.803   7.209   5.920  1.00  0.00     0.169 HD
ATOM     25  O   UNL     1      -2.302   9.214   4.844  1.00  0.00    -0.274 OA
BRANCH  23  26
ATOM     26  C   UNL     1      -2.160   8.261   2.660  1.00  0.00     0.079 C 
ATOM     27  C   UNL     1      -1.773   7.186   1.654  1.00  0.00     0.013 C 
ATOM     28  C   UNL     1      -3.657   8.443   2.325  1.00  0.00     0.013 C 
ATOM     29  C   UNL     1      -2.493   7.566   0.373  1.00  0.00     0.001 C 
ATOM     30  C   UNL     1      -3.841   8.067   0.850  1.00  0.00     0.001 C 
ENDBRANCH  23  26
ENDBRANCH  12  22
ENDBRANCH   4   7
ENDBRANCH   2   3
ENDBRANCH   1   2
BRANCH   1  31
ATOM     31  C   UNL     1       0.961   1.896   9.066  1.00  0.00     0.118 C 
BRANCH  31  32
ATOM     32  N   UNL     1       0.135   0.863   9.680  1.00  0.00    -0.352 N 
ATOM     33  C   UNL     1       0.451  -0.368  10.206  1.00  0.00     0.251 C 
ATOM     34  H   UNL     1      -0.823   1.087   9.726  1.00  0.00     0.163 HD
ATOM     35  O   UNL     1      -0.460  -1.148  10.469  1.00  0.00    -0.269 OA
BRANCH  33  36
ATOM     36  C   UNL     1       1.859  -0.768  10.432  1.00  0.00     0.039 A 
ATOM     37  C   UNL     1       2.229  -2.102  10.228  1.00  0.00     0.014 A 
ATOM     38  C   UNL     1       2.811   0.149  10.877  1.00  0.00     0.014 A 
ATOM     39  C   UNL     1       3.564  -2.488  10.390  1.00  0.00     0.010 A 
ATOM     40  C   UNL     1       4.154  -0.209  10.929  1.00  0.00     0.010 A 
ATOM     41  C   UNL     1       4.548  -1.534  10.695  1.00  0.00    -0.014 A 
BRANCH  41  42
ATOM     42  C   UNL     1       5.987  -1.897  10.792  1.00  0.00     0.031 A 
ATOM     43  C   UNL     1       6.735  -1.673  12.081  1.00  0.00     0.074 A 
ATOM     44  C   UNL     1       6.637  -2.354   9.703  1.00  0.00     0.049 A 
ATOM     45  N   UNL     1       8.009  -1.825  12.338  1.00  0.00    -0.248 NA
ATOM     46  C   UNL     1       5.951  -1.177  13.222  1.00  0.00     0.031 C 
ATOM     47  C   UNL     1       6.032  -2.571   8.386  1.00  0.00     0.029 A 
ATOM     48  N   UNL     1       7.951  -2.712   9.523  1.00  0.00    -0.354 N 
ATOM     49  C   UNL     1       8.181  -1.424  13.659  1.00  0.00     0.074 A 
ATOM     50  C   UNL     1       6.894  -0.956  14.125  1.00  0.00     0.031 C 
ATOM     51  C   UNL     1       6.962  -3.054   7.547  1.00  0.00     0.029 A 
ATOM     52  C   UNL     1       8.242  -3.129   8.244  1.00  0.00     0.049 A 
ATOM     53  H   UNL     1       8.622  -2.673  10.242  1.00  0.00     0.167 HD
ATOM     54  C   UNL     1       9.302  -1.467  14.422  1.00  0.00     0.034 A 
ATOM     55  C   UNL     1       9.410  -3.513   7.690  1.00  0.00     0.034 A 
ATOM     56  C   UNL     1      10.573  -1.955  13.945  1.00  0.00     0.049 A 
ATOM     57  C   UNL     1      10.649  -3.529   8.551  1.00  0.00     0.074 A 
ATOM     58  C   UNL     1      11.758  -2.100  14.645  1.00  0.00     0.029 A 
ATOM     59  N   UNL     1      10.829  -2.370  12.643  1.00  0.00    -0.354 N 
ATOM     60  N   UNL     1      10.782  -3.196   9.814  1.00  0.00    -0.248 NA
ATOM     61  C   UNL     1      11.891  -3.982   7.913  1.00  0.00     0.031 C 
ATOM     62  C   UNL     1      12.745  -2.528  13.752  1.00  0.00     0.029 A 
ATOM     63  C   UNL     1      12.159  -2.738  12.513  1.00  0.00     0.049 A 
ATOM     64  H   UNL     1      10.162  -2.400  11.919  1.00  0.00     0.167 HD
ATOM     65  C   UNL     1      12.117  -3.433  10.130  1.00  0.00     0.074 A 
ATOM     66  C   UNL     1      12.740  -3.952   8.929  1.00  0.00     0.031 C 
ATOM     67  C   UNL     1      12.769  -3.245  11.306  1.00  0.00     0.034 A 
BRANCH  54  68
ATOM     68  C   UNL     1       9.202  -0.951  15.839  1.00  0.00     0.023 A 
ATOM     69  C   UNL     1       8.342  -1.540  16.783  1.00  0.00     0.031 A 
ATOM     70  C   UNL     1       9.958   0.162  16.248  1.00  0.00     0.131 A 
ATOM     71  C   UNL     1       8.197  -0.967  18.055  1.00  0.00     0.055 A 
ATOM     72  C   UNL     1       9.876   0.674  17.545  1.00  0.00     0.041 A 
ATOM     73  F   UNL     1      10.781   0.783  15.388  1.00  0.00    -0.206 F 
ATOM     74  C   UNL     1       8.979   0.120  18.453  1.00  0.00     0.022 A 
BRANCH  71  75
ATOM     75  S   UNL     1       6.861  -1.565  19.126  1.00  0.00     0.124 S 
ATOM     76  O   UNL     1       5.685  -1.322  18.293  1.00  0.00    -0.237 OA
ATOM     77  O   UNL     1       7.222  -2.963  19.330  1.00  0.00    -0.237 OA
ATOM     78  O   UNL     1       6.963  -0.714  20.310  1.00  0.00    -0.744 OA
ENDBRANCH  71  75
ENDBRANCH  54  68
BRANCH  55  79
ATOM     79  C   UNL     1       9.475  -3.907   6.252  1.00  0.00     0.023 A 
ATOM     80  C   UNL     1       9.833  -5.211   5.875  1.00  0.00     0.031 A 
ATOM     81  C   UNL     1       9.223  -2.974   5.231  1.00  0.00     0.131 A 
ATOM     82  C   UNL     1       9.980  -5.533   4.517  1.00  0.00     0.055 A 
ATOM     83  C   UNL     1       9.312  -3.315   3.880  1.00  0.00     0.041 A 
ATOM     84  F   UNL     1       8.874  -1.713   5.533  1.00  0.00    -0.206 F 
ATOM     85  C   UNL     1       9.707  -4.598   3.516  1.00  0.00     0.022 A 
BRANCH  82  86
ATOM     86  S   UNL     1      10.630  -7.169   4.077  1.00  0.00     0.124 S 
ATOM     87  O   UNL     1      11.910  -7.176   4.775  1.00  0.00    -0.237 OA
ATOM     88  O   UNL     1       9.602  -8.056   4.611  1.00  0.00    -0.237 OA
ATOM     89  O   UNL     1      10.713  -7.121   2.619  1.00  0.00    -0.744 OA
ENDBRANCH  82  86
ENDBRANCH  55  79
BRANCH  67  90
ATOM     90  C   UNL     1      14.222  -3.653  11.360  1.00  0.00     0.023 A 
ATOM     91  C   UNL     1      15.207  -2.996  10.602  1.00  0.00     0.031 A 
ATOM     92  C   UNL     1      14.624  -4.724  12.179  1.00  0.00     0.131 A 
ATOM     93  C   UNL     1      16.533  -3.453  10.634  1.00  0.00     0.055 A 
ATOM     94  C   UNL     1      15.956  -5.130  12.259  1.00  0.00     0.041 A 
ATOM     95  F   UNL     1      13.725  -5.391  12.922  1.00  0.00    -0.206 F 
ATOM     96  C   UNL     1      16.917  -4.503  11.472  1.00  0.00     0.022 A 
BRANCH  93  97
ATOM     97  S   UNL     1      17.733  -2.723   9.486  1.00  0.00     0.124 S 
ATOM     98  O   UNL     1      17.114  -2.989   8.191  1.00  0.00    -0.237 OA
ATOM     99  O   UNL     1      17.757  -1.326   9.906  1.00  0.00    -0.237 OA
ATOM    100  O   UNL     1      18.960  -3.471   9.751  1.00  0.00    -0.744 OA
ENDBRANCH  93  97
ENDBRANCH  67  90
ENDBRANCH  41  42
ENDBRANCH  33  36
ENDBRANCH  31  32
ENDBRANCH   1  31
TORSDOF 17
