REMARK SMILES COc1cccc([C@@H]2CN(C(=O)CSc3nc(C)n[nH]3)C[C@H]2C(=O)NCCCNC(=O)c2ccc(-c3c4nc(c(-c5cc(S(=O)(=O)[O-])ccc5F)c5ccc([nH]5)c(-c5cc(S(=O)(=O)[O-])ccc5F)c5nc(c(-c6cc(S(=O)(=O)[O-])ccc6F)c6ccc3[nH]6)C=C5)C=C4)cc2)c1
REMARK SMILES IDX 26 1 25 2 23 3 24 4 22 6 8 7 9 8 10 9 21 10 7 11 3 12 4 13
REMARK SMILES IDX 95 14 5 15 6 16 2 17 1 18 11 19 12 20 13 21 14 22 15 23
REMARK SMILES IDX 16 24 20 25 17 26 19 27 18 29 27 30 28 31 29 32 30 33 31 35
REMARK SMILES IDX 32 36 33 37 94 38 34 39 93 40 35 41 36 42 37 43 87 44 38 45
REMARK SMILES IDX 92 46 86 47 88 48 39 49 91 50 85 51 84 52 40 54 72 55 52 56
REMARK SMILES IDX 71 57 53 58 56 59 70 60 89 61 54 62 55 63 69 65 90 66 57 67
REMARK SMILES IDX 41 68 42 69 50 70 43 71 49 72 51 73 48 74 44 75 45 76 46 77
REMARK SMILES IDX 47 78 73 79 74 80 82 81 75 82 81 83 83 84 80 85 76 86 77 87
REMARK SMILES IDX 78 88 79 89 58 90 59 91 67 92 60 93 66 94 68 95 65 96 61 97
REMARK SMILES IDX 62 98 63 99 64 100
REMARK H PARENT 25 5 20 28 29 34 88 53 56 64
REMARK Flexibility Score: inf
ROOT
ATOM      1  C   UNL     1       5.925   1.430   6.336  1.00  0.00     0.117 C 
ENDROOT
BRANCH   1   2
ATOM      2  N   UNL     1       5.010   0.316   6.117  1.00  0.00    -0.356 N 
ATOM      3  C   UNL     1       4.445  -0.196   4.989  1.00  0.00     0.225 C 
ATOM      4  O   UNL     1       3.815  -1.251   5.094  1.00  0.00    -0.275 OA
ATOM      5  H   UNL     1       4.750  -0.155   6.941  1.00  0.00     0.163 HD
BRANCH   3   6
ATOM      6  C   UNL     1       4.556   0.474   3.632  1.00  0.00     0.107 C 
ATOM      7  C   UNL     1       3.952   1.889   3.617  1.00  0.00     0.053 C 
ATOM      8  C   UNL     1       4.880   2.686   2.703  1.00  0.00     0.128 C 
ATOM      9  N   UNL     1       6.170   2.028   2.834  1.00  0.00    -0.341 N 
ATOM     10  C   UNL     1       5.997   0.616   3.154  1.00  0.00     0.133 C 
BRANCH   7  11
ATOM     11  C   UNL     1       2.498   1.986   3.217  1.00  0.00    -0.039 A 
ATOM     12  C   UNL     1       0.694   1.620   1.623  1.00  0.00     0.119 A 
ATOM     13  C   UNL     1      -0.189   2.281   2.475  1.00  0.00     0.046 A 
ATOM     14  C   UNL     1       2.034   1.482   1.991  1.00  0.00     0.050 A 
ATOM     15  C   UNL     1       0.251   2.771   3.703  1.00  0.00     0.004 A 
ATOM     16  C   UNL     1       1.587   2.623   4.073  1.00  0.00     0.004 A 
BRANCH  12  17
ATOM     17  O   UNL     1       0.165   1.198   0.434  1.00  0.00    -0.497 OA
ATOM     18  C   UNL     1       0.765   0.033  -0.121  1.00  0.00     0.278 C 
ENDBRANCH  12  17
ENDBRANCH   7  11
BRANCH   9  19
ATOM     19  C   UNL     1       7.423   2.583   2.696  1.00  0.00     0.233 C 
ATOM     20  O   UNL     1       8.435   1.889   2.804  1.00  0.00    -0.274 OA
BRANCH  19  21
ATOM     21  C   UNL     1       7.542   4.065   2.387  1.00  0.00     0.178 C 
BRANCH  21  22
ATOM     22  S   UNL     1       6.906   4.478   0.741  1.00  0.00    -0.077 SA
BRANCH  22  23
ATOM     23  C   UNL     1       7.887   3.514  -0.292  1.00  0.00     0.184 A 
ATOM     24  N   UNL     1       8.712   3.950  -1.208  1.00  0.00    -0.206 NA
ATOM     25  N   UNL     1       7.795   2.157  -0.356  1.00  0.00    -0.254 N 
ATOM     26  C   UNL     1       9.113   2.793  -1.826  1.00  0.00     0.148 A 
ATOM     27  N   UNL     1       8.567   1.669  -1.343  1.00  0.00    -0.158 NA
ATOM     28  H   UNL     1       7.237   1.607   0.240  1.00  0.00     0.192 HD
ATOM     29  C   UNL     1      10.051   2.802  -2.964  1.00  0.00     0.092 C 
ENDBRANCH  22  23
ENDBRANCH  21  22
ENDBRANCH  19  21
ENDBRANCH   9  19
ENDBRANCH   3   6
ENDBRANCH   1   2
BRANCH   1  30
ATOM     30  C   UNL     1       5.297   2.629   7.050  1.00  0.00     0.042 C 
BRANCH  30  31
ATOM     31  C   UNL     1       4.971   2.346   8.504  1.00  0.00     0.118 C 
BRANCH  31  32
ATOM     32  N   UNL     1       6.164   2.156   9.324  1.00  0.00    -0.352 N 
ATOM     33  C   UNL     1       6.227   1.904  10.679  1.00  0.00     0.251 C 
ATOM     34  H   UNL     1       7.027   2.215   8.853  1.00  0.00     0.163 HD
ATOM     35  O   UNL     1       7.272   2.120  11.291  1.00  0.00    -0.269 OA
BRANCH  33  36
ATOM     36  C   UNL     1       5.026   1.410  11.379  1.00  0.00     0.039 A 
ATOM     37  C   UNL     1       4.704   1.871  12.656  1.00  0.00     0.014 A 
ATOM     38  C   UNL     1       4.192   0.503  10.727  1.00  0.00     0.014 A 
ATOM     39  C   UNL     1       3.490   1.487  13.221  1.00  0.00     0.010 A 
ATOM     40  C   UNL     1       2.931   0.251  11.215  1.00  0.00     0.010 A 
ATOM     41  C   UNL     1       2.584   0.706  12.479  1.00  0.00    -0.014 A 
BRANCH  41  42
ATOM     42  C   UNL     1       1.214   0.509  12.954  1.00  0.00     0.031 A 
ATOM     43  C   UNL     1       0.544   1.767  13.367  1.00  0.00     0.074 A 
ATOM     44  C   UNL     1       0.514  -0.645  12.863  1.00  0.00     0.049 A 
ATOM     45  N   UNL     1       0.333   2.168  14.575  1.00  0.00    -0.248 NA
ATOM     46  C   UNL     1       0.259   2.789  12.347  1.00  0.00     0.031 C 
ATOM     47  C   UNL     1       0.927  -1.902  12.235  1.00  0.00     0.029 A 
ATOM     48  N   UNL     1      -0.775  -0.907  13.231  1.00  0.00    -0.354 N 
ATOM     49  C   UNL     1      -0.392   3.346  14.455  1.00  0.00     0.074 A 
ATOM     50  C   UNL     1      -0.171   3.798  13.108  1.00  0.00     0.031 C 
ATOM     51  C   UNL     1      -0.150  -2.699  12.061  1.00  0.00     0.029 A 
ATOM     52  C   UNL     1      -1.300  -2.086  12.703  1.00  0.00     0.049 A 
ATOM     53  H   UNL     1      -1.291  -0.311  13.822  1.00  0.00     0.167 HD
ATOM     54  C   UNL     1      -1.347   3.663  15.374  1.00  0.00     0.034 A 
ATOM     55  C   UNL     1      -2.586  -2.532  12.769  1.00  0.00     0.034 A 
ATOM     56  C   UNL     1      -1.196   2.853  16.573  1.00  0.00     0.049 A 
ATOM     57  C   UNL     1      -3.208  -1.876  13.944  1.00  0.00     0.074 A 
ATOM     58  C   UNL     1      -0.141   2.574  17.424  1.00  0.00     0.029 A 
ATOM     59  N   UNL     1      -2.121   1.856  16.813  1.00  0.00    -0.354 N 
ATOM     60  N   UNL     1      -2.842  -2.124  15.171  1.00  0.00    -0.248 NA
ATOM     61  C   UNL     1      -3.874  -0.596  13.749  1.00  0.00     0.031 C 
ATOM     62  C   UNL     1      -0.254   1.179  17.706  1.00  0.00     0.029 A 
ATOM     63  C   UNL     1      -1.426   0.710  17.112  1.00  0.00     0.049 A 
ATOM     64  H   UNL     1      -3.100   1.950  16.777  1.00  0.00     0.167 HD
ATOM     65  C   UNL     1      -2.789  -0.883  15.783  1.00  0.00     0.074 A 
ATOM     66  C   UNL     1      -3.547   0.003  14.899  1.00  0.00     0.031 C 
ATOM     67  C   UNL     1      -1.893  -0.626  16.785  1.00  0.00     0.034 A 
BRANCH  54  68
ATOM     68  C   UNL     1      -2.651   4.366  15.046  1.00  0.00     0.023 A 
ATOM     69  C   UNL     1      -3.546   4.553  16.116  1.00  0.00     0.031 A 
ATOM     70  C   UNL     1      -3.195   4.563  13.756  1.00  0.00     0.131 A 
ATOM     71  C   UNL     1      -4.918   4.740  15.884  1.00  0.00     0.055 A 
ATOM     72  C   UNL     1      -4.550   4.830  13.534  1.00  0.00     0.041 A 
ATOM     73  F   UNL     1      -2.485   4.428  12.632  1.00  0.00    -0.206 F 
ATOM     74  C   UNL     1      -5.430   4.874  14.599  1.00  0.00     0.022 A 
BRANCH  71  75
ATOM     75  S   UNL     1      -6.038   4.577  17.295  1.00  0.00     0.124 S 
ATOM     76  O   UNL     1      -5.683   3.250  17.784  1.00  0.00    -0.237 OA
ATOM     77  O   UNL     1      -5.632   5.703  18.130  1.00  0.00    -0.237 OA
ATOM     78  O   UNL     1      -7.362   4.692  16.690  1.00  0.00    -0.744 OA
ENDBRANCH  71  75
ENDBRANCH  54  68
BRANCH  55  79
ATOM     79  C   UNL     1      -3.353  -3.308  11.752  1.00  0.00     0.023 A 
ATOM     80  C   UNL     1      -4.562  -3.982  12.043  1.00  0.00     0.031 A 
ATOM     81  C   UNL     1      -3.019  -3.181  10.384  1.00  0.00     0.131 A 
ATOM     82  C   UNL     1      -5.373  -4.484  10.994  1.00  0.00     0.055 A 
ATOM     83  C   UNL     1      -3.820  -3.682   9.355  1.00  0.00     0.041 A 
ATOM     84  F   UNL     1      -1.942  -2.481   9.993  1.00  0.00    -0.206 F 
ATOM     85  C   UNL     1      -5.008  -4.326   9.656  1.00  0.00     0.022 A 
BRANCH  82  86
ATOM     86  S   UNL     1      -6.988  -5.260  11.346  1.00  0.00     0.124 S 
ATOM     87  O   UNL     1      -6.600  -6.532  11.945  1.00  0.00    -0.237 OA
ATOM     88  O   UNL     1      -7.620  -4.289  12.231  1.00  0.00    -0.237 OA
ATOM     89  O   UNL     1      -7.608  -5.370  10.024  1.00  0.00    -0.744 OA
ENDBRANCH  82  86
ENDBRANCH  55  79
BRANCH  67  90
ATOM     90  C   UNL     1      -1.195  -1.797  17.455  1.00  0.00     0.023 A 
ATOM     91  C   UNL     1      -0.499  -2.827  16.781  1.00  0.00     0.031 A 
ATOM     92  C   UNL     1      -1.176  -1.820  18.862  1.00  0.00     0.131 A 
ATOM     93  C   UNL     1       0.149  -3.843  17.513  1.00  0.00     0.055 A 
ATOM     94  C   UNL     1      -0.512  -2.811  19.584  1.00  0.00     0.041 A 
ATOM     95  F   UNL     1      -1.793  -0.859  19.570  1.00  0.00    -0.206 F 
ATOM     96  C   UNL     1       0.143  -3.835  18.911  1.00  0.00     0.022 A 
BRANCH  93  97
ATOM     97  S   UNL     1       0.975  -5.226  16.661  1.00  0.00     0.124 S 
ATOM     98  O   UNL     1       0.039  -5.590  15.604  1.00  0.00    -0.237 OA
ATOM     99  O   UNL     1       2.228  -4.619  16.221  1.00  0.00    -0.237 OA
ATOM    100  O   UNL     1       1.124  -6.231  17.715  1.00  0.00    -0.744 OA
ENDBRANCH  93  97
ENDBRANCH  67  90
ENDBRANCH  41  42
ENDBRANCH  33  36
ENDBRANCH  31  32
ENDBRANCH  30  31
ENDBRANCH   1  30
TORSDOF 19
