REMARK SMILES O=C(CC1(NC(=O)c2ccc3cc[nH]c3c2)CCC1)NCCCNC(=O)c1ccc(-c2c3nc(c(-c4cc(S(=O)(=O)[O-])ccc4F)c4ccc([nH]4)c(-c4cc(S(=O)(=O)[O-])ccc4F)c4nc(c(-c5cc(S(=O)(=O)[O-])ccc5F)c5ccc2[nH]5)C=C4)C=C3)cc1
REMARK SMILES IDX 22 1 21 2 20 3 1 4 2 5 3 7 4 8 17 9 19 10 18 11 5 12 6 13
REMARK SMILES IDX 7 15 8 16 9 17 16 18 10 19 15 20 11 21 14 22 12 23 13 24
REMARK SMILES IDX 23 26 24 27 25 28 26 30 27 31 28 32 89 33 29 34 88 35 30 36
REMARK SMILES IDX 31 37 32 38 82 39 33 40 87 41 81 42 83 43 34 44 86 45 80 46
REMARK SMILES IDX 79 47 35 49 67 50 47 51 66 52 48 53 51 54 65 55 84 56 49 57
REMARK SMILES IDX 50 58 64 60 85 61 52 62 36 63 37 64 45 65 38 66 44 67 46 68
REMARK SMILES IDX 43 69 39 70 40 71 41 72 42 73 68 74 69 75 77 76 70 77 76 78
REMARK SMILES IDX 78 79 75 80 71 81 72 82 73 83 74 84 53 85 54 86 62 87 55 88
REMARK SMILES IDX 61 89 63 90 60 91 56 92 57 93 58 94 59 95
REMARK H PARENT 20 6 5 14 14 25 24 29 83 48 51 59
REMARK Flexibility Score: inf
ROOT
ATOM      1  C   UNL     1       3.670   2.322  -1.724  1.00  0.00     0.042 C 
ENDROOT
BRANCH   1   2
ATOM      2  C   UNL     1       4.164   0.889  -1.591  1.00  0.00     0.117 C 
BRANCH   2   3
ATOM      3  N   UNL     1       5.018   0.638  -0.446  1.00  0.00    -0.356 N 
ATOM      4  O   UNL     1       4.676   1.326   1.669  1.00  0.00    -0.275 OA
ATOM      5  C   UNL     1       4.557   0.439   0.823  1.00  0.00     0.222 C 
ATOM      6  H   UNL     1       5.991   0.610  -0.594  1.00  0.00     0.163 HD
BRANCH   5   7
ATOM      7  C   UNL     1       3.973  -0.912   1.210  1.00  0.00     0.128 C 
BRANCH   7   8
ATOM      8  C   UNL     1       3.562  -1.921   0.144  1.00  0.00     0.049 C 
ATOM      9  C   UNL     1       4.795  -2.420  -0.697  1.00  0.00     0.029 C 
ATOM     10  C   UNL     1       3.443  -3.392   0.677  1.00  0.00     0.029 C 
ATOM     11  C   UNL     1       4.819  -3.727   0.095  1.00  0.00     0.005 C 
BRANCH   8  12
ATOM     12  N   UNL     1       2.386  -1.644  -0.738  1.00  0.00    -0.346 N 
ATOM     13  C   UNL     1       1.163  -1.008  -0.770  1.00  0.00     0.251 C 
ATOM     14  H   UNL     1       2.542  -2.071  -1.611  1.00  0.00     0.164 HD
ATOM     15  O   UNL     1       0.458  -1.333  -1.735  1.00  0.00    -0.269 OA
BRANCH  13  16
ATOM     16  C   UNL     1       0.603   0.030   0.139  1.00  0.00     0.041 A 
ATOM     17  C   UNL     1       1.358   1.013   0.762  1.00  0.00     0.014 A 
ATOM     18  C   UNL     1      -0.800   0.160   0.178  1.00  0.00     0.040 A 
ATOM     19  C   UNL     1       0.795   2.059   1.511  1.00  0.00     0.011 A 
ATOM     20  C   UNL     1      -1.367   1.237   0.882  1.00  0.00     0.046 A 
ATOM     21  C   UNL     1      -0.598   2.171   1.572  1.00  0.00    -0.001 A 
ATOM     22  N   UNL     1      -2.680   1.629   1.017  1.00  0.00    -0.361 N 
ATOM     23  C   UNL     1      -1.488   3.093   2.184  1.00  0.00     0.028 A 
ATOM     24  C   UNL     1      -2.766   2.734   1.823  1.00  0.00     0.083 A 
ATOM     25  H   UNL     1      -3.448   1.180   0.594  1.00  0.00     0.166 HD
ENDBRANCH  13  16
ENDBRANCH   8  12
ENDBRANCH   7   8
ENDBRANCH   5   7
ENDBRANCH   2   3
ENDBRANCH   1   2
BRANCH   1  26
ATOM     26  C   UNL     1       4.720   3.230  -2.318  1.00  0.00     0.118 C 
BRANCH  26  27
ATOM     27  N   UNL     1       5.051   2.887  -3.695  1.00  0.00    -0.352 N 
ATOM     28  C   UNL     1       5.560   3.692  -4.684  1.00  0.00     0.251 C 
ATOM     29  H   UNL     1       4.888   1.951  -3.951  1.00  0.00     0.163 HD
ATOM     30  O   UNL     1       5.692   3.238  -5.818  1.00  0.00    -0.269 OA
BRANCH  28  31
ATOM     31  C   UNL     1       5.885   5.105  -4.392  1.00  0.00     0.039 A 
ATOM     32  C   UNL     1       5.612   6.072  -5.363  1.00  0.00     0.014 A 
ATOM     33  C   UNL     1       6.433   5.486  -3.166  1.00  0.00     0.014 A 
ATOM     34  C   UNL     1       5.855   7.418  -5.085  1.00  0.00     0.010 A 
ATOM     35  C   UNL     1       6.553   6.829  -2.844  1.00  0.00     0.010 A 
ATOM     36  C   UNL     1       6.307   7.806  -3.815  1.00  0.00    -0.014 A 
BRANCH  36  37
ATOM     37  C   UNL     1       6.627   9.218  -3.497  1.00  0.00     0.031 A 
ATOM     38  C   UNL     1       8.040   9.578  -3.115  1.00  0.00     0.074 A 
ATOM     39  C   UNL     1       5.649  10.143  -3.485  1.00  0.00     0.049 A 
ATOM     40  N   UNL     1       8.523  10.718  -2.696  1.00  0.00    -0.248 NA
ATOM     41  C   UNL     1       9.032   8.491  -3.162  1.00  0.00     0.031 C 
ATOM     42  C   UNL     1       4.237   9.888  -3.782  1.00  0.00     0.029 A 
ATOM     43  N   UNL     1       5.693  11.483  -3.208  1.00  0.00    -0.354 N 
ATOM     44  C   UNL     1       9.860  10.474  -2.398  1.00  0.00     0.074 A 
ATOM     45  C   UNL     1      10.087   9.062  -2.605  1.00  0.00     0.031 C 
ATOM     46  C   UNL     1       3.558  11.043  -3.706  1.00  0.00     0.029 A 
ATOM     47  C   UNL     1       4.473  12.110  -3.316  1.00  0.00     0.049 A 
ATOM     48  H   UNL     1       6.520  11.955  -2.955  1.00  0.00     0.167 HD
ATOM     49  C   UNL     1      10.820  11.355  -2.023  1.00  0.00     0.034 A 
ATOM     50  C   UNL     1       4.140  13.400  -3.119  1.00  0.00     0.034 A 
ATOM     51  C   UNL     1      10.574  12.766  -1.869  1.00  0.00     0.049 A 
ATOM     52  C   UNL     1       5.228  14.370  -2.735  1.00  0.00     0.074 A 
ATOM     53  C   UNL     1      11.470  13.771  -1.554  1.00  0.00     0.029 A 
ATOM     54  N   UNL     1       9.333  13.373  -2.028  1.00  0.00    -0.354 N 
ATOM     55  N   UNL     1       6.501  14.136  -2.504  1.00  0.00    -0.248 NA
ATOM     56  C   UNL     1       4.840  15.779  -2.603  1.00  0.00     0.031 C 
ATOM     57  C   UNL     1      10.762  14.976  -1.471  1.00  0.00     0.029 A 
ATOM     58  C   UNL     1       9.437  14.736  -1.802  1.00  0.00     0.049 A 
ATOM     59  H   UNL     1       8.502  12.903  -2.266  1.00  0.00     0.167 HD
ATOM     60  C   UNL     1       7.070  15.376  -2.231  1.00  0.00     0.074 A 
ATOM     61  C   UNL     1       6.005  16.353  -2.342  1.00  0.00     0.031 C 
ATOM     62  C   UNL     1       8.355  15.685  -1.919  1.00  0.00     0.034 A 
BRANCH  49  63
ATOM     63  C   UNL     1      12.200  10.803  -1.748  1.00  0.00     0.023 A 
ATOM     64  C   UNL     1      12.944  10.141  -2.743  1.00  0.00     0.031 A 
ATOM     65  C   UNL     1      12.759  10.888  -0.462  1.00  0.00     0.131 A 
ATOM     66  C   UNL     1      14.152   9.509  -2.413  1.00  0.00     0.055 A 
ATOM     67  C   UNL     1      14.008  10.337  -0.163  1.00  0.00     0.041 A 
ATOM     68  F   UNL     1      12.092  11.489   0.536  1.00  0.00    -0.206 F 
ATOM     69  C   UNL     1      14.704   9.626  -1.136  1.00  0.00     0.022 A 
BRANCH  66  70
ATOM     70  S   UNL     1      14.908   8.398  -3.632  1.00  0.00     0.124 S 
ATOM     71  O   UNL     1      13.854   7.402  -3.814  1.00  0.00    -0.237 OA
ATOM     72  O   UNL     1      15.150   9.286  -4.763  1.00  0.00    -0.237 OA
ATOM     73  O   UNL     1      16.107   7.908  -2.954  1.00  0.00    -0.744 OA
ENDBRANCH  66  70
ENDBRANCH  49  63
BRANCH  50  74
ATOM     74  C   UNL     1       2.732  13.853  -3.299  1.00  0.00     0.023 A 
ATOM     75  C   UNL     1       2.387  14.747  -4.326  1.00  0.00     0.031 A 
ATOM     76  C   UNL     1       1.713  13.423  -2.431  1.00  0.00     0.131 A 
ATOM     77  C   UNL     1       1.070  15.219  -4.431  1.00  0.00     0.055 A 
ATOM     78  C   UNL     1       0.393  13.857  -2.570  1.00  0.00     0.041 A 
ATOM     79  F   UNL     1       1.986  12.560  -1.439  1.00  0.00    -0.206 F 
ATOM     80  C   UNL     1       0.068  14.771  -3.567  1.00  0.00     0.022 A 
BRANCH  77  81
ATOM     81  S   UNL     1       0.701  16.494  -5.668  1.00  0.00     0.124 S 
ATOM     82  O   UNL     1       1.630  17.552  -5.291  1.00  0.00    -0.237 OA
ATOM     83  O   UNL     1       0.993  15.797  -6.916  1.00  0.00    -0.237 OA
ATOM     84  O   UNL     1      -0.711  16.791  -5.438  1.00  0.00    -0.744 OA
ENDBRANCH  77  81
ENDBRANCH  50  74
BRANCH  62  85
ATOM     85  C   UNL     1       8.677  17.145  -1.730  1.00  0.00     0.023 A 
ATOM     86  C   UNL     1       8.166  17.880  -0.647  1.00  0.00     0.031 A 
ATOM     87  C   UNL     1       9.500  17.810  -2.655  1.00  0.00     0.131 A 
ATOM     88  C   UNL     1       8.435  19.252  -0.547  1.00  0.00     0.055 A 
ATOM     89  C   UNL     1       9.815  19.162  -2.518  1.00  0.00     0.041 A 
ATOM     90  F   UNL     1      10.014  17.154  -3.708  1.00  0.00    -0.206 F 
ATOM     91  C   UNL     1       9.270  19.894  -1.467  1.00  0.00     0.022 A 
BRANCH  88  92
ATOM     92  S   UNL     1       7.604  20.209   0.749  1.00  0.00     0.124 S 
ATOM     93  O   UNL     1       6.196  19.970   0.447  1.00  0.00    -0.237 OA
ATOM     94  O   UNL     1       8.108  19.587   1.968  1.00  0.00    -0.237 OA
ATOM     95  O   UNL     1       8.064  21.576   0.514  1.00  0.00    -0.744 OA
ENDBRANCH  88  92
ENDBRANCH  62  85
ENDBRANCH  36  37
ENDBRANCH  28  31
ENDBRANCH  26  27
ENDBRANCH   1  26
TORSDOF 16
