REMARK SMILES C[C@H]1CCC[C@]1(C(=O)NCCCNC(=O)c1ccc(-c2c3nc(c(-c4cc(S(=O)(=O)[O-])ccc4F)c4ccc([nH]4)c(-c4cc(S(=O)(=O)[O-])ccc4F)c4nc(c(-c5cc(S(=O)(=O)[O-])ccc5F)c5ccc2[nH]5)C=C4)C=C3)cc1)c1ccc2c(c1)OCO2
REMARK SMILES IDX 12 1 11 2 10 3 9 4 7 5 8 6 6 8 1 9 2 10 3 11 4 12 5 13 79 14
REMARK SMILES IDX 80 15 84 16 81 17 83 18 82 19 85 20 87 21 86 22 13 23 14 24
REMARK SMILES IDX 15 26 16 27 17 28 78 29 18 30 77 31 19 32 20 33 21 34 71 35
REMARK SMILES IDX 22 36 76 37 70 38 72 39 23 40 75 41 69 42 68 43 24 45 56 46
REMARK SMILES IDX 36 47 55 48 37 49 40 50 54 51 73 52 38 53 39 54 53 56 74 57
REMARK SMILES IDX 41 58 25 59 26 60 34 61 27 62 33 63 35 64 32 65 28 66 29 67
REMARK SMILES IDX 30 68 31 69 57 70 58 71 66 72 59 73 65 74 67 75 64 76 60 77
REMARK SMILES IDX 61 78 62 79 63 80 42 81 43 82 51 83 44 84 50 85 52 86 49 87
REMARK SMILES IDX 45 88 46 89 47 90 48 91
REMARK H PARENT 9 7 13 25 72 44 40 55
REMARK Flexibility Score: inf
ROOT
ATOM      1  C   UNL     1      -1.667  -2.032   4.605  1.00  0.00     0.118 C 
ENDROOT
BRANCH   1   2
ATOM      2  C   UNL     1      -1.306  -2.011   3.131  1.00  0.00     0.042 C 
BRANCH   2   3
ATOM      3  C   UNL     1      -1.978  -0.886   2.362  1.00  0.00     0.117 C 
BRANCH   3   4
ATOM      4  N   UNL     1      -1.412   0.424   2.645  1.00  0.00    -0.355 N 
ATOM      5  C   UNL     1      -0.817   1.392   1.890  1.00  0.00     0.230 C 
ATOM      6  O   UNL     1      -0.721   2.473   2.484  1.00  0.00    -0.274 OA
ATOM      7  H   UNL     1      -1.473   0.667   3.597  1.00  0.00     0.163 HD
BRANCH   5   8
ATOM      8  C   UNL     1      -0.284   1.176   0.427  1.00  0.00     0.077 C 
ATOM      9  C   UNL     1       1.778  -0.013   1.558  1.00  0.00     0.009 C 
ATOM     10  C   UNL     1       0.883   0.129   0.331  1.00  0.00     0.006 C 
ATOM     11  C   UNL     1       0.265  -1.171  -0.165  1.00  0.00     0.005 C 
ATOM     12  C   UNL     1      -0.902  -0.726  -1.039  1.00  0.00     0.002 C 
ATOM     13  C   UNL     1      -1.431   0.584  -0.444  1.00  0.00     0.022 C 
BRANCH   8  14
ATOM     14  C   UNL     1       0.328   2.449  -0.263  1.00  0.00    -0.028 A 
ATOM     15  C   UNL     1       1.017   3.458   0.459  1.00  0.00     0.009 A 
ATOM     16  C   UNL     1       0.444   2.473  -1.676  1.00  0.00     0.055 A 
ATOM     17  C   UNL     1       1.800   4.431  -0.182  1.00  0.00     0.051 A 
ATOM     18  C   UNL     1       1.265   3.401  -2.273  1.00  0.00     0.166 A 
ATOM     19  C   UNL     1       1.935   4.350  -1.546  1.00  0.00     0.165 A 
ATOM     20  O   UNL     1       1.588   3.429  -3.594  1.00  0.00    -0.454 OA
ATOM     21  O   UNL     1       2.764   5.098  -2.324  1.00  0.00    -0.454 OA
ATOM     22  C   UNL     1       2.692   4.353  -3.558  1.00  0.00     0.468 C 
ENDBRANCH   8  14
ENDBRANCH   5   8
ENDBRANCH   3   4
ENDBRANCH   2   3
ENDBRANCH   1   2
BRANCH   1  23
ATOM     23  N   UNL     1      -3.076  -2.338   4.809  1.00  0.00    -0.352 N 
ATOM     24  C   UNL     1      -3.676  -3.473   5.298  1.00  0.00     0.251 C 
ATOM     25  H   UNL     1      -3.697  -1.617   4.556  1.00  0.00     0.163 HD
ATOM     26  O   UNL     1      -4.875  -3.641   5.102  1.00  0.00    -0.269 OA
BRANCH  24  27
ATOM     27  C   UNL     1      -2.888  -4.481   6.042  1.00  0.00     0.039 A 
ATOM     28  C   UNL     1      -3.224  -5.831   5.916  1.00  0.00     0.014 A 
ATOM     29  C   UNL     1      -1.848  -4.101   6.893  1.00  0.00     0.014 A 
ATOM     30  C   UNL     1      -2.485  -6.795   6.604  1.00  0.00     0.010 A 
ATOM     31  C   UNL     1      -1.042  -5.066   7.486  1.00  0.00     0.010 A 
ATOM     32  C   UNL     1      -1.367  -6.422   7.369  1.00  0.00    -0.014 A 
BRANCH  32  33
ATOM     33  C   UNL     1      -0.545  -7.442   8.067  1.00  0.00     0.031 A 
ATOM     34  C   UNL     1      -0.436  -7.434   9.568  1.00  0.00     0.074 A 
ATOM     35  C   UNL     1       0.133  -8.350   7.339  1.00  0.00     0.049 A 
ATOM     36  N   UNL     1       0.217  -8.250  10.356  1.00  0.00    -0.248 NA
ATOM     37  C   UNL     1      -1.119  -6.340  10.274  1.00  0.00     0.031 C 
ATOM     38  C   UNL     1       0.157  -8.409   5.875  1.00  0.00     0.029 A 
ATOM     39  N   UNL     1       0.921  -9.402   7.726  1.00  0.00    -0.354 N 
ATOM     40  C   UNL     1       0.031  -7.761  11.646  1.00  0.00     0.074 A 
ATOM     41  C   UNL     1      -0.721  -6.532  11.521  1.00  0.00     0.031 C 
ATOM     42  C   UNL     1       0.871  -9.477   5.490  1.00  0.00     0.029 A 
ATOM     43  C   UNL     1       1.389 -10.153   6.674  1.00  0.00     0.049 A 
ATOM     44  H   UNL     1       1.132  -9.600   8.667  1.00  0.00     0.167 HD
ATOM     45  C   UNL     1       0.421  -8.306  12.826  1.00  0.00     0.034 A 
ATOM     46  C   UNL     1       2.140 -11.271   6.668  1.00  0.00     0.034 A 
ATOM     47  C   UNL     1       1.167  -9.538  12.923  1.00  0.00     0.049 A 
ATOM     48  C   UNL     1       2.564 -11.860   7.986  1.00  0.00     0.074 A 
ATOM     49  C   UNL     1       1.567 -10.222  14.058  1.00  0.00     0.029 A 
ATOM     50  N   UNL     1       1.640 -10.267  11.837  1.00  0.00    -0.354 N 
ATOM     51  N   UNL     1       2.319 -11.430   9.203  1.00  0.00    -0.248 NA
ATOM     52  C   UNL     1       3.355 -13.094   7.926  1.00  0.00     0.031 C 
ATOM     53  C   UNL     1       2.339 -11.320  13.659  1.00  0.00     0.029 A 
ATOM     54  C   UNL     1       2.358 -11.370  12.274  1.00  0.00     0.049 A 
ATOM     55  H   UNL     1       1.486 -10.033  10.893  1.00  0.00     0.167 HD
ATOM     56  C   UNL     1       2.913 -12.354  10.057  1.00  0.00     0.074 A 
ATOM     57  C   UNL     1       3.498 -13.377   9.212  1.00  0.00     0.031 C 
ATOM     58  C   UNL     1       2.971 -12.359  11.415  1.00  0.00     0.034 A 
BRANCH  45  59
ATOM     59  C   UNL     1       0.065  -7.546  14.087  1.00  0.00     0.023 A 
ATOM     60  C   UNL     1      -1.271  -7.256  14.424  1.00  0.00     0.031 A 
ATOM     61  C   UNL     1       1.072  -7.041  14.928  1.00  0.00     0.131 A 
ATOM     62  C   UNL     1      -1.557  -6.399  15.497  1.00  0.00     0.055 A 
ATOM     63  C   UNL     1       0.775  -6.269  16.055  1.00  0.00     0.041 A 
ATOM     64  F   UNL     1       2.368  -7.264  14.655  1.00  0.00    -0.206 F 
ATOM     65  C   UNL     1      -0.544  -5.924  16.332  1.00  0.00     0.022 A 
BRANCH  62  66
ATOM     66  S   UNL     1      -3.248  -5.760  15.666  1.00  0.00     0.124 S 
ATOM     67  O   UNL     1      -3.459  -5.138  14.360  1.00  0.00    -0.237 OA
ATOM     68  O   UNL     1      -4.017  -6.969  15.930  1.00  0.00    -0.237 OA
ATOM     69  O   UNL     1      -3.150  -4.823  16.784  1.00  0.00    -0.744 OA
ENDBRANCH  62  66
ENDBRANCH  45  59
BRANCH  46  70
ATOM     70  C   UNL     1       2.508 -11.918   5.378  1.00  0.00     0.023 A 
ATOM     71  C   UNL     1       1.997 -13.179   5.033  1.00  0.00     0.031 A 
ATOM     72  C   UNL     1       3.378 -11.287   4.471  1.00  0.00     0.131 A 
ATOM     73  C   UNL     1       2.384 -13.785   3.828  1.00  0.00     0.055 A 
ATOM     74  C   UNL     1       3.724 -11.873   3.253  1.00  0.00     0.041 A 
ATOM     75  F   UNL     1       3.884 -10.074   4.748  1.00  0.00    -0.206 F 
ATOM     76  C   UNL     1       3.233 -13.135   2.930  1.00  0.00     0.022 A 
BRANCH  73  77
ATOM     77  S   UNL     1       1.796 -15.463   3.471  1.00  0.00     0.124 S 
ATOM     78  O   UNL     1       2.352 -16.218   4.588  1.00  0.00    -0.237 OA
ATOM     79  O   UNL     1       0.347 -15.284   3.475  1.00  0.00    -0.237 OA
ATOM     80  O   UNL     1       2.381 -15.757   2.164  1.00  0.00    -0.744 OA
ENDBRANCH  73  77
ENDBRANCH  46  70
BRANCH  58  81
ATOM     81  C   UNL     1       3.691 -13.524  12.052  1.00  0.00     0.023 A 
ATOM     82  C   UNL     1       5.066 -13.736  11.850  1.00  0.00     0.031 A 
ATOM     83  C   UNL     1       2.985 -14.463  12.824  1.00  0.00     0.131 A 
ATOM     84  C   UNL     1       5.675 -14.900  12.340  1.00  0.00     0.055 A 
ATOM     85  C   UNL     1       3.613 -15.582  13.373  1.00  0.00     0.041 A 
ATOM     86  F   UNL     1       1.670 -14.316  13.048  1.00  0.00    -0.206 F 
ATOM     87  C   UNL     1       4.961 -15.817  13.116  1.00  0.00     0.022 A 
BRANCH  84  88
ATOM     88  S   UNL     1       7.376 -15.269  11.831  1.00  0.00     0.124 S 
ATOM     89  O   UNL     1       7.267 -15.253  10.376  1.00  0.00    -0.237 OA
ATOM     90  O   UNL     1       8.125 -14.168  12.426  1.00  0.00    -0.237 OA
ATOM     91  O   UNL     1       7.632 -16.583  12.419  1.00  0.00    -0.744 OA
ENDBRANCH  84  88
ENDBRANCH  58  81
ENDBRANCH  32  33
ENDBRANCH  24  27
ENDBRANCH   1  23
TORSDOF 14
