REMARK SMILES C[N@H+]1[C@H]2CC[C@@H]1CN(c1nc3c(cc1C(=O)NCCCNC(=O)c1ccc(-c4c5nc(c(-c6cc(S(=O)(=O)[O-])ccc6F)c6ccc([nH]6)c(-c6cc(S(=O)(=O)[O-])ccc6F)c6nc(c(-c7cc(S(=O)(=O)[O-])ccc7F)c7ccc4[nH]7)C=C6)C=C5)cc1)CCC3)CC2
REMARK SMILES IDX 19 1 18 2 17 3 15 4 16 5 14 7 9 8 10 9 11 10 13 11 12 12
REMARK SMILES IDX 89 13 87 14 88 15 8 16 7 17 6 18 1 19 2 20 3 21 4 23 5 25
REMARK SMILES IDX 90 26 91 27 20 29 21 30 22 31 23 33 24 34 25 35 86 36 26 37
REMARK SMILES IDX 85 38 27 39 28 40 29 41 79 42 30 43 84 44 78 45 80 46 31 47
REMARK SMILES IDX 83 48 77 49 76 50 32 52 64 53 44 54 63 55 45 56 48 57 62 58
REMARK SMILES IDX 81 59 46 60 47 61 61 63 82 64 49 65 33 66 34 67 42 68 35 69
REMARK SMILES IDX 41 70 43 71 40 72 36 73 37 74 38 75 39 76 65 77 66 78 74 79
REMARK SMILES IDX 67 80 73 81 75 82 72 83 68 84 69 85 70 86 71 87 50 88 51 89
REMARK SMILES IDX 59 90 52 91 58 92 60 93 57 94 53 95 54 96 55 97 56 98
REMARK H PARENT 17 6 2 22 21 32 80 51 48 62
REMARK Flexibility Score: 90.00
ROOT
ATOM      1  C   UNL     1       1.103  -3.040   0.401  1.00  0.00     0.042 C 
ENDROOT
BRANCH   1   2
ATOM      2  C   UNL     1      -0.379  -2.759  -0.192  1.00  0.00     0.118 C 
BRANCH   2   3
ATOM      3  N   UNL     1      -2.067  -2.241   0.660  1.00  0.00    -0.352 N 
ATOM      4  C   UNL     1      -3.404  -2.525   1.130  1.00  0.00     0.255 C 
ATOM      5  O   UNL     1      -3.824  -1.874   2.091  1.00  0.00    -0.269 OA
ATOM      6  H   UNL     1      -1.936  -1.292   0.885  1.00  0.00     0.163 HD
BRANCH   4   7
ATOM      7  C   UNL     1      -4.293  -3.505   0.560  1.00  0.00     0.082 A 
ATOM      8  C   UNL     1      -3.670  -4.271  -0.394  1.00  0.00     0.141 A 
ATOM      9  N   UNL     1      -4.371  -4.813  -1.413  1.00  0.00    -0.235 NA
ATOM     10  C   UNL     1      -5.710  -4.617  -1.363  1.00  0.00     0.046 A 
ATOM     11  C   UNL     1      -5.676  -3.407   0.685  1.00  0.00     0.023 A 
ATOM     12  C   UNL     1      -6.395  -3.976  -0.333  1.00  0.00    -0.025 A 
ATOM     13  C   UNL     1      -6.657  -4.946  -2.485  1.00  0.00     0.057 C 
ATOM     14  C   UNL     1      -7.862  -3.925  -0.580  1.00  0.00     0.038 C 
ATOM     15  C   UNL     1      -7.907  -4.130  -2.098  1.00  0.00     0.011 C 
BRANCH   8  16
ATOM     16  N   UNL     1      -2.264  -4.017  -0.444  1.00  0.00    -0.350 N 
BRANCH  16  17
ATOM     17  C   UNL     1      -2.294  -2.465  -1.468  1.00  0.00     0.183 C 
BRANCH  17  18
ATOM     18  C   UNL     1      -1.658  -0.736  -0.928  1.00  0.00     0.203 C 
ATOM     19  C   UNL     1       0.274   0.852  -0.362  1.00  0.00     0.333 C 
ATOM     20  N   UNL     1      -0.304  -0.464  -0.038  1.00  0.00    -0.331 N 
ATOM     21  C   UNL     1      -0.594  -0.674   1.469  1.00  0.00     0.186 CG0
ATOM     22  H   UNL     1       0.411  -1.150  -0.282  1.00  0.00     0.348 HD
ATOM     23  C   UNL     1      -1.902   0.325   1.394  1.00  0.00     0.071 C 
ATOM     24  G   UNL     1      -0.738  -2.494   2.191  1.00  0.00     0.000 G0
ATOM     25  C   UNL     1      -2.600   0.156  -0.061  1.00  0.00     0.073 C 
ENDBRANCH  17  18
ENDBRANCH  16  17
BRANCH  16  26
ATOM     26  C   UNL     1      -1.469  -4.085   1.273  1.00  0.00     0.124 C 
BRANCH  26  27
ATOM     27  C   UNL     1      -0.738  -2.494   2.191  1.00  0.00     0.086 CG0
ATOM     28  G   UNL     1      -0.594  -0.674   1.469  1.00  0.00     0.000 G0
ENDBRANCH  26  27
ENDBRANCH  16  26
ENDBRANCH   8  16
ENDBRANCH   4   7
ENDBRANCH   2   3
ENDBRANCH   1   2
BRANCH   1  29
ATOM     29  C   UNL     1       2.037  -1.957   0.925  1.00  0.00     0.118 C 
BRANCH  29  30
ATOM     30  N   UNL     1       3.301  -2.557   1.336  1.00  0.00    -0.352 N 
ATOM     31  C   UNL     1       4.563  -2.204   0.952  1.00  0.00     0.251 C 
ATOM     32  H   UNL     1       3.236  -3.310   1.968  1.00  0.00     0.163 HD
ATOM     33  O   UNL     1       5.531  -2.889   1.270  1.00  0.00    -0.269 OA
BRANCH  31  34
ATOM     34  C   UNL     1       4.735  -0.996   0.129  1.00  0.00     0.039 A 
ATOM     35  C   UNL     1       5.410  -1.112  -1.085  1.00  0.00     0.014 A 
ATOM     36  C   UNL     1       4.231   0.236   0.564  1.00  0.00     0.014 A 
ATOM     37  C   UNL     1       5.621   0.026  -1.856  1.00  0.00     0.010 A 
ATOM     38  C   UNL     1       4.386   1.360  -0.239  1.00  0.00     0.010 A 
ATOM     39  C   UNL     1       5.139   1.271  -1.420  1.00  0.00    -0.014 A 
BRANCH  39  40
ATOM     40  C   UNL     1       5.613   2.509  -2.080  1.00  0.00     0.031 A 
ATOM     41  C   UNL     1       6.604   3.369  -1.344  1.00  0.00     0.074 A 
ATOM     42  C   UNL     1       5.207   2.834  -3.319  1.00  0.00     0.049 A 
ATOM     43  N   UNL     1       7.172   4.481  -1.725  1.00  0.00    -0.248 NA
ATOM     44  C   UNL     1       6.998   2.929   0.007  1.00  0.00     0.031 C 
ATOM     45  C   UNL     1       4.252   2.070  -4.120  1.00  0.00     0.029 A 
ATOM     46  N   UNL     1       5.556   3.888  -4.124  1.00  0.00    -0.354 N 
ATOM     47  C   UNL     1       7.973   4.874  -0.660  1.00  0.00     0.074 A 
ATOM     48  C   UNL     1       7.771   3.925   0.407  1.00  0.00     0.031 C 
ATOM     49  C   UNL     1       4.109   2.669  -5.314  1.00  0.00     0.029 A 
ATOM     50  C   UNL     1       4.938   3.874  -5.352  1.00  0.00     0.049 A 
ATOM     51  H   UNL     1       6.190   4.589  -3.849  1.00  0.00     0.167 HD
ATOM     52  C   UNL     1       8.834   5.912  -0.593  1.00  0.00     0.034 A 
ATOM     53  C   UNL     1       5.035   4.733  -6.388  1.00  0.00     0.034 A 
ATOM     54  C   UNL     1       9.067   6.821  -1.679  1.00  0.00     0.049 A 
ATOM     55  C   UNL     1       5.992   5.896  -6.287  1.00  0.00     0.074 A 
ATOM     56  C   UNL     1       9.955   7.878  -1.727  1.00  0.00     0.029 A 
ATOM     57  N   UNL     1       8.421   6.773  -2.904  1.00  0.00    -0.354 N 
ATOM     58  N   UNL     1       6.791   6.220  -5.298  1.00  0.00    -0.248 NA
ATOM     59  C   UNL     1       6.073   6.806  -7.440  1.00  0.00     0.031 C 
ATOM     60  C   UNL     1       9.808   8.505  -2.963  1.00  0.00     0.029 A 
ATOM     61  C   UNL     1       8.876   7.799  -3.710  1.00  0.00     0.049 A 
ATOM     62  H   UNL     1       7.741   6.109  -3.162  1.00  0.00     0.167 HD
ATOM     63  C   UNL     1       7.492   7.346  -5.720  1.00  0.00     0.074 A 
ATOM     64  C   UNL     1       7.027   7.647  -7.058  1.00  0.00     0.031 C 
ATOM     65  C   UNL     1       8.433   8.063  -5.058  1.00  0.00     0.034 A 
BRANCH  52  66
ATOM     66  C   UNL     1       9.610   6.119   0.678  1.00  0.00     0.023 A 
ATOM     67  C   UNL     1       9.402   7.282   1.440  1.00  0.00     0.031 A 
ATOM     68  C   UNL     1      10.622   5.228   1.076  1.00  0.00     0.131 A 
ATOM     69  C   UNL     1      10.220   7.542   2.543  1.00  0.00     0.055 A 
ATOM     70  C   UNL     1      11.407   5.471   2.202  1.00  0.00     0.041 A 
ATOM     71  F   UNL     1      10.849   4.100   0.383  1.00  0.00    -0.206 F 
ATOM     72  C   UNL     1      11.216   6.639   2.934  1.00  0.00     0.022 A 
BRANCH  69  73
ATOM     73  S   UNL     1      10.050   9.079   3.487  1.00  0.00     0.124 S 
ATOM     74  O   UNL     1       9.883   8.580   4.851  1.00  0.00    -0.237 OA
ATOM     75  O   UNL     1      11.321   9.743   3.216  1.00  0.00    -0.237 OA
ATOM     76  O   UNL     1       8.868   9.714   2.913  1.00  0.00    -0.744 OA
ENDBRANCH  69  73
ENDBRANCH  52  66
BRANCH  53  77
ATOM     77  C   UNL     1       4.239   4.473  -7.620  1.00  0.00     0.023 A 
ATOM     78  C   UNL     1       2.833   4.503  -7.588  1.00  0.00     0.031 A 
ATOM     79  C   UNL     1       4.866   4.093  -8.818  1.00  0.00     0.131 A 
ATOM     80  C   UNL     1       2.102   4.102  -8.713  1.00  0.00     0.055 A 
ATOM     81  C   UNL     1       4.133   3.751  -9.956  1.00  0.00     0.041 A 
ATOM     82  F   UNL     1       6.205   4.039  -8.893  1.00  0.00    -0.206 F 
ATOM     83  C   UNL     1       2.742   3.741  -9.902  1.00  0.00     0.022 A 
BRANCH  80  84
ATOM     84  S   UNL     1       0.296   3.944  -8.636  1.00  0.00     0.124 S 
ATOM     85  O   UNL     1      -0.132   4.740  -9.782  1.00  0.00    -0.237 OA
ATOM     86  O   UNL     1       0.121   2.500  -8.771  1.00  0.00    -0.237 OA
ATOM     87  O   UNL     1      -0.043   4.493  -7.328  1.00  0.00    -0.744 OA
ENDBRANCH  80  84
ENDBRANCH  53  77
BRANCH  65  88
ATOM     88  C   UNL     1       9.079   9.241  -5.740  1.00  0.00     0.023 A 
ATOM     89  C   UNL     1      10.463   9.212  -6.005  1.00  0.00     0.031 A 
ATOM     90  C   UNL     1       8.390  10.452  -5.906  1.00  0.00     0.131 A 
ATOM     91  C   UNL     1      11.126  10.393  -6.356  1.00  0.00     0.055 A 
ATOM     92  C   UNL     1       9.049  11.616  -6.304  1.00  0.00     0.041 A 
ATOM     93  F   UNL     1       7.074  10.528  -5.651  1.00  0.00    -0.206 F 
ATOM     94  C   UNL     1      10.426  11.593  -6.513  1.00  0.00     0.022 A 
BRANCH  91  95
ATOM     95  S   UNL     1      12.932  10.430  -6.528  1.00  0.00     0.124 S 
ATOM     96  O   UNL     1      13.100  11.012  -7.857  1.00  0.00    -0.237 OA
ATOM     97  O   UNL     1      13.326  11.291  -5.416  1.00  0.00    -0.237 OA
ATOM     98  O   UNL     1      13.326   9.030  -6.412  1.00  0.00    -0.744 OA
ENDBRANCH  91  95
ENDBRANCH  65  88
ENDBRANCH  39  40
ENDBRANCH  31  34
ENDBRANCH  29  30
ENDBRANCH   1  29
TORSDOF 14
