REMARK SMILES CN(CC[NH+](C)C)C(=O)N1CC(n2cc(C(=O)NCCCNC(=O)c3ccc(-c4c5nc(c(-c6cc(S(=O)(=O)[O-])ccc6F)c6ccc([nH]6)c(-c6cc(S(=O)(=O)[O-])ccc6F)c6nc(c(-c7cc(S(=O)(=O)[O-])ccc7F)c7ccc4[nH]7)C=C6)C=C5)cc3)nn2)C1
REMARK SMILES IDX 19 1 18 2 16 3 17 4 15 6 13 7 14 8 89 9 88 10 12 11 8 12
REMARK SMILES IDX 9 13 10 14 11 15 90 16 2 17 1 18 3 19 4 20 5 21 6 22 7 23
REMARK SMILES IDX 20 25 21 26 22 27 23 28 24 30 25 31 26 32 87 33 27 34 86 35
REMARK SMILES IDX 28 36 29 37 30 38 80 39 31 40 85 41 79 42 81 43 32 44 84 45
REMARK SMILES IDX 78 46 77 47 33 49 65 50 45 51 64 52 46 53 49 54 63 55 82 56
REMARK SMILES IDX 47 57 48 58 62 60 83 61 50 62 34 63 35 64 43 65 36 66 42 67
REMARK SMILES IDX 44 68 41 69 37 70 38 71 39 72 40 73 66 74 67 75 75 76 68 77
REMARK SMILES IDX 74 78 76 79 73 80 69 81 70 82 71 83 72 84 51 85 52 86 60 87
REMARK SMILES IDX 53 88 59 89 61 90 58 91 54 92 55 93 56 94 57 95
REMARK H PARENT 18 5 5 24 22 29 81 48 49 59
REMARK Flexibility Score: inf
ROOT
ATOM      1  C   UNL     1       0.979   2.177   9.197  1.00  0.00     0.118 C 
ENDROOT
BRANCH   1   2
ATOM      2  N   UNL     1       1.821   1.158   9.803  1.00  0.00    -0.351 N 
ATOM      3  C   UNL     1       2.562   0.154   9.219  1.00  0.00     0.273 C 
ATOM      4  O   UNL     1       3.370  -0.453   9.927  1.00  0.00    -0.267 OA
ATOM      5  H   UNL     1       1.870   1.191  10.786  1.00  0.00     0.163 HD
BRANCH   3   6
ATOM      6  C   UNL     1       2.412  -0.138   7.802  1.00  0.00     0.170 A 
ATOM      7  N   UNL     1       1.772  -0.281   5.738  1.00  0.00    -0.245 N 
ATOM      8  C   UNL     1       1.297  -0.040   6.993  1.00  0.00     0.145 A 
ATOM      9  N   UNL     1       3.064  -0.630   5.762  1.00  0.00    -0.066 NA
ATOM     10  N   UNL     1       3.463  -0.581   7.027  1.00  0.00    -0.125 NA
BRANCH   7  11
ATOM     11  C   UNL     1       1.027   0.042   4.566  1.00  0.00     0.148 C 
ATOM     12  C   UNL     1       0.475   1.414   1.841  1.00  0.00     0.320 C 
ATOM     13  O   UNL     1      -0.562   0.772   1.703  1.00  0.00    -0.248 OA
ATOM     14  N   UNL     1       1.401   1.094   2.814  1.00  0.00    -0.320 N 
ATOM     15  C   UNL     1       1.682  -0.296   3.234  1.00  0.00     0.150 C 
ATOM     16  C   UNL     1       1.242   1.521   4.208  1.00  0.00     0.150 C 
BRANCH  12  17
ATOM     17  N   UNL     1       0.886   2.435   0.994  1.00  0.00    -0.322 N 
ATOM     18  C   UNL     1       2.036   3.273   1.299  1.00  0.00     0.149 C 
BRANCH  17  19
ATOM     19  C   UNL     1       0.255   2.573  -0.317  1.00  0.00     0.182 C 
BRANCH  19  20
ATOM     20  C   UNL     1       0.883   1.697  -1.441  1.00  0.00     0.283 C 
BRANCH  20  21
ATOM     21  N   UNL     1       0.536   0.269  -1.566  1.00  0.00    -0.338 N 
ATOM     22  C   UNL     1       1.330  -0.604  -0.712  1.00  0.00     0.332 C 
ATOM     23  C   UNL     1      -0.893  -0.000  -1.482  1.00  0.00     0.332 C 
ATOM     24  H   UNL     1       0.799   0.028  -2.522  1.00  0.00     0.347 HD
ENDBRANCH  20  21
ENDBRANCH  19  20
ENDBRANCH  17  19
ENDBRANCH  12  17
ENDBRANCH   7  11
ENDBRANCH   3   6
ENDBRANCH   1   2
BRANCH   1  25
ATOM     25  C   UNL     1      -0.514   1.848   9.302  1.00  0.00     0.042 C 
BRANCH  25  26
ATOM     26  C   UNL     1      -1.101   2.212  10.659  1.00  0.00     0.118 C 
BRANCH  26  27
ATOM     27  N   UNL     1      -1.183   3.658  10.850  1.00  0.00    -0.352 N 
ATOM     28  C   UNL     1      -1.563   4.359  11.976  1.00  0.00     0.251 C 
ATOM     29  H   UNL     1      -0.933   4.205  10.071  1.00  0.00     0.163 HD
ATOM     30  O   UNL     1      -1.929   5.525  11.865  1.00  0.00    -0.269 OA
BRANCH  28  31
ATOM     31  C   UNL     1      -1.547   3.695  13.293  1.00  0.00     0.039 A 
ATOM     32  C   UNL     1      -2.569   3.933  14.216  1.00  0.00     0.014 A 
ATOM     33  C   UNL     1      -0.510   2.815  13.601  1.00  0.00     0.014 A 
ATOM     34  C   UNL     1      -2.591   3.205  15.405  1.00  0.00     0.010 A 
ATOM     35  C   UNL     1      -0.593   2.015  14.721  1.00  0.00     0.010 A 
ATOM     36  C   UNL     1      -1.617   2.219  15.641  1.00  0.00    -0.014 A 
BRANCH  36  37
ATOM     37  C   UNL     1      -1.780   1.276  16.751  1.00  0.00     0.031 A 
ATOM     38  C   UNL     1      -3.094   0.576  16.759  1.00  0.00     0.074 A 
ATOM     39  C   UNL     1      -0.783   0.861  17.563  1.00  0.00     0.049 A 
ATOM     40  N   UNL     1      -4.067   0.721  17.596  1.00  0.00    -0.248 NA
ATOM     41  C   UNL     1      -3.439  -0.257  15.594  1.00  0.00     0.031 C 
ATOM     42  C   UNL     1       0.639   1.208  17.488  1.00  0.00     0.029 A 
ATOM     43  N   UNL     1      -0.812  -0.060  18.570  1.00  0.00    -0.354 N 
ATOM     44  C   UNL     1      -5.040  -0.200  17.216  1.00  0.00     0.074 A 
ATOM     45  C   UNL     1      -4.703  -0.578  15.872  1.00  0.00     0.031 C 
ATOM     46  C   UNL     1       1.357   0.349  18.245  1.00  0.00     0.029 A 
ATOM     47  C   UNL     1       0.443  -0.505  18.984  1.00  0.00     0.049 A 
ATOM     48  H   UNL     1      -1.651  -0.383  18.971  1.00  0.00     0.167 HD
ATOM     49  C   UNL     1      -5.874  -0.761  18.139  1.00  0.00     0.034 A 
ATOM     50  C   UNL     1       0.722  -1.513  19.855  1.00  0.00     0.034 A 
ATOM     51  C   UNL     1      -5.847   0.001  19.375  1.00  0.00     0.049 A 
ATOM     52  C   UNL     1      -0.492  -1.718  20.680  1.00  0.00     0.074 A 
ATOM     53  C   UNL     1      -6.083   1.325  19.702  1.00  0.00     0.029 A 
ATOM     54  N   UNL     1      -5.149  -0.515  20.447  1.00  0.00    -0.354 N 
ATOM     55  N   UNL     1      -0.941  -0.832  21.524  1.00  0.00    -0.248 NA
ATOM     56  C   UNL     1      -1.469  -2.699  20.236  1.00  0.00     0.031 C 
ATOM     57  C   UNL     1      -5.087   1.649  20.672  1.00  0.00     0.029 A 
ATOM     58  C   UNL     1      -4.365   0.489  20.959  1.00  0.00     0.049 A 
ATOM     59  H   UNL     1      -5.203  -1.438  20.785  1.00  0.00     0.167 HD
ATOM     60  C   UNL     1      -2.316  -0.856  21.366  1.00  0.00     0.074 A 
ATOM     61  C   UNL     1      -2.590  -2.102  20.652  1.00  0.00     0.031 C 
ATOM     62  C   UNL     1      -3.067   0.268  21.571  1.00  0.00     0.034 A 
BRANCH  49  63
ATOM     63  C   UNL     1      -6.377  -2.199  18.093  1.00  0.00     0.023 A 
ATOM     64  C   UNL     1      -7.053  -2.663  19.238  1.00  0.00     0.031 A 
ATOM     65  C   UNL     1      -5.996  -3.204  17.175  1.00  0.00     0.131 A 
ATOM     66  C   UNL     1      -7.149  -4.036  19.523  1.00  0.00     0.055 A 
ATOM     67  C   UNL     1      -6.157  -4.572  17.430  1.00  0.00     0.041 A 
ATOM     68  F   UNL     1      -5.396  -2.946  16.010  1.00  0.00    -0.206 F 
ATOM     69  C   UNL     1      -6.692  -4.997  18.631  1.00  0.00     0.022 A 
BRANCH  66  70
ATOM     70  S   UNL     1      -7.688  -4.517  21.181  1.00  0.00     0.124 S 
ATOM     71  O   UNL     1      -6.750  -3.769  22.010  1.00  0.00    -0.237 OA
ATOM     72  O   UNL     1      -9.072  -4.053  21.191  1.00  0.00    -0.237 OA
ATOM     73  O   UNL     1      -7.515  -5.967  21.185  1.00  0.00    -0.744 OA
ENDBRANCH  66  70
ENDBRANCH  49  63
BRANCH  50  74
ATOM     74  C   UNL     1       1.876  -2.456  19.864  1.00  0.00     0.023 A 
ATOM     75  C   UNL     1       2.226  -3.221  20.999  1.00  0.00     0.031 A 
ATOM     76  C   UNL     1       2.498  -2.810  18.647  1.00  0.00     0.131 A 
ATOM     77  C   UNL     1       3.148  -4.290  20.885  1.00  0.00     0.055 A 
ATOM     78  C   UNL     1       3.409  -3.864  18.541  1.00  0.00     0.041 A 
ATOM     79  F   UNL     1       2.172  -2.200  17.497  1.00  0.00    -0.206 F 
ATOM     80  C   UNL     1       3.728  -4.617  19.658  1.00  0.00     0.022 A 
BRANCH  77  81
ATOM     81  S   UNL     1       3.524  -5.353  22.319  1.00  0.00     0.124 S 
ATOM     82  O   UNL     1       4.357  -4.484  23.141  1.00  0.00    -0.237 OA
ATOM     83  O   UNL     1       2.198  -5.665  22.840  1.00  0.00    -0.237 OA
ATOM     84  O   UNL     1       4.226  -6.491  21.723  1.00  0.00    -0.744 OA
ENDBRANCH  77  81
ENDBRANCH  50  74
BRANCH  62  85
ATOM     85  C   UNL     1      -2.435   1.436  22.307  1.00  0.00     0.023 A 
ATOM     86  C   UNL     1      -1.221   2.068  21.950  1.00  0.00     0.031 A 
ATOM     87  C   UNL     1      -3.157   1.985  23.382  1.00  0.00     0.131 A 
ATOM     88  C   UNL     1      -0.765   3.188  22.675  1.00  0.00     0.055 A 
ATOM     89  C   UNL     1      -2.716   3.108  24.081  1.00  0.00     0.041 A 
ATOM     90  F   UNL     1      -4.330   1.450  23.760  1.00  0.00    -0.206 F 
ATOM     91  C   UNL     1      -1.512   3.708  23.737  1.00  0.00     0.022 A 
BRANCH  88  92
ATOM     92  S   UNL     1       0.831   3.973  22.279  1.00  0.00     0.124 S 
ATOM     93  O   UNL     1       1.736   2.846  22.093  1.00  0.00    -0.237 OA
ATOM     94  O   UNL     1       0.513   4.742  21.077  1.00  0.00    -0.237 OA
ATOM     95  O   UNL     1       1.110   4.790  23.462  1.00  0.00    -0.744 OA
ENDBRANCH  88  92
ENDBRANCH  62  85
ENDBRANCH  36  37
ENDBRANCH  28  31
ENDBRANCH  26  27
ENDBRANCH  25  26
ENDBRANCH   1  25
TORSDOF 18
