REMARK SMILES C/C=C(\C)[C@@H]1C=C[C@@H]2C[C@H](C)C[C@H](C)[C@@H]2[C@@H]1C(=O)C1=C(NCCCNC(=O)c2ccc(-c3c4nc(c(-c5cc(S(=O)(=O)[O-])ccc5F)c5ccc([nH]5)c(-c5cc(S(=O)(=O)[O-])ccc5F)c5nc(c(-c6cc(S(=O)(=O)[O-])ccc6F)c6ccc3[nH]6)C=C5)C=C4)cc2)[C@H](C[C@](C)(O)C(=O)[O-])NC1=O
REMARK SMILES IDX 23 1 22 2 21 3 20 5 19 6 100 7 91 8 99 9 101 10 17 12 18 13
REMARK SMILES IDX 16 14 5 15 6 16 7 17 15 18 8 19 13 20 9 21 12 22 14 23 10 24
REMARK SMILES IDX 11 25 3 26 1 27 2 28 4 29 92 30 93 31 94 32 95 33 96 35
REMARK SMILES IDX 97 36 98 37 24 38 25 39 26 40 27 42 28 43 29 44 90 45 30 46
REMARK SMILES IDX 89 47 31 48 32 49 33 50 83 51 34 52 88 53 82 54 84 55 35 56
REMARK SMILES IDX 87 57 81 58 80 59 36 61 68 62 48 63 67 64 49 65 52 66 66 67
REMARK SMILES IDX 85 68 50 69 51 70 65 72 86 73 53 74 37 75 38 76 46 77 39 78
REMARK SMILES IDX 45 79 47 80 44 81 40 82 41 83 42 84 43 85 69 86 70 87 78 88
REMARK SMILES IDX 71 89 77 90 79 91 76 92 72 93 73 94 74 95 75 96 54 97 55 98
REMARK SMILES IDX 63 99 56 100 62 101 64 102 61 103 57 104 58 105 59 106
REMARK SMILES IDX 60 107
REMARK H PARENT 21 4 99 11 95 34 25 41 84 60 52 71
REMARK Flexibility Score: inf
ROOT
ATOM      1  C   UNL     1       1.598  -6.789  -6.821  1.00  0.00     0.042 C 
ENDROOT
BRANCH   1   2
ATOM      2  C   UNL     1       1.074  -8.204  -6.622  1.00  0.00     0.114 C 
BRANCH   2   3
ATOM      3  N   UNL     1       0.065  -8.243  -5.582  1.00  0.00    -0.386 N 
ATOM      4  H   UNL     1       0.334  -8.703  -4.754  1.00  0.00     0.160 HD
BRANCH   3   5
ATOM      5  C   UNL     1      -1.221  -7.727  -5.580  1.00  0.00     0.050 C 
ATOM      6  C   UNL     1      -2.101  -7.408  -6.573  1.00  0.00     0.104 C 
ATOM      7  C   UNL     1      -3.282  -6.867  -5.841  1.00  0.00     0.257 C 
ATOM      8  C   UNL     1      -1.874  -7.617  -4.191  1.00  0.00     0.133 C 
ATOM      9  N   UNL     1      -3.003  -6.836  -4.505  1.00  0.00    -0.343 N 
ATOM     10  O   UNL     1      -4.389  -6.553  -6.223  1.00  0.00    -0.269 OA
ATOM     11  H   UNL     1      -3.527  -6.330  -3.842  1.00  0.00     0.164 HD
BRANCH   6  12
ATOM     12  C   UNL     1      -2.002  -7.939  -7.981  1.00  0.00     0.174 C 
ATOM     13  O   UNL     1      -1.595  -9.110  -8.079  1.00  0.00    -0.294 OA
BRANCH  12  14
ATOM     14  C   UNL     1      -2.327  -7.207  -9.331  1.00  0.00     0.076 C 
ATOM     15  C   UNL     1      -2.399  -5.664  -9.291  1.00  0.00     0.048 C 
ATOM     16  C   UNL     1      -3.741  -5.240  -8.729  1.00  0.00    -0.022 C 
ATOM     17  C   UNL     1      -4.829  -6.048  -8.758  1.00  0.00    -0.027 C 
ATOM     18  C   UNL     1      -3.590  -7.653 -10.163  1.00  0.00     0.010 C 
ATOM     19  C   UNL     1      -4.864  -7.453  -9.347  1.00  0.00     0.016 C 
ATOM     20  C   UNL     1      -3.647  -8.993 -10.908  1.00  0.00    -0.010 C 
ATOM     21  C   UNL     1      -5.076  -8.627  -8.361  1.00  0.00     0.011 C 
ATOM     22  C   UNL     1      -3.722 -10.186  -9.977  1.00  0.00     0.007 C 
ATOM     23  C   UNL     1      -2.550  -9.129 -11.961  1.00  0.00     0.008 C 
ATOM     24  C   UNL     1      -4.841 -10.050  -8.930  1.00  0.00    -0.013 C 
ATOM     25  C   UNL     1      -4.561 -11.041  -7.790  1.00  0.00     0.007 C 
BRANCH  15  26
ATOM     26  C   UNL     1      -1.106  -4.983  -8.834  1.00  0.00    -0.070 C 
ATOM     27  C   UNL     1       0.220  -3.312  -7.428  1.00  0.00     0.035 C 
ATOM     28  C   UNL     1      -1.011  -4.060  -7.854  1.00  0.00    -0.031 C 
ATOM     29  C   UNL     1       0.086  -5.365  -9.703  1.00  0.00     0.040 C 
ENDBRANCH  15  26
ENDBRANCH  12  14
ENDBRANCH   6  12
BRANCH   8  30
ATOM     30  C   UNL     1      -2.232  -9.046  -3.717  1.00  0.00     0.072 C 
BRANCH  30  31
ATOM     31  C   UNL     1      -3.309  -9.217  -2.632  1.00  0.00     0.103 C 
ATOM     32  C   UNL     1      -2.945  -8.550  -1.312  1.00  0.00     0.049 C 
BRANCH  31  33
ATOM     33  O   UNL     1      -3.417 -10.629  -2.365  1.00  0.00    -0.384 OA
ATOM     34  H   UNL     1      -4.090 -10.778  -1.682  1.00  0.00     0.211 HD
ENDBRANCH  31  33
BRANCH  31  35
ATOM     35  C   UNL     1      -4.674  -8.714  -3.128  1.00  0.00     0.073 C 
ATOM     36  O   UNL     1      -5.228  -7.673  -2.813  1.00  0.00    -0.547 OA
ATOM     37  O   UNL     1      -5.212  -9.528  -4.065  1.00  0.00    -0.547 OA
ENDBRANCH  31  35
ENDBRANCH  30  31
ENDBRANCH   8  30
ENDBRANCH   3   5
ENDBRANCH   2   3
ENDBRANCH   1   2
BRANCH   1  38
ATOM     38  C   UNL     1       2.285  -6.178  -5.606  1.00  0.00     0.118 C 
BRANCH  38  39
ATOM     39  N   UNL     1       3.566  -6.801  -5.324  1.00  0.00    -0.352 N 
ATOM     40  C   UNL     1       4.843  -6.305  -5.424  1.00  0.00     0.251 C 
ATOM     41  H   UNL     1       3.511  -7.732  -5.010  1.00  0.00     0.163 HD
ATOM     42  O   UNL     1       5.783  -7.095  -5.362  1.00  0.00    -0.269 OA
BRANCH  40  43
ATOM     43  C   UNL     1       5.106  -4.857  -5.616  1.00  0.00     0.039 A 
ATOM     44  C   UNL     1       6.191  -4.480  -6.415  1.00  0.00     0.014 A 
ATOM     45  C   UNL     1       4.362  -3.871  -4.962  1.00  0.00     0.014 A 
ATOM     46  C   UNL     1       6.505  -3.127  -6.586  1.00  0.00     0.010 A 
ATOM     47  C   UNL     1       4.629  -2.519  -5.192  1.00  0.00     0.010 A 
ATOM     48  C   UNL     1       5.714  -2.131  -5.993  1.00  0.00    -0.014 A 
BRANCH  48  49
ATOM     49  C   UNL     1       6.036  -0.687  -6.169  1.00  0.00     0.031 A 
ATOM     50  C   UNL     1       6.445   0.148  -4.984  1.00  0.00     0.074 A 
ATOM     51  C   UNL     1       5.926  -0.117  -7.385  1.00  0.00     0.049 A 
ATOM     52  N   UNL     1       6.703   1.431  -4.921  1.00  0.00    -0.248 NA
ATOM     53  C   UNL     1       6.551  -0.547  -3.693  1.00  0.00     0.031 C 
ATOM     54  C   UNL     1       5.514  -0.809  -8.608  1.00  0.00     0.029 A 
ATOM     55  N   UNL     1       6.145   1.175  -7.795  1.00  0.00    -0.354 N 
ATOM     56  C   UNL     1       6.986   1.698  -3.585  1.00  0.00     0.074 A 
ATOM     57  C   UNL     1       6.810   0.454  -2.866  1.00  0.00     0.031 C 
ATOM     58  C   UNL     1       5.530   0.060  -9.632  1.00  0.00     0.029 A 
ATOM     59  C   UNL     1       5.910   1.379  -9.135  1.00  0.00     0.049 A 
ATOM     60  H   UNL     1       6.442   1.889  -7.186  1.00  0.00     0.167 HD
ATOM     61  C   UNL     1       7.377   2.866  -3.013  1.00  0.00     0.034 A 
ATOM     62  C   UNL     1       5.981   2.502  -9.879  1.00  0.00     0.034 A 
ATOM     63  C   UNL     1       7.567   4.096  -3.745  1.00  0.00     0.049 A 
ATOM     64  C   UNL     1       6.399   3.792  -9.220  1.00  0.00     0.074 A 
ATOM     65  C   UNL     1       8.013   5.319  -3.274  1.00  0.00     0.029 A 
ATOM     66  N   UNL     1       7.319   4.262  -5.101  1.00  0.00    -0.354 N 
ATOM     67  N   UNL     1       6.701   4.018  -7.962  1.00  0.00    -0.248 NA
ATOM     68  C   UNL     1       6.496   4.975 -10.085  1.00  0.00     0.031 C 
ATOM     69  C   UNL     1       7.973   6.238  -4.329  1.00  0.00     0.029 A 
ATOM     70  C   UNL     1       7.574   5.573  -5.476  1.00  0.00     0.049 A 
ATOM     71  H   UNL     1       7.008   3.552  -5.709  1.00  0.00     0.167 HD
ATOM     72  C   UNL     1       7.054   5.363  -7.893  1.00  0.00     0.074 A 
ATOM     73  C   UNL     1       6.938   5.892  -9.236  1.00  0.00     0.031 C 
ATOM     74  C   UNL     1       7.444   6.093  -6.817  1.00  0.00     0.034 A 
BRANCH  61  75
ATOM     75  C   UNL     1       7.596   2.868  -1.518  1.00  0.00     0.023 A 
ATOM     76  C   UNL     1       8.591   2.078  -0.915  1.00  0.00     0.031 A 
ATOM     77  C   UNL     1       6.781   3.650  -0.680  1.00  0.00     0.131 A 
ATOM     78  C   UNL     1       8.692   2.025   0.484  1.00  0.00     0.055 A 
ATOM     79  C   UNL     1       6.943   3.657   0.708  1.00  0.00     0.041 A 
ATOM     80  F   UNL     1       5.802   4.411  -1.194  1.00  0.00    -0.206 F 
ATOM     81  C   UNL     1       7.892   2.828   1.298  1.00  0.00     0.022 A 
BRANCH  78  82
ATOM     82  S   UNL     1       9.781   0.778   1.225  1.00  0.00     0.124 S 
ATOM     83  O   UNL     1       9.221  -0.460   0.687  1.00  0.00    -0.237 OA
ATOM     84  O   UNL     1      11.092   1.161   0.715  1.00  0.00    -0.237 OA
ATOM     85  O   UNL     1       9.590   0.967   2.662  1.00  0.00    -0.744 OA
ENDBRANCH  78  82
ENDBRANCH  61  75
BRANCH  62  86
ATOM     86  C   UNL     1       5.638   2.466 -11.329  1.00  0.00     0.023 A 
ATOM     87  C   UNL     1       6.612   2.716 -12.309  1.00  0.00     0.031 A 
ATOM     88  C   UNL     1       4.321   2.219 -11.754  1.00  0.00     0.131 A 
ATOM     89  C   UNL     1       6.246   2.756 -13.663  1.00  0.00     0.055 A 
ATOM     90  C   UNL     1       3.972   2.210 -13.105  1.00  0.00     0.041 A 
ATOM     91  F   UNL     1       3.354   1.968 -10.857  1.00  0.00    -0.206 F 
ATOM     92  C   UNL     1       4.935   2.493 -14.069  1.00  0.00     0.022 A 
BRANCH  89  93
ATOM     93  S   UNL     1       7.496   3.234 -14.887  1.00  0.00     0.124 S 
ATOM     94  O   UNL     1       7.887   4.556 -14.411  1.00  0.00    -0.237 OA
ATOM     95  O   UNL     1       8.489   2.177 -14.733  1.00  0.00    -0.237 OA
ATOM     96  O   UNL     1       6.760   3.217 -16.149  1.00  0.00    -0.744 OA
ENDBRANCH  89  93
ENDBRANCH  62  86
BRANCH  74  97
ATOM     97  C   UNL     1       7.819   7.533  -7.066  1.00  0.00     0.023 A 
ATOM     98  C   UNL     1       6.865   8.493  -7.447  1.00  0.00     0.031 A 
ATOM     99  C   UNL     1       9.156   7.947  -6.931  1.00  0.00     0.131 A 
ATOM    100  C   UNL     1       7.270   9.806  -7.731  1.00  0.00     0.055 A 
ATOM    101  C   UNL     1       9.544   9.268  -7.160  1.00  0.00     0.041 A 
ATOM    102  F   UNL     1      10.109   7.072  -6.571  1.00  0.00    -0.206 F 
ATOM    103  C   UNL     1       8.600  10.203  -7.575  1.00  0.00     0.022 A 
BRANCH 100 104
ATOM    104  S   UNL     1       6.047  10.972  -8.391  1.00  0.00     0.124 S 
ATOM    105  O   UNL     1       5.610  10.297  -9.609  1.00  0.00    -0.237 OA
ATOM    106  O   UNL     1       5.066  11.040  -7.313  1.00  0.00    -0.237 OA
ATOM    107  O   UNL     1       6.819  12.195  -8.604  1.00  0.00    -0.744 OA
ENDBRANCH 100 104
ENDBRANCH  74  97
ENDBRANCH  48  49
ENDBRANCH  40  43
ENDBRANCH  38  39
ENDBRANCH   1  38
TORSDOF 20
