REMARK SMILES NS(=O)(=O)c1ccc(N2N=C(C(=O)NCCCNC(=O)c3ccc(-c4c5nc(c(-c6cc(S(=O)(=O)[O-])ccc6F)c6ccc([nH]6)c(-c6cc(S(=O)(=O)[O-])ccc6F)c6nc(c(-c7cc(S(=O)(=O)[O-])ccc7F)c7ccc4[nH]7)C=C6)C=C5)cc3)C[C@H]2c2ccco2)cc1
REMARK SMILES IDX 16 1 15 2 14 3 12 4 13 5 11 7 9 8 10 9 85 10 84 11 8 12 5 13
REMARK SMILES IDX 6 14 92 15 7 16 91 17 2 18 3 19 4 20 1 21 86 24 87 25 90 26
REMARK SMILES IDX 88 27 89 28 17 29 18 30 19 31 20 33 21 34 22 35 83 36 23 37
REMARK SMILES IDX 82 38 24 39 25 40 26 41 76 42 27 43 81 44 75 45 77 46 28 47
REMARK SMILES IDX 80 48 74 49 73 50 29 52 61 53 41 54 60 55 42 56 45 57 59 58
REMARK SMILES IDX 78 59 43 60 44 61 58 63 79 64 46 65 30 66 31 67 39 68 32 69
REMARK SMILES IDX 38 70 40 71 37 72 33 73 34 74 35 75 36 76 62 77 63 78 71 79
REMARK SMILES IDX 64 80 70 81 72 82 69 83 65 84 66 85 67 86 68 87 47 88 48 89
REMARK SMILES IDX 56 90 49 91 55 92 57 93 54 94 50 95 51 96 52 97 53 98
REMARK H PARENT 14 6 1 22 1 23 18 32 77 51 45 62
REMARK Flexibility Score: inf
ROOT
ATOM      1  C   UNL     1       2.260   3.615  11.741  1.00  0.00     0.042 C 
ENDROOT
BRANCH   1   2
ATOM      2  C   UNL     1       2.998   4.384  10.653  1.00  0.00     0.118 C 
BRANCH   2   3
ATOM      3  N   UNL     1       3.881   3.518   9.893  1.00  0.00    -0.351 N 
ATOM      4  C   UNL     1       3.850   2.969   8.637  1.00  0.00     0.267 C 
ATOM      5  O   UNL     1       4.749   2.184   8.339  1.00  0.00    -0.268 OA
ATOM      6  H   UNL     1       4.690   3.267  10.396  1.00  0.00     0.163 HD
BRANCH   4   7
ATOM      7  C   UNL     1       2.807   3.305   7.583  1.00  0.00     0.128 C 
ATOM      8  N   UNL     1       1.939   3.467   5.637  1.00  0.00    -0.254 N 
ATOM      9  N   UNL     1       2.939   2.889   6.358  1.00  0.00    -0.171 NA
ATOM     10  C   UNL     1       0.958   4.181   6.461  1.00  0.00     0.180 C 
ATOM     11  C   UNL     1       1.591   4.120   7.854  1.00  0.00     0.099 C 
BRANCH   8  12
ATOM     12  C   UNL     1       1.603   2.970   4.381  1.00  0.00     0.060 A 
ATOM     13  C   UNL     1       0.855   2.006   1.850  1.00  0.00     0.082 A 
ATOM     14  C   UNL     1       1.125   1.105   2.882  1.00  0.00     0.024 A 
ATOM     15  C   UNL     1       0.986   3.378   2.057  1.00  0.00     0.024 A 
ATOM     16  C   UNL     1       1.509   1.592   4.137  1.00  0.00     0.029 A 
ATOM     17  C   UNL     1       1.355   3.849   3.318  1.00  0.00     0.029 A 
BRANCH  13  18
ATOM     18  S   UNL     1       0.385   1.435   0.248  1.00  0.00     0.238 S 
ATOM     19  O   UNL     1       0.966   2.310  -0.750  1.00  0.00    -0.207 OA
ATOM     20  O   UNL     1      -1.017   1.110   0.269  1.00  0.00    -0.207 OA
BRANCH  18  21
ATOM     21  N   UNL     1       1.204  -0.020   0.073  1.00  0.00    -0.225 NA
ATOM     22  H   UNL     1       0.987  -0.425  -0.838  1.00  0.00     0.137 HD
ATOM     23  H   UNL     1       0.914  -0.664   0.809  1.00  0.00     0.137 HD
ENDBRANCH  18  21
ENDBRANCH  13  18
ENDBRANCH   8  12
BRANCH  10  24
ATOM     24  C   UNL     1       0.618   5.589   6.063  1.00  0.00     0.128 A 
ATOM     25  C   UNL     1      -0.377   6.128   5.270  1.00  0.00     0.048 A 
ATOM     26  O   UNL     1       1.405   6.597   6.548  1.00  0.00    -0.467 OA
ATOM     27  C   UNL     1      -0.186   7.531   5.278  1.00  0.00     0.042 A 
ATOM     28  C   UNL     1       0.901   7.766   6.084  1.00  0.00     0.195 A 
ENDBRANCH  10  24
ENDBRANCH   4   7
ENDBRANCH   2   3
ENDBRANCH   1   2
BRANCH   1  29
ATOM     29  C   UNL     1       3.150   3.261  12.926  1.00  0.00     0.118 C 
BRANCH  29  30
ATOM     30  N   UNL     1       3.612   4.450  13.628  1.00  0.00    -0.352 N 
ATOM     31  C   UNL     1       3.378   4.874  14.911  1.00  0.00     0.251 C 
ATOM     32  H   UNL     1       4.187   5.046  13.095  1.00  0.00     0.163 HD
ATOM     33  O   UNL     1       3.642   6.037  15.204  1.00  0.00    -0.269 OA
BRANCH  31  34
ATOM     34  C   UNL     1       2.817   3.955  15.927  1.00  0.00     0.039 A 
ATOM     35  C   UNL     1       1.978   4.477  16.916  1.00  0.00     0.014 A 
ATOM     36  C   UNL     1       3.167   2.603  15.957  1.00  0.00     0.014 A 
ATOM     37  C   UNL     1       1.473   3.639  17.913  1.00  0.00     0.010 A 
ATOM     38  C   UNL     1       2.586   1.751  16.890  1.00  0.00     0.010 A 
ATOM     39  C   UNL     1       1.761   2.265  17.899  1.00  0.00    -0.014 A 
BRANCH  39  40
ATOM     40  C   UNL     1       1.271   1.367  18.975  1.00  0.00     0.031 A 
ATOM     41  C   UNL     1       2.260   0.675  19.878  1.00  0.00     0.074 A 
ATOM     42  C   UNL     1      -0.050   1.141  19.111  1.00  0.00     0.049 A 
ATOM     43  N   UNL     1       2.047  -0.189  20.837  1.00  0.00    -0.248 NA
ATOM     44  C   UNL     1       3.683   0.966  19.641  1.00  0.00     0.031 C 
ATOM     45  C   UNL     1      -1.098   1.714  18.264  1.00  0.00     0.029 A 
ATOM     46  N   UNL     1      -0.737   0.369  20.012  1.00  0.00    -0.354 N 
ATOM     47  C   UNL     1       3.307  -0.560  21.300  1.00  0.00     0.074 A 
ATOM     48  C   UNL     1       4.275   0.117  20.465  1.00  0.00     0.031 C 
ATOM     49  C   UNL     1      -2.296   1.298  18.705  1.00  0.00     0.029 A 
ATOM     50  C   UNL     1      -2.101   0.405  19.842  1.00  0.00     0.049 A 
ATOM     51  H   UNL     1      -0.295  -0.161  20.714  1.00  0.00     0.167 HD
ATOM     52  C   UNL     1       3.627  -1.366  22.343  1.00  0.00     0.034 A 
ATOM     53  C   UNL     1      -3.082  -0.211  20.530  1.00  0.00     0.034 A 
ATOM     54  C   UNL     1       2.645  -2.011  23.181  1.00  0.00     0.049 A 
ATOM     55  C   UNL     1      -2.706  -1.076  21.706  1.00  0.00     0.074 A 
ATOM     56  C   UNL     1       2.846  -2.815  24.289  1.00  0.00     0.029 A 
ATOM     57  N   UNL     1       1.270  -1.918  23.004  1.00  0.00    -0.354 N 
ATOM     58  N   UNL     1      -1.511  -1.383  22.160  1.00  0.00    -0.248 NA
ATOM     59  C   UNL     1      -3.812  -1.654  22.477  1.00  0.00     0.031 C 
ATOM     60  C   UNL     1       1.597  -3.249  24.749  1.00  0.00     0.029 A 
ATOM     61  C   UNL     1       0.612  -2.659  23.973  1.00  0.00     0.049 A 
ATOM     62  H   UNL     1       0.826  -1.401  22.293  1.00  0.00     0.167 HD
ATOM     63  C   UNL     1      -1.726  -2.165  23.292  1.00  0.00     0.074 A 
ATOM     64  C   UNL     1      -3.163  -2.261  23.459  1.00  0.00     0.031 C 
ATOM     65  C   UNL     1      -0.822  -2.749  24.120  1.00  0.00     0.034 A 
BRANCH  52  66
ATOM     66  C   UNL     1       5.097  -1.602  22.609  1.00  0.00     0.023 A 
ATOM     67  C   UNL     1       5.966  -0.545  22.938  1.00  0.00     0.031 A 
ATOM     68  C   UNL     1       5.650  -2.888  22.483  1.00  0.00     0.131 A 
ATOM     69  C   UNL     1       7.347  -0.776  23.035  1.00  0.00     0.055 A 
ATOM     70  C   UNL     1       7.013  -3.127  22.671  1.00  0.00     0.041 A 
ATOM     71  F   UNL     1       4.878  -3.935  22.152  1.00  0.00    -0.206 F 
ATOM     72  C   UNL     1       7.874  -2.064  22.931  1.00  0.00     0.022 A 
BRANCH  69  73
ATOM     73  S   UNL     1       8.457   0.656  23.137  1.00  0.00     0.124 S 
ATOM     74  O   UNL     1       8.141   1.360  21.896  1.00  0.00    -0.237 OA
ATOM     75  O   UNL     1       8.024   1.305  24.368  1.00  0.00    -0.237 OA
ATOM     76  O   UNL     1       9.788   0.055  23.182  1.00  0.00    -0.744 OA
ENDBRANCH  69  73
ENDBRANCH  52  66
BRANCH  53  77
ATOM     77  C   UNL     1      -4.509  -0.021  20.146  1.00  0.00     0.023 A 
ATOM     78  C   UNL     1      -5.405   0.639  21.002  1.00  0.00     0.031 A 
ATOM     79  C   UNL     1      -5.007  -0.530  18.934  1.00  0.00     0.131 A 
ATOM     80  C   UNL     1      -6.763   0.728  20.659  1.00  0.00     0.055 A 
ATOM     81  C   UNL     1      -6.349  -0.395  18.575  1.00  0.00     0.041 A 
ATOM     82  F   UNL     1      -4.189  -1.158  18.074  1.00  0.00    -0.206 F 
ATOM     83  C   UNL     1      -7.239   0.225  19.447  1.00  0.00     0.022 A 
BRANCH  80  84
ATOM     84  S   UNL     1      -7.915   1.445  21.862  1.00  0.00     0.124 S 
ATOM     85  O   UNL     1      -7.712   0.582  23.020  1.00  0.00    -0.237 OA
ATOM     86  O   UNL     1      -7.415   2.810  21.983  1.00  0.00    -0.237 OA
ATOM     87  O   UNL     1      -9.215   1.316  21.206  1.00  0.00    -0.744 OA
ENDBRANCH  80  84
ENDBRANCH  53  77
BRANCH  65  88
ATOM     88  C   UNL     1      -1.376  -3.499  25.307  1.00  0.00     0.023 A 
ATOM     89  C   UNL     1      -2.150  -4.662  25.152  1.00  0.00     0.031 A 
ATOM     90  C   UNL     1      -1.159  -3.017  26.610  1.00  0.00     0.131 A 
ATOM     91  C   UNL     1      -2.745  -5.260  26.273  1.00  0.00     0.055 A 
ATOM     92  C   UNL     1      -1.698  -3.655  27.728  1.00  0.00     0.041 A 
ATOM     93  F   UNL     1      -0.427  -1.910  26.817  1.00  0.00    -0.206 F 
ATOM     94  C   UNL     1      -2.511  -4.772  27.561  1.00  0.00     0.022 A 
BRANCH  91  95
ATOM     95  S   UNL     1      -3.931  -6.607  26.012  1.00  0.00     0.124 S 
ATOM     96  O   UNL     1      -4.885  -5.998  25.091  1.00  0.00    -0.237 OA
ATOM     97  O   UNL     1      -3.088  -7.659  25.453  1.00  0.00    -0.237 OA
ATOM     98  O   UNL     1      -4.447  -6.873  27.353  1.00  0.00    -0.744 OA
ENDBRANCH  91  95
ENDBRANCH  65  88
ENDBRANCH  39  40
ENDBRANCH  31  34
ENDBRANCH  29  30
ENDBRANCH   1  29
TORSDOF 17
