REMARK SMILES O=C(NCCCNC(=O)c1ccc(S(=O)(=O)Cc2cccs2)c(F)c1)c1ccc(-c2c3nc(c(-c4cc(S(=O)(=O)[O-])ccc4F)c4ccc([nH]4)c(-c4cc(S(=O)(=O)[O-])ccc4F)c4nc(c(-c5cc(S(=O)(=O)[O-])ccc5F)c5ccc2[nH]5)C=C4)C=C3)cc1
REMARK SMILES IDX 5 1 4 2 3 3 1 4 2 5 26 7 27 8 88 9 28 10 87 11 29 12 30 13
REMARK SMILES IDX 31 14 81 15 32 16 86 17 80 18 82 19 33 20 85 21 79 22 78 23
REMARK SMILES IDX 34 25 66 26 46 27 65 28 47 29 50 30 64 31 83 32 48 33 49 34
REMARK SMILES IDX 63 36 84 37 51 38 35 39 36 40 44 41 37 42 43 43 45 44 42 45
REMARK SMILES IDX 38 46 39 47 40 48 41 49 67 50 68 51 76 52 69 53 75 54 77 55
REMARK SMILES IDX 74 56 70 57 71 58 72 59 73 60 52 61 53 62 61 63 54 64 60 65
REMARK SMILES IDX 62 66 59 67 55 68 56 69 57 70 58 71 6 72 7 73 8 74 9 76
REMARK SMILES IDX 10 77 11 78 25 79 12 80 23 81 13 82 24 83 14 84 15 85 16 86
REMARK SMILES IDX 17 87 18 88 19 89 22 90 20 91 21 92
REMARK H PARENT 3 6 82 24 50 35 7 75
REMARK Flexibility Score: inf
ROOT
ATOM      1  C   UNL     1       4.783  -2.200  -1.284  1.00  0.00     0.042 C 
ENDROOT
BRANCH   1   2
ATOM      2  C   UNL     1       4.498  -0.703  -1.273  1.00  0.00     0.118 C 
BRANCH   2   3
ATOM      3  N   UNL     1       3.078  -0.394  -1.143  1.00  0.00    -0.352 N 
ATOM      4  O   UNL     1       1.148   0.182  -0.143  1.00  0.00    -0.269 OA
ATOM      5  C   UNL     1       2.376   0.178  -0.108  1.00  0.00     0.251 C 
ATOM      6  H   UNL     1       2.532  -0.635  -1.926  1.00  0.00     0.163 HD
BRANCH   5   7
ATOM      7  C   UNL     1       3.087   0.764   1.050  1.00  0.00     0.039 A 
ATOM      8  C   UNL     1       4.244   1.520   0.867  1.00  0.00     0.014 A 
ATOM      9  C   UNL     1       2.581   0.569   2.339  1.00  0.00     0.014 A 
ATOM     10  C   UNL     1       4.993   1.913   1.969  1.00  0.00     0.010 A 
ATOM     11  C   UNL     1       3.281   1.064   3.446  1.00  0.00     0.010 A 
ATOM     12  C   UNL     1       4.517   1.703   3.273  1.00  0.00    -0.014 A 
BRANCH  12  13
ATOM     13  C   UNL     1       5.325   2.196   4.422  1.00  0.00     0.031 A 
ATOM     14  C   UNL     1       5.894   1.242   5.438  1.00  0.00     0.074 A 
ATOM     15  C   UNL     1       5.604   3.514   4.500  1.00  0.00     0.049 A 
ATOM     16  N   UNL     1       6.647   1.504   6.476  1.00  0.00    -0.248 NA
ATOM     17  C   UNL     1       5.577  -0.187   5.278  1.00  0.00     0.031 C 
ATOM     18  C   UNL     1       5.112   4.533   3.567  1.00  0.00     0.029 A 
ATOM     19  N   UNL     1       6.393   4.221   5.371  1.00  0.00    -0.354 N 
ATOM     20  C   UNL     1       6.882   0.283   7.099  1.00  0.00     0.074 A 
ATOM     21  C   UNL     1       6.170  -0.721   6.338  1.00  0.00     0.031 C 
ATOM     22  C   UNL     1       5.666   5.715   3.873  1.00  0.00     0.029 A 
ATOM     23  C   UNL     1       6.486   5.560   5.069  1.00  0.00     0.049 A 
ATOM     24  H   UNL     1       6.849   3.809   6.141  1.00  0.00     0.167 HD
ATOM     25  C   UNL     1       7.633   0.025   8.197  1.00  0.00     0.034 A 
ATOM     26  C   UNL     1       7.139   6.561   5.690  1.00  0.00     0.034 A 
ATOM     27  C   UNL     1       8.361   1.029   8.931  1.00  0.00     0.049 A 
ATOM     28  C   UNL     1       7.928   6.251   6.931  1.00  0.00     0.074 A 
ATOM     29  C   UNL     1       9.176   0.860  10.037  1.00  0.00     0.029 A 
ATOM     30  N   UNL     1       8.366   2.385   8.637  1.00  0.00    -0.354 N 
ATOM     31  N   UNL     1       8.120   5.090   7.512  1.00  0.00    -0.248 NA
ATOM     32  C   UNL     1       8.574   7.382   7.610  1.00  0.00     0.031 C 
ATOM     33  C   UNL     1       9.624   2.118  10.448  1.00  0.00     0.029 A 
ATOM     34  C   UNL     1       9.144   3.066   9.559  1.00  0.00     0.049 A 
ATOM     35  H   UNL     1       7.887   2.801   7.884  1.00  0.00     0.167 HD
ATOM     36  C   UNL     1       8.914   5.351   8.622  1.00  0.00     0.074 A 
ATOM     37  C   UNL     1       9.179   6.775   8.623  1.00  0.00     0.031 C 
ATOM     38  C   UNL     1       9.382   4.487   9.556  1.00  0.00     0.034 A 
BRANCH  25  39
ATOM     39  C   UNL     1       7.695  -1.393   8.699  1.00  0.00     0.023 A 
ATOM     40  C   UNL     1       8.405  -2.389   8.009  1.00  0.00     0.031 A 
ATOM     41  C   UNL     1       7.089  -1.735   9.921  1.00  0.00     0.131 A 
ATOM     42  C   UNL     1       8.474  -3.688   8.536  1.00  0.00     0.055 A 
ATOM     43  C   UNL     1       7.206  -3.014  10.467  1.00  0.00     0.041 A 
ATOM     44  F   UNL     1       6.388  -0.823  10.613  1.00  0.00    -0.206 F 
ATOM     45  C   UNL     1       7.899  -4.000   9.772  1.00  0.00     0.022 A 
BRANCH  42  46
ATOM     46  S   UNL     1       9.286  -4.982   7.562  1.00  0.00     0.124 S 
ATOM     47  O   UNL     1       8.391  -5.090   6.412  1.00  0.00    -0.237 OA
ATOM     48  O   UNL     1      10.599  -4.405   7.295  1.00  0.00    -0.237 OA
ATOM     49  O   UNL     1       9.285  -6.137   8.457  1.00  0.00    -0.744 OA
ENDBRANCH  42  46
ENDBRANCH  25  39
BRANCH  26  50
ATOM     50  C   UNL     1       7.032   7.952   5.170  1.00  0.00     0.023 A 
ATOM     51  C   UNL     1       8.145   8.616   4.632  1.00  0.00     0.031 A 
ATOM     52  C   UNL     1       5.803   8.636   5.200  1.00  0.00     0.131 A 
ATOM     53  C   UNL     1       8.010   9.931   4.161  1.00  0.00     0.055 A 
ATOM     54  C   UNL     1       5.664   9.926   4.689  1.00  0.00     0.041 A 
ATOM     55  F   UNL     1       4.708   8.041   5.699  1.00  0.00    -0.206 F 
ATOM     56  C   UNL     1       6.774  10.584   4.171  1.00  0.00     0.022 A 
BRANCH  53  57
ATOM     57  S   UNL     1       9.486  10.798   3.562  1.00  0.00     0.124 S 
ATOM     58  O   UNL     1      10.308  10.848   4.766  1.00  0.00    -0.237 OA
ATOM     59  O   UNL     1       9.952   9.911   2.502  1.00  0.00    -0.237 OA
ATOM     60  O   UNL     1       8.963  12.085   3.109  1.00  0.00    -0.744 OA
ENDBRANCH  53  57
ENDBRANCH  26  50
BRANCH  38  61
ATOM     61  C   UNL     1      10.242   5.053  10.652  1.00  0.00     0.023 A 
ATOM     62  C   UNL     1       9.688   5.816  11.692  1.00  0.00     0.031 A 
ATOM     63  C   UNL     1      11.619   4.776  10.684  1.00  0.00     0.131 A 
ATOM     64  C   UNL     1      10.515   6.297  12.716  1.00  0.00     0.055 A 
ATOM     65  C   UNL     1      12.430   5.221  11.728  1.00  0.00     0.041 A 
ATOM     66  F   UNL     1      12.191   4.047   9.712  1.00  0.00    -0.206 F 
ATOM     67  C   UNL     1      11.879   5.989  12.750  1.00  0.00     0.022 A 
BRANCH  64  68
ATOM     68  S   UNL     1       9.791   7.348  14.004  1.00  0.00     0.124 S 
ATOM     69  O   UNL     1       9.436   8.546  13.249  1.00  0.00    -0.237 OA
ATOM     70  O   UNL     1       8.673   6.541  14.481  1.00  0.00    -0.237 OA
ATOM     71  O   UNL     1      10.882   7.519  14.961  1.00  0.00    -0.744 OA
ENDBRANCH  64  68
ENDBRANCH  38  61
ENDBRANCH  12  13
ENDBRANCH   5   7
ENDBRANCH   2   3
ENDBRANCH   1   2
BRANCH   1  72
ATOM     72  C   UNL     1       4.152  -2.936  -2.459  1.00  0.00     0.118 C 
BRANCH  72  73
ATOM     73  N   UNL     1       4.660  -2.457  -3.736  1.00  0.00    -0.352 N 
ATOM     74  C   UNL     1       5.622  -3.010  -4.538  1.00  0.00     0.251 C 
ATOM     75  H   UNL     1       4.257  -1.622  -4.068  1.00  0.00     0.163 HD
ATOM     76  O   UNL     1       6.085  -2.400  -5.494  1.00  0.00    -0.269 OA
BRANCH  74  77
ATOM     77  C   UNL     1       6.101  -4.370  -4.251  1.00  0.00     0.042 A 
ATOM     78  C   UNL     1       5.229  -5.457  -4.372  1.00  0.00     0.015 A 
ATOM     79  C   UNL     1       7.440  -4.558  -3.908  1.00  0.00     0.054 A 
ATOM     80  C   UNL     1       5.703  -6.747  -4.142  1.00  0.00     0.024 A 
ATOM     81  C   UNL     1       7.897  -5.848  -3.659  1.00  0.00     0.142 A 
ATOM     82  C   UNL     1       7.047  -6.939  -3.797  1.00  0.00     0.103 A 
ATOM     83  F   UNL     1       9.175  -6.004  -3.297  1.00  0.00    -0.206 F 
BRANCH  82  84
ATOM     84  S   UNL     1       7.633  -8.586  -3.543  1.00  0.00     0.186 S 
ATOM     85  O   UNL     1       7.647  -8.772  -2.103  1.00  0.00    -0.223 OA
ATOM     86  O   UNL     1       6.795  -9.449  -4.361  1.00  0.00    -0.223 OA
BRANCH  84  87
ATOM     87  C   UNL     1       9.312  -8.716  -4.133  1.00  0.00     0.188 C 
BRANCH  87  88
ATOM     88  C   UNL     1       9.434  -8.389  -5.591  1.00  0.00     0.020 A 
ATOM     89  C   UNL     1       9.768  -7.187  -6.188  1.00  0.00     0.016 A 
ATOM     90  S   UNL     1       9.255  -9.629  -6.766  1.00  0.00    -0.148 S 
ATOM     91  C   UNL     1       9.827  -7.277  -7.608  1.00  0.00     0.012 A 
ATOM     92  C   UNL     1       9.578  -8.554  -8.053  1.00  0.00     0.065 A 
ENDBRANCH  87  88
ENDBRANCH  84  87
ENDBRANCH  82  84
ENDBRANCH  74  77
ENDBRANCH  72  73
ENDBRANCH   1  72
TORSDOF 16
