REMARK SMILES O=C(NCCCNC(=O)[C@H](Cc1ccc(O)cc1)NC(=O)c1ccc(Cl)s1)c1ccc(-c2c3nc(c(-c4cc(S(=O)(=O)[O-])ccc4F)c4ccc([nH]4)c(-c4cc(S(=O)(=O)[O-])ccc4F)c4nc(c(-c5cc(S(=O)(=O)[O-])ccc5F)c5ccc2[nH]5)C=C4)C=C3)cc1
REMARK SMILES IDX 5 1 4 2 3 3 1 4 2 5 28 7 29 8 90 9 30 10 89 11 31 12 32 13
REMARK SMILES IDX 33 14 83 15 34 16 88 17 82 18 84 19 35 20 87 21 81 22 80 23
REMARK SMILES IDX 36 25 68 26 48 27 67 28 49 29 52 30 66 31 85 32 50 33 51 34
REMARK SMILES IDX 65 36 86 37 53 38 37 39 38 40 46 41 39 42 45 43 47 44 44 45
REMARK SMILES IDX 40 46 41 47 42 48 43 49 69 50 70 51 78 52 71 53 77 54 79 55
REMARK SMILES IDX 76 56 72 57 73 58 74 59 75 60 54 61 55 62 63 63 56 64 62 65
REMARK SMILES IDX 64 66 61 67 57 68 58 69 59 70 60 71 6 72 7 73 8 74 9 76
REMARK SMILES IDX 10 77 19 78 20 79 21 81 22 82 23 83 27 84 24 85 25 86 26 87
REMARK SMILES IDX 11 88 12 89 13 90 18 91 14 92 17 93 15 94 16 95
REMARK H PARENT 3 6 84 24 52 35 7 75 19 80 16 96
REMARK Flexibility Score: inf
ROOT
ATOM      1  C   UNL     1       8.803   4.547  -6.439  1.00  0.00     0.042 C 
ENDROOT
BRANCH   1   2
ATOM      2  C   UNL     1      10.270   4.218  -6.670  1.00  0.00     0.118 C 
BRANCH   2   3
ATOM      3  N   UNL     1      10.648   4.373  -8.067  1.00  0.00    -0.352 N 
ATOM      4  O   UNL     1      11.085   5.305 -10.039  1.00  0.00    -0.269 OA
ATOM      5  C   UNL     1      11.063   5.451  -8.815  1.00  0.00     0.251 C 
ATOM      6  H   UNL     1      10.597   3.535  -8.582  1.00  0.00     0.163 HD
BRANCH   5   7
ATOM      7  C   UNL     1      11.469   6.763  -8.235  1.00  0.00     0.039 A 
ATOM      8  C   UNL     1      12.014   6.900  -6.962  1.00  0.00     0.014 A 
ATOM      9  C   UNL     1      11.418   7.903  -9.057  1.00  0.00     0.014 A 
ATOM     10  C   UNL     1      12.378   8.153  -6.470  1.00  0.00     0.010 A 
ATOM     11  C   UNL     1      11.902   9.143  -8.607  1.00  0.00     0.010 A 
ATOM     12  C   UNL     1      12.381   9.285  -7.300  1.00  0.00    -0.014 A 
BRANCH  12  13
ATOM     13  C   UNL     1      12.994  10.545  -6.786  1.00  0.00     0.031 A 
ATOM     14  C   UNL     1      12.198  11.814  -6.644  1.00  0.00     0.074 A 
ATOM     15  C   UNL     1      14.284  10.514  -6.382  1.00  0.00     0.049 A 
ATOM     16  N   UNL     1      12.570  12.964  -6.139  1.00  0.00    -0.248 NA
ATOM     17  C   UNL     1      10.817  11.799  -7.145  1.00  0.00     0.031 C 
ATOM     18  C   UNL     1      15.176   9.356  -6.510  1.00  0.00     0.029 A 
ATOM     19  N   UNL     1      15.060  11.452  -5.748  1.00  0.00    -0.354 N 
ATOM     20  C   UNL     1      11.478  13.815  -6.274  1.00  0.00     0.074 A 
ATOM     21  C   UNL     1      10.440  13.053  -6.938  1.00  0.00     0.031 C 
ATOM     22  C   UNL     1      16.337   9.620  -5.896  1.00  0.00     0.029 A 
ATOM     23  C   UNL     1      16.310  10.989  -5.397  1.00  0.00     0.049 A 
ATOM     24  H   UNL     1      14.753  12.368  -5.561  1.00  0.00     0.167 HD
ATOM     25  C   UNL     1      11.353  15.107  -5.877  1.00  0.00     0.034 A 
ATOM     26  C   UNL     1      17.327  11.594  -4.753  1.00  0.00     0.034 A 
ATOM     27  C   UNL     1      12.394  15.855  -5.210  1.00  0.00     0.049 A 
ATOM     28  C   UNL     1      17.148  13.016  -4.299  1.00  0.00     0.074 A 
ATOM     29  C   UNL     1      12.363  17.166  -4.761  1.00  0.00     0.029 A 
ATOM     30  N   UNL     1      13.652  15.361  -4.892  1.00  0.00    -0.354 N 
ATOM     31  N   UNL     1      16.102  13.798  -4.435  1.00  0.00    -0.248 NA
ATOM     32  C   UNL     1      18.283  13.637  -3.606  1.00  0.00     0.031 C 
ATOM     33  C   UNL     1      13.616  17.477  -4.216  1.00  0.00     0.029 A 
ATOM     34  C   UNL     1      14.409  16.343  -4.268  1.00  0.00     0.049 A 
ATOM     35  H   UNL     1      13.963  14.446  -5.081  1.00  0.00     0.167 HD
ATOM     36  C   UNL     1      16.458  15.008  -3.850  1.00  0.00     0.074 A 
ATOM     37  C   UNL     1      17.795  14.834  -3.317  1.00  0.00     0.031 C 
ATOM     38  C   UNL     1      15.753  16.164  -3.772  1.00  0.00     0.034 A 
BRANCH  25  39
ATOM     39  C   UNL     1      10.052  15.806  -6.188  1.00  0.00     0.023 A 
ATOM     40  C   UNL     1       8.845  15.429  -5.575  1.00  0.00     0.031 A 
ATOM     41  C   UNL     1      10.017  16.865  -7.114  1.00  0.00     0.131 A 
ATOM     42  C   UNL     1       7.647  16.066  -5.935  1.00  0.00     0.055 A 
ATOM     43  C   UNL     1       8.833  17.539  -7.419  1.00  0.00     0.041 A 
ATOM     44  F   UNL     1      11.136  17.258  -7.744  1.00  0.00    -0.206 F 
ATOM     45  C   UNL     1       7.636  17.134  -6.835  1.00  0.00     0.022 A 
BRANCH  42  46
ATOM     46  S   UNL     1       6.085  15.412  -5.285  1.00  0.00     0.124 S 
ATOM     47  O   UNL     1       6.080  14.061  -5.840  1.00  0.00    -0.237 OA
ATOM     48  O   UNL     1       6.277  15.511  -3.843  1.00  0.00    -0.237 OA
ATOM     49  O   UNL     1       5.078  16.312  -5.844  1.00  0.00    -0.744 OA
ENDBRANCH  42  46
ENDBRANCH  25  39
BRANCH  26  50
ATOM     50  C   UNL     1      18.616  10.875  -4.529  1.00  0.00     0.023 A 
ATOM     51  C   UNL     1      19.080  10.595  -3.234  1.00  0.00     0.031 A 
ATOM     52  C   UNL     1      19.421  10.490  -5.616  1.00  0.00     0.131 A 
ATOM     53  C   UNL     1      20.332   9.984  -3.058  1.00  0.00     0.055 A 
ATOM     54  C   UNL     1      20.639   9.834  -5.437  1.00  0.00     0.041 A 
ATOM     55  F   UNL     1      19.022  10.730  -6.875  1.00  0.00    -0.206 F 
ATOM     56  C   UNL     1      21.108   9.589  -4.151  1.00  0.00     0.022 A 
BRANCH  53  57
ATOM     57  S   UNL     1      20.978   9.790  -1.374  1.00  0.00     0.124 S 
ATOM     58  O   UNL     1      20.911  11.156  -0.867  1.00  0.00    -0.237 OA
ATOM     59  O   UNL     1      20.029   8.844  -0.796  1.00  0.00    -0.237 OA
ATOM     60  O   UNL     1      22.326   9.267  -1.585  1.00  0.00    -0.744 OA
ENDBRANCH  53  57
ENDBRANCH  26  50
BRANCH  38  61
ATOM     61  C   UNL     1      16.433  17.316  -3.078  1.00  0.00     0.023 A 
ATOM     62  C   UNL     1      17.566  17.936  -3.635  1.00  0.00     0.031 A 
ATOM     63  C   UNL     1      15.980  17.762  -1.825  1.00  0.00     0.131 A 
ATOM     64  C   UNL     1      18.251  18.920  -2.908  1.00  0.00     0.055 A 
ATOM     65  C   UNL     1      16.633  18.782  -1.131  1.00  0.00     0.041 A 
ATOM     66  F   UNL     1      14.905  17.202  -1.249  1.00  0.00    -0.206 F 
ATOM     67  C   UNL     1      17.785  19.355  -1.665  1.00  0.00     0.022 A 
BRANCH  64  68
ATOM     68  S   UNL     1      19.825  19.544  -3.561  1.00  0.00     0.124 S 
ATOM     69  O   UNL     1      20.606  18.319  -3.694  1.00  0.00    -0.237 OA
ATOM     70  O   UNL     1      19.414  20.177  -4.809  1.00  0.00    -0.237 OA
ATOM     71  O   UNL     1      20.286  20.464  -2.522  1.00  0.00    -0.744 OA
ENDBRANCH  64  68
ENDBRANCH  38  61
ENDBRANCH  12  13
ENDBRANCH   5   7
ENDBRANCH   2   3
ENDBRANCH   1   2
BRANCH   1  72
ATOM     72  C   UNL     1       7.886   3.353  -6.678  1.00  0.00     0.117 C 
BRANCH  72  73
ATOM     73  N   UNL     1       7.578   2.611  -5.468  1.00  0.00    -0.354 N 
ATOM     74  C   UNL     1       6.661   2.905  -4.494  1.00  0.00     0.242 C 
ATOM     75  H   UNL     1       8.098   1.786  -5.329  1.00  0.00     0.163 HD
ATOM     76  O   UNL     1       6.334   1.990  -3.732  1.00  0.00    -0.273 OA
BRANCH  74  77
ATOM     77  C   UNL     1       5.970   4.290  -4.461  1.00  0.00     0.176 C 
BRANCH  77  78
ATOM     78  N   UNL     1       4.733   4.154  -5.246  1.00  0.00    -0.339 N 
ATOM     79  C   UNL     1       4.380   4.751  -6.433  1.00  0.00     0.262 C 
ATOM     80  H   UNL     1       4.059   3.546  -4.864  1.00  0.00     0.164 HD
ATOM     81  O   UNL     1       3.438   4.257  -7.053  1.00  0.00    -0.268 OA
BRANCH  79  82
ATOM     82  C   UNL     1       5.165   5.853  -6.958  1.00  0.00     0.093 A 
ATOM     83  C   UNL     1       5.703   5.959  -8.231  1.00  0.00     0.027 A 
ATOM     84  S   UNL     1       5.434   7.285  -6.052  1.00  0.00    -0.118 S 
ATOM     85  C   UNL     1       6.454   7.160  -8.405  1.00  0.00     0.033 A 
ATOM     86  C   UNL     1       6.391   7.943  -7.282  1.00  0.00     0.094 A 
ATOM     87  Cl  UNL     1       7.174   9.451  -7.049  1.00  0.00    -0.072 Cl
ENDBRANCH  79  82
ENDBRANCH  77  78
BRANCH  77  88
ATOM     88  C   UNL     1       5.655   4.693  -2.998  1.00  0.00     0.070 C 
BRANCH  88  89
ATOM     89  C   UNL     1       6.330   5.944  -2.466  1.00  0.00    -0.045 A 
ATOM     90  C   UNL     1       7.627   6.334  -2.832  1.00  0.00     0.007 A 
ATOM     91  C   UNL     1       5.659   6.711  -1.498  1.00  0.00     0.007 A 
ATOM     92  C   UNL     1       8.202   7.501  -2.318  1.00  0.00     0.046 A 
ATOM     93  C   UNL     1       6.244   7.859  -0.960  1.00  0.00     0.046 A 
ATOM     94  C   UNL     1       7.501   8.257  -1.389  1.00  0.00     0.115 A 
BRANCH  94  95
ATOM     95  O   UNL     1       8.023   9.397  -0.859  1.00  0.00    -0.508 OA
ATOM     96  H   UNL     1       8.870   9.694  -1.128  1.00  0.00     0.293 HD
ENDBRANCH  94  95
ENDBRANCH  88  89
ENDBRANCH  77  88
ENDBRANCH  74  77
ENDBRANCH  72  73
ENDBRANCH   1  72
TORSDOF 18
