REMARK SMILES O=C(NCCCNC(=O)[C@H](Cc1ccc([N+](=O)[O-])cc1)c1ccccc1Br)c1ccc(-c2c3nc(c(-c4cc(S(=O)(=O)[O-])ccc4F)c4ccc([nH]4)c(-c4cc(S(=O)(=O)[O-])ccc4F)c4nc(c(-c5cc(S(=O)(=O)[O-])ccc5F)c5ccc2[nH]5)C=C4)C=C3)cc1
REMARK SMILES IDX 5 1 4 2 3 3 1 4 2 5 28 7 29 8 90 9 30 10 89 11 31 12 32 13
REMARK SMILES IDX 33 14 83 15 34 16 88 17 82 18 84 19 35 20 87 21 81 22 80 23
REMARK SMILES IDX 36 25 68 26 48 27 67 28 49 29 52 30 66 31 85 32 50 33 51 34
REMARK SMILES IDX 65 36 86 37 53 38 37 39 38 40 46 41 39 42 45 43 47 44 44 45
REMARK SMILES IDX 40 46 41 47 42 48 43 49 69 50 70 51 78 52 71 53 77 54 79 55
REMARK SMILES IDX 76 56 72 57 73 58 74 59 75 60 54 61 55 62 63 63 56 64 62 65
REMARK SMILES IDX 64 66 61 67 57 68 58 69 59 70 60 71 6 72 7 73 8 74 9 76
REMARK SMILES IDX 10 77 21 78 22 79 26 80 23 81 25 82 27 83 24 84 11 85 12 86
REMARK SMILES IDX 13 87 20 88 14 89 19 90 15 91 16 92 17 93 18 94
REMARK H PARENT 3 6 84 24 52 35 7 75
REMARK Flexibility Score: inf
ROOT
ATOM      1  C   UNL     1       4.755   3.397   0.457  1.00  0.00     0.042 C 
ENDROOT
BRANCH   1   2
ATOM      2  C   UNL     1       5.369   3.569  -0.923  1.00  0.00     0.118 C 
BRANCH   2   3
ATOM      3  N   UNL     1       5.307   2.325  -1.681  1.00  0.00    -0.352 N 
ATOM      4  O   UNL     1       4.307   0.642  -2.770  1.00  0.00    -0.269 OA
ATOM      5  C   UNL     1       4.337   1.851  -2.529  1.00  0.00     0.251 C 
ATOM      6  H   UNL     1       6.084   1.731  -1.566  1.00  0.00     0.163 HD
BRANCH   5   7
ATOM      7  C   UNL     1       3.350   2.756  -3.168  1.00  0.00     0.039 A 
ATOM      8  C   UNL     1       3.704   4.050  -3.552  1.00  0.00     0.014 A 
ATOM      9  C   UNL     1       2.083   2.263  -3.508  1.00  0.00     0.014 A 
ATOM     10  C   UNL     1       2.777   4.882  -4.169  1.00  0.00     0.010 A 
ATOM     11  C   UNL     1       1.188   3.063  -4.231  1.00  0.00     0.010 A 
ATOM     12  C   UNL     1       1.533   4.378  -4.572  1.00  0.00    -0.014 A 
BRANCH  12  13
ATOM     13  C   UNL     1       0.694   5.195  -5.487  1.00  0.00     0.031 A 
ATOM     14  C   UNL     1      -0.665   5.683  -5.077  1.00  0.00     0.074 A 
ATOM     15  C   UNL     1       1.192   5.491  -6.706  1.00  0.00     0.049 A 
ATOM     16  N   UNL     1      -1.527   6.383  -5.768  1.00  0.00    -0.248 NA
ATOM     17  C   UNL     1      -1.121   5.337  -3.723  1.00  0.00     0.031 C 
ATOM     18  C   UNL     1       2.501   5.053  -7.206  1.00  0.00     0.029 A 
ATOM     19  N   UNL     1       0.679   6.226  -7.744  1.00  0.00    -0.354 N 
ATOM     20  C   UNL     1      -2.637   6.542  -4.947  1.00  0.00     0.074 A 
ATOM     21  C   UNL     1      -2.343   5.854  -3.708  1.00  0.00     0.031 C 
ATOM     22  C   UNL     1       2.701   5.556  -8.431  1.00  0.00     0.029 A 
ATOM     23  C   UNL     1       1.504   6.274  -8.846  1.00  0.00     0.049 A 
ATOM     24  H   UNL     1      -0.196   6.676  -7.705  1.00  0.00     0.167 HD
ATOM     25  C   UNL     1      -3.791   7.202  -5.215  1.00  0.00     0.034 A 
ATOM     26  C   UNL     1       1.304   6.794 -10.073  1.00  0.00     0.034 A 
ATOM     27  C   UNL     1      -4.050   7.891  -6.457  1.00  0.00     0.049 A 
ATOM     28  C   UNL     1      -0.008   7.474 -10.352  1.00  0.00     0.074 A 
ATOM     29  C   UNL     1      -5.149   8.660  -6.801  1.00  0.00     0.029 A 
ATOM     30  N   UNL     1      -3.214   7.877  -7.567  1.00  0.00    -0.354 N 
ATOM     31  N   UNL     1      -1.022   7.666  -9.540  1.00  0.00    -0.248 NA
ATOM     32  C   UNL     1      -0.209   7.998 -11.707  1.00  0.00     0.031 C 
ATOM     33  C   UNL     1      -5.016   9.040  -8.140  1.00  0.00     0.029 A 
ATOM     34  C   UNL     1      -3.799   8.575  -8.613  1.00  0.00     0.049 A 
ATOM     35  H   UNL     1      -2.335   7.436  -7.606  1.00  0.00     0.167 HD
ATOM     36  C   UNL     1      -1.980   8.342 -10.288  1.00  0.00     0.074 A 
ATOM     37  C   UNL     1      -1.409   8.551 -11.603  1.00  0.00     0.031 C 
ATOM     38  C   UNL     1      -3.221   8.750  -9.924  1.00  0.00     0.034 A 
BRANCH  25  39
ATOM     39  C   UNL     1      -4.886   7.168  -4.178  1.00  0.00     0.023 A 
ATOM     40  C   UNL     1      -4.760   7.808  -2.934  1.00  0.00     0.031 A 
ATOM     41  C   UNL     1      -6.094   6.503  -4.459  1.00  0.00     0.131 A 
ATOM     42  C   UNL     1      -5.808   7.735  -2.001  1.00  0.00     0.055 A 
ATOM     43  C   UNL     1      -7.155   6.487  -3.553  1.00  0.00     0.041 A 
ATOM     44  F   UNL     1      -6.262   5.857  -5.624  1.00  0.00    -0.206 F 
ATOM     45  C   UNL     1      -7.013   7.099  -2.312  1.00  0.00     0.022 A 
BRANCH  42  46
ATOM     46  S   UNL     1      -5.538   8.406  -0.337  1.00  0.00     0.124 S 
ATOM     47  O   UNL     1      -4.400   7.610   0.123  1.00  0.00    -0.237 OA
ATOM     48  O   UNL     1      -5.273   9.809  -0.599  1.00  0.00    -0.237 OA
ATOM     49  O   UNL     1      -6.800   8.124   0.354  1.00  0.00    -0.744 OA
ENDBRANCH  42  46
ENDBRANCH  25  39
BRANCH  26  50
ATOM     50  C   UNL     1       2.329   6.623 -11.144  1.00  0.00     0.023 A 
ATOM     51  C   UNL     1       2.939   7.729 -11.754  1.00  0.00     0.031 A 
ATOM     52  C   UNL     1       2.679   5.340 -11.608  1.00  0.00     0.131 A 
ATOM     53  C   UNL     1       3.827   7.535 -12.824  1.00  0.00     0.055 A 
ATOM     54  C   UNL     1       3.612   5.150 -12.628  1.00  0.00     0.041 A 
ATOM     55  F   UNL     1       2.124   4.245 -11.064  1.00  0.00    -0.206 F 
ATOM     56  C   UNL     1       4.180   6.253 -13.254  1.00  0.00     0.022 A 
BRANCH  53  57
ATOM     57  S   UNL     1       4.430   8.990 -13.724  1.00  0.00     0.124 S 
ATOM     58  O   UNL     1       3.183   9.652 -14.088  1.00  0.00    -0.237 OA
ATOM     59  O   UNL     1       5.240   9.657 -12.711  1.00  0.00    -0.237 OA
ATOM     60  O   UNL     1       5.179   8.413 -14.839  1.00  0.00    -0.744 OA
ENDBRANCH  53  57
ENDBRANCH  26  50
BRANCH  38  61
ATOM     61  C   UNL     1      -4.027   9.476 -10.969  1.00  0.00     0.023 A 
ATOM     62  C   UNL     1      -4.513   8.812 -12.109  1.00  0.00     0.031 A 
ATOM     63  C   UNL     1      -4.303  10.847 -10.829  1.00  0.00     0.131 A 
ATOM     64  C   UNL     1      -5.210   9.531 -13.089  1.00  0.00     0.055 A 
ATOM     65  C   UNL     1      -5.048  11.544 -11.780  1.00  0.00     0.041 A 
ATOM     66  F   UNL     1      -3.856  11.528  -9.762  1.00  0.00    -0.206 F 
ATOM     67  C   UNL     1      -5.497  10.889 -12.923  1.00  0.00     0.022 A 
BRANCH  64  68
ATOM     68  S   UNL     1      -5.678   8.684 -14.623  1.00  0.00     0.124 S 
ATOM     69  O   UNL     1      -4.377   8.321 -15.176  1.00  0.00    -0.237 OA
ATOM     70  O   UNL     1      -6.494   7.577 -14.134  1.00  0.00    -0.237 OA
ATOM     71  O   UNL     1      -6.407   9.706 -15.370  1.00  0.00    -0.744 OA
ENDBRANCH  64  68
ENDBRANCH  38  61
ENDBRANCH  12  13
ENDBRANCH   5   7
ENDBRANCH   2   3
ENDBRANCH   1   2
BRANCH   1  72
ATOM     72  C   UNL     1       5.625   2.587   1.411  1.00  0.00     0.117 C 
BRANCH  72  73
ATOM     73  N   UNL     1       6.684   3.386   1.986  1.00  0.00    -0.355 N 
ATOM     74  C   UNL     1       6.730   4.117   3.127  1.00  0.00     0.227 C 
ATOM     75  H   UNL     1       7.514   3.403   1.457  1.00  0.00     0.163 HD
ATOM     76  O   UNL     1       7.781   4.743   3.321  1.00  0.00    -0.274 OA
BRANCH  74  77
ATOM     77  C   UNL     1       5.596   4.191   4.164  1.00  0.00     0.114 C 
BRANCH  77  78
ATOM     78  C   UNL     1       4.458   5.151   3.790  1.00  0.00    -0.021 A 
ATOM     79  C   UNL     1       4.758   6.523   4.005  1.00  0.00     0.006 A 
ATOM     80  C   UNL     1       3.151   4.852   3.353  1.00  0.00     0.021 A 
ATOM     81  C   UNL     1       3.795   7.526   3.886  1.00  0.00     0.000 A 
ATOM     82  C   UNL     1       2.188   5.871   3.237  1.00  0.00     0.016 A 
ATOM     83  Br  UNL     1       2.467   3.126   2.919  1.00  0.00    -0.051 Br
ATOM     84  C   UNL     1       2.501   7.196   3.521  1.00  0.00     0.001 A 
ENDBRANCH  77  78
BRANCH  77  85
ATOM     85  C   UNL     1       5.311   2.874   4.926  1.00  0.00     0.053 C 
BRANCH  85  86
ATOM     86  C   UNL     1       4.686   3.113   6.299  1.00  0.00    -0.046 A 
ATOM     87  C   UNL     1       3.327   3.440   6.416  1.00  0.00     0.011 A 
ATOM     88  C   UNL     1       5.459   3.085   7.468  1.00  0.00     0.011 A 
ATOM     89  C   UNL     1       2.756   3.811   7.628  1.00  0.00     0.086 A 
ATOM     90  C   UNL     1       4.890   3.419   8.707  1.00  0.00     0.086 A 
ATOM     91  C   UNL     1       3.545   3.806   8.772  1.00  0.00     0.269 A 
BRANCH  91  92
ATOM     92  N   UNL     1       2.953   4.219  10.044  1.00  0.00     0.062 N 
ATOM     93  O   UNL     1       1.908   4.885  10.006  1.00  0.00    -0.258 OA
ATOM     94  O   UNL     1       3.532   3.878  11.085  1.00  0.00    -0.258 OA
ENDBRANCH  91  92
ENDBRANCH  85  86
ENDBRANCH  77  85
ENDBRANCH  74  77
ENDBRANCH  72  73
ENDBRANCH   1  72
TORSDOF 17
