REMARK SMILES CCCC1(C(=O)N2CCO[C@@H](CC(=O)NCCCNC(=O)c3ccc(-c4c5nc(c(-c6cc(S(=O)(=O)[O-])ccc6F)c6ccc([nH]6)c(-c6cc(S(=O)(=O)[O-])ccc6F)c6nc(c(-c7cc(S(=O)(=O)[O-])ccc7F)c7ccc4[nH]7)C=C6)C=C5)cc3)C2)CC[NH2+]CC1
REMARK SMILES IDX 16 1 15 2 13 3 14 4 12 6 11 7 7 8 8 9 85 10 9 11 10 12 5 13
REMARK SMILES IDX 6 14 4 15 86 16 90 17 87 18 89 19 88 20 3 23 2 24 1 25 17 26
REMARK SMILES IDX 18 27 19 28 20 29 21 31 22 32 23 33 84 34 24 35 83 36 25 37
REMARK SMILES IDX 26 38 27 39 77 40 28 41 82 42 76 43 78 44 29 45 81 46 75 47
REMARK SMILES IDX 74 48 30 50 62 51 42 52 61 53 43 54 46 55 60 56 79 57 44 58
REMARK SMILES IDX 45 59 59 61 80 62 47 63 31 64 32 65 40 66 33 67 39 68 41 69
REMARK SMILES IDX 38 70 34 71 35 72 36 73 37 74 63 75 64 76 72 77 65 78 71 79
REMARK SMILES IDX 73 80 70 81 66 82 67 83 68 84 69 85 48 86 49 87 57 88 50 89
REMARK SMILES IDX 56 90 58 91 55 92 51 93 52 94 53 95 54 96
REMARK H PARENT 15 5 88 21 88 22 19 30 78 49 46 60
REMARK Flexibility Score: inf
ROOT
ATOM      1  C   UNL     1       4.478  -1.918   6.478  1.00  0.00     0.117 C 
ENDROOT
BRANCH   1   2
ATOM      2  N   UNL     1       4.434  -0.477   6.242  1.00  0.00    -0.356 N 
ATOM      3  C   UNL     1       3.519   0.469   6.602  1.00  0.00     0.222 C 
ATOM      4  O   UNL     1       3.722   1.635   6.257  1.00  0.00    -0.275 OA
ATOM      5  H   UNL     1       5.200  -0.127   5.734  1.00  0.00     0.163 HD
BRANCH   3   6
ATOM      6  C   UNL     1       2.268   0.100   7.367  1.00  0.00     0.133 C 
BRANCH   6   7
ATOM      7  C   UNL     1       1.053  -0.068   6.452  1.00  0.00     0.147 C 
ATOM      8  N   UNL     1       0.147  -1.532   4.651  1.00  0.00    -0.337 N 
ATOM      9  C   UNL     1      -0.958  -1.898   5.525  1.00  0.00     0.148 C 
ATOM     10  C   UNL     1       1.326  -1.138   5.390  1.00  0.00     0.152 C 
ATOM     11  C   UNL     1      -1.235  -0.745   6.491  1.00  0.00     0.182 C 
ATOM     12  O   UNL     1      -0.069  -0.449   7.283  1.00  0.00    -0.374 OA
BRANCH   8  13
ATOM     13  C   UNL     1       0.395  -2.259   3.495  1.00  0.00     0.229 C 
ATOM     14  O   UNL     1       0.936  -3.362   3.559  1.00  0.00    -0.274 OA
BRANCH  13  15
ATOM     15  C   UNL     1      -0.035  -1.583   2.156  1.00  0.00     0.060 C 
ATOM     16  C   UNL     1      -1.506  -2.010   1.917  1.00  0.00     0.078 C 
ATOM     17  C   UNL     1       0.103  -0.041   2.278  1.00  0.00     0.078 C 
ATOM     18  C   UNL     1      -2.356  -1.049   1.096  1.00  0.00     0.261 C 
ATOM     19  C   UNL     1      -0.821   0.764   1.374  1.00  0.00     0.261 C 
ATOM     20  N   UNL     1      -2.205   0.332   1.548  1.00  0.00    -0.346 N 
ATOM     21  H   UNL     1      -2.457   0.394   2.535  1.00  0.00     0.346 HD
ATOM     22  H   UNL     1      -2.816   0.934   0.997  1.00  0.00     0.346 HD
BRANCH  15  23
ATOM     23  C   UNL     1       0.920  -2.174   1.058  1.00  0.00     0.017 C 
BRANCH  23  24
ATOM     24  C   UNL     1       0.843  -1.643  -0.378  1.00  0.00    -0.002 C 
ATOM     25  C   UNL     1       1.846  -0.538  -0.683  1.00  0.00     0.004 C 
ENDBRANCH  23  24
ENDBRANCH  15  23
ENDBRANCH  13  15
ENDBRANCH   8  13
ENDBRANCH   6   7
ENDBRANCH   3   6
ENDBRANCH   1   2
BRANCH   1  26
ATOM     26  C   UNL     1       4.308  -2.736   5.195  1.00  0.00     0.042 C 
BRANCH  26  27
ATOM     27  C   UNL     1       5.491  -2.666   4.238  1.00  0.00     0.118 C 
BRANCH  27  28
ATOM     28  N   UNL     1       6.457  -3.717   4.502  1.00  0.00    -0.352 N 
ATOM     29  C   UNL     1       6.705  -4.880   3.809  1.00  0.00     0.251 C 
ATOM     30  H   UNL     1       7.019  -3.576   5.297  1.00  0.00     0.163 HD
ATOM     31  O   UNL     1       7.367  -5.757   4.360  1.00  0.00    -0.269 OA
BRANCH  29  32
ATOM     32  C   UNL     1       6.189  -5.096   2.432  1.00  0.00     0.039 A 
ATOM     33  C   UNL     1       5.790  -6.386   2.059  1.00  0.00     0.014 A 
ATOM     34  C   UNL     1       6.167  -4.075   1.478  1.00  0.00     0.014 A 
ATOM     35  C   UNL     1       5.336  -6.637   0.758  1.00  0.00     0.010 A 
ATOM     36  C   UNL     1       5.639  -4.308   0.205  1.00  0.00     0.010 A 
ATOM     37  C   UNL     1       5.234  -5.595  -0.177  1.00  0.00    -0.014 A 
BRANCH  37  38
ATOM     38  C   UNL     1       4.748  -5.840  -1.565  1.00  0.00     0.031 A 
ATOM     39  C   UNL     1       5.666  -5.609  -2.739  1.00  0.00     0.074 A 
ATOM     40  C   UNL     1       3.473  -6.220  -1.779  1.00  0.00     0.049 A 
ATOM     41  N   UNL     1       5.408  -5.671  -4.021  1.00  0.00    -0.248 NA
ATOM     42  C   UNL     1       7.051  -5.229  -2.425  1.00  0.00     0.031 C 
ATOM     43  C   UNL     1       2.474  -6.453  -0.734  1.00  0.00     0.029 A 
ATOM     44  N   UNL     1       2.793  -6.470  -2.947  1.00  0.00    -0.354 N 
ATOM     45  C   UNL     1       6.590  -5.314  -4.666  1.00  0.00     0.074 A 
ATOM     46  C   UNL     1       7.547  -4.988  -3.630  1.00  0.00     0.031 C 
ATOM     47  C   UNL     1       1.319  -6.831  -1.306  1.00  0.00     0.029 A 
ATOM     48  C   UNL     1       1.476  -6.821  -2.758  1.00  0.00     0.049 A 
ATOM     49  H   UNL     1       3.210  -6.404  -3.836  1.00  0.00     0.167 HD
ATOM     50  C   UNL     1       6.858  -5.280  -5.996  1.00  0.00     0.034 A 
ATOM     51  C   UNL     1       0.500  -7.087  -3.650  1.00  0.00     0.034 A 
ATOM     52  C   UNL     1       5.904  -5.633  -7.020  1.00  0.00     0.049 A 
ATOM     53  C   UNL     1       0.817  -7.028  -5.124  1.00  0.00     0.074 A 
ATOM     54  C   UNL     1       6.090  -5.688  -8.391  1.00  0.00     0.029 A 
ATOM     55  N   UNL     1       4.581  -5.987  -6.787  1.00  0.00    -0.354 N 
ATOM     56  N   UNL     1       1.949  -6.722  -5.715  1.00  0.00    -0.248 NA
ATOM     57  C   UNL     1      -0.275  -7.357  -6.051  1.00  0.00     0.031 C 
ATOM     58  C   UNL     1       4.867  -6.011  -8.989  1.00  0.00     0.029 A 
ATOM     59  C   UNL     1       3.934  -6.231  -7.990  1.00  0.00     0.049 A 
ATOM     60  H   UNL     1       4.163  -6.055  -5.898  1.00  0.00     0.167 HD
ATOM     61  C   UNL     1       1.711  -6.851  -7.081  1.00  0.00     0.074 A 
ATOM     62  C   UNL     1       0.334  -7.274  -7.225  1.00  0.00     0.031 C 
ATOM     63  C   UNL     1       2.556  -6.643  -8.122  1.00  0.00     0.034 A 
BRANCH  50  64
ATOM     64  C   UNL     1       8.234  -4.817  -6.417  1.00  0.00     0.023 A 
ATOM     65  C   UNL     1       9.395  -5.529  -6.068  1.00  0.00     0.031 A 
ATOM     66  C   UNL     1       8.389  -3.633  -7.161  1.00  0.00     0.131 A 
ATOM     67  C   UNL     1      10.659  -5.012  -6.392  1.00  0.00     0.055 A 
ATOM     68  C   UNL     1       9.646  -3.167  -7.553  1.00  0.00     0.041 A 
ATOM     69  F   UNL     1       7.319  -2.900  -7.510  1.00  0.00    -0.206 F 
ATOM     70  C   UNL     1      10.791  -3.849  -7.154  1.00  0.00     0.022 A 
BRANCH  67  71
ATOM     71  S   UNL     1      12.127  -5.804  -5.681  1.00  0.00     0.124 S 
ATOM     72  O   UNL     1      11.864  -5.678  -4.249  1.00  0.00    -0.237 OA
ATOM     73  O   UNL     1      12.055  -7.153  -6.228  1.00  0.00    -0.237 OA
ATOM     74  O   UNL     1      13.232  -4.986  -6.177  1.00  0.00    -0.744 OA
ENDBRANCH  67  71
ENDBRANCH  50  64
BRANCH  51  75
ATOM     75  C   UNL     1      -0.878  -7.415  -3.184  1.00  0.00     0.023 A 
ATOM     76  C   UNL     1      -1.442  -8.678  -3.424  1.00  0.00     0.031 A 
ATOM     77  C   UNL     1      -1.670  -6.453  -2.531  1.00  0.00     0.131 A 
ATOM     78  C   UNL     1      -2.772  -8.933  -3.054  1.00  0.00     0.055 A 
ATOM     79  C   UNL     1      -2.974  -6.728  -2.118  1.00  0.00     0.041 A 
ATOM     80  F   UNL     1      -1.180  -5.229  -2.276  1.00  0.00    -0.206 F 
ATOM     81  C   UNL     1      -3.537  -7.971  -2.391  1.00  0.00     0.022 A 
BRANCH  78  82
ATOM     82  S   UNL     1      -3.520 -10.515  -3.533  1.00  0.00     0.124 S 
ATOM     83  O   UNL     1      -3.366 -10.490  -4.983  1.00  0.00    -0.237 OA
ATOM     84  O   UNL     1      -2.686 -11.473  -2.815  1.00  0.00    -0.237 OA
ATOM     85  O   UNL     1      -4.894 -10.402  -3.049  1.00  0.00    -0.744 OA
ENDBRANCH  78  82
ENDBRANCH  51  75
BRANCH  63  86
ATOM     86  C   UNL     1       2.022  -6.916  -9.507  1.00  0.00     0.023 A 
ATOM     87  C   UNL     1       1.026  -6.113 -10.088  1.00  0.00     0.031 A 
ATOM     88  C   UNL     1       2.518  -8.000 -10.252  1.00  0.00     0.131 A 
ATOM     89  C   UNL     1       0.521  -6.435 -11.358  1.00  0.00     0.055 A 
ATOM     90  C   UNL     1       2.052  -8.284 -11.537  1.00  0.00     0.041 A 
ATOM     91  F   UNL     1       3.470  -8.800  -9.745  1.00  0.00    -0.206 F 
ATOM     92  C   UNL     1       1.039  -7.506 -12.092  1.00  0.00     0.022 A 
BRANCH  89  93
ATOM     93  S   UNL     1      -0.878  -5.482 -12.009  1.00  0.00     0.124 S 
ATOM     94  O   UNL     1      -1.901  -5.713 -10.994  1.00  0.00    -0.237 OA
ATOM     95  O   UNL     1      -0.334  -4.129 -12.069  1.00  0.00    -0.237 OA
ATOM     96  O   UNL     1      -1.141  -6.101 -13.307  1.00  0.00    -0.744 OA
ENDBRANCH  89  93
ENDBRANCH  63  86
ENDBRANCH  37  38
ENDBRANCH  29  32
ENDBRANCH  27  28
ENDBRANCH  26  27
ENDBRANCH   1  26
TORSDOF 18
