REMARK SMILES CN(CCS(C)(=O)=O)C(=O)N1CCC(C(=O)NCCCNC(=O)c2ccc(-c3c4nc(c(-c5cc(S(=O)(=O)[O-])ccc5F)c5ccc([nH]5)c(-c5cc(S(=O)(=O)[O-])ccc5F)c5nc(c(-c6cc(S(=O)(=O)[O-])ccc6F)c6ccc3[nH]6)C=C5)C=C4)cc2)CC1
REMARK SMILES IDX 18 1 17 2 15 3 16 4 14 6 9 7 10 8 11 9 12 10 88 11 13 12
REMARK SMILES IDX 87 13 2 14 1 15 3 16 4 17 5 18 6 19 7 20 8 21 19 22 20 23
REMARK SMILES IDX 21 24 22 25 23 27 24 28 25 29 86 30 26 31 85 32 27 33 28 34
REMARK SMILES IDX 29 35 79 36 30 37 84 38 78 39 80 40 31 41 83 42 77 43 76 44
REMARK SMILES IDX 32 46 64 47 44 48 63 49 45 50 48 51 62 52 81 53 46 54 47 55
REMARK SMILES IDX 61 57 82 58 49 59 33 60 34 61 42 62 35 63 41 64 43 65 40 66
REMARK SMILES IDX 36 67 37 68 38 69 39 70 65 71 66 72 74 73 67 74 73 75 75 76
REMARK SMILES IDX 72 77 68 78 69 79 70 80 71 81 50 82 51 83 59 84 52 85 58 86
REMARK SMILES IDX 60 87 57 88 53 89 54 90 55 91 56 92
REMARK H PARENT 17 5 21 26 80 45 48 56
REMARK Flexibility Score: inf
ROOT
ATOM      1  C   UNL     1      -0.892   6.527  -1.437  1.00  0.00     0.117 C 
ENDROOT
BRANCH   1   2
ATOM      2  N   UNL     1      -1.051   7.124  -2.754  1.00  0.00    -0.356 N 
ATOM      3  C   UNL     1      -0.701   6.659  -3.982  1.00  0.00     0.223 C 
ATOM      4  O   UNL     1      -0.891   7.386  -4.959  1.00  0.00    -0.275 OA
ATOM      5  H   UNL     1      -1.482   8.008  -2.756  1.00  0.00     0.163 HD
BRANCH   3   6
ATOM      6  C   UNL     1      -0.147   5.257  -4.160  1.00  0.00     0.082 C 
ATOM      7  C   UNL     1       1.204   1.919  -1.797  1.00  0.00     0.319 C 
ATOM      8  O   UNL     1       2.337   2.004  -1.330  1.00  0.00    -0.248 OA
ATOM      9  N   UNL     1       0.712   2.824  -2.732  1.00  0.00    -0.325 N 
ATOM     10  C   UNL     1       1.641   3.617  -3.521  1.00  0.00     0.122 C 
ATOM     11  C   UNL     1      -0.704   3.089  -2.847  1.00  0.00     0.122 C 
ATOM     12  C   UNL     1       1.248   5.081  -3.569  1.00  0.00     0.035 C 
ATOM     13  C   UNL     1      -1.185   4.226  -3.729  1.00  0.00     0.035 C 
BRANCH   7  14
ATOM     14  N   UNL     1       0.333   0.888  -1.418  1.00  0.00    -0.327 N 
ATOM     15  C   UNL     1       0.626   0.266  -0.134  1.00  0.00     0.148 C 
BRANCH  14  16
ATOM     16  C   UNL     1      -0.270   0.019  -2.444  1.00  0.00     0.137 C 
BRANCH  16  17
ATOM     17  C   UNL     1      -1.741  -0.328  -2.234  1.00  0.00     0.158 C 
BRANCH  17  18
ATOM     18  S   UNL     1      -2.964   0.310  -3.385  1.00  0.00     0.149 S 
ATOM     19  C   UNL     1      -2.234   0.531  -5.006  1.00  0.00     0.158 C 
ATOM     20  O   UNL     1      -3.976  -0.721  -3.537  1.00  0.00    -0.229 OA
ATOM     21  O   UNL     1      -3.365   1.625  -2.914  1.00  0.00    -0.229 OA
ENDBRANCH  17  18
ENDBRANCH  16  17
ENDBRANCH  14  16
ENDBRANCH   7  14
ENDBRANCH   3   6
ENDBRANCH   1   2
BRANCH   1  22
ATOM     22  C   UNL     1       0.196   7.224  -0.638  1.00  0.00     0.042 C 
BRANCH  22  23
ATOM     23  C   UNL     1      -0.144   8.670  -0.320  1.00  0.00     0.118 C 
BRANCH  23  24
ATOM     24  N   UNL     1      -1.249   8.783   0.621  1.00  0.00    -0.352 N 
ATOM     25  C   UNL     1      -1.255   9.303   1.895  1.00  0.00     0.251 C 
ATOM     26  H   UNL     1      -2.114   8.440   0.300  1.00  0.00     0.163 HD
ATOM     27  O   UNL     1      -2.217   9.119   2.625  1.00  0.00    -0.269 OA
BRANCH  25  28
ATOM     28  C   UNL     1      -0.073  10.056   2.372  1.00  0.00     0.039 A 
ATOM     29  C   UNL     1       0.418   9.814   3.655  1.00  0.00     0.014 A 
ATOM     30  C   UNL     1       0.562  10.976   1.536  1.00  0.00     0.014 A 
ATOM     31  C   UNL     1       1.591  10.447   4.072  1.00  0.00     0.010 A 
ATOM     32  C   UNL     1       1.785  11.517   1.909  1.00  0.00     0.010 A 
ATOM     33  C   UNL     1       2.305  11.274   3.189  1.00  0.00    -0.014 A 
BRANCH  33  34
ATOM     34  C   UNL     1       3.574  11.936   3.588  1.00  0.00     0.031 A 
ATOM     35  C   UNL     1       3.657  13.440   3.580  1.00  0.00     0.074 A 
ATOM     36  C   UNL     1       4.660  11.194   3.879  1.00  0.00     0.049 A 
ATOM     37  N   UNL     1       4.692  14.215   3.775  1.00  0.00    -0.248 NA
ATOM     38  C   UNL     1       2.416  14.165   3.266  1.00  0.00     0.031 C 
ATOM     39  C   UNL     1       4.715   9.730   3.871  1.00  0.00     0.029 A 
ATOM     40  N   UNL     1       5.932  11.569   4.230  1.00  0.00    -0.354 N 
ATOM     41  C   UNL     1       4.232  15.514   3.577  1.00  0.00     0.074 A 
ATOM     42  C   UNL     1       2.846  15.412   3.175  1.00  0.00     0.031 C 
ATOM     43  C   UNL     1       5.946   9.333   4.231  1.00  0.00     0.029 A 
ATOM     44  C   UNL     1       6.782  10.509   4.450  1.00  0.00     0.049 A 
ATOM     45  H   UNL     1       6.211  12.509   4.317  1.00  0.00     0.167 HD
ATOM     46  C   UNL     1       4.895  16.685   3.746  1.00  0.00     0.034 A 
ATOM     47  C   UNL     1       8.088  10.491   4.782  1.00  0.00     0.034 A 
ATOM     48  C   UNL     1       6.267  16.765   4.181  1.00  0.00     0.049 A 
ATOM     49  C   UNL     1       8.804  11.804   4.973  1.00  0.00     0.074 A 
ATOM     50  C   UNL     1       7.026  17.892   4.442  1.00  0.00     0.029 A 
ATOM     51  N   UNL     1       7.088  15.669   4.421  1.00  0.00    -0.354 N 
ATOM     52  N   UNL     1       8.344  13.025   4.825  1.00  0.00    -0.248 NA
ATOM     53  C   UNL     1      10.211  11.736   5.386  1.00  0.00     0.031 C 
ATOM     54  C   UNL     1       8.318  17.480   4.786  1.00  0.00     0.029 A 
ATOM     55  C   UNL     1       8.349  16.095   4.809  1.00  0.00     0.049 A 
ATOM     56  H   UNL     1       6.813  14.728   4.330  1.00  0.00     0.167 HD
ATOM     57  C   UNL     1       9.399  13.870   5.161  1.00  0.00     0.074 A 
ATOM     58  C   UNL     1      10.511  13.018   5.530  1.00  0.00     0.031 C 
ATOM     59  C   UNL     1       9.445  15.227   5.169  1.00  0.00     0.034 A 
BRANCH  46  60
ATOM     60  C   UNL     1       4.141  17.958   3.441  1.00  0.00     0.023 A 
ATOM     61  C   UNL     1       2.985  18.320   4.155  1.00  0.00     0.031 A 
ATOM     62  C   UNL     1       4.555  18.799   2.394  1.00  0.00     0.131 A 
ATOM     63  C   UNL     1       2.234  19.436   3.757  1.00  0.00     0.055 A 
ATOM     64  C   UNL     1       3.852  19.959   2.059  1.00  0.00     0.041 A 
ATOM     65  F   UNL     1       5.639  18.498   1.661  1.00  0.00    -0.206 F 
ATOM     66  C   UNL     1       2.674  20.274   2.731  1.00  0.00     0.022 A 
BRANCH  63  67
ATOM     67  S   UNL     1       0.596  19.683   4.496  1.00  0.00     0.124 S 
ATOM     68  O   UNL     1      -0.087  18.448   4.117  1.00  0.00    -0.237 OA
ATOM     69  O   UNL     1       0.907  19.832   5.912  1.00  0.00    -0.237 OA
ATOM     70  O   UNL     1       0.100  20.889   3.834  1.00  0.00    -0.744 OA
ENDBRANCH  63  67
ENDBRANCH  46  60
BRANCH  47  71
ATOM     71  C   UNL     1       8.807   9.197   4.961  1.00  0.00     0.023 A 
ATOM     72  C   UNL     1       9.309   8.819   6.217  1.00  0.00     0.031 A 
ATOM     73  C   UNL     1       9.038   8.337   3.873  1.00  0.00     0.131 A 
ATOM     74  C   UNL     1      10.059   7.639   6.345  1.00  0.00     0.055 A 
ATOM     75  C   UNL     1       9.740   7.139   4.016  1.00  0.00     0.041 A 
ATOM     76  F   UNL     1       8.573   8.647   2.652  1.00  0.00    -0.206 F 
ATOM     77  C   UNL     1      10.267   6.791   5.256  1.00  0.00     0.022 A 
BRANCH  74  78
ATOM     78  S   UNL     1      10.831   7.272   7.945  1.00  0.00     0.124 S 
ATOM     79  O   UNL     1      11.652   8.458   8.159  1.00  0.00    -0.237 OA
ATOM     80  O   UNL     1       9.669   7.130   8.816  1.00  0.00    -0.237 OA
ATOM     81  O   UNL     1      11.570   6.037   7.690  1.00  0.00    -0.744 OA
ENDBRANCH  74  78
ENDBRANCH  47  71
BRANCH  59  82
ATOM     82  C   UNL     1      10.726  15.864   5.644  1.00  0.00     0.023 A 
ATOM     83  C   UNL     1      11.919  15.766   4.907  1.00  0.00     0.031 A 
ATOM     84  C   UNL     1      10.752  16.571   6.859  1.00  0.00     0.131 A 
ATOM     85  C   UNL     1      13.102  16.319   5.419  1.00  0.00     0.055 A 
ATOM     86  C   UNL     1      11.919  17.169   7.335  1.00  0.00     0.041 A 
ATOM     87  F   UNL     1       9.641  16.694   7.602  1.00  0.00    -0.206 F 
ATOM     88  C   UNL     1      13.106  17.034   6.620  1.00  0.00     0.022 A 
BRANCH  85  89
ATOM     89  S   UNL     1      14.657  16.017   4.537  1.00  0.00     0.124 S 
ATOM     90  O   UNL     1      14.727  14.559   4.535  1.00  0.00    -0.237 OA
ATOM     91  O   UNL     1      14.409  16.645   3.243  1.00  0.00    -0.237 OA
ATOM     92  O   UNL     1      15.658  16.685   5.367  1.00  0.00    -0.744 OA
ENDBRANCH  85  89
ENDBRANCH  59  82
ENDBRANCH  33  34
ENDBRANCH  25  28
ENDBRANCH  23  24
ENDBRANCH  22  23
ENDBRANCH   1  22
TORSDOF 17
