REMARK SMILES CC(=O)Nc1cccc(-c2ccc(F)c(C(=O)NCCCNC(=O)c3ccc(-c4c5nc(c(-c6cc(S(=O)(=O)[O-])ccc6F)c6ccc([nH]6)c(-c6cc(S(=O)(=O)[O-])ccc6F)c6nc(c(-c7cc(S(=O)(=O)[O-])ccc7F)c7ccc4[nH]7)C=C6)C=C5)cc3)c2)c1
REMARK SMILES IDX 20 1 19 2 18 3 16 4 17 5 15 7 10 8 11 9 88 10 12 11 13 12
REMARK SMILES IDX 14 13 9 14 5 15 6 16 89 17 7 18 8 19 4 20 1 21 2 22 3 23
REMARK SMILES IDX 21 25 22 26 23 27 24 29 25 30 26 31 87 32 27 33 86 34 28 35
REMARK SMILES IDX 29 36 30 37 80 38 31 39 85 40 79 41 81 42 32 43 84 44 78 45
REMARK SMILES IDX 77 46 33 48 65 49 45 50 64 51 46 52 49 53 63 54 82 55 47 56
REMARK SMILES IDX 48 57 62 59 83 60 50 61 34 62 35 63 43 64 36 65 42 66 44 67
REMARK SMILES IDX 41 68 37 69 38 70 39 71 40 72 66 73 67 74 75 75 68 76 74 77
REMARK SMILES IDX 76 78 73 79 69 80 70 81 71 82 72 83 51 84 52 85 60 86 53 87
REMARK SMILES IDX 59 88 61 89 58 90 54 91 55 92 56 93 57 94
REMARK H PARENT 18 6 4 24 22 28 81 47 49 58
REMARK Flexibility Score: inf
ROOT
ATOM      1  C   UNL     1       6.568   3.573   1.084  1.00  0.00     0.042 C 
ENDROOT
BRANCH   1   2
ATOM      2  C   UNL     1       6.486   2.413   0.089  1.00  0.00     0.118 C 
BRANCH   2   3
ATOM      3  N   UNL     1       7.645   1.539   0.174  1.00  0.00    -0.352 N 
ATOM      4  C   UNL     1       7.947   0.364   0.818  1.00  0.00     0.254 C 
ATOM      5  O   UNL     1       9.066  -0.090   0.573  1.00  0.00    -0.269 OA
ATOM      6  H   UNL     1       8.400   1.872  -0.362  1.00  0.00     0.163 HD
BRANCH   4   7
ATOM      7  C   UNL     1       7.038  -0.377   1.744  1.00  0.00     0.076 A 
ATOM      8  C   UNL     1       4.948  -0.648   3.024  1.00  0.00    -0.017 A 
ATOM      9  C   UNL     1       5.378  -1.897   3.476  1.00  0.00     0.012 A 
ATOM     10  C   UNL     1       5.810   0.107   2.197  1.00  0.00     0.025 A 
ATOM     11  C   UNL     1       6.625  -2.381   3.085  1.00  0.00     0.041 A 
ATOM     12  C   UNL     1       7.434  -1.635   2.221  1.00  0.00     0.135 A 
ATOM     13  F   UNL     1       8.611  -2.181   1.880  1.00  0.00    -0.206 F 
BRANCH   8  14
ATOM     14  C   UNL     1       3.653  -0.062   3.401  1.00  0.00    -0.016 A 
ATOM     15  C   UNL     1       1.610   1.101   2.716  1.00  0.00     0.041 A 
ATOM     16  C   UNL     1       1.392   1.454   4.051  1.00  0.00     0.026 A 
ATOM     17  C   UNL     1       2.738   0.341   2.403  1.00  0.00     0.034 A 
ATOM     18  C   UNL     1       2.249   1.007   5.059  1.00  0.00     0.003 A 
ATOM     19  C   UNL     1       3.371   0.247   4.737  1.00  0.00     0.009 A 
BRANCH  15  20
ATOM     20  N   UNL     1       0.719   1.630   1.766  1.00  0.00    -0.326 N 
ATOM     21  C   UNL     1       0.911   0.006  -0.120  1.00  0.00     0.114 C 
ATOM     22  C   UNL     1       0.438   1.303   0.472  1.00  0.00     0.221 C 
ATOM     23  O   UNL     1      -0.268   2.066  -0.191  1.00  0.00    -0.275 OA
ATOM     24  H   UNL     1       0.191   2.390   2.102  1.00  0.00     0.169 HD
ENDBRANCH  15  20
ENDBRANCH   8  14
ENDBRANCH   4   7
ENDBRANCH   2   3
ENDBRANCH   1   2
BRANCH   1  25
ATOM     25  C   UNL     1       7.479   4.711   0.615  1.00  0.00     0.118 C 
BRANCH  25  26
ATOM     26  N   UNL     1       6.984   5.326  -0.610  1.00  0.00    -0.352 N 
ATOM     27  C   UNL     1       6.497   6.582  -0.864  1.00  0.00     0.251 C 
ATOM     28  H   UNL     1       7.002   4.733  -1.395  1.00  0.00     0.163 HD
ATOM     29  O   UNL     1       5.852   6.753  -1.897  1.00  0.00    -0.269 OA
BRANCH  27  30
ATOM     30  C   UNL     1       6.745   7.720   0.050  1.00  0.00     0.039 A 
ATOM     31  C   UNL     1       5.799   8.750   0.101  1.00  0.00     0.014 A 
ATOM     32  C   UNL     1       7.941   7.848   0.760  1.00  0.00     0.014 A 
ATOM     33  C   UNL     1       6.045   9.892   0.868  1.00  0.00     0.010 A 
ATOM     34  C   UNL     1       8.150   8.950   1.590  1.00  0.00     0.010 A 
ATOM     35  C   UNL     1       7.220   9.998   1.627  1.00  0.00    -0.014 A 
BRANCH  35  36
ATOM     36  C   UNL     1       7.517  11.228   2.409  1.00  0.00     0.031 A 
ATOM     37  C   UNL     1       8.705  12.082   2.045  1.00  0.00     0.074 A 
ATOM     38  C   UNL     1       6.741  11.556   3.460  1.00  0.00     0.049 A 
ATOM     39  N   UNL     1       9.162  13.162   2.627  1.00  0.00    -0.248 NA
ATOM     40  C   UNL     1       9.505  11.640   0.893  1.00  0.00     0.031 C 
ATOM     41  C   UNL     1       5.592  10.782   3.935  1.00  0.00     0.029 A 
ATOM     42  N   UNL     1       6.801  12.622   4.321  1.00  0.00    -0.354 N 
ATOM     43  C   UNL     1      10.313  13.513   1.927  1.00  0.00     0.074 A 
ATOM     44  C   UNL     1      10.518  12.492   0.922  1.00  0.00     0.031 C 
ATOM     45  C   UNL     1       5.038  11.415   4.982  1.00  0.00     0.029 A 
ATOM     46  C   UNL     1       5.810  12.617   5.276  1.00  0.00     0.049 A 
ATOM     47  H   UNL     1       7.488  13.324   4.261  1.00  0.00     0.167 HD
ATOM     48  C   UNL     1      11.110  14.600   2.090  1.00  0.00     0.034 A 
ATOM     49  C   UNL     1       5.555  13.486   6.274  1.00  0.00     0.034 A 
ATOM     50  C   UNL     1      10.873  15.621   3.081  1.00  0.00     0.049 A 
ATOM     51  C   UNL     1       6.438  14.700   6.418  1.00  0.00     0.074 A 
ATOM     52  C   UNL     1      11.582  16.788   3.309  1.00  0.00     0.029 A 
ATOM     53  N   UNL     1       9.840  15.599   4.011  1.00  0.00    -0.354 N 
ATOM     54  N   UNL     1       7.496  15.041   5.720  1.00  0.00    -0.248 NA
ATOM     55  C   UNL     1       6.075  15.655   7.472  1.00  0.00     0.031 C 
ATOM     56  C   UNL     1      11.013  17.441   4.409  1.00  0.00     0.029 A 
ATOM     57  C   UNL     1       9.904  16.721   4.824  1.00  0.00     0.049 A 
ATOM     58  H   UNL     1       9.162  14.889   4.083  1.00  0.00     0.167 HD
ATOM     59  C   UNL     1       7.907  16.269   6.232  1.00  0.00     0.074 A 
ATOM     60  C   UNL     1       6.967  16.614   7.279  1.00  0.00     0.031 C 
ATOM     61  C   UNL     1       8.964  17.042   5.872  1.00  0.00     0.034 A 
BRANCH  48  62
ATOM     62  C   UNL     1      12.318  14.717   1.186  1.00  0.00     0.023 A 
ATOM     63  C   UNL     1      12.189  14.820  -0.211  1.00  0.00     0.031 A 
ATOM     64  C   UNL     1      13.617  14.681   1.722  1.00  0.00     0.131 A 
ATOM     65  C   UNL     1      13.331  14.795  -1.026  1.00  0.00     0.055 A 
ATOM     66  C   UNL     1      14.752  14.746   0.910  1.00  0.00     0.041 A 
ATOM     67  F   UNL     1      13.808  14.564   3.046  1.00  0.00    -0.206 F 
ATOM     68  C   UNL     1      14.614  14.785  -0.474  1.00  0.00     0.022 A 
BRANCH  65  69
ATOM     69  S   UNL     1      13.112  14.618  -2.818  1.00  0.00     0.124 S 
ATOM     70  O   UNL     1      12.399  13.346  -2.902  1.00  0.00    -0.237 OA
ATOM     71  O   UNL     1      12.341  15.807  -3.161  1.00  0.00    -0.237 OA
ATOM     72  O   UNL     1      14.481  14.593  -3.330  1.00  0.00    -0.744 OA
ENDBRANCH  65  69
ENDBRANCH  48  62
BRANCH  49  73
ATOM     73  C   UNL     1       4.415  13.254   7.205  1.00  0.00     0.023 A 
ATOM     74  C   UNL     1       3.320  14.133   7.240  1.00  0.00     0.031 A 
ATOM     75  C   UNL     1       4.420  12.172   8.102  1.00  0.00     0.131 A 
ATOM     76  C   UNL     1       2.301  13.945   8.186  1.00  0.00     0.055 A 
ATOM     77  C   UNL     1       3.378  11.959   9.007  1.00  0.00     0.041 A 
ATOM     78  F   UNL     1       5.437  11.295   8.103  1.00  0.00    -0.206 F 
ATOM     79  C   UNL     1       2.317  12.857   9.062  1.00  0.00     0.022 A 
BRANCH  76  80
ATOM     80  S   UNL     1       0.991  15.193   8.311  1.00  0.00     0.124 S 
ATOM     81  O   UNL     1       1.758  16.405   8.575  1.00  0.00    -0.237 OA
ATOM     82  O   UNL     1       0.363  15.104   6.997  1.00  0.00    -0.237 OA
ATOM     83  O   UNL     1       0.173  14.717   9.424  1.00  0.00    -0.744 OA
ENDBRANCH  76  80
ENDBRANCH  49  73
BRANCH  61  84
ATOM     84  C   UNL     1       9.120  18.357   6.597  1.00  0.00     0.023 A 
ATOM     85  C   UNL     1       9.407  18.412   7.972  1.00  0.00     0.031 A 
ATOM     86  C   UNL     1       8.937  19.570   5.910  1.00  0.00     0.131 A 
ATOM     87  C   UNL     1       9.429  19.649   8.632  1.00  0.00     0.055 A 
ATOM     88  C   UNL     1       9.027  20.802   6.559  1.00  0.00     0.041 A 
ATOM     89  F   UNL     1       8.660  19.577   4.596  1.00  0.00    -0.206 F 
ATOM     90  C   UNL     1       9.256  20.846   7.931  1.00  0.00     0.022 A 
BRANCH  87  91
ATOM     91  S   UNL     1       9.563  19.666  10.441  1.00  0.00     0.124 S 
ATOM     92  O   UNL     1       8.441  18.822  10.837  1.00  0.00    -0.237 OA
ATOM     93  O   UNL     1      10.892  19.104  10.659  1.00  0.00    -0.237 OA
ATOM     94  O   UNL     1       9.425  21.081  10.782  1.00  0.00    -0.744 OA
ENDBRANCH  87  91
ENDBRANCH  61  84
ENDBRANCH  35  36
ENDBRANCH  27  30
ENDBRANCH  25  26
ENDBRANCH   1  25
TORSDOF 15
