REMARK SMILES O=C(NCCCNC(=O)c1ccccc1NCCCO)c1ccc(-c2c3nc(c(-c4cc(S(=O)(=O)[O-])ccc4F)c4ccc([nH]4)c(-c4cc(S(=O)(=O)[O-])ccc4F)c4nc(c(-c5cc(S(=O)(=O)[O-])ccc5F)c5ccc2[nH]5)C=C4)C=C3)cc1
REMARK SMILES IDX 6 1 5 2 4 3 3 4 1 5 2 6 21 8 22 9 83 10 23 11 82 12 24 13
REMARK SMILES IDX 25 14 26 15 76 16 27 17 81 18 75 19 77 20 28 21 80 22 74 23
REMARK SMILES IDX 73 24 29 26 61 27 41 28 60 29 42 30 45 31 59 32 78 33 43 34
REMARK SMILES IDX 44 35 58 37 79 38 46 39 30 40 31 41 39 42 32 43 38 44 40 45
REMARK SMILES IDX 37 46 33 47 34 48 35 49 36 50 62 51 63 52 71 53 64 54 70 55
REMARK SMILES IDX 72 56 69 57 65 58 66 59 67 60 68 61 47 62 48 63 56 64 49 65
REMARK SMILES IDX 55 66 57 67 54 68 50 69 51 70 52 71 53 72 7 73 8 74 9 76
REMARK SMILES IDX 10 77 11 78 15 79 12 80 14 81 13 82 16 83 17 85 18 86 19 87
REMARK SMILES IDX 20 88
REMARK H PARENT 3 7 77 25 45 36 7 75 16 84 20 89
REMARK Flexibility Score: inf
ROOT
ATOM      1  C   UNL     1       4.859  -1.091   3.253  1.00  0.00     0.118 C 
ENDROOT
BRANCH   1   2
ATOM      2  C   UNL     1       5.246  -0.326   2.004  1.00  0.00     0.042 C 
BRANCH   2   3
ATOM      3  C   UNL     1       4.684  -0.903   0.715  1.00  0.00     0.118 C 
BRANCH   3   4
ATOM      4  N   UNL     1       3.228  -0.854   0.642  1.00  0.00    -0.352 N 
ATOM      5  O   UNL     1       1.187  -0.090   0.094  1.00  0.00    -0.269 OA
ATOM      6  C   UNL     1       2.397  -0.076  -0.128  1.00  0.00     0.251 C 
ATOM      7  H   UNL     1       2.765  -1.481   1.244  1.00  0.00     0.163 HD
BRANCH   6   8
ATOM      8  C   UNL     1       2.948   0.785  -1.198  1.00  0.00     0.039 A 
ATOM      9  C   UNL     1       3.965   0.324  -2.036  1.00  0.00     0.014 A 
ATOM     10  C   UNL     1       2.427   2.069  -1.380  1.00  0.00     0.014 A 
ATOM     11  C   UNL     1       4.585   1.196  -2.922  1.00  0.00     0.010 A 
ATOM     12  C   UNL     1       2.979   2.910  -2.352  1.00  0.00     0.010 A 
ATOM     13  C   UNL     1       4.087   2.492  -3.106  1.00  0.00    -0.014 A 
BRANCH  13  14
ATOM     14  C   UNL     1       4.699   3.382  -4.127  1.00  0.00     0.031 A 
ATOM     15  C   UNL     1       5.333   4.684  -3.729  1.00  0.00     0.074 A 
ATOM     16  C   UNL     1       4.663   3.012  -5.421  1.00  0.00     0.049 A 
ATOM     17  N   UNL     1       5.821   5.632  -4.487  1.00  0.00    -0.248 NA
ATOM     18  C   UNL     1       5.416   4.961  -2.289  1.00  0.00     0.031 C 
ATOM     19  C   UNL     1       4.083   1.763  -5.923  1.00  0.00     0.029 A 
ATOM     20  N   UNL     1       5.109   3.648  -6.552  1.00  0.00    -0.354 N 
ATOM     21  C   UNL     1       6.245   6.634  -3.620  1.00  0.00     0.074 A 
ATOM     22  C   UNL     1       5.921   6.185  -2.280  1.00  0.00     0.031 C 
ATOM     23  C   UNL     1       4.218   1.719  -7.254  1.00  0.00     0.029 A 
ATOM     24  C   UNL     1       4.812   2.970  -7.711  1.00  0.00     0.049 A 
ATOM     25  H   UNL     1       5.593   4.504  -6.535  1.00  0.00     0.167 HD
ATOM     26  C   UNL     1       6.849   7.812  -3.919  1.00  0.00     0.034 A 
ATOM     27  C   UNL     1       4.947   3.331  -9.001  1.00  0.00     0.034 A 
ATOM     28  C   UNL     1       7.149   8.235  -5.268  1.00  0.00     0.049 A 
ATOM     29  C   UNL     1       5.551   4.671  -9.318  1.00  0.00     0.074 A 
ATOM     30  C   UNL     1       7.790   9.387  -5.689  1.00  0.00     0.029 A 
ATOM     31  N   UNL     1       6.810   7.530  -6.419  1.00  0.00    -0.354 N 
ATOM     32  N   UNL     1       5.959   5.604  -8.490  1.00  0.00    -0.248 NA
ATOM     33  C   UNL     1       5.715   5.006 -10.737  1.00  0.00     0.031 C 
ATOM     34  C   UNL     1       7.759   9.421  -7.088  1.00  0.00     0.029 A 
ATOM     35  C   UNL     1       7.188   8.244  -7.546  1.00  0.00     0.049 A 
ATOM     36  H   UNL     1       6.365   6.652  -6.431  1.00  0.00     0.167 HD
ATOM     37  C   UNL     1       6.457   6.628  -9.289  1.00  0.00     0.074 A 
ATOM     38  C   UNL     1       6.295   6.197 -10.664  1.00  0.00     0.031 C 
ATOM     39  C   UNL     1       7.012   7.809  -8.915  1.00  0.00     0.034 A 
BRANCH  26  40
ATOM     40  C   UNL     1       7.157   8.746  -2.769  1.00  0.00     0.023 A 
ATOM     41  C   UNL     1       8.008   8.373  -1.714  1.00  0.00     0.031 A 
ATOM     42  C   UNL     1       6.542  10.010  -2.695  1.00  0.00     0.131 A 
ATOM     43  C   UNL     1       8.136   9.200  -0.587  1.00  0.00     0.055 A 
ATOM     44  C   UNL     1       6.752  10.872  -1.616  1.00  0.00     0.041 A 
ATOM     45  F   UNL     1       5.703  10.420  -3.659  1.00  0.00    -0.206 F 
ATOM     46  C   UNL     1       7.534  10.459  -0.542  1.00  0.00     0.022 A 
BRANCH  43  47
ATOM     47  S   UNL     1       8.931   8.521   0.896  1.00  0.00     0.124 S 
ATOM     48  O   UNL     1       8.158   7.300   1.115  1.00  0.00    -0.237 OA
ATOM     49  O   UNL     1      10.309   8.333   0.457  1.00  0.00    -0.237 OA
ATOM     50  O   UNL     1       8.730   9.563   1.901  1.00  0.00    -0.744 OA
ENDBRANCH  43  47
ENDBRANCH  26  40
BRANCH  27  51
ATOM     51  C   UNL     1       4.440   2.426 -10.068  1.00  0.00     0.023 A 
ATOM     52  C   UNL     1       5.312   1.782 -10.957  1.00  0.00     0.031 A 
ATOM     53  C   UNL     1       3.062   2.163 -10.185  1.00  0.00     0.131 A 
ATOM     54  C   UNL     1       4.795   0.918 -11.935  1.00  0.00     0.055 A 
ATOM     55  C   UNL     1       2.558   1.266 -11.126  1.00  0.00     0.041 A 
ATOM     56  F   UNL     1       2.187   2.747  -9.350  1.00  0.00    -0.206 F 
ATOM     57  C   UNL     1       3.427   0.642 -12.014  1.00  0.00     0.022 A 
BRANCH  54  58
ATOM     58  S   UNL     1       5.936   0.187 -13.140  1.00  0.00     0.124 S 
ATOM     59  O   UNL     1       6.486   1.373 -13.785  1.00  0.00    -0.237 OA
ATOM     60  O   UNL     1       6.848  -0.559 -12.280  1.00  0.00    -0.237 OA
ATOM     61  O   UNL     1       5.064  -0.633 -13.979  1.00  0.00    -0.744 OA
ENDBRANCH  54  58
ENDBRANCH  27  51
BRANCH  39  62
ATOM     62  C   UNL     1       7.548   8.700 -10.008  1.00  0.00     0.023 A 
ATOM     63  C   UNL     1       6.704   9.366 -10.913  1.00  0.00     0.031 A 
ATOM     64  C   UNL     1       8.935   8.908 -10.118  1.00  0.00     0.131 A 
ATOM     65  C   UNL     1       7.258  10.189 -11.906  1.00  0.00     0.055 A 
ATOM     66  C   UNL     1       9.476   9.769 -11.072  1.00  0.00     0.041 A 
ATOM     67  F   UNL     1       9.786   8.289  -9.284  1.00  0.00    -0.206 F 
ATOM     68  C   UNL     1       8.637  10.411 -11.977  1.00  0.00     0.022 A 
BRANCH  65  69
ATOM     69  S   UNL     1       6.161  10.931 -13.145  1.00  0.00     0.124 S 
ATOM     70  O   UNL     1       5.594   9.751 -13.791  1.00  0.00    -0.237 OA
ATOM     71  O   UNL     1       5.242  11.712 -12.324  1.00  0.00    -0.237 OA
ATOM     72  O   UNL     1       7.067  11.718 -13.979  1.00  0.00    -0.744 OA
ENDBRANCH  65  69
ENDBRANCH  39  62
ENDBRANCH  13  14
ENDBRANCH   6   8
ENDBRANCH   3   4
ENDBRANCH   2   3
ENDBRANCH   1   2
BRANCH   1  73
ATOM     73  N   UNL     1       5.309  -2.467   3.292  1.00  0.00    -0.352 N 
ATOM     74  C   UNL     1       5.726  -3.188   4.383  1.00  0.00     0.253 C 
ATOM     75  H   UNL     1       5.316  -2.943   2.431  1.00  0.00     0.163 HD
ATOM     76  O   UNL     1       6.001  -4.379   4.248  1.00  0.00    -0.269 OA
BRANCH  74  77
ATOM     77  C   UNL     1       5.934  -2.530   5.696  1.00  0.00     0.062 A 
ATOM     78  C   UNL     1       7.239  -2.676   6.207  1.00  0.00     0.016 A 
ATOM     79  C   UNL     1       4.933  -1.823   6.409  1.00  0.00     0.047 A 
ATOM     80  C   UNL     1       7.593  -2.090   7.414  1.00  0.00     0.001 A 
ATOM     81  C   UNL     1       5.344  -1.213   7.606  1.00  0.00     0.026 A 
ATOM     82  C   UNL     1       6.646  -1.350   8.108  1.00  0.00     0.002 A 
BRANCH  79  83
ATOM     83  N   UNL     1       3.634  -1.704   5.931  1.00  0.00    -0.384 N 
ATOM     84  H   UNL     1       3.401  -2.259   5.152  1.00  0.00     0.160 HD
BRANCH  83  85
ATOM     85  C   UNL     1       2.579  -0.847   6.456  1.00  0.00     0.115 C 
BRANCH  85  86
ATOM     86  C   UNL     1       2.459   0.478   5.695  1.00  0.00     0.049 C 
BRANCH  86  87
ATOM     87  C   UNL     1       1.640   0.437   4.406  1.00  0.00     0.158 C 
BRANCH  87  88
ATOM     88  O   UNL     1       0.504  -0.403   4.543  1.00  0.00    -0.396 OA
ATOM     89  H   UNL     1       0.793  -1.308   4.741  1.00  0.00     0.210 HD
ENDBRANCH  87  88
ENDBRANCH  86  87
ENDBRANCH  85  86
ENDBRANCH  83  85
ENDBRANCH  79  83
ENDBRANCH  74  77
ENDBRANCH   1  73
TORSDOF 18
