REMARK SMILES [NH3+][C@H]([C@@H](C(=O)NCCCNC(=O)c1ccc(-c2c3nc(c(-c4cc(S(=O)(=O)[O-])ccc4F)c4ccc([nH]4)c(-c4cc(S(=O)(=O)[O-])ccc4F)c4nc(c(-c5cc(S(=O)(=O)[O-])ccc5F)c5ccc2[nH]5)C=C4)C=C3)cc1)C(=O)OCC1c2ccccc2-c2ccccc21)C(F)(F)F
REMARK SMILES IDX 7 1 6 2 4 3 5 4 3 6 2 7 1 8 93 12 94 13 95 14 96 15 76 16
REMARK SMILES IDX 77 17 78 18 79 19 80 20 81 21 92 22 82 23 86 24 87 25 91 26
REMARK SMILES IDX 83 27 85 28 88 29 90 30 84 31 89 32 8 33 9 34 10 35 11 36
REMARK SMILES IDX 12 38 13 39 14 40 75 41 15 42 74 43 16 44 17 45 18 46 68 47
REMARK SMILES IDX 19 48 73 49 67 50 69 51 20 52 72 53 66 54 65 55 21 57 53 58
REMARK SMILES IDX 33 59 52 60 34 61 37 62 51 63 70 64 35 65 36 66 50 68 71 69
REMARK SMILES IDX 38 70 22 71 23 72 31 73 24 74 30 75 32 76 29 77 25 78 26 79
REMARK SMILES IDX 27 80 28 81 54 82 55 83 63 84 56 85 62 86 64 87 61 88 57 89
REMARK SMILES IDX 58 90 59 91 60 92 39 93 40 94 48 95 41 96 47 97 49 98 46 99
REMARK SMILES IDX 42 100 43 101 44 102 45 103
REMARK H PARENT 6 5 1 9 1 10 1 11 10 37 69 56 37 67
REMARK Flexibility Score: inf
ROOT
ATOM      1  C   UNL     1      -0.346  -2.246  -1.357  1.00  0.00     0.117 C 
ENDROOT
BRANCH   1   2
ATOM      2  N   UNL     1       1.059  -1.917  -1.160  1.00  0.00    -0.355 N 
ATOM      3  C   UNL     1       1.659  -0.830  -0.596  1.00  0.00     0.240 C 
ATOM      4  O   UNL     1       2.891  -0.839  -0.538  1.00  0.00    -0.274 OA
ATOM      5  H   UNL     1       1.686  -2.600  -1.493  1.00  0.00     0.163 HD
BRANCH   3   6
ATOM      6  C   UNL     1       0.850   0.365  -0.121  1.00  0.00     0.255 C 
BRANCH   6   7
ATOM      7  C   UNL     1       0.530   1.403  -1.228  1.00  0.00     0.311 C 
BRANCH   7   8
ATOM      8  N   UNL     1       1.204   1.163  -2.537  1.00  0.00    -0.346 N 
ATOM      9  H   UNL     1       0.934   1.893  -3.197  1.00  0.00     0.345 HD
ATOM     10  H   UNL     1       0.924   0.253  -2.902  1.00  0.00     0.345 HD
ATOM     11  H   UNL     1       2.216   1.181  -2.407  1.00  0.00     0.345 HD
ENDBRANCH   7   8
BRANCH   7  12
ATOM     12  C   UNL     1      -1.009   1.583  -1.271  1.00  0.00     0.442 C 
ATOM     13  F   UNL     1      -1.466   1.944  -0.047  1.00  0.00    -0.165 F 
ATOM     14  F   UNL     1      -1.385   2.541  -2.140  1.00  0.00    -0.165 F 
ATOM     15  F   UNL     1      -1.638   0.438  -1.610  1.00  0.00    -0.165 F 
ENDBRANCH   7  12
ENDBRANCH   6   7
BRANCH   6  16
ATOM     16  C   UNL     1       1.543   1.001   1.067  1.00  0.00     0.325 C 
ATOM     17  O   UNL     1       1.472   0.535   2.199  1.00  0.00    -0.251 OA
BRANCH  16  18
ATOM     18  O   UNL     1       2.378   2.024   0.710  1.00  0.00    -0.464 OA
BRANCH  18  19
ATOM     19  C   UNL     1       3.647   1.888   1.352  1.00  0.00     0.246 C 
BRANCH  19  20
ATOM     20  C   UNL     1       4.631   3.032   1.028  1.00  0.00     0.088 C 
ATOM     21  C   UNL     1       4.747   4.027   2.183  1.00  0.00    -0.029 A 
ATOM     22  C   UNL     1       6.015   2.381   1.068  1.00  0.00    -0.029 A 
ATOM     23  C   UNL     1       3.895   5.064   2.530  1.00  0.00     0.005 A 
ATOM     24  C   UNL     1       5.934   3.780   2.913  1.00  0.00    -0.014 A 
ATOM     25  C   UNL     1       6.649   2.689   2.287  1.00  0.00    -0.014 A 
ATOM     26  C   UNL     1       6.519   1.427   0.195  1.00  0.00     0.005 A 
ATOM     27  C   UNL     1       4.257   5.878   3.609  1.00  0.00     0.000 A 
ATOM     28  C   UNL     1       6.288   4.583   3.984  1.00  0.00     0.009 A 
ATOM     29  C   UNL     1       7.713   1.922   2.722  1.00  0.00     0.009 A 
ATOM     30  C   UNL     1       7.605   0.671   0.625  1.00  0.00     0.000 A 
ATOM     31  C   UNL     1       5.444   5.643   4.326  1.00  0.00     0.001 A 
ATOM     32  C   UNL     1       8.170   0.889   1.894  1.00  0.00     0.001 A 
ENDBRANCH  19  20
ENDBRANCH  18  19
ENDBRANCH  16  18
ENDBRANCH   6  16
ENDBRANCH   3   6
ENDBRANCH   1   2
BRANCH   1  33
ATOM     33  C   UNL     1      -0.794  -2.082  -2.808  1.00  0.00     0.042 C 
BRANCH  33  34
ATOM     34  C   UNL     1      -0.183  -3.094  -3.775  1.00  0.00     0.118 C 
BRANCH  34  35
ATOM     35  N   UNL     1      -0.757  -4.418  -3.605  1.00  0.00    -0.352 N 
ATOM     36  C   UNL     1      -1.487  -5.179  -4.488  1.00  0.00     0.251 C 
ATOM     37  H   UNL     1      -0.600  -4.832  -2.726  1.00  0.00     0.163 HD
ATOM     38  O   UNL     1      -2.107  -6.148  -4.060  1.00  0.00    -0.269 OA
BRANCH  36  39
ATOM     39  C   UNL     1      -1.539  -4.839  -5.931  1.00  0.00     0.039 A 
ATOM     40  C   UNL     1      -2.748  -4.996  -6.616  1.00  0.00     0.014 A 
ATOM     41  C   UNL     1      -0.399  -4.427  -6.626  1.00  0.00     0.014 A 
ATOM     42  C   UNL     1      -2.824  -4.695  -7.980  1.00  0.00     0.010 A 
ATOM     43  C   UNL     1      -0.492  -4.062  -7.971  1.00  0.00     0.010 A 
ATOM     44  C   UNL     1      -1.704  -4.198  -8.666  1.00  0.00    -0.014 A 
BRANCH  44  45
ATOM     45  C   UNL     1      -1.785  -3.822 -10.105  1.00  0.00     0.031 A 
ATOM     46  C   UNL     1      -0.965  -4.560 -11.132  1.00  0.00     0.074 A 
ATOM     47  C   UNL     1      -2.555  -2.780 -10.481  1.00  0.00     0.049 A 
ATOM     48  N   UNL     1      -0.848  -4.335 -12.416  1.00  0.00    -0.248 NA
ATOM     49  C   UNL     1      -0.147  -5.682 -10.645  1.00  0.00     0.031 C 
ATOM     50  C   UNL     1      -3.367  -1.963  -9.575  1.00  0.00     0.029 A 
ATOM     51  N   UNL     1      -2.774  -2.218 -11.715  1.00  0.00    -0.354 N 
ATOM     52  C   UNL     1       0.069  -5.270 -12.887  1.00  0.00     0.074 A 
ATOM     53  C   UNL     1       0.511  -6.035 -11.740  1.00  0.00     0.031 C 
ATOM     54  C   UNL     1      -4.004  -1.019 -10.285  1.00  0.00     0.029 A 
ATOM     55  C   UNL     1      -3.611  -1.125 -11.687  1.00  0.00     0.049 A 
ATOM     56  H   UNL     1      -2.370  -2.565 -12.543  1.00  0.00     0.167 HD
ATOM     57  C   UNL     1       0.491  -5.479 -14.159  1.00  0.00     0.034 A 
ATOM     58  C   UNL     1      -4.002  -0.290 -12.671  1.00  0.00     0.034 A 
ATOM     59  C   UNL     1       0.023  -4.721 -15.295  1.00  0.00     0.049 A 
ATOM     60  C   UNL     1      -3.508  -0.538 -14.076  1.00  0.00     0.074 A 
ATOM     61  C   UNL     1       0.324  -4.905 -16.634  1.00  0.00     0.029 A 
ATOM     62  N   UNL     1      -0.832  -3.628 -15.229  1.00  0.00    -0.354 N 
ATOM     63  N   UNL     1      -2.696  -1.474 -14.513  1.00  0.00    -0.248 NA
ATOM     64  C   UNL     1      -3.992   0.372 -15.121  1.00  0.00     0.031 C 
ATOM     65  C   UNL     1      -0.280  -3.877 -17.366  1.00  0.00     0.029 A 
ATOM     66  C   UNL     1      -1.034  -3.104 -16.497  1.00  0.00     0.049 A 
ATOM     67  H   UNL     1      -1.236  -3.277 -14.403  1.00  0.00     0.167 HD
ATOM     68  C   UNL     1      -2.602  -1.282 -15.889  1.00  0.00     0.074 A 
ATOM     69  C   UNL     1      -3.454  -0.156 -16.210  1.00  0.00     0.031 C 
ATOM     70  C   UNL     1      -1.880  -1.976 -16.806  1.00  0.00     0.034 A 
BRANCH  57  71
ATOM     71  C   UNL     1       1.537  -6.545 -14.391  1.00  0.00     0.023 A 
ATOM     72  C   UNL     1       1.288  -7.904 -14.134  1.00  0.00     0.031 A 
ATOM     73  C   UNL     1       2.805  -6.192 -14.889  1.00  0.00     0.131 A 
ATOM     74  C   UNL     1       2.309  -8.850 -14.318  1.00  0.00     0.055 A 
ATOM     75  C   UNL     1       3.790  -7.148 -15.145  1.00  0.00     0.041 A 
ATOM     76  F   UNL     1       3.110  -4.908 -15.135  1.00  0.00    -0.206 F 
ATOM     77  C   UNL     1       3.549  -8.486 -14.847  1.00  0.00     0.022 A 
BRANCH  74  78
ATOM     78  S   UNL     1       2.035 -10.547 -13.736  1.00  0.00     0.124 S 
ATOM     79  O   UNL     1       1.774 -10.332 -12.315  1.00  0.00    -0.237 OA
ATOM     80  O   UNL     1       0.896 -10.975 -14.538  1.00  0.00    -0.237 OA
ATOM     81  O   UNL     1       3.298 -11.220 -14.035  1.00  0.00    -0.744 OA
ENDBRANCH  74  78
ENDBRANCH  57  71
BRANCH  58  82
ATOM     82  C   UNL     1      -4.883   0.878 -12.373  1.00  0.00     0.023 A 
ATOM     83  C   UNL     1      -6.156   0.998 -12.954  1.00  0.00     0.031 A 
ATOM     84  C   UNL     1      -4.437   1.928 -11.550  1.00  0.00     0.131 A 
ATOM     85  C   UNL     1      -6.910   2.166 -12.757  1.00  0.00     0.055 A 
ATOM     86  C   UNL     1      -5.218   3.059 -11.303  1.00  0.00     0.041 A 
ATOM     87  F   UNL     1      -3.229   1.868 -10.966  1.00  0.00    -0.206 F 
ATOM     88  C   UNL     1      -6.456   3.190 -11.923  1.00  0.00     0.022 A 
BRANCH  85  89
ATOM     89  S   UNL     1      -8.444   2.379 -13.702  1.00  0.00     0.124 S 
ATOM     90  O   UNL     1      -7.971   2.227 -15.073  1.00  0.00    -0.237 OA
ATOM     91  O   UNL     1      -9.270   1.294 -13.184  1.00  0.00    -0.237 OA
ATOM     92  O   UNL     1      -8.884   3.724 -13.338  1.00  0.00    -0.744 OA
ENDBRANCH  85  89
ENDBRANCH  58  82
BRANCH  70  93
ATOM     93  C   UNL     1      -2.025  -1.564 -18.252  1.00  0.00     0.023 A 
ATOM     94  C   UNL     1      -1.587  -0.311 -18.716  1.00  0.00     0.031 A 
ATOM     95  C   UNL     1      -2.621  -2.439 -19.178  1.00  0.00     0.131 A 
ATOM     96  C   UNL     1      -1.806   0.055 -20.053  1.00  0.00     0.055 A 
ATOM     97  C   UNL     1      -2.774  -2.096 -20.522  1.00  0.00     0.041 A 
ATOM     98  F   UNL     1      -3.062  -3.647 -18.791  1.00  0.00    -0.206 F 
ATOM     99  C   UNL     1      -2.379  -0.837 -20.963  1.00  0.00     0.022 A 
BRANCH  96 100
ATOM    100  S   UNL     1      -1.422   1.752 -20.566  1.00  0.00     0.124 S 
ATOM    101  O   UNL     1      -2.255   2.537 -19.661  1.00  0.00    -0.237 OA
ATOM    102  O   UNL     1       0.017   1.830 -20.337  1.00  0.00    -0.237 OA
ATOM    103  O   UNL     1      -1.828   1.786 -21.970  1.00  0.00    -0.744 OA
ENDBRANCH  96 100
ENDBRANCH  70  93
ENDBRANCH  44  45
ENDBRANCH  36  39
ENDBRANCH  34  35
ENDBRANCH  33  34
ENDBRANCH   1  33
TORSDOF 20
