REMARK SMILES CCC(CC)NC(=O)N[C@@H]1C=C[C@@H](C(=O)NCCCNC(=O)c2ccc(-c3c4nc(c(-c5cc(S(=O)(=O)[O-])ccc5F)c5ccc([nH]5)c(-c5cc(S(=O)(=O)[O-])ccc5F)c5nc(c(-c6cc(S(=O)(=O)[O-])ccc6F)c6ccc3[nH]6)C=C5)C=C4)cc2)C1
REMARK SMILES IDX 18 1 17 2 16 3 14 4 15 5 13 7 10 8 11 9 86 10 12 11 9 12
REMARK SMILES IDX 6 13 7 14 8 16 3 18 2 19 1 20 4 21 5 22 19 23 20 24 21 25
REMARK SMILES IDX 22 27 23 28 24 29 85 30 25 31 84 32 26 33 27 34 28 35 78 36
REMARK SMILES IDX 29 37 83 38 77 39 79 40 30 41 82 42 76 43 75 44 31 46 63 47
REMARK SMILES IDX 43 48 62 49 44 50 47 51 61 52 80 53 45 54 46 55 60 57 81 58
REMARK SMILES IDX 48 59 32 60 33 61 41 62 34 63 40 64 42 65 39 66 35 67 36 68
REMARK SMILES IDX 37 69 38 70 64 71 65 72 73 73 66 74 72 75 74 76 71 77 67 78
REMARK SMILES IDX 68 79 69 80 70 81 49 82 50 83 58 84 51 85 57 86 59 87 56 88
REMARK SMILES IDX 52 89 53 90 54 91 55 92
REMARK H PARENT 16 6 6 15 9 17 20 26 79 45 47 56
REMARK Flexibility Score: inf
ROOT
ATOM      1  C   UNL     1       2.832  -2.704   6.261  1.00  0.00     0.042 C 
ENDROOT
BRANCH   1   2
ATOM      2  C   UNL     1       2.734  -1.283   5.713  1.00  0.00     0.117 C 
BRANCH   2   3
ATOM      3  N   UNL     1       3.978  -0.544   5.829  1.00  0.00    -0.356 N 
ATOM      4  C   UNL     1       4.818  -0.032   4.889  1.00  0.00     0.227 C 
ATOM      5  O   UNL     1       5.748   0.671   5.299  1.00  0.00    -0.274 OA
ATOM      6  H   UNL     1       4.267  -0.385   6.756  1.00  0.00     0.163 HD
BRANCH   4   7
ATOM      7  C   UNL     1       4.669  -0.292   3.386  1.00  0.00     0.103 C 
ATOM      8  C   UNL     1       3.397  -2.040   2.192  1.00  0.00     0.107 C 
ATOM      9  C   UNL     1       2.756  -0.690   2.086  1.00  0.00    -0.006 C 
ATOM     10  C   UNL     1       4.685  -1.770   2.990  1.00  0.00     0.047 C 
ATOM     11  C   UNL     1       3.424   0.250   2.763  1.00  0.00    -0.016 C 
BRANCH   8  12
ATOM     12  N   UNL     1       3.656  -2.538   0.865  1.00  0.00    -0.332 N 
ATOM     13  N   UNL     1       4.134  -4.843   1.131  1.00  0.00    -0.335 N 
ATOM     14  C   UNL     1       3.955  -3.749   0.381  1.00  0.00     0.315 C 
ATOM     15  H   UNL     1       4.277  -5.651   0.586  1.00  0.00     0.165 HD
ATOM     16  O   UNL     1       4.072  -3.863  -0.842  1.00  0.00    -0.249 OA
ATOM     17  H   UNL     1       3.603  -1.842   0.170  1.00  0.00     0.165 HD
BRANCH  13  18
ATOM     18  C   UNL     1       4.169  -5.128   2.564  1.00  0.00     0.083 C 
BRANCH  18  19
ATOM     19  C   UNL     1       3.125  -6.199   2.913  1.00  0.00     0.021 C 
ATOM     20  C   UNL     1       2.874  -6.300   4.410  1.00  0.00     0.006 C 
ENDBRANCH  18  19
BRANCH  18  21
ATOM     21  C   UNL     1       5.609  -5.436   3.015  1.00  0.00     0.021 C 
ATOM     22  C   UNL     1       6.144  -6.796   2.589  1.00  0.00     0.006 C 
ENDBRANCH  18  21
ENDBRANCH  13  18
ENDBRANCH   8  12
ENDBRANCH   4   7
ENDBRANCH   2   3
ENDBRANCH   1   2
BRANCH   1  23
ATOM     23  C   UNL     1       3.036  -2.797   7.772  1.00  0.00     0.118 C 
BRANCH  23  24
ATOM     24  N   UNL     1       1.908  -2.267   8.521  1.00  0.00    -0.352 N 
ATOM     25  C   UNL     1       1.059  -2.862   9.420  1.00  0.00     0.251 C 
ATOM     26  H   UNL     1       1.721  -1.315   8.354  1.00  0.00     0.163 HD
ATOM     27  O   UNL     1       0.050  -2.242   9.761  1.00  0.00    -0.269 OA
BRANCH  25  28
ATOM     28  C   UNL     1       1.311  -4.216   9.968  1.00  0.00     0.039 A 
ATOM     29  C   UNL     1       0.211  -5.039  10.238  1.00  0.00     0.014 A 
ATOM     30  C   UNL     1       2.596  -4.666  10.286  1.00  0.00     0.014 A 
ATOM     31  C   UNL     1       0.402  -6.317  10.773  1.00  0.00     0.010 A 
ATOM     32  C   UNL     1       2.791  -5.970  10.748  1.00  0.00     0.010 A 
ATOM     33  C   UNL     1       1.696  -6.808  11.006  1.00  0.00    -0.014 A 
BRANCH  33  34
ATOM     34  C   UNL     1       1.904  -8.192  11.514  1.00  0.00     0.031 A 
ATOM     35  C   UNL     1       2.533  -8.433  12.861  1.00  0.00     0.074 A 
ATOM     36  C   UNL     1       1.566  -9.241  10.738  1.00  0.00     0.049 A 
ATOM     37  N   UNL     1       2.799  -9.566  13.462  1.00  0.00    -0.248 NA
ATOM     38  C   UNL     1       2.947  -7.243  13.617  1.00  0.00     0.031 C 
ATOM     39  C   UNL     1       1.008  -9.143   9.387  1.00  0.00     0.029 A 
ATOM     40  N   UNL     1       1.645 -10.591  10.967  1.00  0.00    -0.354 N 
ATOM     41  C   UNL     1       3.424  -9.227  14.658  1.00  0.00     0.074 A 
ATOM     42  C   UNL     1       3.554  -7.785  14.662  1.00  0.00     0.031 C 
ATOM     43  C   UNL     1       0.770 -10.379   8.920  1.00  0.00     0.029 A 
ATOM     44  C   UNL     1       1.188 -11.357   9.920  1.00  0.00     0.049 A 
ATOM     45  H   UNL     1       1.996 -10.976  11.802  1.00  0.00     0.167 HD
ATOM     46  C   UNL     1       3.830 -10.039  15.668  1.00  0.00     0.034 A 
ATOM     47  C   UNL     1       1.111 -12.694   9.776  1.00  0.00     0.034 A 
ATOM     48  C   UNL     1       3.683 -11.476  15.653  1.00  0.00     0.049 A 
ATOM     49  C   UNL     1       1.544 -13.578  10.915  1.00  0.00     0.074 A 
ATOM     50  C   UNL     1       3.994 -12.387  16.649  1.00  0.00     0.029 A 
ATOM     51  N   UNL     1       3.193 -12.216  14.584  1.00  0.00    -0.354 N 
ATOM     52  N   UNL     1       2.066 -13.239  12.071  1.00  0.00    -0.248 NA
ATOM     53  C   UNL     1       1.358 -15.023  10.736  1.00  0.00     0.031 C 
ATOM     54  C   UNL     1       3.755 -13.677  16.158  1.00  0.00     0.029 A 
ATOM     55  C   UNL     1       3.222 -13.571  14.884  1.00  0.00     0.049 A 
ATOM     56  H   UNL     1       2.872 -11.834  13.735  1.00  0.00     0.167 HD
ATOM     57  C   UNL     1       2.247 -14.430  12.768  1.00  0.00     0.074 A 
ATOM     58  C   UNL     1       1.764 -15.491  11.907  1.00  0.00     0.031 C 
ATOM     59  C   UNL     1       2.759 -14.626  14.011  1.00  0.00     0.034 A 
BRANCH  46  60
ATOM     60  C   UNL     1       4.497  -9.383  16.858  1.00  0.00     0.023 A 
ATOM     61  C   UNL     1       3.825  -8.435  17.652  1.00  0.00     0.031 A 
ATOM     62  C   UNL     1       5.836  -9.671  17.177  1.00  0.00     0.131 A 
ATOM     63  C   UNL     1       4.518  -7.742  18.656  1.00  0.00     0.055 A 
ATOM     64  C   UNL     1       6.494  -9.043  18.237  1.00  0.00     0.041 A 
ATOM     65  F   UNL     1       6.538 -10.553  16.448  1.00  0.00    -0.206 F 
ATOM     66  C   UNL     1       5.841  -8.056  18.971  1.00  0.00     0.022 A 
BRANCH  63  67
ATOM     67  S   UNL     1       3.720  -6.303  19.421  1.00  0.00     0.124 S 
ATOM     68  O   UNL     1       3.420  -5.477  18.253  1.00  0.00    -0.237 OA
ATOM     69  O   UNL     1       2.572  -6.900  20.093  1.00  0.00    -0.237 OA
ATOM     70  O   UNL     1       4.753  -5.766  20.304  1.00  0.00    -0.744 OA
ENDBRANCH  63  67
ENDBRANCH  46  60
BRANCH  47  71
ATOM     71  C   UNL     1       0.592 -13.275   8.507  1.00  0.00     0.023 A 
ATOM     72  C   UNL     1      -0.642 -13.943   8.466  1.00  0.00     0.031 A 
ATOM     73  C   UNL     1       1.327 -13.167   7.314  1.00  0.00     0.131 A 
ATOM     74  C   UNL     1      -1.091 -14.504   7.261  1.00  0.00     0.055 A 
ATOM     75  C   UNL     1       0.857 -13.691   6.109  1.00  0.00     0.041 A 
ATOM     76  F   UNL     1       2.506 -12.525   7.300  1.00  0.00    -0.206 F 
ATOM     77  C   UNL     1      -0.356 -14.372   6.080  1.00  0.00     0.022 A 
BRANCH  74  78
ATOM     78  S   UNL     1      -2.638 -15.451   7.266  1.00  0.00     0.124 S 
ATOM     79  O   UNL     1      -2.326 -16.526   8.200  1.00  0.00    -0.237 OA
ATOM     80  O   UNL     1      -3.600 -14.457   7.729  1.00  0.00    -0.237 OA
ATOM     81  O   UNL     1      -2.791 -15.859   5.871  1.00  0.00    -0.744 OA
ENDBRANCH  74  78
ENDBRANCH  47  71
BRANCH  59  82
ATOM     82  C   UNL     1       2.785 -16.046  14.523  1.00  0.00     0.023 A 
ATOM     83  C   UNL     1       3.604 -17.029  13.940  1.00  0.00     0.031 A 
ATOM     84  C   UNL     1       1.959 -16.425  15.596  1.00  0.00     0.131 A 
ATOM     85  C   UNL     1       3.535 -18.356  14.393  1.00  0.00     0.055 A 
ATOM     86  C   UNL     1       1.938 -17.734  16.081  1.00  0.00     0.041 A 
ATOM     87  F   UNL     1       1.155 -15.529  16.189  1.00  0.00    -0.206 F 
ATOM     88  C   UNL     1       2.718 -18.711  15.469  1.00  0.00     0.022 A 
BRANCH  85  89
ATOM     89  S   UNL     1       4.450 -19.635  13.489  1.00  0.00     0.124 S 
ATOM     90  O   UNL     1       3.921 -19.489  12.136  1.00  0.00    -0.237 OA
ATOM     91  O   UNL     1       5.836 -19.219  13.679  1.00  0.00    -0.237 OA
ATOM     92  O   UNL     1       4.076 -20.872  14.171  1.00  0.00    -0.744 OA
ENDBRANCH  85  89
ENDBRANCH  59  82
ENDBRANCH  33  34
ENDBRANCH  25  28
ENDBRANCH  23  24
ENDBRANCH   1  23
TORSDOF 17
