REMARK SMILES CC[C@H]1CC[C@](C(=O)NCCCNC(=O)c2ccc(-c3c4nc(c(-c5cc(S(=O)(=O)[O-])ccc5F)c5ccc([nH]5)c(-c5cc(S(=O)(=O)[O-])ccc5F)c5nc(c(-c6cc(S(=O)(=O)[O-])ccc6F)c6ccc3[nH]6)C=C5)C=C4)cc2)([C@H]2CCC[C@@H](S(C)(=O)=O)C2)CC1
REMARK SMILES IDX 11 1 10 2 9 3 7 4 8 5 6 7 3 8 90 9 4 10 89 11 5 12 2 13 1 14
REMARK SMILES IDX 79 15 80 16 88 17 81 18 83 19 82 20 84 21 85 22 86 23 87 24
REMARK SMILES IDX 12 25 13 26 14 27 15 29 16 30 17 31 78 32 18 33 77 34 19 35
REMARK SMILES IDX 20 36 21 37 71 38 22 39 76 40 70 41 72 42 23 43 75 44 69 45
REMARK SMILES IDX 68 46 24 48 56 49 36 50 55 51 37 52 40 53 54 54 73 55 38 56
REMARK SMILES IDX 39 57 53 59 74 60 41 61 25 62 26 63 34 64 27 65 33 66 35 67
REMARK SMILES IDX 32 68 28 69 29 70 30 71 31 72 57 73 58 74 66 75 59 76 65 77
REMARK SMILES IDX 67 78 64 79 60 80 61 81 62 82 63 83 42 84 43 85 51 86 44 87
REMARK SMILES IDX 50 88 52 89 49 90 45 91 46 92 47 93 48 94
REMARK H PARENT 9 6 13 28 72 47 40 58
REMARK Flexibility Score: inf
ROOT
ATOM      1  C   UNL     1      -0.754  10.634   2.220  1.00  0.00     0.042 C 
ENDROOT
BRANCH   1   2
ATOM      2  C   UNL     1       0.398   9.677   2.023  1.00  0.00     0.117 C 
BRANCH   2   3
ATOM      3  N   UNL     1       0.556   8.789   3.154  1.00  0.00    -0.356 N 
ATOM      4  C   UNL     1       1.317   7.675   2.987  1.00  0.00     0.226 C 
ATOM      5  O   UNL     1       2.537   7.769   3.101  1.00  0.00    -0.274 OA
ATOM      6  H   UNL     1       0.127   8.986   4.018  1.00  0.00     0.163 HD
BRANCH   4   7
ATOM      7  C   UNL     1       0.620   6.347   2.663  1.00  0.00     0.052 C 
ATOM      8  C   UNL     1      -0.517   6.863  -0.163  1.00  0.00    -0.011 C 
ATOM      9  C   UNL     1       0.985   6.719   0.141  1.00  0.00     0.005 C 
ATOM     10  C   UNL     1      -1.405   6.998   1.083  1.00  0.00     0.005 C 
ATOM     11  C   UNL     1       1.300   5.835   1.363  1.00  0.00     0.017 C 
ATOM     12  C   UNL     1      -0.905   6.354   2.366  1.00  0.00     0.017 C 
BRANCH   8  13
ATOM     13  C   UNL     1      -0.895   8.015  -1.138  1.00  0.00    -0.000 C 
ATOM     14  C   UNL     1       0.139   8.403  -2.179  1.00  0.00     0.004 C 
ENDBRANCH   8  13
BRANCH   7  15
ATOM     15  C   UNL     1       0.845   5.360   3.901  1.00  0.00     0.006 C 
ATOM     16  C   UNL     1       2.282   4.993   4.311  1.00  0.00     0.005 C 
ATOM     17  C   UNL     1      -0.014   5.608   5.171  1.00  0.00     0.024 C 
ATOM     18  C   UNL     1       2.929   5.836   5.406  1.00  0.00     0.002 C 
ATOM     19  C   UNL     1       0.565   6.400   6.346  1.00  0.00     0.108 C 
ATOM     20  C   UNL     1       2.055   6.179   6.607  1.00  0.00     0.020 C 
BRANCH  19  21
ATOM     21  S   UNL     1       0.088   8.136   6.535  1.00  0.00     0.150 S 
ATOM     22  C   UNL     1      -1.541   8.318   5.844  1.00  0.00     0.158 C 
ATOM     23  O   UNL     1      -0.057   8.374   7.960  1.00  0.00    -0.229 OA
ATOM     24  O   UNL     1       0.981   8.979   5.760  1.00  0.00    -0.229 OA
ENDBRANCH  19  21
ENDBRANCH   7  15
ENDBRANCH   4   7
ENDBRANCH   2   3
ENDBRANCH   1   2
BRANCH   1  25
ATOM     25  C   UNL     1      -0.281  11.873   2.955  1.00  0.00     0.118 C 
BRANCH  25  26
ATOM     26  N   UNL     1       0.547  12.703   2.086  1.00  0.00    -0.352 N 
ATOM     27  C   UNL     1       0.198  13.733   1.246  1.00  0.00     0.251 C 
ATOM     28  H   UNL     1       1.508  12.492   2.104  1.00  0.00     0.163 HD
ATOM     29  O   UNL     1       0.956  14.037   0.329  1.00  0.00    -0.269 OA
BRANCH  27  30
ATOM     30  C   UNL     1      -1.073  14.467   1.439  1.00  0.00     0.039 A 
ATOM     31  C   UNL     1      -1.700  15.066   0.343  1.00  0.00     0.014 A 
ATOM     32  C   UNL     1      -1.609  14.641   2.715  1.00  0.00     0.014 A 
ATOM     33  C   UNL     1      -2.861  15.822   0.534  1.00  0.00     0.010 A 
ATOM     34  C   UNL     1      -2.838  15.256   2.884  1.00  0.00     0.010 A 
ATOM     35  C   UNL     1      -3.444  15.914   1.808  1.00  0.00    -0.014 A 
BRANCH  35  36
ATOM     36  C   UNL     1      -4.605  16.796   2.087  1.00  0.00     0.031 A 
ATOM     37  C   UNL     1      -4.452  17.907   3.100  1.00  0.00     0.074 A 
ATOM     38  C   UNL     1      -5.792  16.563   1.498  1.00  0.00     0.049 A 
ATOM     39  N   UNL     1      -5.359  18.699   3.611  1.00  0.00    -0.248 NA
ATOM     40  C   UNL     1      -3.105  18.110   3.658  1.00  0.00     0.031 C 
ATOM     41  C   UNL     1      -6.069  15.488   0.542  1.00  0.00     0.029 A 
ATOM     42  N   UNL     1      -6.992  17.213   1.623  1.00  0.00    -0.354 N 
ATOM     43  C   UNL     1      -4.699  19.454   4.578  1.00  0.00     0.074 A 
ATOM     44  C   UNL     1      -3.342  18.963   4.640  1.00  0.00     0.031 C 
ATOM     45  C   UNL     1      -7.347  15.578   0.140  1.00  0.00     0.029 A 
ATOM     46  C   UNL     1      -7.990  16.684   0.839  1.00  0.00     0.049 A 
ATOM     47  H   UNL     1      -7.126  17.986   2.217  1.00  0.00     0.167 HD
ATOM     48  C   UNL     1      -5.171  20.488   5.319  1.00  0.00     0.034 A 
ATOM     49  C   UNL     1      -9.278  17.057   0.705  1.00  0.00     0.034 A 
ATOM     50  C   UNL     1      -6.512  20.998   5.191  1.00  0.00     0.049 A 
ATOM     51  C   UNL     1      -9.769  18.243   1.495  1.00  0.00     0.074 A 
ATOM     52  C   UNL     1      -7.096  22.072   5.840  1.00  0.00     0.029 A 
ATOM     53  N   UNL     1      -7.477  20.476   4.338  1.00  0.00    -0.354 N 
ATOM     54  N   UNL     1      -9.127  18.968   2.384  1.00  0.00    -0.248 NA
ATOM     55  C   UNL     1     -11.148  18.676   1.246  1.00  0.00     0.031 C 
ATOM     56  C   UNL     1      -8.426  22.169   5.413  1.00  0.00     0.029 A 
ATOM     57  C   UNL     1      -8.652  21.200   4.447  1.00  0.00     0.049 A 
ATOM     58  H   UNL     1      -7.344  19.703   3.743  1.00  0.00     0.167 HD
ATOM     59  C   UNL     1     -10.015  19.968   2.770  1.00  0.00     0.074 A 
ATOM     60  C   UNL     1     -11.229  19.757   2.007  1.00  0.00     0.031 C 
ATOM     61  C   UNL     1      -9.846  20.972   3.669  1.00  0.00     0.034 A 
BRANCH  48  62
ATOM     62  C   UNL     1      -4.229  21.112   6.325  1.00  0.00     0.023 A 
ATOM     63  C   UNL     1      -3.015  21.708   5.933  1.00  0.00     0.031 A 
ATOM     64  C   UNL     1      -4.517  21.063   7.700  1.00  0.00     0.131 A 
ATOM     65  C   UNL     1      -2.096  22.136   6.903  1.00  0.00     0.055 A 
ATOM     66  C   UNL     1      -3.639  21.579   8.657  1.00  0.00     0.041 A 
ATOM     67  F   UNL     1      -5.648  20.491   8.142  1.00  0.00    -0.206 F 
ATOM     68  C   UNL     1      -2.411  22.101   8.262  1.00  0.00     0.022 A 
BRANCH  65  69
ATOM     69  S   UNL     1      -0.421  22.582   6.368  1.00  0.00     0.124 S 
ATOM     70  O   UNL     1       0.035  21.333   5.761  1.00  0.00    -0.237 OA
ATOM     71  O   UNL     1      -0.666  23.687   5.448  1.00  0.00    -0.237 OA
ATOM     72  O   UNL     1       0.252  22.944   7.614  1.00  0.00    -0.744 OA
ENDBRANCH  65  69
ENDBRANCH  48  62
BRANCH  49  73
ATOM     73  C   UNL     1     -10.181  16.326  -0.229  1.00  0.00     0.023 A 
ATOM     74  C   UNL     1     -10.700  16.958  -1.370  1.00  0.00     0.031 A 
ATOM     75  C   UNL     1     -10.562  14.996   0.018  1.00  0.00     0.131 A 
ATOM     76  C   UNL     1     -11.609  16.279  -2.195  1.00  0.00     0.055 A 
ATOM     77  C   UNL     1     -11.427  14.307  -0.834  1.00  0.00     0.041 A 
ATOM     78  F   UNL     1     -10.084  14.340   1.088  1.00  0.00    -0.206 F 
ATOM     79  C   UNL     1     -11.967  14.954  -1.941  1.00  0.00     0.022 A 
BRANCH  76  80
ATOM     80  S   UNL     1     -12.381  17.184  -3.564  1.00  0.00     0.124 S 
ATOM     81  O   UNL     1     -13.005  18.303  -2.867  1.00  0.00    -0.237 OA
ATOM     82  O   UNL     1     -11.229  17.509  -4.399  1.00  0.00    -0.237 OA
ATOM     83  O   UNL     1     -13.307  16.209  -4.136  1.00  0.00    -0.744 OA
ENDBRANCH  76  80
ENDBRANCH  49  73
BRANCH  61  84
ATOM     84  C   UNL     1     -10.983  21.950   3.818  1.00  0.00     0.023 A 
ATOM     85  C   UNL     1     -12.222  21.570   4.359  1.00  0.00     0.031 A 
ATOM     86  C   UNL     1     -10.824  23.281   3.393  1.00  0.00     0.131 A 
ATOM     87  C   UNL     1     -13.276  22.493   4.402  1.00  0.00     0.055 A 
ATOM     88  C   UNL     1     -11.857  24.212   3.496  1.00  0.00     0.041 A 
ATOM     89  F   UNL     1      -9.659  23.697   2.869  1.00  0.00    -0.206 F 
ATOM     90  C   UNL     1     -13.097  23.816   3.989  1.00  0.00     0.022 A 
BRANCH  87  91
ATOM     91  S   UNL     1     -14.918  21.913   4.907  1.00  0.00     0.124 S 
ATOM     92  O   UNL     1     -15.163  20.830   3.959  1.00  0.00    -0.237 OA
ATOM     93  O   UNL     1     -14.694  21.509   6.291  1.00  0.00    -0.237 OA
ATOM     94  O   UNL     1     -15.766  23.091   4.735  1.00  0.00    -0.744 OA
ENDBRANCH  87  91
ENDBRANCH  61  84
ENDBRANCH  35  36
ENDBRANCH  27  30
ENDBRANCH  25  26
ENDBRANCH   1  25
TORSDOF 16
