REMARK SMILES Cc1ccccc1CN1C(=O)[C@H](CC(=O)NCCCNC(=O)c2ccc(-c3c4nc(c(-c5cc(S(=O)(=O)[O-])ccc5F)c5ccc([nH]5)c(-c5cc(S(=O)(=O)[O-])ccc5F)c5nc(c(-c6cc(S(=O)(=O)[O-])ccc6F)c6ccc3[nH]6)C=C5)C=C4)cc2)n2c(nc3ccccc32)[C@H]1C
REMARK SMILES IDX 18 1 17 2 16 3 14 4 15 5 13 7 12 8 9 9 10 10 95 11 11 12
REMARK SMILES IDX 87 13 96 14 86 15 88 16 94 17 89 18 93 19 90 20 92 21 91 22
REMARK SMILES IDX 8 23 7 24 1 25 2 26 3 27 4 28 6 29 5 30 19 31 20 32 21 33
REMARK SMILES IDX 22 35 23 36 24 37 85 38 25 39 84 40 26 41 27 42 28 43 78 44
REMARK SMILES IDX 29 45 83 46 77 47 79 48 30 49 82 50 76 51 75 52 31 54 63 55
REMARK SMILES IDX 43 56 62 57 44 58 47 59 61 60 80 61 45 62 46 63 60 65 81 66
REMARK SMILES IDX 48 67 32 68 33 69 41 70 34 71 40 72 42 73 39 74 35 75 36 76
REMARK SMILES IDX 37 77 38 78 64 79 65 80 73 81 66 82 72 83 74 84 71 85 67 86
REMARK SMILES IDX 68 87 69 88 70 89 49 90 50 91 58 92 51 93 57 94 59 95 56 96
REMARK SMILES IDX 52 97 53 98 54 99 55 100
REMARK H PARENT 16 6 20 34 79 53 47 64
REMARK Flexibility Score: inf
ROOT
ATOM      1  C   UNL     1       4.224   4.681  -1.068  1.00  0.00     0.042 C 
ENDROOT
BRANCH   1   2
ATOM      2  C   UNL     1       4.291   5.196  -2.516  1.00  0.00     0.117 C 
BRANCH   2   3
ATOM      3  N   UNL     1       4.436   4.088  -3.452  1.00  0.00    -0.356 N 
ATOM      4  C   UNL     1       3.501   3.392  -4.156  1.00  0.00     0.222 C 
ATOM      5  O   UNL     1       3.823   2.306  -4.642  1.00  0.00    -0.275 OA
ATOM      6  H   UNL     1       5.363   3.794  -3.599  1.00  0.00     0.163 HD
BRANCH   4   7
ATOM      7  C   UNL     1       2.086   3.900  -4.343  1.00  0.00     0.135 C 
BRANCH   7   8
ATOM      8  C   UNL     1       1.111   3.026  -3.544  1.00  0.00     0.187 C 
ATOM      9  N   UNL     1       0.090   2.914  -1.337  1.00  0.00    -0.327 N 
ATOM     10  C   UNL     1       1.089   3.507  -2.093  1.00  0.00     0.247 C 
ATOM     11  C   UNL     1      -1.171   3.558  -1.714  1.00  0.00     0.149 C 
ATOM     12  O   UNL     1       1.658   4.500  -1.662  1.00  0.00    -0.272 OA
ATOM     13  C   UNL     1      -1.358   3.291  -3.192  1.00  0.00     0.133 A 
ATOM     14  C   UNL     1      -2.423   3.234  -0.922  1.00  0.00     0.040 C 
ATOM     15  N   UNL     1      -0.275   3.041  -4.025  1.00  0.00    -0.313 N 
ATOM     16  N   UNL     1      -2.488   3.272  -3.864  1.00  0.00    -0.231 NA
ATOM     17  C   UNL     1      -0.771   2.678  -5.253  1.00  0.00     0.069 A 
ATOM     18  C   UNL     1      -2.147   2.876  -5.130  1.00  0.00     0.089 A 
ATOM     19  C   UNL     1      -0.190   2.206  -6.437  1.00  0.00     0.028 A 
ATOM     20  C   UNL     1      -2.987   2.645  -6.228  1.00  0.00     0.030 A 
ATOM     21  C   UNL     1      -1.048   1.978  -7.522  1.00  0.00     0.002 A 
ATOM     22  C   UNL     1      -2.423   2.200  -7.426  1.00  0.00     0.002 A 
BRANCH   9  23
ATOM     23  C   UNL     1       0.422   2.506   0.032  1.00  0.00     0.156 C 
BRANCH  23  24
ATOM     24  C   UNL     1       0.087   1.040   0.248  1.00  0.00    -0.026 A 
ATOM     25  C   UNL     1       2.436   0.102  -0.299  1.00  0.00     0.044 C 
ATOM     26  C   UNL     1       0.954  -0.031  -0.059  1.00  0.00    -0.046 A 
ATOM     27  C   UNL     1       0.439  -1.345  -0.080  1.00  0.00     0.004 A 
ATOM     28  C   UNL     1      -0.895  -1.606   0.221  1.00  0.00     0.000 A 
ATOM     29  C   UNL     1      -1.218   0.729   0.673  1.00  0.00     0.006 A 
ATOM     30  C   UNL     1      -1.718  -0.570   0.629  1.00  0.00     0.000 A 
ENDBRANCH  23  24
ENDBRANCH   9  23
ENDBRANCH   7   8
ENDBRANCH   4   7
ENDBRANCH   2   3
ENDBRANCH   1   2
BRANCH   1  31
ATOM     31  C   UNL     1       5.561   4.684  -0.340  1.00  0.00     0.118 C 
BRANCH  31  32
ATOM     32  N   UNL     1       5.865   6.020   0.140  1.00  0.00    -0.352 N 
ATOM     33  C   UNL     1       6.888   6.462   0.938  1.00  0.00     0.251 C 
ATOM     34  H   UNL     1       5.238   6.719  -0.154  1.00  0.00     0.163 HD
ATOM     35  O   UNL     1       6.571   7.296   1.792  1.00  0.00    -0.269 OA
BRANCH  33  36
ATOM     36  C   UNL     1       8.329   6.089   0.770  1.00  0.00     0.039 A 
ATOM     37  C   UNL     1       9.241   6.775   1.591  1.00  0.00     0.014 A 
ATOM     38  C   UNL     1       8.857   5.192  -0.160  1.00  0.00     0.014 A 
ATOM     39  C   UNL     1      10.627   6.559   1.493  1.00  0.00     0.010 A 
ATOM     40  C   UNL     1      10.251   4.974  -0.257  1.00  0.00     0.010 A 
ATOM     41  C   UNL     1      11.159   5.636   0.576  1.00  0.00    -0.014 A 
BRANCH  41  42
ATOM     42  C   UNL     1      12.537   5.119   0.872  1.00  0.00     0.031 A 
ATOM     43  C   UNL     1      12.339   3.811   1.657  1.00  0.00     0.074 A 
ATOM     44  C   UNL     1      13.698   5.102   0.130  1.00  0.00     0.049 A 
ATOM     45  N   UNL     1      11.878   2.753   1.060  1.00  0.00    -0.248 NA
ATOM     46  C   UNL     1      12.342   3.622   3.115  1.00  0.00     0.031 C 
ATOM     47  C   UNL     1      15.008   5.154   0.803  1.00  0.00     0.029 A 
ATOM     48  N   UNL     1      14.076   5.112  -1.239  1.00  0.00    -0.354 N 
ATOM     49  C   UNL     1      11.947   1.681   1.943  1.00  0.00     0.074 A 
ATOM     50  C   UNL     1      12.043   2.306   3.243  1.00  0.00     0.031 C 
ATOM     51  C   UNL     1      16.016   5.028  -0.088  1.00  0.00     0.029 A 
ATOM     52  C   UNL     1      15.475   4.792  -1.424  1.00  0.00     0.049 A 
ATOM     53  H   UNL     1      13.457   5.314  -1.977  1.00  0.00     0.167 HD
ATOM     54  C   UNL     1      12.219   0.428   1.439  1.00  0.00     0.034 A 
ATOM     55  C   UNL     1      16.171   4.129  -2.429  1.00  0.00     0.034 A 
ATOM     56  C   UNL     1      12.774   0.637   0.133  1.00  0.00     0.049 A 
ATOM     57  C   UNL     1      15.271   3.593  -3.524  1.00  0.00     0.074 A 
ATOM     58  C   UNL     1      14.026   1.165  -0.008  1.00  0.00     0.029 A 
ATOM     59  N   UNL     1      12.136   0.606  -1.094  1.00  0.00    -0.354 N 
ATOM     60  N   UNL     1      14.829   2.371  -3.505  1.00  0.00    -0.248 NA
ATOM     61  C   UNL     1      14.625   4.370  -4.582  1.00  0.00     0.031 C 
ATOM     62  C   UNL     1      13.860   1.903  -1.144  1.00  0.00     0.029 A 
ATOM     63  C   UNL     1      12.835   1.449  -1.947  1.00  0.00     0.049 A 
ATOM     64  H   UNL     1      11.333   0.083  -1.320  1.00  0.00     0.167 HD
ATOM     65  C   UNL     1      13.540   2.445  -3.981  1.00  0.00     0.074 A 
ATOM     66  C   UNL     1      13.591   3.566  -4.904  1.00  0.00     0.031 C 
ATOM     67  C   UNL     1      12.473   1.892  -3.296  1.00  0.00     0.034 A 
BRANCH  54  68
ATOM     68  C   UNL     1      12.603  -0.903   2.034  1.00  0.00     0.023 A 
ATOM     69  C   UNL     1      13.539  -1.689   1.292  1.00  0.00     0.031 A 
ATOM     70  C   UNL     1      12.040  -1.522   3.141  1.00  0.00     0.131 A 
ATOM     71  C   UNL     1      13.838  -3.014   1.586  1.00  0.00     0.055 A 
ATOM     72  C   UNL     1      12.359  -2.861   3.462  1.00  0.00     0.041 A 
ATOM     73  F   UNL     1      11.146  -0.879   3.907  1.00  0.00    -0.206 F 
ATOM     74  C   UNL     1      13.243  -3.618   2.677  1.00  0.00     0.022 A 
BRANCH  71  75
ATOM     75  S   UNL     1      14.929  -3.906   0.438  1.00  0.00     0.124 S 
ATOM     76  O   UNL     1      14.205  -3.790  -0.824  1.00  0.00    -0.237 OA
ATOM     77  O   UNL     1      16.173  -3.151   0.543  1.00  0.00    -0.237 OA
ATOM     78  O   UNL     1      14.972  -5.254   1.000  1.00  0.00    -0.744 OA
ENDBRANCH  71  75
ENDBRANCH  54  68
BRANCH  55  79
ATOM     79  C   UNL     1      17.456   3.295  -2.184  1.00  0.00     0.023 A 
ATOM     80  C   UNL     1      18.774   3.750  -2.370  1.00  0.00     0.031 A 
ATOM     81  C   UNL     1      17.359   1.913  -1.857  1.00  0.00     0.131 A 
ATOM     82  C   UNL     1      19.874   2.836  -2.272  1.00  0.00     0.055 A 
ATOM     83  C   UNL     1      18.427   1.021  -1.771  1.00  0.00     0.041 A 
ATOM     84  F   UNL     1      16.196   1.332  -1.606  1.00  0.00    -0.206 F 
ATOM     85  C   UNL     1      19.701   1.478  -1.991  1.00  0.00     0.022 A 
BRANCH  82  86
ATOM     86  S   UNL     1      21.590   3.406  -2.474  1.00  0.00     0.124 S 
ATOM     87  O   UNL     1      21.719   3.487  -3.925  1.00  0.00    -0.237 OA
ATOM     88  O   UNL     1      21.587   4.681  -1.763  1.00  0.00    -0.237 OA
ATOM     89  O   UNL     1      22.386   2.356  -1.838  1.00  0.00    -0.744 OA
ENDBRANCH  82  86
ENDBRANCH  55  79
BRANCH  67  90
ATOM     90  C   UNL     1      11.059   2.027  -3.786  1.00  0.00     0.023 A 
ATOM     91  C   UNL     1      10.786   2.068  -5.162  1.00  0.00     0.031 A 
ATOM     92  C   UNL     1       9.939   2.091  -2.932  1.00  0.00     0.131 A 
ATOM     93  C   UNL     1       9.482   2.282  -5.635  1.00  0.00     0.055 A 
ATOM     94  C   UNL     1       8.630   2.233  -3.406  1.00  0.00     0.041 A 
ATOM     95  F   UNL     1      10.059   2.019  -1.600  1.00  0.00    -0.206 F 
ATOM     96  C   UNL     1       8.396   2.349  -4.767  1.00  0.00     0.022 A 
BRANCH  93  97
ATOM     97  S   UNL     1       9.247   2.519  -7.414  1.00  0.00     0.124 S 
ATOM     98  O   UNL     1       9.793   3.860  -7.601  1.00  0.00    -0.237 OA
ATOM     99  O   UNL     1      10.019   1.428  -7.990  1.00  0.00    -0.237 OA
ATOM    100  O   UNL     1       7.795   2.412  -7.579  1.00  0.00    -0.744 OA
ENDBRANCH  93  97
ENDBRANCH  67  90
ENDBRANCH  41  42
ENDBRANCH  33  36
ENDBRANCH  31  32
ENDBRANCH   1  31
TORSDOF 16
