REMARK SMILES O=C(NCCCNC(=O)c1ccc(N2C(=O)N=C(O)/C(=C\c3cccs3)C2=O)cc1)c1ccc(-c2c3nc(c(-c4cc(S(=O)(=O)[O-])ccc4F)c4ccc([nH]4)c(-c4cc(S(=O)(=O)[O-])ccc4F)c4nc(c(-c5cc(S(=O)(=O)[O-])ccc5F)c5ccc2[nH]5)C=C4)C=C3)cc1
REMARK SMILES IDX 4 1 3 2 1 3 2 4 31 6 32 7 93 8 33 9 92 10 34 11 35 12 36 13
REMARK SMILES IDX 86 14 37 15 91 16 85 17 87 18 38 19 90 20 84 21 83 22 39 24
REMARK SMILES IDX 71 25 51 26 70 27 52 28 55 29 69 30 88 31 53 32 54 33 68 35
REMARK SMILES IDX 89 36 56 37 40 38 41 39 49 40 42 41 48 42 50 43 47 44 43 45
REMARK SMILES IDX 44 46 45 47 46 48 72 49 73 50 81 51 74 52 80 53 82 54 79 55
REMARK SMILES IDX 75 56 76 57 77 58 78 59 57 60 58 61 66 62 59 63 65 64 67 65
REMARK SMILES IDX 64 66 60 67 61 68 62 69 63 70 5 71 6 72 7 73 8 74 9 76 10 77
REMARK SMILES IDX 11 78 30 79 12 80 29 81 13 82 14 83 15 84 27 85 16 86 17 87
REMARK SMILES IDX 20 88 28 89 18 90 21 91 19 92 22 94 23 95 26 96 24 97 25 98
REMARK H PARENT 3 5 87 23 55 34 7 75 19 93
REMARK Flexibility Score: inf
ROOT
ATOM      1  C   UNL     1       4.449   1.155  -0.654  1.00  0.00     0.118 C 
ENDROOT
BRANCH   1   2
ATOM      2  N   UNL     1       3.011   0.987  -0.458  1.00  0.00    -0.352 N 
ATOM      3  O   UNL     1       1.080  -0.098  -0.039  1.00  0.00    -0.269 OA
ATOM      4  C   UNL     1       2.306  -0.095   0.017  1.00  0.00     0.251 C 
ATOM      5  H   UNL     1       2.463   1.768  -0.704  1.00  0.00     0.163 HD
BRANCH   4   6
ATOM      6  C   UNL     1       3.034  -1.257   0.571  1.00  0.00     0.039 A 
ATOM      7  C   UNL     1       4.146  -1.057   1.386  1.00  0.00     0.014 A 
ATOM      8  C   UNL     1       2.618  -2.556   0.263  1.00  0.00     0.014 A 
ATOM      9  C   UNL     1       4.960  -2.129   1.712  1.00  0.00     0.010 A 
ATOM     10  C   UNL     1       3.363  -3.650   0.721  1.00  0.00     0.010 A 
ATOM     11  C   UNL     1       4.560  -3.444   1.424  1.00  0.00    -0.014 A 
BRANCH  11  12
ATOM     12  C   UNL     1       5.377  -4.560   1.970  1.00  0.00     0.031 A 
ATOM     13  C   UNL     1       6.052  -5.560   1.073  1.00  0.00     0.074 A 
ATOM     14  C   UNL     1       5.560  -4.609   3.306  1.00  0.00     0.049 A 
ATOM     15  N   UNL     1       6.833  -6.558   1.401  1.00  0.00    -0.248 NA
ATOM     16  C   UNL     1       5.818  -5.435  -0.373  1.00  0.00     0.031 C 
ATOM     17  C   UNL     1       4.947  -3.688   4.271  1.00  0.00     0.029 A 
ATOM     18  N   UNL     1       6.331  -5.430   4.086  1.00  0.00    -0.354 N 
ATOM     19  C   UNL     1       7.182  -7.184   0.210  1.00  0.00     0.074 A 
ATOM     20  C   UNL     1       6.493  -6.474  -0.849  1.00  0.00     0.031 C 
ATOM     21  C   UNL     1       5.423  -3.946   5.494  1.00  0.00     0.029 A 
ATOM     22  C   UNL     1       6.289  -5.115   5.425  1.00  0.00     0.049 A 
ATOM     23  H   UNL     1       6.864  -6.174   3.723  1.00  0.00     0.167 HD
ATOM     24  C   UNL     1       8.008  -8.244   0.022  1.00  0.00     0.034 A 
ATOM     25  C   UNL     1       6.853  -5.716   6.489  1.00  0.00     0.034 A 
ATOM     26  C   UNL     1       8.682  -8.939   1.095  1.00  0.00     0.049 A 
ATOM     27  C   UNL     1       7.714  -6.926   6.249  1.00  0.00     0.074 A 
ATOM     28  C   UNL     1       9.547 -10.018   1.012  1.00  0.00     0.029 A 
ATOM     29  N   UNL     1       8.566  -8.633   2.445  1.00  0.00    -0.354 N 
ATOM     30  N   UNL     1       8.040  -7.495   5.110  1.00  0.00    -0.248 NA
ATOM     31  C   UNL     1       8.285  -7.572   7.434  1.00  0.00     0.031 C 
ATOM     32  C   UNL     1       9.891 -10.410   2.310  1.00  0.00     0.029 A 
ATOM     33  C   UNL     1       9.316  -9.522   3.204  1.00  0.00     0.049 A 
ATOM     34  H   UNL     1       8.030  -7.893   2.811  1.00  0.00     0.167 HD
ATOM     35  C   UNL     1       8.873  -8.556   5.447  1.00  0.00     0.074 A 
ATOM     36  C   UNL     1       9.031  -8.518   6.886  1.00  0.00     0.031 C 
ATOM     37  C   UNL     1       9.450  -9.484   4.641  1.00  0.00     0.034 A 
BRANCH  24  38
ATOM     38  C   UNL     1       8.205  -8.744  -1.391  1.00  0.00     0.023 A 
ATOM     39  C   UNL     1       8.838  -7.963  -2.373  1.00  0.00     0.031 A 
ATOM     40  C   UNL     1       7.777 -10.035  -1.754  1.00  0.00     0.131 A 
ATOM     41  C   UNL     1       8.984  -8.460  -3.678  1.00  0.00     0.055 A 
ATOM     42  C   UNL     1       7.991 -10.551  -3.033  1.00  0.00     0.041 A 
ATOM     43  F   UNL     1       7.146 -10.820  -0.866  1.00  0.00    -0.206 F 
ATOM     44  C   UNL     1       8.590  -9.759  -4.007  1.00  0.00     0.022 A 
BRANCH  41  45
ATOM     45  S   UNL     1       9.594  -7.343  -4.970  1.00  0.00     0.124 S 
ATOM     46  O   UNL     1       8.594  -6.278  -4.934  1.00  0.00    -0.237 OA
ATOM     47  O   UNL     1      10.921  -6.991  -4.482  1.00  0.00    -0.237 OA
ATOM     48  O   UNL     1       9.570  -8.169  -6.176  1.00  0.00    -0.744 OA
ENDBRANCH  41  45
ENDBRANCH  24  38
BRANCH  25  49
ATOM     49  C   UNL     1       6.577  -5.228   7.871  1.00  0.00     0.023 A 
ATOM     50  C   UNL     1       7.617  -4.821   8.720  1.00  0.00     0.031 A 
ATOM     51  C   UNL     1       5.268  -5.230   8.390  1.00  0.00     0.131 A 
ATOM     52  C   UNL     1       7.341  -4.502  10.058  1.00  0.00     0.055 A 
ATOM     53  C   UNL     1       4.989  -4.833   9.697  1.00  0.00     0.041 A 
ATOM     54  F   UNL     1       4.232  -5.613   7.625  1.00  0.00    -0.206 F 
ATOM     55  C   UNL     1       6.033  -4.487  10.547  1.00  0.00     0.022 A 
BRANCH  52  56
ATOM     56  S   UNL     1       8.735  -4.245  11.188  1.00  0.00     0.124 S 
ATOM     57  O   UNL     1       9.493  -5.477  11.008  1.00  0.00    -0.237 OA
ATOM     58  O   UNL     1       9.342  -3.033  10.649  1.00  0.00    -0.237 OA
ATOM     59  O   UNL     1       8.091  -4.092  12.491  1.00  0.00    -0.744 OA
ENDBRANCH  52  56
ENDBRANCH  25  49
BRANCH  37  60
ATOM     60  C   UNL     1      10.332 -10.508   5.316  1.00  0.00     0.023 A 
ATOM     61  C   UNL     1       9.816 -11.423   6.250  1.00  0.00     0.031 A 
ATOM     62  C   UNL     1      11.714 -10.532   5.062  1.00  0.00     0.131 A 
ATOM     63  C   UNL     1      10.685 -12.264   6.959  1.00  0.00     0.055 A 
ATOM     64  C   UNL     1      12.565 -11.427   5.713  1.00  0.00     0.041 A 
ATOM     65  F   UNL     1      12.265  -9.678   4.185  1.00  0.00    -0.206 F 
ATOM     66  C   UNL     1      12.054 -12.286   6.682  1.00  0.00     0.022 A 
BRANCH  63  67
ATOM     67  S   UNL     1      10.021 -13.229   8.344  1.00  0.00     0.124 S 
ATOM     68  O   UNL     1       9.451 -12.188   9.192  1.00  0.00    -0.237 OA
ATOM     69  O   UNL     1       9.063 -14.107   7.681  1.00  0.00    -0.237 OA
ATOM     70  O   UNL     1      11.200 -13.899   8.891  1.00  0.00    -0.744 OA
ENDBRANCH  63  67
ENDBRANCH  37  60
ENDBRANCH  11  12
ENDBRANCH   4   6
ENDBRANCH   1   2
BRANCH   1  71
ATOM     71  C   UNL     1       4.838   1.323  -2.111  1.00  0.00     0.042 C 
BRANCH  71  72
ATOM     72  C   UNL     1       4.296   2.593  -2.742  1.00  0.00     0.118 C 
BRANCH  72  73
ATOM     73  N   UNL     1       4.792   3.796  -2.084  1.00  0.00    -0.352 N 
ATOM     74  C   UNL     1       5.646   4.757  -2.558  1.00  0.00     0.251 C 
ATOM     75  H   UNL     1       4.465   3.938  -1.166  1.00  0.00     0.163 HD
ATOM     76  O   UNL     1       6.104   5.614  -1.809  1.00  0.00    -0.269 OA
BRANCH  74  77
ATOM     77  C   UNL     1       6.018   4.754  -3.984  1.00  0.00     0.039 A 
ATOM     78  C   UNL     1       7.366   4.790  -4.331  1.00  0.00     0.016 A 
ATOM     79  C   UNL     1       5.032   4.713  -4.972  1.00  0.00     0.016 A 
ATOM     80  C   UNL     1       7.731   4.692  -5.676  1.00  0.00     0.028 A 
ATOM     81  C   UNL     1       5.401   4.611  -6.312  1.00  0.00     0.028 A 
ATOM     82  C   UNL     1       6.754   4.579  -6.681  1.00  0.00     0.054 A 
BRANCH  82  83
ATOM     83  N   UNL     1       7.136   4.421  -8.058  1.00  0.00    -0.226 N 
ATOM     84  C   UNL     1       8.164   3.512  -8.360  1.00  0.00     0.358 C 
ATOM     85  C   UNL     1       6.434   5.134  -9.026  1.00  0.00     0.272 C 
ATOM     86  O   UNL     1       8.650   2.768  -7.508  1.00  0.00    -0.245 OA
ATOM     87  N   UNL     1       8.627   3.423  -9.639  1.00  0.00    -0.156 NA
ATOM     88  C   UNL     1       6.861   4.896 -10.436  1.00  0.00     0.104 C 
ATOM     89  O   UNL     1       5.536   5.946  -8.793  1.00  0.00    -0.268 OA
ATOM     90  C   UNL     1       8.044   4.047 -10.590  1.00  0.00     0.228 C 
ATOM     91  C   UNL     1       6.094   5.499 -11.369  1.00  0.00     0.038 C 
BRANCH  90  92
ATOM     92  O   UNL     1       8.622   3.923 -11.793  1.00  0.00    -0.493 OA
ATOM     93  H   UNL     1       9.379   3.381 -11.895  1.00  0.00     0.295 HD
ENDBRANCH  90  92
BRANCH  91  94
ATOM     94  C   UNL     1       6.272   5.371 -12.767  1.00  0.00     0.028 A 
ATOM     95  C   UNL     1       5.990   4.294 -13.586  1.00  0.00     0.020 A 
ATOM     96  S   UNL     1       6.953   6.669 -13.661  1.00  0.00    -0.144 S 
ATOM     97  C   UNL     1       6.408   4.509 -14.931  1.00  0.00     0.012 A 
ATOM     98  C   UNL     1       6.957   5.759 -15.107  1.00  0.00     0.065 A 
ENDBRANCH  91  94
ENDBRANCH  82  83
ENDBRANCH  74  77
ENDBRANCH  72  73
ENDBRANCH  71  72
ENDBRANCH   1  71
TORSDOF 16
