REMARK SMILES Cc1cc(F)cc(NC(=O)CCC(=O)NCCCNC(=O)c2ccc(-c3c4nc(c(-c5cc(S(=O)(=O)[O-])ccc5F)c5ccc([nH]5)c(-c5cc(S(=O)(=O)[O-])ccc5F)c5nc(c(-c6cc(S(=O)(=O)[O-])ccc6F)c6ccc3[nH]6)C=C5)C=C4)cc2)c1
REMARK SMILES IDX 17 1 16 2 15 3 13 4 14 5 12 7 11 8 9 9 8 10 10 12 7 13 1 14
REMARK SMILES IDX 2 15 3 16 85 17 4 18 5 19 6 20 18 21 19 22 20 23 21 25 22 26
REMARK SMILES IDX 23 27 84 28 24 29 83 30 25 31 26 32 27 33 77 34 28 35 82 36
REMARK SMILES IDX 76 37 78 38 29 39 81 40 75 41 74 42 30 44 62 45 42 46 61 47
REMARK SMILES IDX 43 48 46 49 60 50 79 51 44 52 45 53 59 55 80 56 47 57 31 58
REMARK SMILES IDX 32 59 40 60 33 61 39 62 41 63 38 64 34 65 35 66 36 67 37 68
REMARK SMILES IDX 63 69 64 70 72 71 65 72 71 73 73 74 70 75 66 76 67 77 68 78
REMARK SMILES IDX 69 79 48 80 49 81 57 82 50 83 56 84 58 85 55 86 51 87 52 88
REMARK SMILES IDX 53 89 54 90
REMARK H PARENT 15 6 8 11 19 24 78 43 46 54
REMARK Flexibility Score: inf
ROOT
ATOM      1  C   UNL     1       1.778  -4.058   0.886  1.00  0.00     0.042 C 
ENDROOT
BRANCH   1   2
ATOM      2  C   UNL     1       0.884  -3.783   2.094  1.00  0.00     0.117 C 
BRANCH   2   3
ATOM      3  N   UNL     1       0.238  -2.478   2.073  1.00  0.00    -0.356 N 
ATOM      4  C   UNL     1      -1.077  -2.134   2.006  1.00  0.00     0.220 C 
ATOM      5  O   UNL     1      -1.382  -0.955   2.193  1.00  0.00    -0.275 OA
ATOM      6  H   UNL     1       0.859  -1.715   2.115  1.00  0.00     0.163 HD
BRANCH   4   7
ATOM      7  C   UNL     1      -2.138  -3.165   1.706  1.00  0.00     0.110 C 
BRANCH   7   8
ATOM      8  C   UNL     1      -2.603  -3.179   0.255  1.00  0.00     0.110 C 
BRANCH   8   9
ATOM      9  C   UNL     1      -1.517  -3.513  -0.742  1.00  0.00     0.224 C 
ATOM     10  N   UNL     1      -0.681  -2.580  -1.283  1.00  0.00    -0.326 N 
ATOM     11  H   UNL     1      -0.028  -2.948  -1.921  1.00  0.00     0.169 HD
ATOM     12  O   UNL     1      -1.297  -4.700  -1.011  1.00  0.00    -0.275 OA
BRANCH  10  13
ATOM     13  C   UNL     1      -0.579  -1.192  -1.098  1.00  0.00     0.044 A 
ATOM     14  C   UNL     1       2.344   1.188  -0.496  1.00  0.00     0.044 C 
ATOM     15  C   UNL     1       0.949   0.667  -0.676  1.00  0.00    -0.046 A 
ATOM     16  C   UNL     1      -0.147   1.492  -0.418  1.00  0.00     0.042 A 
ATOM     17  C   UNL     1       0.718  -0.657  -1.078  1.00  0.00     0.029 A 
ATOM     18  C   UNL     1      -1.434   0.990  -0.560  1.00  0.00     0.125 A 
ATOM     19  F   UNL     1      -2.483   1.798  -0.351  1.00  0.00    -0.207 F 
ATOM     20  C   UNL     1      -1.659  -0.341  -0.899  1.00  0.00     0.065 A 
ENDBRANCH  10  13
ENDBRANCH   8   9
ENDBRANCH   7   8
ENDBRANCH   4   7
ENDBRANCH   2   3
ENDBRANCH   1   2
BRANCH   1  21
ATOM     21  C   UNL     1       2.858  -3.013   0.624  1.00  0.00     0.118 C 
BRANCH  21  22
ATOM     22  N   UNL     1       4.049  -3.203   1.430  1.00  0.00    -0.352 N 
ATOM     23  C   UNL     1       5.308  -3.613   1.067  1.00  0.00     0.251 C 
ATOM     24  H   UNL     1       3.936  -3.008   2.388  1.00  0.00     0.163 HD
ATOM     25  O   UNL     1       6.126  -3.857   1.959  1.00  0.00    -0.269 OA
BRANCH  23  26
ATOM     26  C   UNL     1       5.695  -3.800  -0.353  1.00  0.00     0.039 A 
ATOM     27  C   UNL     1       6.455  -4.926  -0.688  1.00  0.00     0.014 A 
ATOM     28  C   UNL     1       5.384  -2.865  -1.346  1.00  0.00     0.014 A 
ATOM     29  C   UNL     1       6.856  -5.138  -2.011  1.00  0.00     0.010 A 
ATOM     30  C   UNL     1       5.729  -3.112  -2.680  1.00  0.00     0.010 A 
ATOM     31  C   UNL     1       6.475  -4.249  -3.029  1.00  0.00    -0.014 A 
BRANCH  31  32
ATOM     32  C   UNL     1       6.871  -4.499  -4.445  1.00  0.00     0.031 A 
ATOM     33  C   UNL     1       7.816  -3.564  -5.154  1.00  0.00     0.074 A 
ATOM     34  C   UNL     1       6.368  -5.563  -5.105  1.00  0.00     0.049 A 
ATOM     35  N   UNL     1       8.255  -3.607  -6.388  1.00  0.00    -0.248 NA
ATOM     36  C   UNL     1       8.319  -2.422  -4.379  1.00  0.00     0.031 C 
ATOM     37  C   UNL     1       5.429  -6.536  -4.545  1.00  0.00     0.029 A 
ATOM     38  N   UNL     1       6.575  -6.007  -6.389  1.00  0.00    -0.354 N 
ATOM     39  C   UNL     1       9.082  -2.498  -6.539  1.00  0.00     0.074 A 
ATOM     40  C   UNL     1       9.033  -1.772  -5.287  1.00  0.00     0.031 C 
ATOM     41  C   UNL     1       5.162  -7.473  -5.468  1.00  0.00     0.029 A 
ATOM     42  C   UNL     1       5.872  -7.148  -6.702  1.00  0.00     0.049 A 
ATOM     43  H   UNL     1       7.171  -5.551  -7.027  1.00  0.00     0.167 HD
ATOM     44  C   UNL     1       9.828  -2.130  -7.611  1.00  0.00     0.034 A 
ATOM     45  C   UNL     1       5.794  -7.848  -7.853  1.00  0.00     0.034 A 
ATOM     46  C   UNL     1       9.878  -2.864  -8.853  1.00  0.00     0.049 A 
ATOM     47  C   UNL     1       6.595  -7.393  -9.047  1.00  0.00     0.074 A 
ATOM     48  C   UNL     1      10.640  -2.602  -9.980  1.00  0.00     0.029 A 
ATOM     49  N   UNL     1       9.129  -3.998  -9.141  1.00  0.00    -0.354 N 
ATOM     50  N   UNL     1       7.404  -6.364  -9.156  1.00  0.00    -0.248 NA
ATOM     51  C   UNL     1       6.478  -8.197 -10.271  1.00  0.00     0.031 C 
ATOM     52  C   UNL     1      10.300  -3.531 -10.969  1.00  0.00     0.029 A 
ATOM     53  C   UNL     1       9.383  -4.423 -10.437  1.00  0.00     0.049 A 
ATOM     54  H   UNL     1       8.507  -4.436  -8.516  1.00  0.00     0.167 HD
ATOM     55  C   UNL     1       7.913  -6.419 -10.451  1.00  0.00     0.074 A 
ATOM     56  C   UNL     1       7.332  -7.586 -11.079  1.00  0.00     0.031 C 
ATOM     57  C   UNL     1       8.789  -5.581 -11.063  1.00  0.00     0.034 A 
BRANCH  44  58
ATOM     58  C   UNL     1      10.633  -0.856  -7.494  1.00  0.00     0.023 A 
ATOM     59  C   UNL     1      11.671  -0.721  -6.556  1.00  0.00     0.031 A 
ATOM     60  C   UNL     1      10.348   0.246  -8.320  1.00  0.00     0.131 A 
ATOM     61  C   UNL     1      12.333   0.508  -6.414  1.00  0.00     0.055 A 
ATOM     62  C   UNL     1      11.067   1.440  -8.231  1.00  0.00     0.041 A 
ATOM     63  F   UNL     1       9.356   0.185  -9.223  1.00  0.00    -0.206 F 
ATOM     64  C   UNL     1      12.056   1.582  -7.263  1.00  0.00     0.022 A 
BRANCH  61  65
ATOM     65  S   UNL     1      13.458   0.729  -5.008  1.00  0.00     0.124 S 
ATOM     66  O   UNL     1      12.573   0.462  -3.878  1.00  0.00    -0.237 OA
ATOM     67  O   UNL     1      14.486  -0.274  -5.266  1.00  0.00    -0.237 OA
ATOM     68  O   UNL     1      13.895   2.117  -5.133  1.00  0.00    -0.744 OA
ENDBRANCH  61  65
ENDBRANCH  44  58
BRANCH  45  69
ATOM     69  C   UNL     1       4.911  -9.047  -7.948  1.00  0.00     0.023 A 
ATOM     70  C   UNL     1       5.444 -10.326  -8.175  1.00  0.00     0.031 A 
ATOM     71  C   UNL     1       3.513  -8.922  -7.862  1.00  0.00     0.131 A 
ATOM     72  C   UNL     1       4.585 -11.421  -8.354  1.00  0.00     0.055 A 
ATOM     73  C   UNL     1       2.664 -10.023  -7.986  1.00  0.00     0.041 A 
ATOM     74  F   UNL     1       2.951  -7.722  -7.646  1.00  0.00    -0.206 F 
ATOM     75  C   UNL     1       3.199 -11.280  -8.246  1.00  0.00     0.022 A 
BRANCH  72  76
ATOM     76  S   UNL     1       5.301 -13.023  -8.815  1.00  0.00     0.124 S 
ATOM     77  O   UNL     1       5.996 -12.691 -10.053  1.00  0.00    -0.237 OA
ATOM     78  O   UNL     1       6.147 -13.319  -7.663  1.00  0.00    -0.237 OA
ATOM     79  O   UNL     1       4.132 -13.887  -8.966  1.00  0.00    -0.744 OA
ENDBRANCH  72  76
ENDBRANCH  45  69
BRANCH  57  80
ATOM     80  C   UNL     1       9.201  -5.925 -12.474  1.00  0.00     0.023 A 
ATOM     81  C   UNL     1       8.296  -5.865 -13.547  1.00  0.00     0.031 A 
ATOM     82  C   UNL     1      10.522  -6.326 -12.746  1.00  0.00     0.131 A 
ATOM     83  C   UNL     1       8.708  -6.247 -14.834  1.00  0.00     0.055 A 
ATOM     84  C   UNL     1      10.942  -6.650 -14.037  1.00  0.00     0.041 A 
ATOM     85  F   UNL     1      11.429  -6.403 -11.759  1.00  0.00    -0.206 F 
ATOM     86  C   UNL     1      10.030  -6.623 -15.088  1.00  0.00     0.022 A 
BRANCH  83  87
ATOM     87  S   UNL     1       7.474  -6.324 -16.161  1.00  0.00     0.124 S 
ATOM     88  O   UNL     1       6.524  -7.299 -15.635  1.00  0.00    -0.237 OA
ATOM     89  O   UNL     1       7.001  -4.945 -16.228  1.00  0.00    -0.237 OA
ATOM     90  O   UNL     1       8.243  -6.771 -17.320  1.00  0.00    -0.744 OA
ENDBRANCH  83  87
ENDBRANCH  57  80
ENDBRANCH  31  32
ENDBRANCH  23  26
ENDBRANCH  21  22
ENDBRANCH   1  21
TORSDOF 16
