REMARK SMILES O=C(NCCCNC(=O)[C@H]1[C@H]2CC[C@H](CC2)[C@@H]1C(=O)Nc1sc2c(c1C(=O)N1CCCCC1)CCCC2)c1ccc(-c2c3nc(c(-c4cc(S(=O)(=O)[O-])ccc4F)c4ccc([nH]4)c(-c4cc(S(=O)(=O)[O-])ccc4F)c4nc(c(-c5cc(S(=O)(=O)[O-])ccc5F)c5ccc2[nH]5)C=C4)C=C3)cc1
REMARK SMILES IDX 5 1 4 2 3 3 1 4 2 5 38 7 39 8 100 9 40 10 99 11 41 12 42 13
REMARK SMILES IDX 43 14 93 15 44 16 98 17 92 18 94 19 45 20 97 21 91 22 90 23
REMARK SMILES IDX 46 25 78 26 58 27 77 28 59 29 62 30 76 31 95 32 60 33 61 34
REMARK SMILES IDX 75 36 96 37 63 38 47 39 48 40 56 41 49 42 55 43 57 44 54 45
REMARK SMILES IDX 50 46 51 47 52 48 53 49 79 50 80 51 88 52 81 53 87 54 89 55
REMARK SMILES IDX 86 56 82 57 83 58 84 59 85 60 64 61 65 62 73 63 66 64 72 65
REMARK SMILES IDX 74 66 71 67 67 68 68 69 69 70 70 71 6 72 7 73 8 74 9 76
REMARK SMILES IDX 10 77 11 78 17 79 12 80 16 81 14 82 13 83 15 84 18 85 19 86
REMARK SMILES IDX 20 87 21 89 22 90 25 91 23 92 24 93 37 94 34 95 36 96 35 97
REMARK SMILES IDX 26 98 27 99 28 100 29 101 33 102 30 103 32 104 31 105
REMARK H PARENT 3 6 94 24 62 35 7 75 20 88
REMARK Flexibility Score: inf
ROOT
ATOM      1  C   UNL     1       5.051  -1.986   0.892  1.00  0.00     0.042 C 
ENDROOT
BRANCH   1   2
ATOM      2  C   UNL     1       4.587  -1.120  -0.269  1.00  0.00     0.118 C 
BRANCH   2   3
ATOM      3  N   UNL     1       3.139  -0.966  -0.340  1.00  0.00    -0.352 N 
ATOM      4  O   UNL     1       1.132   0.034  -0.098  1.00  0.00    -0.269 OA
ATOM      5  C   UNL     1       2.356   0.145  -0.124  1.00  0.00     0.251 C 
ATOM      6  H   UNL     1       2.644  -1.783  -0.579  1.00  0.00     0.163 HD
BRANCH   5   7
ATOM      7  C   UNL     1       2.987   1.463   0.107  1.00  0.00     0.039 A 
ATOM      8  C   UNL     1       4.064   1.879  -0.675  1.00  0.00     0.014 A 
ATOM      9  C   UNL     1       2.507   2.287   1.128  1.00  0.00     0.014 A 
ATOM     10  C   UNL     1       4.782   3.010  -0.312  1.00  0.00     0.010 A 
ATOM     11  C   UNL     1       3.160   3.490   1.415  1.00  0.00     0.010 A 
ATOM     12  C   UNL     1       4.331   3.841   0.726  1.00  0.00    -0.014 A 
BRANCH  12  13
ATOM     13  C   UNL     1       5.083   5.087   1.031  1.00  0.00     0.031 A 
ATOM     14  C   UNL     1       5.726   5.303   2.373  1.00  0.00     0.074 A 
ATOM     15  C   UNL     1       5.219   6.010   0.058  1.00  0.00     0.049 A 
ATOM     16  N   UNL     1       6.426   6.325   2.799  1.00  0.00    -0.248 NA
ATOM     17  C   UNL     1       5.549   4.241   3.373  1.00  0.00     0.031 C 
ATOM     18  C   UNL     1       4.638   5.908  -1.284  1.00  0.00     0.029 A 
ATOM     19  N   UNL     1       5.906   7.196   0.030  1.00  0.00    -0.354 N 
ATOM     20  C   UNL     1       6.752   6.044   4.122  1.00  0.00     0.074 A 
ATOM     21  C   UNL     1       6.141   4.768   4.436  1.00  0.00     0.031 C 
ATOM     22  C   UNL     1       5.047   6.948  -2.022  1.00  0.00     0.029 A 
ATOM     23  C   UNL     1       5.847   7.834  -1.187  1.00  0.00     0.049 A 
ATOM     24  H   UNL     1       6.394   7.555   0.805  1.00  0.00     0.167 HD
ATOM     25  C   UNL     1       7.496   6.779   4.988  1.00  0.00     0.034 A 
ATOM     26  C   UNL     1       6.359   9.013  -1.585  1.00  0.00     0.034 A 
ATOM     27  C   UNL     1       8.104   8.046   4.649  1.00  0.00     0.049 A 
ATOM     28  C   UNL     1       7.147   9.826  -0.598  1.00  0.00     0.074 A 
ATOM     29  C   UNL     1       8.903   8.859   5.434  1.00  0.00     0.029 A 
ATOM     30  N   UNL     1       7.972   8.691   3.423  1.00  0.00    -0.354 N 
ATOM     31  N   UNL     1       7.446   9.546   0.649  1.00  0.00    -0.248 NA
ATOM     32  C   UNL     1       7.663  11.114  -1.072  1.00  0.00     0.031 C 
ATOM     33  C   UNL     1       9.198  10.021   4.710  1.00  0.00     0.029 A 
ATOM     34  C   UNL     1       8.646   9.904   3.444  1.00  0.00     0.049 A 
ATOM     35  H   UNL     1       7.473   8.337   2.652  1.00  0.00     0.167 HD
ATOM     36  C   UNL     1       8.197  10.621   1.107  1.00  0.00     0.074 A 
ATOM     37  C   UNL     1       8.322  11.543  -0.005  1.00  0.00     0.031 C 
ATOM     38  C   UNL     1       8.737  10.827   2.336  1.00  0.00     0.034 A 
BRANCH  25  39
ATOM     39  C   UNL     1       7.642   6.252   6.399  1.00  0.00     0.023 A 
ATOM     40  C   UNL     1       8.279   5.030   6.676  1.00  0.00     0.031 A 
ATOM     41  C   UNL     1       7.095   6.965   7.482  1.00  0.00     0.131 A 
ATOM     42  C   UNL     1       8.280   4.519   7.984  1.00  0.00     0.055 A 
ATOM     43  C   UNL     1       7.173   6.491   8.793  1.00  0.00     0.041 A 
ATOM     44  F   UNL     1       6.457   8.129   7.282  1.00  0.00    -0.206 F 
ATOM     45  C   UNL     1       7.752   5.252   9.048  1.00  0.00     0.022 A 
BRANCH  42  46
ATOM     46  S   UNL     1       8.831   2.809   8.246  1.00  0.00     0.124 S 
ATOM     47  O   UNL     1       7.963   2.074   7.329  1.00  0.00    -0.237 OA
ATOM     48  O   UNL     1      10.241   2.874   7.880  1.00  0.00    -0.237 OA
ATOM     49  O   UNL     1       8.564   2.577   9.664  1.00  0.00    -0.744 OA
ENDBRANCH  42  46
ENDBRANCH  25  39
BRANCH  26  50
ATOM     50  C   UNL     1       6.111   9.500  -2.970  1.00  0.00     0.023 A 
ATOM     51  C   UNL     1       7.160   9.630  -3.891  1.00  0.00     0.031 A 
ATOM     52  C   UNL     1       4.811   9.833  -3.393  1.00  0.00     0.131 A 
ATOM     53  C   UNL     1       6.895  10.104  -5.185  1.00  0.00     0.055 A 
ATOM     54  C   UNL     1       4.546  10.258  -4.694  1.00  0.00     0.041 A 
ATOM     55  F   UNL     1       3.772   9.716  -2.550  1.00  0.00    -0.206 F 
ATOM     56  C   UNL     1       5.594  10.404  -5.597  1.00  0.00     0.022 A 
BRANCH  53  57
ATOM     57  S   UNL     1       8.288  10.371  -6.315  1.00  0.00     0.124 S 
ATOM     58  O   UNL     1       9.078  11.357  -5.587  1.00  0.00    -0.237 OA
ATOM     59  O   UNL     1       8.861   9.033  -6.412  1.00  0.00    -0.237 OA
ATOM     60  O   UNL     1       7.647  10.861  -7.534  1.00  0.00    -0.744 OA
ENDBRANCH  53  57
ENDBRANCH  26  50
BRANCH  38  61
ATOM     61  C   UNL     1       9.537  12.093   2.515  1.00  0.00     0.023 A 
ATOM     62  C   UNL     1       8.929  13.360   2.489  1.00  0.00     0.031 A 
ATOM     63  C   UNL     1      10.932  12.030   2.679  1.00  0.00     0.131 A 
ATOM     64  C   UNL     1       9.720  14.516   2.564  1.00  0.00     0.055 A 
ATOM     65  C   UNL     1      11.708  13.182   2.812  1.00  0.00     0.041 A 
ATOM     66  F   UNL     1      11.564  10.846   2.706  1.00  0.00    -0.206 F 
ATOM     67  C   UNL     1      11.104  14.434   2.741  1.00  0.00     0.022 A 
BRANCH  64  68
ATOM     68  S   UNL     1       8.928  16.131   2.330  1.00  0.00     0.124 S 
ATOM     69  O   UNL     1       8.344  15.993   1.000  1.00  0.00    -0.237 OA
ATOM     70  O   UNL     1       7.982  16.179   3.440  1.00  0.00    -0.237 OA
ATOM     71  O   UNL     1      10.040  17.075   2.424  1.00  0.00    -0.744 OA
ENDBRANCH  64  68
ENDBRANCH  38  61
ENDBRANCH  12  13
ENDBRANCH   5   7
ENDBRANCH   2   3
ENDBRANCH   1   2
BRANCH   1  72
ATOM     72  C   UNL     1       4.603  -3.434   0.820  1.00  0.00     0.117 C 
BRANCH  72  73
ATOM     73  N   UNL     1       4.977  -4.078  -0.426  1.00  0.00    -0.356 N 
ATOM     74  C   UNL     1       5.552  -5.290  -0.651  1.00  0.00     0.224 C 
ATOM     75  H   UNL     1       4.784  -3.554  -1.237  1.00  0.00     0.163 HD
ATOM     76  O   UNL     1       5.718  -5.615  -1.828  1.00  0.00    -0.275 OA
BRANCH  74  77
ATOM     77  C   UNL     1       5.934  -6.184   0.530  1.00  0.00     0.094 C 
ATOM     78  C   UNL     1       4.663  -6.668   1.284  1.00  0.00     0.002 C 
ATOM     79  C   UNL     1       6.745  -7.430   0.059  1.00  0.00     0.094 C 
ATOM     80  C   UNL     1       3.843  -7.621   0.395  1.00  0.00     0.005 C 
ATOM     81  C   UNL     1       5.119  -7.426   2.540  1.00  0.00     0.005 C 
ATOM     82  C   UNL     1       6.091  -8.728   0.612  1.00  0.00     0.002 C 
ATOM     83  C   UNL     1       4.684  -8.837  -0.003  1.00  0.00     0.005 C 
ATOM     84  C   UNL     1       5.939  -8.655   2.143  1.00  0.00     0.005 C 
BRANCH  79  85
ATOM     85  C   UNL     1       8.227  -7.391   0.467  1.00  0.00     0.229 C 
ATOM     86  O   UNL     1       8.579  -6.829   1.509  1.00  0.00    -0.274 OA
ATOM     87  N   UNL     1       9.144  -8.173  -0.193  1.00  0.00    -0.317 N 
ATOM     88  H   UNL     1       9.935  -8.428   0.335  1.00  0.00     0.170 HD
BRANCH  87  89
ATOM     89  C   UNL     1       9.120  -8.653  -1.490  1.00  0.00     0.108 A 
ATOM     90  S   UNL     1       8.505  -7.649  -2.713  1.00  0.00    -0.122 S 
ATOM     91  C   UNL     1       9.695  -9.823  -1.990  1.00  0.00     0.078 A 
ATOM     92  C   UNL     1       8.597  -8.889  -3.851  1.00  0.00     0.011 A 
ATOM     93  C   UNL     1       9.330  -9.973  -3.398  1.00  0.00    -0.019 A 
ATOM     94  C   UNL     1       7.969  -8.742  -5.200  1.00  0.00     0.047 C 
ATOM     95  C   UNL     1       9.589 -11.131  -4.317  1.00  0.00     0.037 C 
ATOM     96  C   UNL     1       7.848 -10.113  -5.872  1.00  0.00     0.006 C 
ATOM     97  C   UNL     1       9.169 -10.874  -5.774  1.00  0.00     0.005 C 
BRANCH  91  98
ATOM     98  C   UNL     1      10.412 -10.746  -1.081  1.00  0.00     0.257 C 
ATOM     99  O   UNL     1      10.687 -10.431   0.078  1.00  0.00    -0.269 OA
ATOM    100  N   UNL     1      10.649 -12.043  -1.532  1.00  0.00    -0.339 N 
ATOM    101  C   UNL     1      10.253 -13.112  -0.626  1.00  0.00     0.120 C 
ATOM    102  C   UNL     1      11.889 -12.319  -2.247  1.00  0.00     0.120 C 
ATOM    103  C   UNL     1      10.041 -14.409  -1.397  1.00  0.00     0.022 C 
ATOM    104  C   UNL     1      11.773 -13.609  -3.061  1.00  0.00     0.022 C 
ATOM    105  C   UNL     1      11.283 -14.781  -2.207  1.00  0.00     0.004 C 
ENDBRANCH  91  98
ENDBRANCH  87  89
ENDBRANCH  79  85
ENDBRANCH  74  77
ENDBRANCH  72  73
ENDBRANCH   1  72
TORSDOF 16
