REMARK SMILES O=C(CCCN1C(=O)/C(=C/c2ccccc2Cl)SC1=S)Nc1cccc(C(=O)NCCCNC(=O)c2ccc(-c3c4nc(c(-c5cc(S(=O)(=O)[O-])ccc5F)c5ccc([nH]5)c(-c5cc(S(=O)(=O)[O-])ccc5F)c5nc(c(-c6cc(S(=O)(=O)[O-])ccc6F)c6ccc3[nH]6)C=C5)C=C4)cc2)c1
REMARK SMILES IDX 27 1 28 2 29 3 26 5 22 6 23 7 99 8 24 9 25 10 21 11 1 12
REMARK SMILES IDX 2 13 3 15 4 16 5 17 6 18 7 19 19 20 8 21 9 22 18 23 20 24
REMARK SMILES IDX 10 25 11 26 12 27 16 28 13 29 15 30 17 31 14 32 30 33 31 34
REMARK SMILES IDX 32 35 33 36 34 37 35 39 36 40 37 41 98 42 38 43 97 44 39 45
REMARK SMILES IDX 40 46 41 47 91 48 42 49 96 50 90 51 92 52 43 53 95 54 89 55
REMARK SMILES IDX 88 56 44 58 76 59 56 60 75 61 57 62 60 63 74 64 93 65 58 66
REMARK SMILES IDX 59 67 73 69 94 70 61 71 45 72 46 73 54 74 47 75 53 76 55 77
REMARK SMILES IDX 52 78 48 79 49 80 50 81 51 82 77 83 78 84 86 85 79 86 85 87
REMARK SMILES IDX 87 88 84 89 80 90 81 91 82 92 83 93 62 94 63 95 71 96 64 97
REMARK SMILES IDX 70 98 72 99 69 100 65 101 66 102 67 103 68 104
REMARK H PARENT 29 4 21 14 33 38 92 57 60 68
REMARK Flexibility Score: inf
ROOT
ATOM      1  C   UNL     1      -0.721   4.511  -0.311  1.00  0.00     0.251 C 
ATOM      2  O   UNL     1      -1.367   5.480  -0.704  1.00  0.00    -0.269 OA
ATOM      3  N   UNL     1      -0.976   4.002   0.946  1.00  0.00    -0.352 N 
ATOM      4  H   UNL     1      -1.687   4.477   1.434  1.00  0.00     0.163 HD
ENDROOT
BRANCH   1   5
ATOM      5  C   UNL     1       0.376   3.982  -1.162  1.00  0.00     0.041 A 
ATOM      6  C   UNL     1       2.015   2.269  -1.538  1.00  0.00     0.041 A 
ATOM      7  C   UNL     1       2.797   3.179  -2.255  1.00  0.00     0.026 A 
ATOM      8  C   UNL     1       0.737   2.637  -1.139  1.00  0.00     0.040 A 
ATOM      9  C   UNL     1       2.324   4.467  -2.507  1.00  0.00     0.003 A 
ATOM     10  C   UNL     1       1.134   4.885  -1.916  1.00  0.00     0.014 A 
BRANCH   6  11
ATOM     11  N   UNL     1       2.634   1.086  -1.083  1.00  0.00    -0.326 N 
ATOM     12  O   UNL     1       0.823  -0.141  -0.297  1.00  0.00    -0.275 OA
ATOM     13  C   UNL     1       2.032   0.033  -0.425  1.00  0.00     0.224 C 
ATOM     14  H   UNL     1       3.599   1.002  -1.254  1.00  0.00     0.169 HD
BRANCH  13  15
ATOM     15  C   UNL     1       3.005  -0.942   0.212  1.00  0.00     0.102 C 
BRANCH  15  16
ATOM     16  C   UNL     1       3.906  -1.675  -0.782  1.00  0.00     0.032 C 
BRANCH  16  17
ATOM     17  C   UNL     1       5.243  -0.995  -1.113  1.00  0.00     0.128 C 
BRANCH  17  18
ATOM     18  N   UNL     1       5.989  -0.561   0.070  1.00  0.00    -0.293 N 
ATOM     19  C   UNL     1       5.964   0.777   0.432  1.00  0.00     0.266 C 
ATOM     20  C   UNL     1       6.729  -1.402   0.878  1.00  0.00     0.148 C 
ATOM     21  O   UNL     1       5.336   1.650  -0.159  1.00  0.00    -0.268 OA
ATOM     22  C   UNL     1       6.787   1.005   1.649  1.00  0.00     0.081 C 
ATOM     23  S   UNL     1       7.352  -0.506   2.250  1.00  0.00    -0.054 SA
ATOM     24  S   UNL     1       7.040  -3.025   0.660  1.00  0.00    -0.052 S 
ATOM     25  C   UNL     1       7.044   2.224   2.148  1.00  0.00     0.031 C 
BRANCH  25  26
ATOM     26  C   UNL     1       7.902   2.476   3.321  1.00  0.00    -0.006 A 
ATOM     27  C   UNL     1       7.291   2.918   4.504  1.00  0.00     0.010 A 
ATOM     28  C   UNL     1       9.294   2.262   3.319  1.00  0.00     0.048 A 
ATOM     29  C   UNL     1       8.043   3.093   5.670  1.00  0.00     0.001 A 
ATOM     30  C   UNL     1      10.037   2.418   4.493  1.00  0.00     0.021 A 
ATOM     31  Cl  UNL     1      10.154   1.825   1.880  1.00  0.00    -0.084 Cl
ATOM     32  C   UNL     1       9.410   2.826   5.669  1.00  0.00     0.002 A 
ENDBRANCH  25  26
ENDBRANCH  17  18
ENDBRANCH  16  17
ENDBRANCH  15  16
ENDBRANCH  13  15
ENDBRANCH   6  11
ENDBRANCH   1   5
BRANCH   3  33
ATOM     33  C   UNL     1      -0.388   2.888   1.688  1.00  0.00     0.118 C 
BRANCH  33  34
ATOM     34  C   UNL     1       0.101   3.243   3.082  1.00  0.00     0.042 C 
BRANCH  34  35
ATOM     35  C   UNL     1      -0.985   3.652   4.058  1.00  0.00     0.118 C 
BRANCH  35  36
ATOM     36  N   UNL     1      -1.944   2.589   4.323  1.00  0.00    -0.352 N 
ATOM     37  C   UNL     1      -2.200   1.869   5.466  1.00  0.00     0.251 C 
ATOM     38  H   UNL     1      -2.505   2.344   3.551  1.00  0.00     0.163 HD
ATOM     39  O   UNL     1      -2.938   0.889   5.398  1.00  0.00    -0.269 OA
BRANCH  37  40
ATOM     40  C   UNL     1      -1.581   2.240   6.760  1.00  0.00     0.039 A 
ATOM     41  C   UNL     1      -1.204   1.226   7.646  1.00  0.00     0.014 A 
ATOM     42  C   UNL     1      -1.393   3.574   7.123  1.00  0.00     0.014 A 
ATOM     43  C   UNL     1      -0.582   1.552   8.855  1.00  0.00     0.010 A 
ATOM     44  C   UNL     1      -0.667   3.892   8.267  1.00  0.00     0.010 A 
ATOM     45  C   UNL     1      -0.271   2.887   9.159  1.00  0.00    -0.014 A 
BRANCH  45  46
ATOM     46  C   UNL     1       0.428   3.256  10.420  1.00  0.00     0.031 A 
ATOM     47  C   UNL     1      -0.241   4.175  11.410  1.00  0.00     0.074 A 
ATOM     48  C   UNL     1       1.679   2.810  10.649  1.00  0.00     0.049 A 
ATOM     49  N   UNL     1       0.222   4.667  12.531  1.00  0.00    -0.248 NA
ATOM     50  C   UNL     1      -1.600   4.631  11.075  1.00  0.00     0.031 C 
ATOM     51  C   UNL     1       2.449   1.950   9.747  1.00  0.00     0.029 A 
ATOM     52  N   UNL     1       2.526   3.014  11.710  1.00  0.00    -0.354 N 
ATOM     53  C   UNL     1      -0.780   5.496  13.024  1.00  0.00     0.074 A 
ATOM     54  C   UNL     1      -1.839   5.506  12.039  1.00  0.00     0.031 C 
ATOM     55  C   UNL     1       3.633   1.667  10.311  1.00  0.00     0.029 A 
ATOM     56  C   UNL     1       3.734   2.365  11.588  1.00  0.00     0.049 A 
ATOM     57  H   UNL     1       2.292   3.574  12.485  1.00  0.00     0.167 HD
ATOM     58  C   UNL     1      -0.830   6.163  14.205  1.00  0.00     0.034 A 
ATOM     59  C   UNL     1       4.802   2.341  12.409  1.00  0.00     0.034 A 
ATOM     60  C   UNL     1       0.231   6.131  15.183  1.00  0.00     0.049 A 
ATOM     61  C   UNL     1       4.737   3.111  13.705  1.00  0.00     0.074 A 
ATOM     62  C   UNL     1       0.273   6.730  16.429  1.00  0.00     0.029 A 
ATOM     63  N   UNL     1       1.441   5.466  15.022  1.00  0.00    -0.354 N 
ATOM     64  N   UNL     1       3.762   3.854  14.178  1.00  0.00    -0.248 NA
ATOM     65  C   UNL     1       5.910   3.027  14.584  1.00  0.00     0.031 C 
ATOM     66  C   UNL     1       1.533   6.493  16.987  1.00  0.00     0.029 A 
ATOM     67  C   UNL     1       2.247   5.668  16.132  1.00  0.00     0.049 A 
ATOM     68  H   UNL     1       1.689   4.930  14.235  1.00  0.00     0.167 HD
ATOM     69  C   UNL     1       4.192   4.293  15.429  1.00  0.00     0.074 A 
ATOM     70  C   UNL     1       5.504   3.716  15.639  1.00  0.00     0.031 C 
ATOM     71  C   UNL     1       3.559   5.094  16.324  1.00  0.00     0.034 A 
BRANCH  58  72
ATOM     72  C   UNL     1      -2.062   6.995  14.483  1.00  0.00     0.023 A 
ATOM     73  C   UNL     1      -3.343   6.418  14.553  1.00  0.00     0.031 A 
ATOM     74  C   UNL     1      -1.963   8.388  14.646  1.00  0.00     0.131 A 
ATOM     75  C   UNL     1      -4.475   7.235  14.689  1.00  0.00     0.055 A 
ATOM     76  C   UNL     1      -3.086   9.185  14.875  1.00  0.00     0.041 A 
ATOM     77  F   UNL     1      -0.772   9.003  14.567  1.00  0.00    -0.206 F 
ATOM     78  C   UNL     1      -4.354   8.612  14.880  1.00  0.00     0.022 A 
BRANCH  75  79
ATOM     79  S   UNL     1      -6.112   6.491  14.446  1.00  0.00     0.124 S 
ATOM     80  O   UNL     1      -5.993   5.956  13.092  1.00  0.00    -0.237 OA
ATOM     81  O   UNL     1      -6.173   5.506  15.520  1.00  0.00    -0.237 OA
ATOM     82  O   UNL     1      -7.026   7.623  14.583  1.00  0.00    -0.744 OA
ENDBRANCH  75  79
ENDBRANCH  58  72
BRANCH  59  83
ATOM     83  C   UNL     1       6.022   1.561  12.045  1.00  0.00     0.023 A 
ATOM     84  C   UNL     1       6.452   0.482  12.834  1.00  0.00     0.031 A 
ATOM     85  C   UNL     1       6.803   1.910  10.928  1.00  0.00     0.131 A 
ATOM     86  C   UNL     1       7.654  -0.174  12.530  1.00  0.00     0.055 A 
ATOM     87  C   UNL     1       7.967   1.214  10.594  1.00  0.00     0.041 A 
ATOM     88  F   UNL     1       6.439   2.930  10.134  1.00  0.00    -0.206 F 
ATOM     89  C   UNL     1       8.407   0.174  11.407  1.00  0.00     0.022 A 
BRANCH  86  90
ATOM     90  S   UNL     1       8.276  -1.428  13.685  1.00  0.00     0.124 S 
ATOM     91  O   UNL     1       8.371  -0.666  14.925  1.00  0.00    -0.237 OA
ATOM     92  O   UNL     1       7.224  -2.437  13.630  1.00  0.00    -0.237 OA
ATOM     93  O   UNL     1       9.553  -1.827  13.097  1.00  0.00    -0.744 OA
ENDBRANCH  86  90
ENDBRANCH  59  83
BRANCH  71  94
ATOM     94  C   UNL     1       4.263   5.348  17.636  1.00  0.00     0.023 A 
ATOM     95  C   UNL     1       5.485   6.040  17.702  1.00  0.00     0.031 A 
ATOM     96  C   UNL     1       3.712   4.869  18.838  1.00  0.00     0.131 A 
ATOM     97  C   UNL     1       6.150   6.170  18.931  1.00  0.00     0.055 A 
ATOM     98  C   UNL     1       4.340   5.067  20.068  1.00  0.00     0.041 A 
ATOM     99  F   UNL     1       2.548   4.198  18.838  1.00  0.00    -0.206 F 
ATOM    100  C   UNL     1       5.576   5.706  20.117  1.00  0.00     0.022 A 
BRANCH  97 101
ATOM    101  S   UNL     1       7.833   6.845  18.940  1.00  0.00     0.124 S 
ATOM    102  O   UNL     1       8.526   5.944  18.025  1.00  0.00    -0.237 OA
ATOM    103  O   UNL     1       7.626   8.206  18.459  1.00  0.00    -0.237 OA
ATOM    104  O   UNL     1       8.238   6.737  20.341  1.00  0.00    -0.744 OA
ENDBRANCH  97 101
ENDBRANCH  71  94
ENDBRANCH  45  46
ENDBRANCH  37  40
ENDBRANCH  35  36
ENDBRANCH  34  35
ENDBRANCH  33  34
ENDBRANCH   3  33
TORSDOF 19
