REMARK SMILES Nc1cc([N+](=O)[O-])ccc1[C@H]([NH3+])C(=O)NCCCNC(=O)c1ccc(-c2c3nc(c(-c4cc(S(=O)(=O)[O-])ccc4F)c4ccc([nH]4)c(-c4cc(S(=O)(=O)[O-])ccc4F)c4nc(c(-c5cc(S(=O)(=O)[O-])ccc5F)c5ccc2[nH]5)C=C4)C=C3)cc1
REMARK SMILES IDX 17 1 16 2 15 3 13 4 14 5 11 7 10 8 2 9 3 10 4 11 9 12 8 13
REMARK SMILES IDX 1 14 5 17 6 18 7 19 12 20 18 24 19 25 20 26 21 28 22 29
REMARK SMILES IDX 23 30 84 31 24 32 83 33 25 34 26 35 27 36 77 37 28 38 82 39
REMARK SMILES IDX 76 40 78 41 29 42 81 43 75 44 74 45 30 47 62 48 42 49 61 50
REMARK SMILES IDX 43 51 46 52 60 53 79 54 44 55 45 56 59 58 80 59 47 60 31 61
REMARK SMILES IDX 32 62 40 63 33 64 39 65 41 66 38 67 34 68 35 69 36 70 37 71
REMARK SMILES IDX 63 72 64 73 72 74 65 75 71 76 73 77 70 78 66 79 67 80 68 81
REMARK SMILES IDX 69 82 48 83 49 84 57 85 50 86 56 87 58 88 55 89 51 90 52 91
REMARK SMILES IDX 53 92 54 93
REMARK H PARENT 15 6 1 15 1 16 12 21 12 22 12 23 19 27 78 46 46 57
REMARK Flexibility Score: inf
ROOT
ATOM      1  C   UNL     1      -2.799   2.590   1.041  1.00  0.00     0.042 C 
ENDROOT
BRANCH   1   2
ATOM      2  C   UNL     1      -1.772   3.493   0.378  1.00  0.00     0.118 C 
BRANCH   2   3
ATOM      3  N   UNL     1      -0.639   3.764   1.242  1.00  0.00    -0.351 N 
ATOM      4  C   UNL     1       0.664   3.369   1.108  1.00  0.00     0.283 C 
ATOM      5  O   UNL     1       1.478   3.760   1.952  1.00  0.00    -0.268 OA
ATOM      6  H   UNL     1      -0.835   4.311   2.037  1.00  0.00     0.163 HD
BRANCH   4   7
ATOM      7  C   UNL     1       1.113   2.493  -0.099  1.00  0.00     0.304 C 
BRANCH   7   8
ATOM      8  C   UNL     1       0.898   3.192  -1.454  1.00  0.00     0.042 A 
ATOM      9  C   UNL     1       0.474   2.565  -2.647  1.00  0.00     0.048 A 
ATOM     10  C   UNL     1       0.185   3.354  -3.775  1.00  0.00     0.111 A 
ATOM     11  C   UNL     1       0.392   4.737  -3.761  1.00  0.00     0.271 A 
ATOM     12  C   UNL     1       1.141   4.591  -1.488  1.00  0.00     0.020 A 
ATOM     13  C   UNL     1       0.881   5.362  -2.620  1.00  0.00     0.086 A 
BRANCH   9  14
ATOM     14  N   UNL     1       0.186   1.207  -2.734  1.00  0.00    -0.398 N 
ATOM     15  H   UNL     1      -0.106   0.820  -3.591  1.00  0.00     0.156 HD
ATOM     16  H   UNL     1       0.274   0.633  -1.940  1.00  0.00     0.156 HD
ENDBRANCH   9  14
BRANCH  11  17
ATOM     17  N   UNL     1       0.105   5.530  -4.961  1.00  0.00     0.062 N 
ATOM     18  O   UNL     1      -0.247   4.923  -5.984  1.00  0.00    -0.258 OA
ATOM     19  O   UNL     1       0.244   6.759  -4.888  1.00  0.00    -0.258 OA
ENDBRANCH  11  17
ENDBRANCH   7   8
BRANCH   7  20
ATOM     20  N   UNL     1       0.508   1.160   0.082  1.00  0.00    -0.343 N 
ATOM     21  H   UNL     1      -0.508   1.248   0.108  1.00  0.00     0.345 HD
ATOM     22  H   UNL     1       0.837   0.753   0.957  1.00  0.00     0.345 HD
ATOM     23  H   UNL     1       0.776   0.556  -0.696  1.00  0.00     0.345 HD
ENDBRANCH   7  20
ENDBRANCH   4   7
ENDBRANCH   2   3
ENDBRANCH   1   2
BRANCH   1  24
ATOM     24  C   UNL     1      -3.474   3.223   2.248  1.00  0.00     0.118 C 
BRANCH  24  25
ATOM     25  N   UNL     1      -4.219   4.426   1.901  1.00  0.00    -0.352 N 
ATOM     26  C   UNL     1      -5.543   4.725   2.088  1.00  0.00     0.251 C 
ATOM     27  H   UNL     1      -3.689   5.133   1.465  1.00  0.00     0.163 HD
ATOM     28  O   UNL     1      -6.019   5.714   1.527  1.00  0.00    -0.269 OA
BRANCH  26  29
ATOM     29  C   UNL     1      -6.395   3.864   2.936  1.00  0.00     0.039 A 
ATOM     30  C   UNL     1      -7.721   3.639   2.557  1.00  0.00     0.014 A 
ATOM     31  C   UNL     1      -5.902   3.301   4.116  1.00  0.00     0.014 A 
ATOM     32  C   UNL     1      -8.535   2.820   3.341  1.00  0.00     0.010 A 
ATOM     33  C   UNL     1      -6.679   2.402   4.836  1.00  0.00     0.010 A 
ATOM     34  C   UNL     1      -8.014   2.175   4.475  1.00  0.00    -0.014 A 
BRANCH  34  35
ATOM     35  C   UNL     1      -8.869   1.313   5.331  1.00  0.00     0.031 A 
ATOM     36  C   UNL     1      -9.108   1.688   6.769  1.00  0.00     0.074 A 
ATOM     37  C   UNL     1      -9.388   0.174   4.832  1.00  0.00     0.049 A 
ATOM     38  N   UNL     1      -9.771   1.047   7.697  1.00  0.00    -0.248 NA
ATOM     39  C   UNL     1      -8.479   2.933   7.235  1.00  0.00     0.031 C 
ATOM     40  C   UNL     1      -9.181  -0.323   3.471  1.00  0.00     0.029 A 
ATOM     41  N   UNL     1     -10.189  -0.774   5.415  1.00  0.00    -0.354 N 
ATOM     42  C   UNL     1      -9.629   1.804   8.855  1.00  0.00     0.074 A 
ATOM     43  C   UNL     1      -8.738   2.897   8.531  1.00  0.00     0.031 C 
ATOM     44  C   UNL     1      -9.860  -1.470   3.315  1.00  0.00     0.029 A 
ATOM     45  C   UNL     1     -10.513  -1.813   4.575  1.00  0.00     0.049 A 
ATOM     46  H   UNL     1     -10.503  -0.716   6.346  1.00  0.00     0.167 HD
ATOM     47  C   UNL     1     -10.216   1.629  10.066  1.00  0.00     0.034 A 
ATOM     48  C   UNL     1     -11.246  -2.922   4.797  1.00  0.00     0.034 A 
ATOM     49  C   UNL     1     -11.101   0.529  10.367  1.00  0.00     0.049 A 
ATOM     50  C   UNL     1     -11.880  -3.113   6.150  1.00  0.00     0.074 A 
ATOM     51  C   UNL     1     -11.781   0.263  11.542  1.00  0.00     0.029 A 
ATOM     52  N   UNL     1     -11.423  -0.496   9.484  1.00  0.00    -0.354 N 
ATOM     53  N   UNL     1     -11.781  -2.362   7.223  1.00  0.00    -0.248 NA
ATOM     54  C   UNL     1     -12.743  -4.288   6.313  1.00  0.00     0.031 C 
ATOM     55  C   UNL     1     -12.452  -0.956  11.395  1.00  0.00     0.029 A 
ATOM     56  C   UNL     1     -12.269  -1.408  10.097  1.00  0.00     0.049 A 
ATOM     57  H   UNL     1     -11.097  -0.565   8.558  1.00  0.00     0.167 HD
ATOM     58  C   UNL     1     -12.598  -2.959   8.181  1.00  0.00     0.074 A 
ATOM     59  C   UNL     1     -13.189  -4.122   7.550  1.00  0.00     0.031 C 
ATOM     60  C   UNL     1     -12.842  -2.575   9.462  1.00  0.00     0.034 A 
BRANCH  47  61
ATOM     61  C   UNL     1      -9.884   2.640  11.143  1.00  0.00     0.023 A 
ATOM     62  C   UNL     1     -10.142   4.013  10.969  1.00  0.00     0.031 A 
ATOM     63  C   UNL     1      -9.235   2.244  12.326  1.00  0.00     0.131 A 
ATOM     64  C   UNL     1      -9.649   4.944  11.895  1.00  0.00     0.055 A 
ATOM     65  C   UNL     1      -8.842   3.169  13.297  1.00  0.00     0.041 A 
ATOM     66  F   UNL     1      -8.941   0.953  12.547  1.00  0.00    -0.206 F 
ATOM     67  C   UNL     1      -9.025   4.530  13.073  1.00  0.00     0.022 A 
BRANCH  64  68
ATOM     68  S   UNL     1      -9.650   6.700  11.435  1.00  0.00     0.124 S 
ATOM     69  O   UNL     1      -8.890   6.677  10.187  1.00  0.00    -0.237 OA
ATOM     70  O   UNL     1     -11.073   6.993  11.311  1.00  0.00    -0.237 OA
ATOM     71  O   UNL     1      -8.973   7.349  12.555  1.00  0.00    -0.744 OA
ENDBRANCH  64  68
ENDBRANCH  47  61
BRANCH  48  72
ATOM     72  C   UNL     1     -11.413  -3.932   3.713  1.00  0.00     0.023 A 
ATOM     73  C   UNL     1     -12.663  -4.172   3.122  1.00  0.00     0.031 A 
ATOM     74  C   UNL     1     -10.312  -4.678   3.253  1.00  0.00     0.131 A 
ATOM     75  C   UNL     1     -12.790  -5.157   2.130  1.00  0.00     0.055 A 
ATOM     76  C   UNL     1     -10.433  -5.620   2.231  1.00  0.00     0.041 A 
ATOM     77  F   UNL     1      -9.092  -4.481   3.779  1.00  0.00    -0.206 F 
ATOM     78  C   UNL     1     -11.681  -5.871   1.670  1.00  0.00     0.022 A 
BRANCH  75  79
ATOM     79  S   UNL     1     -14.442  -5.537   1.483  1.00  0.00     0.124 S 
ATOM     80  O   UNL     1     -15.142  -5.963   2.689  1.00  0.00    -0.237 OA
ATOM     81  O   UNL     1     -14.850  -4.253   0.922  1.00  0.00    -0.237 OA
ATOM     82  O   UNL     1     -14.189  -6.590   0.502  1.00  0.00    -0.744 OA
ENDBRANCH  75  79
ENDBRANCH  48  72
BRANCH  60  83
ATOM     83  C   UNL     1     -13.838  -3.397  10.247  1.00  0.00     0.023 A 
ATOM     84  C   UNL     1     -13.600  -4.744  10.576  1.00  0.00     0.031 A 
ATOM     85  C   UNL     1     -15.057  -2.825  10.655  1.00  0.00     0.131 A 
ATOM     86  C   UNL     1     -14.594  -5.490  11.229  1.00  0.00     0.055 A 
ATOM     87  C   UNL     1     -16.011  -3.552  11.368  1.00  0.00     0.041 A 
ATOM     88  F   UNL     1     -15.342  -1.545  10.366  1.00  0.00    -0.206 F 
ATOM     89  C   UNL     1     -15.789  -4.898  11.644  1.00  0.00     0.022 A 
BRANCH  86  90
ATOM     90  S   UNL     1     -14.355  -7.278  11.419  1.00  0.00     0.124 S 
ATOM     91  O   UNL     1     -14.137  -7.703  10.039  1.00  0.00    -0.237 OA
ATOM     92  O   UNL     1     -13.193  -7.346  12.299  1.00  0.00    -0.237 OA
ATOM     93  O   UNL     1     -15.611  -7.730  12.014  1.00  0.00    -0.744 OA
ENDBRANCH  86  90
ENDBRANCH  60  83
ENDBRANCH  34  35
ENDBRANCH  26  29
ENDBRANCH  24  25
ENDBRANCH   1  24
TORSDOF 17
