REMARK SMILES O=C(NCCCNC(=O)[C@H](c1cnn(Cc2ccccc2)c1)[NH+]1CCOCC1)c1ccc(-c2c3nc(c(-c4cc(S(=O)(=O)[O-])ccc4F)c4ccc([nH]4)c(-c4cc(S(=O)(=O)[O-])ccc4F)c4nc(c(-c5cc(S(=O)(=O)[O-])ccc5F)c5ccc2[nH]5)C=C4)C=C3)cc1
REMARK SMILES IDX 5 1 4 2 3 3 1 4 2 5 29 7 30 8 91 9 31 10 90 11 32 12 33 13
REMARK SMILES IDX 34 14 84 15 35 16 89 17 83 18 85 19 36 20 88 21 82 22 81 23
REMARK SMILES IDX 37 25 69 26 49 27 68 28 50 29 53 30 67 31 86 32 51 33 52 34
REMARK SMILES IDX 66 36 87 37 54 38 38 39 39 40 47 41 40 42 46 43 48 44 45 45
REMARK SMILES IDX 41 46 42 47 43 48 44 49 70 50 71 51 79 52 72 53 78 54 80 55
REMARK SMILES IDX 77 56 73 57 74 58 75 59 76 60 55 61 56 62 64 63 57 64 63 65
REMARK SMILES IDX 65 66 62 67 58 68 59 69 60 70 61 71 6 72 7 73 8 74 9 76
REMARK SMILES IDX 10 77 23 78 24 79 28 80 25 82 27 83 26 84 11 85 12 86 22 87
REMARK SMILES IDX 13 88 14 89 15 90 16 91 17 92 21 93 18 94 20 95 19 96
REMARK H PARENT 3 6 85 24 53 35 7 75 23 81
REMARK Flexibility Score: inf
ROOT
ATOM      1  C   UNL     1       3.956   4.130  -1.846  1.00  0.00     0.042 C 
ENDROOT
BRANCH   1   2
ATOM      2  C   UNL     1       4.466   3.451  -3.107  1.00  0.00     0.118 C 
BRANCH   2   3
ATOM      3  N   UNL     1       4.639   2.017  -3.010  1.00  0.00    -0.352 N 
ATOM      4  O   UNL     1       4.414  -0.160  -3.208  1.00  0.00    -0.269 OA
ATOM      5  C   UNL     1       3.827   0.926  -3.163  1.00  0.00     0.251 C 
ATOM      6  H   UNL     1       5.562   1.766  -2.778  1.00  0.00     0.163 HD
BRANCH   5   7
ATOM      7  C   UNL     1       2.336   0.940  -3.228  1.00  0.00     0.039 A 
ATOM      8  C   UNL     1       1.520   2.070  -3.290  1.00  0.00     0.014 A 
ATOM      9  C   UNL     1       1.715  -0.325  -3.187  1.00  0.00     0.014 A 
ATOM     10  C   UNL     1       0.128   1.942  -3.236  1.00  0.00     0.010 A 
ATOM     11  C   UNL     1       0.328  -0.458  -3.152  1.00  0.00     0.010 A 
ATOM     12  C   UNL     1      -0.472   0.680  -3.146  1.00  0.00    -0.014 A 
BRANCH  12  13
ATOM     13  C   UNL     1      -1.935   0.580  -3.229  1.00  0.00     0.031 A 
ATOM     14  C   UNL     1      -2.523   1.063  -4.517  1.00  0.00     0.074 A 
ATOM     15  C   UNL     1      -2.719  -0.051  -2.327  1.00  0.00     0.049 A 
ATOM     16  N   UNL     1      -3.400   1.995  -4.705  1.00  0.00    -0.248 NA
ATOM     17  C   UNL     1      -1.996   0.489  -5.766  1.00  0.00     0.031 C 
ATOM     18  C   UNL     1      -2.306  -0.833  -1.160  1.00  0.00     0.029 A 
ATOM     19  N   UNL     1      -4.078  -0.203  -2.328  1.00  0.00    -0.354 N 
ATOM     20  C   UNL     1      -3.674   2.011  -6.073  1.00  0.00     0.074 A 
ATOM     21  C   UNL     1      -2.690   1.159  -6.686  1.00  0.00     0.031 C 
ATOM     22  C   UNL     1      -3.361  -1.544  -0.698  1.00  0.00     0.029 A 
ATOM     23  C   UNL     1      -4.553  -1.168  -1.442  1.00  0.00     0.049 A 
ATOM     24  H   UNL     1      -4.673   0.327  -2.907  1.00  0.00     0.167 HD
ATOM     25  C   UNL     1      -4.793   2.600  -6.585  1.00  0.00     0.034 A 
ATOM     26  C   UNL     1      -5.820  -1.661  -1.351  1.00  0.00     0.034 A 
ATOM     27  C   UNL     1      -5.362   3.543  -5.654  1.00  0.00     0.049 A 
ATOM     28  C   UNL     1      -6.724  -0.660  -1.965  1.00  0.00     0.074 A 
ATOM     29  C   UNL     1      -4.901   4.698  -5.052  1.00  0.00     0.029 A 
ATOM     30  N   UNL     1      -6.458   3.164  -4.915  1.00  0.00    -0.354 N 
ATOM     31  N   UNL     1      -6.922   0.529  -1.467  1.00  0.00    -0.248 NA
ATOM     32  C   UNL     1      -7.047  -0.801  -3.376  1.00  0.00     0.031 C 
ATOM     33  C   UNL     1      -5.391   4.631  -3.714  1.00  0.00     0.029 A 
ATOM     34  C   UNL     1      -6.182   3.485  -3.607  1.00  0.00     0.049 A 
ATOM     35  H   UNL     1      -7.280   2.744  -5.257  1.00  0.00     0.167 HD
ATOM     36  C   UNL     1      -6.965   1.374  -2.563  1.00  0.00     0.074 A 
ATOM     37  C   UNL     1      -7.134   0.488  -3.714  1.00  0.00     0.031 C 
ATOM     38  C   UNL     1      -6.588   2.683  -2.468  1.00  0.00     0.034 A 
BRANCH  25  39
ATOM     39  C   UNL     1      -5.532   2.136  -7.820  1.00  0.00     0.023 A 
ATOM     40  C   UNL     1      -6.632   2.895  -8.271  1.00  0.00     0.031 A 
ATOM     41  C   UNL     1      -5.385   0.860  -8.412  1.00  0.00     0.131 A 
ATOM     42  C   UNL     1      -7.547   2.365  -9.201  1.00  0.00     0.055 A 
ATOM     43  C   UNL     1      -6.260   0.364  -9.384  1.00  0.00     0.041 A 
ATOM     44  F   UNL     1      -4.450  -0.012  -8.018  1.00  0.00    -0.206 F 
ATOM     45  C   UNL     1      -7.364   1.106  -9.765  1.00  0.00     0.022 A 
BRANCH  42  46
ATOM     46  S   UNL     1      -9.078   3.279  -9.539  1.00  0.00     0.124 S 
ATOM     47  O   UNL     1      -9.595   3.505  -8.194  1.00  0.00    -0.237 OA
ATOM     48  O   UNL     1      -8.578   4.454 -10.244  1.00  0.00    -0.237 OA
ATOM     49  O   UNL     1      -9.855   2.348 -10.355  1.00  0.00    -0.744 OA
ENDBRANCH  42  46
ENDBRANCH  25  39
BRANCH  26  50
ATOM     50  C   UNL     1      -6.231  -3.071  -1.086  1.00  0.00     0.023 A 
ATOM     51  C   UNL     1      -7.519  -3.437  -0.634  1.00  0.00     0.031 A 
ATOM     52  C   UNL     1      -5.397  -4.120  -1.534  1.00  0.00     0.131 A 
ATOM     53  C   UNL     1      -7.917  -4.798  -0.637  1.00  0.00     0.055 A 
ATOM     54  C   UNL     1      -5.795  -5.459  -1.535  1.00  0.00     0.041 A 
ATOM     55  F   UNL     1      -4.194  -3.868  -2.073  1.00  0.00    -0.206 F 
ATOM     56  C   UNL     1      -7.061  -5.803  -1.092  1.00  0.00     0.022 A 
BRANCH  53  57
ATOM     57  S   UNL     1      -9.603  -5.281  -0.128  1.00  0.00     0.124 S 
ATOM     58  O   UNL     1      -9.593  -4.982   1.303  1.00  0.00    -0.237 OA
ATOM     59  O   UNL     1     -10.440  -4.433  -0.962  1.00  0.00    -0.237 OA
ATOM     60  O   UNL     1      -9.662  -6.708  -0.452  1.00  0.00    -0.744 OA
ENDBRANCH  53  57
ENDBRANCH  26  50
BRANCH  38  61
ATOM     61  C   UNL     1      -6.358   3.273  -1.087  1.00  0.00     0.023 A 
ATOM     62  C   UNL     1      -5.456   2.755  -0.127  1.00  0.00     0.031 A 
ATOM     63  C   UNL     1      -7.000   4.486  -0.783  1.00  0.00     0.131 A 
ATOM     64  C   UNL     1      -5.240   3.442   1.085  1.00  0.00     0.055 A 
ATOM     65  C   UNL     1      -6.766   5.175   0.407  1.00  0.00     0.041 A 
ATOM     66  F   UNL     1      -7.849   5.046  -1.661  1.00  0.00    -0.206 F 
ATOM     67  C   UNL     1      -5.889   4.652   1.349  1.00  0.00     0.022 A 
BRANCH  64  68
ATOM     68  S   UNL     1      -4.116   2.767   2.352  1.00  0.00     0.124 S 
ATOM     69  O   UNL     1      -4.540   1.378   2.481  1.00  0.00    -0.237 OA
ATOM     70  O   UNL     1      -2.801   2.985   1.756  1.00  0.00    -0.237 OA
ATOM     71  O   UNL     1      -4.392   3.597   3.527  1.00  0.00    -0.744 OA
ENDBRANCH  64  68
ENDBRANCH  38  61
ENDBRANCH  12  13
ENDBRANCH   5   7
ENDBRANCH   2   3
ENDBRANCH   1   2
BRANCH   1  72
ATOM     72  C   UNL     1       4.747   3.844  -0.581  1.00  0.00     0.118 C 
BRANCH  72  73
ATOM     73  N   UNL     1       6.110   4.341  -0.555  1.00  0.00    -0.351 N 
ATOM     74  C   UNL     1       6.758   5.039   0.433  1.00  0.00     0.283 C 
ATOM     75  H   UNL     1       6.645   4.151  -1.359  1.00  0.00     0.163 HD
ATOM     76  O   UNL     1       7.963   5.266   0.248  1.00  0.00    -0.268 OA
BRANCH  74  77
ATOM     77  C   UNL     1       6.048   5.591   1.716  1.00  0.00     0.308 C 
BRANCH  77  78
ATOM     78  N   UNL     1       4.821   6.387   1.421  1.00  0.00    -0.317 N 
ATOM     79  C   UNL     1       4.911   7.254   0.220  1.00  0.00     0.292 C 
ATOM     80  C   UNL     1       4.441   7.271   2.553  1.00  0.00     0.292 C 
ATOM     81  H   UNL     1       4.120   5.665   1.253  1.00  0.00     0.349 HD
ATOM     82  C   UNL     1       5.799   8.493   0.384  1.00  0.00     0.221 C 
ATOM     83  C   UNL     1       5.301   8.549   2.684  1.00  0.00     0.221 C 
ATOM     84  O   UNL     1       5.343   9.305   1.468  1.00  0.00    -0.370 OA
ENDBRANCH  77  78
BRANCH  77  85
ATOM     85  C   UNL     1       5.774   4.470   2.708  1.00  0.00     0.057 A 
ATOM     86  C   UNL     1       4.995   3.304   2.528  1.00  0.00     0.145 A 
ATOM     87  C   UNL     1       6.232   4.319   4.017  1.00  0.00     0.119 A 
ATOM     88  N   UNL     1       5.124   2.429   3.515  1.00  0.00    -0.181 NA
ATOM     89  N   UNL     1       5.707   3.139   4.487  1.00  0.00    -0.268 N 
BRANCH  89  90
ATOM     90  C   UNL     1       5.771   2.558   5.827  1.00  0.00     0.179 C 
BRANCH  90  91
ATOM     91  C   UNL     1       4.397   2.315   6.428  1.00  0.00    -0.027 A 
ATOM     92  C   UNL     1       4.019   2.933   7.628  1.00  0.00     0.005 A 
ATOM     93  C   UNL     1       3.467   1.462   5.803  1.00  0.00     0.005 A 
ATOM     94  C   UNL     1       2.738   2.737   8.157  1.00  0.00     0.000 A 
ATOM     95  C   UNL     1       2.182   1.287   6.317  1.00  0.00     0.000 A 
ATOM     96  C   UNL     1       1.817   1.927   7.494  1.00  0.00     0.000 A 
ENDBRANCH  90  91
ENDBRANCH  89  90
ENDBRANCH  77  85
ENDBRANCH  74  77
ENDBRANCH  72  73
ENDBRANCH   1  72
TORSDOF 17
