REMARK SMILES O=C(Cc1ccc(F)c(F)c1)NC1(C(=O)NCCCNC(=O)c2ccc(-c3c4nc(c(-c5cc(S(=O)(=O)[O-])ccc5F)c5ccc([nH]5)c(-c5cc(S(=O)(=O)[O-])ccc5F)c5nc(c(-c6cc(S(=O)(=O)[O-])ccc6F)c6ccc3[nH]6)C=C5)C=C4)cc2)CCCC1
REMARK SMILES IDX 18 1 17 2 16 3 14 4 15 5 13 7 86 8 89 9 87 10 88 11 12 12
REMARK SMILES IDX 1 13 2 14 3 16 4 17 5 18 11 19 6 20 9 21 7 22 10 23 8 24
REMARK SMILES IDX 19 25 20 26 21 27 22 29 23 30 24 31 85 32 25 33 84 34 26 35
REMARK SMILES IDX 27 36 28 37 78 38 29 39 83 40 77 41 79 42 30 43 82 44 76 45
REMARK SMILES IDX 75 46 31 48 63 49 43 50 62 51 44 52 47 53 61 54 80 55 45 56
REMARK SMILES IDX 46 57 60 59 81 60 48 61 32 62 33 63 41 64 34 65 40 66 42 67
REMARK SMILES IDX 39 68 35 69 36 70 37 71 38 72 64 73 65 74 73 75 66 76 72 77
REMARK SMILES IDX 74 78 71 79 67 80 68 81 69 82 70 83 49 84 50 85 58 86 51 87
REMARK SMILES IDX 57 88 59 89 56 90 52 91 53 92 54 93 55 94
REMARK H PARENT 16 6 12 15 20 28 79 47 47 58
REMARK Flexibility Score: inf
ROOT
ATOM      1  C   UNL     1       0.264   3.302   4.834  1.00  0.00     0.042 C 
ENDROOT
BRANCH   1   2
ATOM      2  C   UNL     1       1.655   3.522   4.265  1.00  0.00     0.117 C 
BRANCH   2   3
ATOM      3  N   UNL     1       2.359   2.283   4.031  1.00  0.00    -0.354 N 
ATOM      4  C   UNL     1       2.676   1.637   2.881  1.00  0.00     0.245 C 
ATOM      5  O   UNL     1       3.472   0.694   3.012  1.00  0.00    -0.272 OA
ATOM      6  H   UNL     1       2.662   1.828   4.850  1.00  0.00     0.163 HD
BRANCH   4   7
ATOM      7  C   UNL     1       2.180   2.079   1.459  1.00  0.00     0.119 C 
ATOM      8  C   UNL     1       2.723   3.467   1.060  1.00  0.00     0.038 C 
ATOM      9  C   UNL     1       0.660   2.172   1.265  1.00  0.00     0.038 C 
ATOM     10  C   UNL     1       1.542   4.416   0.874  1.00  0.00     0.003 C 
ATOM     11  C   UNL     1       0.272   3.639   1.165  1.00  0.00     0.003 C 
BRANCH   7  12
ATOM     12  N   UNL     1       2.823   1.092   0.557  1.00  0.00    -0.341 N 
ATOM     13  O   UNL     1       1.141  -0.461   0.293  1.00  0.00    -0.275 OA
ATOM     14  C   UNL     1       2.276  -0.065   0.052  1.00  0.00     0.225 C 
ATOM     15  H   UNL     1       3.750   1.288   0.288  1.00  0.00     0.164 HD
BRANCH  14  16
ATOM     16  C   UNL     1       3.222  -0.872  -0.825  1.00  0.00     0.135 C 
BRANCH  16  17
ATOM     17  C   UNL     1       3.946  -0.150  -1.952  1.00  0.00    -0.036 A 
ATOM     18  C   UNL     1       4.869  -0.891  -2.716  1.00  0.00     0.007 A 
ATOM     19  C   UNL     1       3.758   1.203  -2.277  1.00  0.00     0.046 A 
ATOM     20  C   UNL     1       5.609  -0.287  -3.739  1.00  0.00     0.043 A 
ATOM     21  C   UNL     1       4.523   1.807  -3.272  1.00  0.00     0.159 A 
ATOM     22  C   UNL     1       5.443   1.067  -3.998  1.00  0.00     0.158 A 
ATOM     23  F   UNL     1       4.366   3.116  -3.514  1.00  0.00    -0.204 F 
ATOM     24  F   UNL     1       6.175   1.651  -4.956  1.00  0.00    -0.204 F 
ENDBRANCH  16  17
ENDBRANCH  14  16
ENDBRANCH   7  12
ENDBRANCH   4   7
ENDBRANCH   2   3
ENDBRANCH   1   2
BRANCH   1  25
ATOM     25  C   UNL     1       0.281   3.086   6.339  1.00  0.00     0.118 C 
BRANCH  25  26
ATOM     26  N   UNL     1       0.744   4.273   7.052  1.00  0.00    -0.352 N 
ATOM     27  C   UNL     1       0.088   5.080   7.947  1.00  0.00     0.251 C 
ATOM     28  H   UNL     1       1.673   4.535   6.861  1.00  0.00     0.163 HD
ATOM     29  O   UNL     1       0.572   6.176   8.231  1.00  0.00    -0.269 OA
BRANCH  27  30
ATOM     30  C   UNL     1      -1.187   4.643   8.549  1.00  0.00     0.039 A 
ATOM     31  C   UNL     1      -2.194   5.583   8.777  1.00  0.00     0.014 A 
ATOM     32  C   UNL     1      -1.383   3.306   8.901  1.00  0.00     0.014 A 
ATOM     33  C   UNL     1      -3.418   5.166   9.302  1.00  0.00     0.010 A 
ATOM     34  C   UNL     1      -2.636   2.876   9.314  1.00  0.00     0.010 A 
ATOM     35  C   UNL     1      -3.662   3.804   9.538  1.00  0.00    -0.014 A 
BRANCH  35  36
ATOM     36  C   UNL     1      -4.969   3.325  10.053  1.00  0.00     0.031 A 
ATOM     37  C   UNL     1      -5.035   2.606  11.374  1.00  0.00     0.074 A 
ATOM     38  C   UNL     1      -6.078   3.478   9.304  1.00  0.00     0.049 A 
ATOM     39  N   UNL     1      -6.058   2.040  11.960  1.00  0.00    -0.248 NA
ATOM     40  C   UNL     1      -3.770   2.473  12.113  1.00  0.00     0.031 C 
ATOM     41  C   UNL     1      -6.127   4.121   7.989  1.00  0.00     0.029 A 
ATOM     42  N   UNL     1      -7.376   3.104   9.538  1.00  0.00    -0.354 N 
ATOM     43  C   UNL     1      -5.556   1.470  13.126  1.00  0.00     0.074 A 
ATOM     44  C   UNL     1      -4.126   1.687  13.116  1.00  0.00     0.031 C 
ATOM     45  C   UNL     1      -7.396   4.134   7.553  1.00  0.00     0.029 A 
ATOM     46  C   UNL     1      -8.242   3.454   8.528  1.00  0.00     0.049 A 
ATOM     47  H   UNL     1      -7.662   2.631  10.352  1.00  0.00     0.167 HD
ATOM     48  C   UNL     1      -6.230   0.854  14.129  1.00  0.00     0.034 A 
ATOM     49  C   UNL     1      -9.566   3.241   8.400  1.00  0.00     0.034 A 
ATOM     50  C   UNL     1      -7.659   0.655  14.118  1.00  0.00     0.049 A 
ATOM     51  C   UNL     1     -10.292   2.519   9.506  1.00  0.00     0.074 A 
ATOM     52  C   UNL     1      -8.459   0.087  15.094  1.00  0.00     0.029 A 
ATOM     53  N   UNL     1      -8.503   1.010  13.072  1.00  0.00    -0.354 N 
ATOM     54  N   UNL     1      -9.814   2.027  10.627  1.00  0.00    -0.248 NA
ATOM     55  C   UNL     1     -11.737   2.332   9.333  1.00  0.00     0.031 C 
ATOM     56  C   UNL     1      -9.769   0.026  14.605  1.00  0.00     0.029 A 
ATOM     57  C   UNL     1      -9.807   0.641  13.364  1.00  0.00     0.049 A 
ATOM     58  H   UNL     1      -8.216   1.459  12.244  1.00  0.00     0.167 HD
ATOM     59  C   UNL     1     -10.909   1.504  11.309  1.00  0.00     0.074 A 
ATOM     60  C   UNL     1     -12.070   1.752  10.476  1.00  0.00     0.031 C 
ATOM     61  C   UNL     1     -10.954   0.883  12.516  1.00  0.00     0.034 A 
BRANCH  48  62
ATOM     62  C   UNL     1      -5.415   0.332  15.291  1.00  0.00     0.023 A 
ATOM     63  C   UNL     1      -4.619   1.186  16.077  1.00  0.00     0.031 A 
ATOM     64  C   UNL     1      -5.383  -1.043  15.584  1.00  0.00     0.131 A 
ATOM     65  C   UNL     1      -3.749   0.649  17.038  1.00  0.00     0.055 A 
ATOM     66  C   UNL     1      -4.590  -1.560  16.611  1.00  0.00     0.041 A 
ATOM     67  F   UNL     1      -6.101  -1.915  14.859  1.00  0.00    -0.206 F 
ATOM     68  C   UNL     1      -3.749  -0.715  17.331  1.00  0.00     0.022 A 
BRANCH  65  69
ATOM     69  S   UNL     1      -2.483   1.733  17.756  1.00  0.00     0.124 S 
ATOM     70  O   UNL     1      -1.784   2.202  16.562  1.00  0.00    -0.237 OA
ATOM     71  O   UNL     1      -3.283   2.728  18.460  1.00  0.00    -0.237 OA
ATOM     72  O   UNL     1      -1.708   0.836  18.610  1.00  0.00    -0.744 OA
ENDBRANCH  65  69
ENDBRANCH  48  62
BRANCH  49  73
ATOM     73  C   UNL     1     -10.291   3.724   7.191  1.00  0.00     0.023 A 
ATOM     74  C   UNL     1     -11.277   4.718   7.291  1.00  0.00     0.031 A 
ATOM     75  C   UNL     1     -10.025   3.186   5.919  1.00  0.00     0.131 A 
ATOM     76  C   UNL     1     -11.989   5.116   6.149  1.00  0.00     0.055 A 
ATOM     77  C   UNL     1     -10.697   3.624   4.777  1.00  0.00     0.041 A 
ATOM     78  F   UNL     1      -9.087   2.237   5.766  1.00  0.00    -0.206 F 
ATOM     79  C   UNL     1     -11.695   4.587   4.890  1.00  0.00     0.022 A 
BRANCH  76  80
ATOM     80  S   UNL     1     -13.361   6.286   6.345  1.00  0.00     0.124 S 
ATOM     81  O   UNL     1     -14.236   5.566   7.263  1.00  0.00    -0.237 OA
ATOM     82  O   UNL     1     -12.684   7.458   6.889  1.00  0.00    -0.237 OA
ATOM     83  O   UNL     1     -13.873   6.440   4.985  1.00  0.00    -0.744 OA
ENDBRANCH  76  80
ENDBRANCH  49  73
BRANCH  61  84
ATOM     84  C   UNL     1     -12.315   0.474  13.028  1.00  0.00     0.023 A 
ATOM     85  C   UNL     1     -13.089  -0.505  12.382  1.00  0.00     0.031 A 
ATOM     86  C   UNL     1     -12.847   1.085  14.178  1.00  0.00     0.131 A 
ATOM     87  C   UNL     1     -14.378  -0.799  12.853  1.00  0.00     0.055 A 
ATOM     88  C   UNL     1     -14.100   0.737  14.683  1.00  0.00     0.041 A 
ATOM     89  F   UNL     1     -12.155   2.031  14.833  1.00  0.00    -0.206 F 
ATOM     90  C   UNL     1     -14.879  -0.200  14.011  1.00  0.00     0.022 A 
BRANCH  87  91
ATOM     91  S   UNL     1     -15.435  -1.897  11.870  1.00  0.00     0.124 S 
ATOM     92  O   UNL     1     -15.478  -1.204  10.585  1.00  0.00    -0.237 OA
ATOM     93  O   UNL     1     -14.690  -3.151  11.893  1.00  0.00    -0.237 OA
ATOM     94  O   UNL     1     -16.696  -1.911  12.608  1.00  0.00    -0.744 OA
ENDBRANCH  87  91
ENDBRANCH  61  84
ENDBRANCH  35  36
ENDBRANCH  27  30
ENDBRANCH  25  26
ENDBRANCH   1  25
TORSDOF 16
