REMARK SMILES CCN(CC(C)(C)O)C(=O)[C@H]1CC=CC[C@H]1C(=O)NCCCNC(=O)c1ccc(-c2c3nc(c(-c4cc(S(=O)(=O)[O-])ccc4F)c4ccc([nH]4)c(-c4cc(S(=O)(=O)[O-])ccc4F)c4nc(c(-c5cc(S(=O)(=O)[O-])ccc5F)c5ccc2[nH]5)C=C4)C=C3)cc1
REMARK SMILES IDX 20 1 19 2 17 3 18 4 16 6 11 7 12 8 13 9 15 10 14 11 9 12
REMARK SMILES IDX 10 13 3 14 2 15 1 16 4 17 5 18 6 19 7 20 8 21 21 23 22 24
REMARK SMILES IDX 23 25 24 26 25 28 26 29 27 30 88 31 28 32 87 33 29 34 30 35
REMARK SMILES IDX 31 36 81 37 32 38 86 39 80 40 82 41 33 42 85 43 79 44 78 45
REMARK SMILES IDX 34 47 66 48 46 49 65 50 47 51 50 52 64 53 83 54 48 55 49 56
REMARK SMILES IDX 63 58 84 59 51 60 35 61 36 62 44 63 37 64 43 65 45 66 42 67
REMARK SMILES IDX 38 68 39 69 40 70 41 71 67 72 68 73 76 74 69 75 75 76 77 77
REMARK SMILES IDX 74 78 70 79 71 80 72 81 73 82 52 83 53 84 61 85 54 86 60 87
REMARK SMILES IDX 62 88 59 89 55 90 56 91 57 92 58 93
REMARK H PARENT 19 5 8 22 23 27 82 46 50 57
REMARK Flexibility Score: inf
ROOT
ATOM      1  C   UNL     1       2.470   2.149  -3.262  1.00  0.00     0.117 C 
ENDROOT
BRANCH   1   2
ATOM      2  N   UNL     1       3.424   1.885  -4.316  1.00  0.00    -0.356 N 
ATOM      3  C   UNL     1       3.884   0.798  -4.960  1.00  0.00     0.224 C 
ATOM      4  O   UNL     1       4.748   1.082  -5.812  1.00  0.00    -0.275 OA
ATOM      5  H   UNL     1       3.844   2.711  -4.647  1.00  0.00     0.163 HD
BRANCH   3   6
ATOM      6  C   UNL     1       3.441  -0.680  -4.892  1.00  0.00     0.095 C 
ATOM      7  C   UNL     1       2.871  -1.483  -3.689  1.00  0.00     0.095 C 
ATOM      8  C   UNL     1       2.414  -2.921  -4.003  1.00  0.00     0.041 C 
ATOM      9  C   UNL     1       1.900  -3.156  -5.386  1.00  0.00    -0.030 C 
ATOM     10  C   UNL     1       2.875  -1.037  -6.292  1.00  0.00     0.041 C 
ATOM     11  C   UNL     1       2.108  -2.317  -6.405  1.00  0.00    -0.030 C 
BRANCH   7  12
ATOM     12  C   UNL     1       2.164  -0.845  -2.485  1.00  0.00     0.226 C 
ATOM     13  O   UNL     1       2.928  -0.453  -1.591  1.00  0.00    -0.275 OA
BRANCH  12  14
ATOM     14  N   UNL     1       0.791  -0.706  -2.323  1.00  0.00    -0.340 N 
BRANCH  14  15
ATOM     15  C   UNL     1       0.297   0.011  -1.119  1.00  0.00     0.116 C 
ATOM     16  C   UNL     1       0.784  -0.505   0.233  1.00  0.00     0.027 C 
ENDBRANCH  14  15
BRANCH  14  17
ATOM     17  C   UNL     1      -0.280  -1.129  -3.244  1.00  0.00     0.154 C 
BRANCH  17  18
ATOM     18  C   UNL     1      -0.943  -0.023  -4.131  1.00  0.00     0.077 C 
ATOM     19  C   UNL     1      -0.052   0.378  -5.297  1.00  0.00     0.043 C 
ATOM     20  C   UNL     1      -2.263  -0.565  -4.697  1.00  0.00     0.043 C 
BRANCH  18  21
ATOM     21  O   UNL     1      -1.254   1.144  -3.369  1.00  0.00    -0.389 OA
ATOM     22  H   UNL     1      -0.438   1.513  -2.996  1.00  0.00     0.211 HD
ENDBRANCH  18  21
ENDBRANCH  17  18
ENDBRANCH  14  17
ENDBRANCH  12  14
ENDBRANCH   7  12
ENDBRANCH   3   6
ENDBRANCH   1   2
BRANCH   1  23
ATOM     23  C   UNL     1       3.146   2.315  -1.905  1.00  0.00     0.042 C 
BRANCH  23  24
ATOM     24  C   UNL     1       3.502   3.750  -1.556  1.00  0.00     0.118 C 
BRANCH  24  25
ATOM     25  N   UNL     1       2.325   4.567  -1.281  1.00  0.00    -0.352 N 
ATOM     26  C   UNL     1       1.742   5.002  -0.114  1.00  0.00     0.251 C 
ATOM     27  H   UNL     1       1.855   4.867  -2.092  1.00  0.00     0.163 HD
ATOM     28  O   UNL     1       0.624   5.512  -0.191  1.00  0.00    -0.269 OA
BRANCH  26  29
ATOM     29  C   UNL     1       2.391   4.864   1.216  1.00  0.00     0.039 A 
ATOM     30  C   UNL     1       1.578   4.765   2.354  1.00  0.00     0.014 A 
ATOM     31  C   UNL     1       3.774   4.899   1.385  1.00  0.00     0.014 A 
ATOM     32  C   UNL     1       2.149   4.639   3.628  1.00  0.00     0.010 A 
ATOM     33  C   UNL     1       4.342   4.648   2.634  1.00  0.00     0.010 A 
ATOM     34  C   UNL     1       3.540   4.535   3.777  1.00  0.00    -0.014 A 
BRANCH  34  35
ATOM     35  C   UNL     1       4.185   4.349   5.109  1.00  0.00     0.031 A 
ATOM     36  C   UNL     1       5.202   5.350   5.601  1.00  0.00     0.074 A 
ATOM     37  C   UNL     1       3.923   3.245   5.837  1.00  0.00     0.049 A 
ATOM     38  N   UNL     1       5.981   5.298   6.652  1.00  0.00    -0.248 NA
ATOM     39  C   UNL     1       5.401   6.549   4.771  1.00  0.00     0.031 C 
ATOM     40  C   UNL     1       2.997   2.177   5.454  1.00  0.00     0.029 A 
ATOM     41  N   UNL     1       4.422   2.828   7.047  1.00  0.00    -0.354 N 
ATOM     42  C   UNL     1       6.786   6.433   6.587  1.00  0.00     0.074 A 
ATOM     43  C   UNL     1       6.442   7.117   5.359  1.00  0.00     0.031 C 
ATOM     44  C   UNL     1       2.974   1.245   6.419  1.00  0.00     0.029 A 
ATOM     45  C   UNL     1       3.921   1.616   7.465  1.00  0.00     0.049 A 
ATOM     46  H   UNL     1       5.077   3.347   7.567  1.00  0.00     0.167 HD
ATOM     47  C   UNL     1       7.708   6.877   7.479  1.00  0.00     0.034 A 
ATOM     48  C   UNL     1       4.203   0.878   8.558  1.00  0.00     0.034 A 
ATOM     49  C   UNL     1       8.008   6.203   8.719  1.00  0.00     0.049 A 
ATOM     50  C   UNL     1       5.219   1.397   9.543  1.00  0.00     0.074 A 
ATOM     51  C   UNL     1       8.869   6.598   9.729  1.00  0.00     0.029 A 
ATOM     52  N   UNL     1       7.455   4.994   9.120  1.00  0.00    -0.354 N 
ATOM     53  N   UNL     1       5.940   2.494   9.487  1.00  0.00    -0.248 NA
ATOM     54  C   UNL     1       5.452   0.584  10.743  1.00  0.00     0.031 C 
ATOM     55  C   UNL     1       8.881   5.601  10.710  1.00  0.00     0.029 A 
ATOM     56  C   UNL     1       7.973   4.617  10.351  1.00  0.00     0.049 A 
ATOM     57  H   UNL     1       6.792   4.479   8.607  1.00  0.00     0.167 HD
ATOM     58  C   UNL     1       6.690   2.514  10.659  1.00  0.00     0.074 A 
ATOM     59  C   UNL     1       6.320   1.331  11.409  1.00  0.00     0.031 C 
ATOM     60  C   UNL     1       7.599   3.429  11.081  1.00  0.00     0.034 A 
BRANCH  47  61
ATOM     61  C   UNL     1       8.465   8.138   7.129  1.00  0.00     0.023 A 
ATOM     62  C   UNL     1       7.811   9.371   6.952  1.00  0.00     0.031 A 
ATOM     63  C   UNL     1       9.858   8.104   6.938  1.00  0.00     0.131 A 
ATOM     64  C   UNL     1       8.531  10.492   6.510  1.00  0.00     0.055 A 
ATOM     65  C   UNL     1      10.583   9.245   6.584  1.00  0.00     0.041 A 
ATOM     66  F   UNL     1      10.540   6.955   7.075  1.00  0.00    -0.206 F 
ATOM     67  C   UNL     1       9.917  10.444   6.350  1.00  0.00     0.022 A 
BRANCH  64  68
ATOM     68  S   UNL     1       7.607  11.967   6.000  1.00  0.00     0.124 S 
ATOM     69  O   UNL     1       6.771  11.434   4.926  1.00  0.00    -0.237 OA
ATOM     70  O   UNL     1       6.911  12.343   7.225  1.00  0.00    -0.237 OA
ATOM     71  O   UNL     1       8.652  12.892   5.565  1.00  0.00    -0.744 OA
ENDBRANCH  64  68
ENDBRANCH  47  61
BRANCH  48  72
ATOM     72  C   UNL     1       3.524  -0.431   8.782  1.00  0.00     0.023 A 
ATOM     73  C   UNL     1       2.656  -0.618   9.870  1.00  0.00     0.031 A 
ATOM     74  C   UNL     1       3.760  -1.527   7.933  1.00  0.00     0.131 A 
ATOM     75  C   UNL     1       2.092  -1.880  10.108  1.00  0.00     0.055 A 
ATOM     76  C   UNL     1       3.155  -2.767   8.143  1.00  0.00     0.041 A 
ATOM     77  F   UNL     1       4.577  -1.402   6.874  1.00  0.00    -0.206 F 
ATOM     78  C   UNL     1       2.325  -2.953   9.245  1.00  0.00     0.022 A 
BRANCH  75  79
ATOM     79  S   UNL     1       1.111  -2.128  11.613  1.00  0.00     0.124 S 
ATOM     80  O   UNL     1       2.068  -1.761  12.655  1.00  0.00    -0.237 OA
ATOM     81  O   UNL     1       0.004  -1.195  11.408  1.00  0.00    -0.237 OA
ATOM     82  O   UNL     1       0.753  -3.537  11.562  1.00  0.00    -0.744 OA
ENDBRANCH  75  79
ENDBRANCH  48  72
BRANCH  60  83
ATOM     83  C   UNL     1       8.217   3.203  12.439  1.00  0.00     0.023 A 
ATOM     84  C   UNL     1       9.081   2.123  12.690  1.00  0.00     0.031 A 
ATOM     85  C   UNL     1       7.922   4.077  13.501  1.00  0.00     0.131 A 
ATOM     86  C   UNL     1       9.576   1.911  13.985  1.00  0.00     0.055 A 
ATOM     87  C   UNL     1       8.465   3.895  14.774  1.00  0.00     0.041 A 
ATOM     88  F   UNL     1       7.101   5.123  13.318  1.00  0.00    -0.206 F 
ATOM     89  C   UNL     1       9.287   2.800  15.024  1.00  0.00     0.022 A 
BRANCH  86  90
ATOM     90  S   UNL     1      10.529   0.405  14.318  1.00  0.00     0.124 S 
ATOM     91  O   UNL     1       9.583  -0.642  13.945  1.00  0.00    -0.237 OA
ATOM     92  O   UNL     1      11.683   0.565  13.439  1.00  0.00    -0.237 OA
ATOM     93  O   UNL     1      10.824   0.494  15.747  1.00  0.00    -0.744 OA
ENDBRANCH  86  90
ENDBRANCH  60  83
ENDBRANCH  34  35
ENDBRANCH  26  29
ENDBRANCH  24  25
ENDBRANCH  23  24
ENDBRANCH   1  23
TORSDOF 19
