REMARK SMILES Cn1cc(/C=C2\SC(=S)N(c3cccc(C(=O)NCCCNC(=O)c4ccc(-c5c6nc(c(-c7cc(S(=O)(=O)[O-])ccc7F)c7ccc([nH]7)c(-c7cc(S(=O)(=O)[O-])ccc7F)c7nc(c(-c8cc(S(=O)(=O)[O-])ccc8F)c8ccc5[nH]8)C=C7)C=C6)cc4)c3)C2=O)c2ccccc21
REMARK SMILES IDX 20 1 19 2 18 3 16 4 17 5 15 7 11 8 12 9 88 10 13 11 14 12
REMARK SMILES IDX 10 13 5 14 6 15 7 16 89 17 8 18 90 19 9 20 4 21 1 22 2 23
REMARK SMILES IDX 3 24 96 25 91 26 95 27 92 28 94 29 93 30 21 31 22 32 23 33
REMARK SMILES IDX 24 35 25 36 26 37 87 38 27 39 86 40 28 41 29 42 30 43 80 44
REMARK SMILES IDX 31 45 85 46 79 47 81 48 32 49 84 50 78 51 77 52 33 54 65 55
REMARK SMILES IDX 45 56 64 57 46 58 49 59 63 60 82 61 47 62 48 63 62 65 83 66
REMARK SMILES IDX 50 67 34 68 35 69 43 70 36 71 42 72 44 73 41 74 37 75 38 76
REMARK SMILES IDX 39 77 40 78 66 79 67 80 75 81 68 82 74 83 76 84 73 85 69 86
REMARK SMILES IDX 70 87 71 88 72 89 51 90 52 91 60 92 53 93 59 94 61 95 58 96
REMARK SMILES IDX 54 97 55 98 56 99 57 100
REMARK H PARENT 18 6 22 34 81 53 49 64
REMARK Flexibility Score: inf
ROOT
ATOM      1  C   UNL     1      -0.470  -7.067   5.957  1.00  0.00     0.042 C 
ENDROOT
BRANCH   1   2
ATOM      2  C   UNL     1       0.888  -7.718   6.221  1.00  0.00     0.118 C 
BRANCH   2   3
ATOM      3  N   UNL     1       0.898  -9.117   5.833  1.00  0.00    -0.352 N 
ATOM      4  C   UNL     1       1.317  -9.809   4.727  1.00  0.00     0.251 C 
ATOM      5  O   UNL     1       1.239 -11.039   4.796  1.00  0.00    -0.269 OA
ATOM      6  H   UNL     1       0.517  -9.704   6.526  1.00  0.00     0.163 HD
BRANCH   4   7
ATOM      7  C   UNL     1       1.857  -9.200   3.474  1.00  0.00     0.041 A 
ATOM      8  C   UNL     1       2.410  -7.345   1.984  1.00  0.00     0.051 A 
ATOM      9  C   UNL     1       2.853  -8.239   1.008  1.00  0.00     0.027 A 
ATOM     10  C   UNL     1       1.874  -7.838   3.185  1.00  0.00     0.040 A 
ATOM     11  C   UNL     1       2.825  -9.607   1.266  1.00  0.00     0.003 A 
ATOM     12  C   UNL     1       2.344 -10.079   2.491  1.00  0.00     0.014 A 
BRANCH   8  13
ATOM     13  N   UNL     1       2.427  -5.941   1.766  1.00  0.00    -0.261 N 
ATOM     14  C   UNL     1       1.026  -3.171  -0.083  1.00  0.00     0.031 C 
ATOM     15  C   UNL     1       1.739  -3.927   0.765  1.00  0.00     0.081 C 
ATOM     16  S   UNL     1       2.639  -3.399   2.132  1.00  0.00    -0.054 SA
ATOM     17  C   UNL     1       1.773  -5.409   0.660  1.00  0.00     0.270 C 
ATOM     18  C   UNL     1       3.012  -5.036   2.641  1.00  0.00     0.152 C 
ATOM     19  O   UNL     1       1.265  -6.023  -0.269  1.00  0.00    -0.268 OA
ATOM     20  S   UNL     1       4.017  -5.320   3.951  1.00  0.00    -0.051 S 
BRANCH  14  21
ATOM     21  C   UNL     1       0.935  -1.748  -0.074  1.00  0.00     0.001 A 
ATOM     22  C   UNL     1       2.384   1.560  -0.042  1.00  0.00     0.149 C 
ATOM     23  N   UNL     1       1.547   0.383  -0.064  1.00  0.00    -0.350 N 
ATOM     24  C   UNL     1       2.020  -0.900  -0.095  1.00  0.00     0.094 A 
ATOM     25  C   UNL     1       0.169   0.388  -0.054  1.00  0.00     0.048 A 
ATOM     26  C   UNL     1      -0.246  -0.950  -0.068  1.00  0.00     0.007 A 
ATOM     27  C   UNL     1      -0.746   1.453  -0.029  1.00  0.00     0.027 A 
ATOM     28  C   UNL     1      -1.631  -1.228  -0.050  1.00  0.00     0.011 A 
ATOM     29  C   UNL     1      -2.109   1.149  -0.016  1.00  0.00     0.002 A 
ATOM     30  C   UNL     1      -2.548  -0.171  -0.025  1.00  0.00     0.001 A 
ENDBRANCH  14  21
ENDBRANCH   8  13
ENDBRANCH   4   7
ENDBRANCH   2   3
ENDBRANCH   1   2
BRANCH   1  31
ATOM     31  C   UNL     1      -1.476  -7.343   7.075  1.00  0.00     0.118 C 
BRANCH  31  32
ATOM     32  N   UNL     1      -1.067  -6.720   8.332  1.00  0.00    -0.352 N 
ATOM     33  C   UNL     1      -1.655  -5.709   9.054  1.00  0.00     0.251 C 
ATOM     34  H   UNL     1      -0.240  -7.082   8.725  1.00  0.00     0.163 HD
ATOM     35  O   UNL     1      -1.016  -5.140   9.930  1.00  0.00    -0.269 OA
BRANCH  33  36
ATOM     36  C   UNL     1      -3.049  -5.316   8.765  1.00  0.00     0.039 A 
ATOM     37  C   UNL     1      -3.394  -3.962   8.745  1.00  0.00     0.014 A 
ATOM     38  C   UNL     1      -4.018  -6.294   8.533  1.00  0.00     0.014 A 
ATOM     39  C   UNL     1      -4.699  -3.586   8.414  1.00  0.00     0.010 A 
ATOM     40  C   UNL     1      -5.290  -5.917   8.124  1.00  0.00     0.010 A 
ATOM     41  C   UNL     1      -5.645  -4.560   8.060  1.00  0.00    -0.014 A 
BRANCH  41  42
ATOM     42  C   UNL     1      -7.024  -4.213   7.633  1.00  0.00     0.031 A 
ATOM     43  C   UNL     1      -8.191  -4.724   8.431  1.00  0.00     0.074 A 
ATOM     44  C   UNL     1      -7.224  -3.550   6.477  1.00  0.00     0.049 A 
ATOM     45  N   UNL     1      -9.463  -4.732   8.131  1.00  0.00    -0.248 NA
ATOM     46  C   UNL     1      -7.873  -5.350   9.725  1.00  0.00     0.031 C 
ATOM     47  C   UNL     1      -6.168  -3.020   5.611  1.00  0.00     0.029 A 
ATOM     48  N   UNL     1      -8.384  -3.232   5.815  1.00  0.00    -0.354 N 
ATOM     49  C   UNL     1     -10.094  -5.390   9.182  1.00  0.00     0.074 A 
ATOM     50  C   UNL     1      -9.056  -5.815  10.096  1.00  0.00     0.031 C 
ATOM     51  C   UNL     1      -6.729  -2.436   4.540  1.00  0.00     0.029 A 
ATOM     52  C   UNL     1      -8.178  -2.605   4.607  1.00  0.00     0.049 A 
ATOM     53  H   UNL     1      -9.280  -3.433   6.171  1.00  0.00     0.167 HD
ATOM     54  C   UNL     1     -11.419  -5.602   9.372  1.00  0.00     0.034 A 
ATOM     55  C   UNL     1      -9.053  -2.239   3.648  1.00  0.00     0.034 A 
ATOM     56  C   UNL     1     -12.435  -5.152   8.453  1.00  0.00     0.049 A 
ATOM     57  C   UNL     1     -10.520  -2.521   3.860  1.00  0.00     0.074 A 
ATOM     58  C   UNL     1     -13.809  -5.266   8.565  1.00  0.00     0.029 A 
ATOM     59  N   UNL     1     -12.186  -4.506   7.248  1.00  0.00    -0.354 N 
ATOM     60  N   UNL     1     -11.107  -3.123   4.869  1.00  0.00    -0.248 NA
ATOM     61  C   UNL     1     -11.445  -2.073   2.810  1.00  0.00     0.031 C 
ATOM     62  C   UNL     1     -14.386  -4.758   7.397  1.00  0.00     0.029 A 
ATOM     63  C   UNL     1     -13.380  -4.242   6.596  1.00  0.00     0.049 A 
ATOM     64  H   UNL     1     -11.293  -4.270   6.908  1.00  0.00     0.167 HD
ATOM     65  C   UNL     1     -12.472  -3.083   4.595  1.00  0.00     0.074 A 
ATOM     66  C   UNL     1     -12.620  -2.404   3.325  1.00  0.00     0.031 C 
ATOM     67  C   UNL     1     -13.508  -3.552   5.334  1.00  0.00     0.034 A 
BRANCH  54  68
ATOM     68  C   UNL     1     -11.834  -6.376  10.600  1.00  0.00     0.023 A 
ATOM     69  C   UNL     1     -11.559  -5.907  11.897  1.00  0.00     0.031 A 
ATOM     70  C   UNL     1     -12.489  -7.614  10.476  1.00  0.00     0.131 A 
ATOM     71  C   UNL     1     -11.859  -6.707  13.010  1.00  0.00     0.055 A 
ATOM     72  C   UNL     1     -12.867  -8.364  11.592  1.00  0.00     0.041 A 
ATOM     73  F   UNL     1     -12.759  -8.126   9.265  1.00  0.00    -0.206 F 
ATOM     74  C   UNL     1     -12.537  -7.919  12.868  1.00  0.00     0.022 A 
BRANCH  71  75
ATOM     75  S   UNL     1     -11.208  -6.211  14.628  1.00  0.00     0.124 S 
ATOM     76  O   UNL     1      -9.770  -6.176  14.369  1.00  0.00    -0.237 OA
ATOM     77  O   UNL     1     -11.850  -4.920  14.845  1.00  0.00    -0.237 OA
ATOM     78  O   UNL     1     -11.647  -7.285  15.518  1.00  0.00    -0.744 OA
ENDBRANCH  71  75
ENDBRANCH  54  68
BRANCH  55  79
ATOM     79  C   UNL     1      -8.572  -1.585   2.397  1.00  0.00     0.023 A 
ATOM     80  C   UNL     1      -8.950  -0.270   2.080  1.00  0.00     0.031 A 
ATOM     81  C   UNL     1      -7.758  -2.274   1.479  1.00  0.00     0.131 A 
ATOM     82  C   UNL     1      -8.556   0.297   0.858  1.00  0.00     0.055 A 
ATOM     83  C   UNL     1      -7.321  -1.684   0.291  1.00  0.00     0.041 A 
ATOM     84  F   UNL     1      -7.363  -3.532   1.732  1.00  0.00    -0.206 F 
ATOM     85  C   UNL     1      -7.732  -0.395  -0.032  1.00  0.00     0.022 A 
BRANCH  82  86
ATOM     86  S   UNL     1      -9.218   1.924   0.405  1.00  0.00     0.124 S 
ATOM     87  O   UNL     1     -10.655   1.680   0.448  1.00  0.00    -0.237 OA
ATOM     88  O   UNL     1      -8.677   2.775   1.459  1.00  0.00    -0.237 OA
ATOM     89  O   UNL     1      -8.663   2.156  -0.927  1.00  0.00    -0.744 OA
ENDBRANCH  82  86
ENDBRANCH  55  79
BRANCH  67  90
ATOM     90  C   UNL     1     -14.904  -3.276   4.834  1.00  0.00     0.023 A 
ATOM     91  C   UNL     1     -15.430  -3.905   3.693  1.00  0.00     0.031 A 
ATOM     92  C   UNL     1     -15.738  -2.400   5.554  1.00  0.00     0.131 A 
ATOM     93  C   UNL     1     -16.746  -3.627   3.291  1.00  0.00     0.055 A 
ATOM     94  C   UNL     1     -17.061  -2.170   5.180  1.00  0.00     0.041 A 
ATOM     95  F   UNL     1     -15.282  -1.772   6.650  1.00  0.00    -0.206 F 
ATOM     96  C   UNL     1     -17.570  -2.781   4.039  1.00  0.00     0.022 A 
BRANCH  93  97
ATOM     97  S   UNL     1     -17.358  -4.349   1.744  1.00  0.00     0.124 S 
ATOM     98  O   UNL     1     -16.446  -3.777   0.760  1.00  0.00    -0.237 OA
ATOM     99  O   UNL     1     -17.217  -5.781   1.988  1.00  0.00    -0.237 OA
ATOM    100  O   UNL     1     -18.737  -3.870   1.663  1.00  0.00    -0.744 OA
ENDBRANCH  93  97
ENDBRANCH  67  90
ENDBRANCH  41  42
ENDBRANCH  33  36
ENDBRANCH  31  32
ENDBRANCH   1  31
TORSDOF 15
