REMARK SMILES C[C@@H]1[C@H](C(=O)NCCCNC(=O)c2ccc(-c3c4nc(c(-c5cc(S(=O)(=O)[O-])ccc5F)c5ccc([nH]5)c(-c5cc(S(=O)(=O)[O-])ccc5F)c5nc(c(-c6cc(S(=O)(=O)[O-])ccc6F)c6ccc3[nH]6)C=C5)C=C4)cc2)CCN1S(=O)(=O)c1cc(F)cc(F)c1
REMARK SMILES IDX 8 1 7 2 6 3 4 4 5 5 3 7 1 8 2 9 78 10 76 11 77 12 79 13
REMARK SMILES IDX 80 14 81 15 82 16 83 17 89 18 84 19 87 20 85 21 86 22 88 23
REMARK SMILES IDX 9 24 10 25 11 26 12 28 13 29 14 30 75 31 15 32 74 33 16 34
REMARK SMILES IDX 17 35 18 36 68 37 19 38 73 39 67 40 69 41 20 42 72 43 66 44
REMARK SMILES IDX 65 45 21 47 53 48 33 49 52 50 34 51 37 52 51 53 70 54 35 55
REMARK SMILES IDX 36 56 50 58 71 59 38 60 22 61 23 62 31 63 24 64 30 65 32 66
REMARK SMILES IDX 29 67 25 68 26 69 27 70 28 71 54 72 55 73 63 74 56 75 62 76
REMARK SMILES IDX 64 77 61 78 57 79 58 80 59 81 60 82 39 83 40 84 48 85 41 86
REMARK SMILES IDX 47 87 49 88 46 89 42 90 43 91 44 92 45 93
REMARK H PARENT 6 6 10 27 69 46 37 57
REMARK Flexibility Score: inf
ROOT
ATOM      1  C   UNL     1       2.357   1.887   3.106  1.00  0.00     0.042 C 
ENDROOT
BRANCH   1   2
ATOM      2  C   UNL     1       0.982   2.244   2.529  1.00  0.00     0.117 C 
BRANCH   2   3
ATOM      3  N   UNL     1       1.030   2.801   1.181  1.00  0.00    -0.356 N 
ATOM      4  C   UNL     1       0.630   2.392  -0.047  1.00  0.00     0.224 C 
ATOM      5  O   UNL     1       0.816   3.209  -0.960  1.00  0.00    -0.275 OA
ATOM      6  H   UNL     1       1.455   3.689   1.159  1.00  0.00     0.163 HD
BRANCH   4   7
ATOM      7  C   UNL     1       0.027   1.040  -0.408  1.00  0.00     0.098 C 
ATOM      8  C   UNL     1       2.066  -0.189   0.525  1.00  0.00     0.026 C 
ATOM      9  C   UNL     1       0.976  -0.166  -0.519  1.00  0.00     0.082 C 
ATOM     10  N   UNL     1       0.067  -1.374  -0.522  1.00  0.00    -0.194 NA
ATOM     11  C   UNL     1      -1.158   0.516   0.368  1.00  0.00     0.032 C 
ATOM     12  C   UNL     1      -1.325  -0.877  -0.221  1.00  0.00     0.104 C 
BRANCH  10  13
ATOM     13  S   UNL     1       0.393  -2.838   0.285  1.00  0.00     0.243 S 
ATOM     14  O   UNL     1       0.572  -2.515   1.688  1.00  0.00    -0.207 OA
ATOM     15  O   UNL     1      -0.645  -3.762  -0.121  1.00  0.00    -0.207 OA
BRANCH  13  16
ATOM     16  C   UNL     1       1.912  -3.552  -0.280  1.00  0.00     0.088 A 
ATOM     17  C   UNL     1       2.277  -4.769   0.314  1.00  0.00     0.061 A 
ATOM     18  C   UNL     1       2.762  -2.951  -1.204  1.00  0.00     0.061 A 
ATOM     19  C   UNL     1       3.514  -5.332   0.025  1.00  0.00     0.127 A 
ATOM     20  C   UNL     1       4.017  -3.512  -1.434  1.00  0.00     0.127 A 
ATOM     21  F   UNL     1       3.853  -6.497   0.591  1.00  0.00    -0.207 F 
ATOM     22  C   UNL     1       4.407  -4.697  -0.824  1.00  0.00     0.078 A 
ATOM     23  F   UNL     1       4.873  -2.879  -2.247  1.00  0.00    -0.207 F 
ENDBRANCH  13  16
ENDBRANCH  10  13
ENDBRANCH   4   7
ENDBRANCH   2   3
ENDBRANCH   1   2
BRANCH   1  24
ATOM     24  C   UNL     1       3.294   3.067   3.324  1.00  0.00     0.118 C 
BRANCH  24  25
ATOM     25  N   UNL     1       3.222   3.554   4.688  1.00  0.00    -0.352 N 
ATOM     26  C   UNL     1       3.982   3.240   5.790  1.00  0.00     0.251 C 
ATOM     27  H   UNL     1       2.514   4.218   4.851  1.00  0.00     0.163 HD
ATOM     28  O   UNL     1       3.535   3.533   6.898  1.00  0.00    -0.269 OA
BRANCH  26  29
ATOM     29  C   UNL     1       5.302   2.558   5.687  1.00  0.00     0.039 A 
ATOM     30  C   UNL     1       5.691   1.704   6.728  1.00  0.00     0.014 A 
ATOM     31  C   UNL     1       6.212   2.828   4.662  1.00  0.00     0.014 A 
ATOM     32  C   UNL     1       6.965   1.118   6.732  1.00  0.00     0.010 A 
ATOM     33  C   UNL     1       7.453   2.181   4.624  1.00  0.00     0.010 A 
ATOM     34  C   UNL     1       7.858   1.342   5.674  1.00  0.00    -0.014 A 
BRANCH  34  35
ATOM     35  C   UNL     1       9.237   0.774   5.687  1.00  0.00     0.031 A 
ATOM     36  C   UNL     1      10.432   1.696   5.741  1.00  0.00     0.074 A 
ATOM     37  C   UNL     1       9.429  -0.558   5.615  1.00  0.00     0.049 A 
ATOM     38  N   UNL     1      11.709   1.411   5.670  1.00  0.00    -0.248 NA
ATOM     39  C   UNL     1      10.147   3.134   5.861  1.00  0.00     0.031 C 
ATOM     40  C   UNL     1       8.367  -1.562   5.537  1.00  0.00     0.029 A 
ATOM     41  N   UNL     1      10.586  -1.298   5.587  1.00  0.00    -0.354 N 
ATOM     42  C   UNL     1      12.376   2.632   5.710  1.00  0.00     0.074 A 
ATOM     43  C   UNL     1      11.358   3.660   5.757  1.00  0.00     0.031 C 
ATOM     44  C   UNL     1       8.921  -2.785   5.489  1.00  0.00     0.029 A 
ATOM     45  C   UNL     1      10.375  -2.654   5.492  1.00  0.00     0.049 A 
ATOM     46  H   UNL     1      11.484  -0.895   5.631  1.00  0.00     0.167 HD
ATOM     47  C   UNL     1      13.712   2.877   5.729  1.00  0.00     0.034 A 
ATOM     48  C   UNL     1      11.251  -3.676   5.406  1.00  0.00     0.034 A 
ATOM     49  C   UNL     1      14.721   1.846   5.715  1.00  0.00     0.049 A 
ATOM     50  C   UNL     1      12.730  -3.383   5.425  1.00  0.00     0.074 A 
ATOM     51  C   UNL     1      16.098   1.983   5.783  1.00  0.00     0.029 A 
ATOM     52  N   UNL     1      14.464   0.484   5.629  1.00  0.00    -0.354 N 
ATOM     53  N   UNL     1      13.342  -2.223   5.487  1.00  0.00    -0.248 NA
ATOM     54  C   UNL     1      13.635  -4.539   5.371  1.00  0.00     0.031 C 
ATOM     55  C   UNL     1      16.673   0.710   5.685  1.00  0.00     0.029 A 
ATOM     56  C   UNL     1      15.655  -0.227   5.620  1.00  0.00     0.049 A 
ATOM     57  H   UNL     1      13.567   0.081   5.581  1.00  0.00     0.167 HD
ATOM     58  C   UNL     1      14.703  -2.514   5.507  1.00  0.00     0.074 A 
ATOM     59  C   UNL     1      14.821  -3.957   5.463  1.00  0.00     0.031 C 
ATOM     60  C   UNL     1      15.760  -1.665   5.564  1.00  0.00     0.034 A 
BRANCH  47  61
ATOM     61  C   UNL     1      14.151   4.323   5.739  1.00  0.00     0.023 A 
ATOM     62  C   UNL     1      13.845   5.181   6.811  1.00  0.00     0.031 A 
ATOM     63  C   UNL     1      14.854   4.862   4.647  1.00  0.00     0.131 A 
ATOM     64  C   UNL     1      14.164   6.544   6.730  1.00  0.00     0.055 A 
ATOM     65  C   UNL     1      15.244   6.202   4.610  1.00  0.00     0.041 A 
ATOM     66  F   UNL     1      15.161   4.097   3.587  1.00  0.00    -0.206 F 
ATOM     67  C   UNL     1      14.884   7.057   5.649  1.00  0.00     0.022 A 
BRANCH  64  68
ATOM     68  S   UNL     1      13.495   7.665   7.989  1.00  0.00     0.124 S 
ATOM     69  O   UNL     1      12.057   7.466   7.825  1.00  0.00    -0.237 OA
ATOM     70  O   UNL     1      14.077   7.142   9.220  1.00  0.00    -0.237 OA
ATOM     71  O   UNL     1      13.986   8.978   7.575  1.00  0.00    -0.744 OA
ENDBRANCH  64  68
ENDBRANCH  47  61
BRANCH  48  72
ATOM     72  C   UNL     1      10.761  -5.078   5.285  1.00  0.00     0.023 A 
ATOM     73  C   UNL     1      10.973  -6.008   6.315  1.00  0.00     0.031 A 
ATOM     74  C   UNL     1      10.108  -5.517   4.120  1.00  0.00     0.131 A 
ATOM     75  C   UNL     1      10.572  -7.342   6.145  1.00  0.00     0.055 A 
ATOM     76  C   UNL     1       9.670  -6.835   3.974  1.00  0.00     0.041 A 
ATOM     77  F   UNL     1       9.876  -4.665   3.110  1.00  0.00    -0.206 F 
ATOM     78  C   UNL     1       9.912  -7.759   4.986  1.00  0.00     0.022 A 
BRANCH  75  79
ATOM     79  S   UNL     1      10.990  -8.546   7.436  1.00  0.00     0.124 S 
ATOM     80  O   UNL     1      12.444  -8.441   7.481  1.00  0.00    -0.237 OA
ATOM     81  O   UNL     1      10.272  -8.014   8.589  1.00  0.00    -0.237 OA
ATOM     82  O   UNL     1      10.471  -9.806   6.907  1.00  0.00    -0.744 OA
ENDBRANCH  75  79
ENDBRANCH  48  72
BRANCH  60  83
ATOM     83  C   UNL     1      17.133  -2.286   5.627  1.00  0.00     0.023 A 
ATOM     84  C   UNL     1      17.689  -2.965   4.529  1.00  0.00     0.031 A 
ATOM     85  C   UNL     1      17.888  -2.209   6.811  1.00  0.00     0.131 A 
ATOM     86  C   UNL     1      18.942  -3.584   4.652  1.00  0.00     0.055 A 
ATOM     87  C   UNL     1      19.155  -2.784   6.912  1.00  0.00     0.041 A 
ATOM     88  F   UNL     1      17.403  -1.573   7.890  1.00  0.00    -0.206 F 
ATOM     89  C   UNL     1      19.684  -3.486   5.833  1.00  0.00     0.022 A 
BRANCH  86  90
ATOM     90  S   UNL     1      19.559  -4.588   3.273  1.00  0.00     0.124 S 
ATOM     91  O   UNL     1      18.512  -5.595   3.138  1.00  0.00    -0.237 OA
ATOM     92  O   UNL     1      19.648  -3.612   2.192  1.00  0.00    -0.237 OA
ATOM     93  O   UNL     1      20.843  -5.089   3.760  1.00  0.00    -0.744 OA
ENDBRANCH  86  90
ENDBRANCH  60  83
ENDBRANCH  34  35
ENDBRANCH  26  29
ENDBRANCH  24  25
ENDBRANCH   1  24
TORSDOF 15
