REMARK SMILES O=C(NCCCNC(=O)C1CCN(c2ccc(C(F)(F)F)cc2[N+](=O)[O-])CC1)c1ccc(-c2c3nc(c(-c4cc(S(=O)(=O)[O-])ccc4F)c4ccc([nH]4)c(-c4cc(S(=O)(=O)[O-])ccc4F)c4nc(c(-c5cc(S(=O)(=O)[O-])ccc5F)c5ccc2[nH]5)C=C4)C=C3)cc1
REMARK SMILES IDX 4 1 3 2 1 3 2 4 29 6 30 7 91 8 31 9 90 10 32 11 33 12 34 13
REMARK SMILES IDX 84 14 35 15 89 16 83 17 85 18 36 19 88 20 82 21 81 22 37 24
REMARK SMILES IDX 69 25 49 26 68 27 50 28 53 29 67 30 86 31 51 32 52 33 66 35
REMARK SMILES IDX 87 36 54 37 38 38 39 39 47 40 40 41 46 42 48 43 45 44 41 45
REMARK SMILES IDX 42 46 43 47 44 48 70 49 71 50 79 51 72 52 78 53 80 54 77 55
REMARK SMILES IDX 73 56 74 57 75 58 76 59 55 60 56 61 64 62 57 63 63 64 65 65
REMARK SMILES IDX 62 66 58 67 59 68 60 69 61 70 5 71 6 72 7 73 8 74 9 76 10 77
REMARK SMILES IDX 11 78 28 79 12 80 27 81 13 82 14 83 15 84 23 85 16 86 22 87
REMARK SMILES IDX 17 88 24 89 25 90 26 91 18 92 19 93 20 94 21 95
REMARK H PARENT 3 5 85 23 53 34 7 75
REMARK Flexibility Score: inf
ROOT
ATOM      1  C   UNL     1       4.533  -1.113  -0.876  1.00  0.00     0.118 C 
ENDROOT
BRANCH   1   2
ATOM      2  N   UNL     1       3.128  -0.726  -0.845  1.00  0.00    -0.352 N 
ATOM      3  O   UNL     1       1.228   0.200  -0.087  1.00  0.00    -0.269 OA
ATOM      4  C   UNL     1       2.452   0.124  -0.003  1.00  0.00     0.251 C 
ATOM      5  H   UNL     1       2.572  -1.141  -1.543  1.00  0.00     0.163 HD
BRANCH   4   6
ATOM      6  C   UNL     1       3.173   0.920   1.016  1.00  0.00     0.039 A 
ATOM      7  C   UNL     1       4.373   1.567   0.716  1.00  0.00     0.014 A 
ATOM      8  C   UNL     1       2.622   1.040   2.296  1.00  0.00     0.014 A 
ATOM      9  C   UNL     1       5.100   2.183   1.730  1.00  0.00     0.010 A 
ATOM     10  C   UNL     1       3.313   1.737   3.294  1.00  0.00     0.010 A 
ATOM     11  C   UNL     1       4.582   2.273   3.033  1.00  0.00    -0.014 A 
BRANCH  11  12
ATOM     12  C   UNL     1       5.389   2.935   4.095  1.00  0.00     0.031 A 
ATOM     13  C   UNL     1       5.902   2.153   5.276  1.00  0.00     0.074 A 
ATOM     14  C   UNL     1       5.704   4.239   3.963  1.00  0.00     0.049 A 
ATOM     15  N   UNL     1       6.670   2.550   6.260  1.00  0.00    -0.248 NA
ATOM     16  C   UNL     1       5.488   0.746   5.372  1.00  0.00     0.031 C 
ATOM     17  C   UNL     1       5.255   5.106   2.871  1.00  0.00     0.029 A 
ATOM     18  N   UNL     1       6.492   5.057   4.732  1.00  0.00    -0.354 N 
ATOM     19  C   UNL     1       6.816   1.451   7.102  1.00  0.00     0.074 A 
ATOM     20  C   UNL     1       6.023   0.383   6.529  1.00  0.00     0.031 C 
ATOM     21  C   UNL     1       5.820   6.314   3.008  1.00  0.00     0.029 A 
ATOM     22  C   UNL     1       6.624   6.329   4.225  1.00  0.00     0.049 A 
ATOM     23  H   UNL     1       6.923   4.762   5.566  1.00  0.00     0.167 HD
ATOM     24  C   UNL     1       7.550   1.340   8.238  1.00  0.00     0.034 A 
ATOM     25  C   UNL     1       7.311   7.392   4.687  1.00  0.00     0.034 A 
ATOM     26  C   UNL     1       8.346   2.411   8.791  1.00  0.00     0.049 A 
ATOM     27  C   UNL     1       8.109   7.246   5.955  1.00  0.00     0.074 A 
ATOM     28  C   UNL     1       9.157   2.393   9.914  1.00  0.00     0.029 A 
ATOM     29  N   UNL     1       8.427   3.696   8.269  1.00  0.00    -0.354 N 
ATOM     30  N   UNL     1       8.258   6.190   6.721  1.00  0.00    -0.248 NA
ATOM     31  C   UNL     1       8.837   8.434   6.414  1.00  0.00     0.031 C 
ATOM     32  C   UNL     1       9.677   3.679  10.104  1.00  0.00     0.029 A 
ATOM     33  C   UNL     1       9.250   4.484   9.060  1.00  0.00     0.049 A 
ATOM     34  H   UNL     1       7.967   4.003   7.454  1.00  0.00     0.167 HD
ATOM     35  C   UNL     1       9.118   6.583   7.742  1.00  0.00     0.074 A 
ATOM     36  C   UNL     1       9.469   7.964   7.480  1.00  0.00     0.031 C 
ATOM     37  C   UNL     1       9.579   5.866   8.799  1.00  0.00     0.034 A 
BRANCH  24  38
ATOM     38  C   UNL     1       7.487   0.025   8.980  1.00  0.00     0.023 A 
ATOM     39  C   UNL     1       7.967  -1.171   8.417  1.00  0.00     0.031 A 
ATOM     40  C   UNL     1       6.913  -0.038  10.263  1.00  0.00     0.131 A 
ATOM     41  C   UNL     1       7.798  -2.386   9.100  1.00  0.00     0.055 A 
ATOM     42  C   UNL     1       6.819  -1.239  10.971  1.00  0.00     0.041 A 
ATOM     43  F   UNL     1       6.420   1.066  10.846  1.00  0.00    -0.206 F 
ATOM     44  C   UNL     1       7.249  -2.425  10.384  1.00  0.00     0.022 A 
BRANCH  41  45
ATOM     45  S   UNL     1       8.174  -3.932   8.227  1.00  0.00     0.124 S 
ATOM     46  O   UNL     1       7.306  -3.831   7.056  1.00  0.00    -0.237 OA
ATOM     47  O   UNL     1       9.604  -3.811   7.973  1.00  0.00    -0.237 OA
ATOM     48  O   UNL     1       7.795  -4.969   9.185  1.00  0.00    -0.744 OA
ENDBRANCH  41  45
ENDBRANCH  24  38
BRANCH  25  49
ATOM     49  C   UNL     1       7.268   8.689   3.956  1.00  0.00     0.023 A 
ATOM     50  C   UNL     1       8.422   9.225   3.364  1.00  0.00     0.031 A 
ATOM     51  C   UNL     1       6.074   9.425   3.862  1.00  0.00     0.131 A 
ATOM     52  C   UNL     1       8.367  10.480   2.739  1.00  0.00     0.055 A 
ATOM     53  C   UNL     1       6.012  10.649   3.195  1.00  0.00     0.041 A 
ATOM     54  F   UNL     1       4.941   8.952   4.406  1.00  0.00    -0.206 F 
ATOM     55  C   UNL     1       7.167  11.189   2.639  1.00  0.00     0.022 A 
BRANCH  52  56
ATOM     56  S   UNL     1       9.907  11.209   2.118  1.00  0.00     0.124 S 
ATOM     57  O   UNL     1      10.722  11.259   3.327  1.00  0.00    -0.237 OA
ATOM     58  O   UNL     1      10.316  10.238   1.109  1.00  0.00    -0.237 OA
ATOM     59  O   UNL     1       9.483  12.506   1.596  1.00  0.00    -0.744 OA
ENDBRANCH  52  56
ENDBRANCH  25  49
BRANCH  37  60
ATOM     60  C   UNL     1      10.546   6.565   9.721  1.00  0.00     0.023 A 
ATOM     61  C   UNL     1      10.150   7.651  10.522  1.00  0.00     0.031 A 
ATOM     62  C   UNL     1      11.892   6.163   9.770  1.00  0.00     0.131 A 
ATOM     63  C   UNL     1      11.104   8.339  11.287  1.00  0.00     0.055 A 
ATOM     64  C   UNL     1      12.825   6.814  10.579  1.00  0.00     0.041 A 
ATOM     65  F   UNL     1      12.325   5.133   9.025  1.00  0.00    -0.206 F 
ATOM     66  C   UNL     1      12.436   7.919  11.331  1.00  0.00     0.022 A 
BRANCH  63  67
ATOM     67  S   UNL     1      10.603   9.859  12.142  1.00  0.00     0.124 S 
ATOM     68  O   UNL     1      10.088  10.671  11.044  1.00  0.00    -0.237 OA
ATOM     69  O   UNL     1       9.610   9.369  13.092  1.00  0.00    -0.237 OA
ATOM     70  O   UNL     1      11.847  10.342  12.740  1.00  0.00    -0.744 OA
ENDBRANCH  63  67
ENDBRANCH  37  60
ENDBRANCH  11  12
ENDBRANCH   4   6
ENDBRANCH   1   2
BRANCH   1  71
ATOM     71  C   UNL     1       4.752  -2.616  -0.709  1.00  0.00     0.042 C 
BRANCH  71  72
ATOM     72  C   UNL     1       4.088  -3.478  -1.778  1.00  0.00     0.117 C 
BRANCH  72  73
ATOM     73  N   UNL     1       4.486  -3.093  -3.121  1.00  0.00    -0.356 N 
ATOM     74  C   UNL     1       5.542  -3.515  -3.870  1.00  0.00     0.223 C 
ATOM     75  H   UNL     1       3.904  -2.427  -3.555  1.00  0.00     0.163 HD
ATOM     76  O   UNL     1       5.769  -2.927  -4.926  1.00  0.00    -0.275 OA
BRANCH  74  77
ATOM     77  C   UNL     1       6.352  -4.718  -3.406  1.00  0.00     0.082 C 
ATOM     78  C   UNL     1       7.800  -4.654  -3.918  1.00  0.00     0.035 C 
ATOM     79  C   UNL     1       5.650  -6.018  -3.836  1.00  0.00     0.035 C 
ATOM     80  C   UNL     1       7.935  -5.019  -5.395  1.00  0.00     0.117 C 
ATOM     81  C   UNL     1       5.830  -6.324  -5.328  1.00  0.00     0.117 C 
ATOM     82  N   UNL     1       7.256  -6.293  -5.632  1.00  0.00    -0.366 N 
BRANCH  82  83
ATOM     83  C   UNL     1       7.897  -7.249  -6.393  1.00  0.00     0.116 A 
ATOM     84  C   UNL     1       9.079  -7.804  -5.863  1.00  0.00     0.034 A 
ATOM     85  C   UNL     1       7.496  -7.742  -7.644  1.00  0.00     0.293 A 
ATOM     86  C   UNL     1       9.813  -8.790  -6.532  1.00  0.00     0.016 A 
ATOM     87  C   UNL     1       8.225  -8.735  -8.334  1.00  0.00     0.101 A 
ATOM     88  C   UNL     1       9.395  -9.267  -7.778  1.00  0.00     0.062 A 
BRANCH  85  89
ATOM     89  N   UNL     1       6.333  -7.206  -8.333  1.00  0.00     0.064 N 
ATOM     90  O   UNL     1       5.492  -8.030  -8.726  1.00  0.00    -0.258 OA
ATOM     91  O   UNL     1       6.291  -5.988  -8.549  1.00  0.00    -0.258 OA
ENDBRANCH  85  89
BRANCH  88  92
ATOM     92  C   UNL     1      10.207 -10.319  -8.491  1.00  0.00     0.416 C 
ATOM     93  F   UNL     1      11.478  -9.906  -8.753  1.00  0.00    -0.166 F 
ATOM     94  F   UNL     1      10.327 -11.465  -7.767  1.00  0.00    -0.166 F 
ATOM     95  F   UNL     1       9.681 -10.688  -9.692  1.00  0.00    -0.166 F 
ENDBRANCH  88  92
ENDBRANCH  82  83
ENDBRANCH  74  77
ENDBRANCH  72  73
ENDBRANCH  71  72
ENDBRANCH   1  71
TORSDOF 16
