REMARK SMILES O=C(NCCCNC(=O)c1cccc(Oc2ncc([N+](=O)[O-])cc2Br)c1)c1ccc(-c2c3nc(c(-c4cc(S(=O)(=O)[O-])ccc4F)c4ccc([nH]4)c(-c4cc(S(=O)(=O)[O-])ccc4F)c4nc(c(-c5cc(S(=O)(=O)[O-])ccc5F)c5ccc2[nH]5)C=C4)C=C3)cc1
REMARK SMILES IDX 5 1 4 2 3 3 1 4 2 5 27 7 28 8 89 9 29 10 88 11 30 12 31 13
REMARK SMILES IDX 32 14 82 15 33 16 87 17 81 18 83 19 34 20 86 21 80 22 79 23
REMARK SMILES IDX 35 25 67 26 47 27 66 28 48 29 51 30 65 31 84 32 49 33 50 34
REMARK SMILES IDX 64 36 85 37 52 38 36 39 37 40 45 41 38 42 44 43 46 44 43 45
REMARK SMILES IDX 39 46 40 47 41 48 42 49 68 50 69 51 77 52 70 53 76 54 78 55
REMARK SMILES IDX 75 56 71 57 72 58 73 59 74 60 53 61 54 62 62 63 55 64 61 65
REMARK SMILES IDX 63 66 60 67 56 68 57 69 58 70 59 71 6 72 7 73 8 74 9 76
REMARK SMILES IDX 10 77 11 78 26 79 12 80 14 81 13 82 15 83 16 84 17 85 24 86
REMARK SMILES IDX 18 87 23 88 25 89 19 90 20 91 21 92 22 93
REMARK H PARENT 3 6 83 24 51 35 7 75
REMARK Flexibility Score: inf
ROOT
ATOM      1  C   UNL     1       4.976  -2.450  -0.044  1.00  0.00     0.042 C 
ENDROOT
BRANCH   1   2
ATOM      2  C   UNL     1       4.596  -1.157  -0.750  1.00  0.00     0.118 C 
BRANCH   2   3
ATOM      3  N   UNL     1       3.157  -0.922  -0.790  1.00  0.00    -0.352 N 
ATOM      4  O   UNL     1       1.169  -0.031  -0.220  1.00  0.00    -0.269 OA
ATOM      5  C   UNL     1       2.395   0.040  -0.165  1.00  0.00     0.251 C 
ATOM      6  H   UNL     1       2.650  -1.550  -1.353  1.00  0.00     0.163 HD
BRANCH   5   7
ATOM      7  C   UNL     1       3.044   1.132   0.595  1.00  0.00     0.039 A 
ATOM      8  C   UNL     1       4.179   1.770   0.097  1.00  0.00     0.014 A 
ATOM      9  C   UNL     1       2.518   1.518   1.831  1.00  0.00     0.014 A 
ATOM     10  C   UNL     1       4.907   2.621   0.918  1.00  0.00     0.010 A 
ATOM     11  C   UNL     1       3.189   2.471   2.607  1.00  0.00     0.010 A 
ATOM     12  C   UNL     1       4.422   2.989   2.183  1.00  0.00    -0.014 A 
BRANCH  12  13
ATOM     13  C   UNL     1       5.227   3.919   3.023  1.00  0.00     0.031 A 
ATOM     14  C   UNL     1       5.764   3.490   4.364  1.00  0.00     0.074 A 
ATOM     15  C   UNL     1       5.526   5.141   2.538  1.00  0.00     0.049 A 
ATOM     16  N   UNL     1       6.518   4.154   5.204  1.00  0.00    -0.248 NA
ATOM     17  C   UNL     1       5.395   2.145   4.830  1.00  0.00     0.031 C 
ATOM     18  C   UNL     1       5.060   5.673   1.254  1.00  0.00     0.029 A 
ATOM     19  N   UNL     1       6.315   6.143   3.042  1.00  0.00    -0.354 N 
ATOM     20  C   UNL     1       6.689   3.325   6.309  1.00  0.00     0.074 A 
ATOM     21  C   UNL     1       5.931   2.121   6.043  1.00  0.00     0.031 C 
ATOM     22  C   UNL     1       5.628   6.868   1.039  1.00  0.00     0.029 A 
ATOM     23  C   UNL     1       6.436   7.224   2.199  1.00  0.00     0.049 A 
ATOM     24  H   UNL     1       6.754   6.093   3.922  1.00  0.00     0.167 HD
ATOM     25  C   UNL     1       7.415   3.546   7.434  1.00  0.00     0.034 A 
ATOM     26  C   UNL     1       7.112   8.380   2.344  1.00  0.00     0.034 A 
ATOM     27  C   UNL     1       8.184   4.745   7.674  1.00  0.00     0.049 A 
ATOM     28  C   UNL     1       7.902   8.603   3.604  1.00  0.00     0.074 A 
ATOM     29  C   UNL     1       8.982   5.057   8.763  1.00  0.00     0.029 A 
ATOM     30  N   UNL     1       8.250   5.835   6.814  1.00  0.00    -0.354 N 
ATOM     31  N   UNL     1       8.058   7.803   4.633  1.00  0.00    -0.248 NA
ATOM     32  C   UNL     1       8.608   9.883   3.719  1.00  0.00     0.031 C 
ATOM     33  C   UNL     1       9.477   6.355   8.590  1.00  0.00     0.029 A 
ATOM     34  C   UNL     1       9.052   6.828   7.360  1.00  0.00     0.049 A 
ATOM     35  H   UNL     1       7.794   5.894   5.944  1.00  0.00     0.167 HD
ATOM     36  C   UNL     1       8.904   8.476   5.509  1.00  0.00     0.074 A 
ATOM     37  C   UNL     1       9.237   9.737   4.876  1.00  0.00     0.031 C 
ATOM     38  C   UNL     1       9.366   8.087   6.724  1.00  0.00     0.034 A 
BRANCH  25  39
ATOM     39  C   UNL     1       7.368   2.486   8.512  1.00  0.00     0.023 A 
ATOM     40  C   UNL     1       7.865   1.187   8.305  1.00  0.00     0.031 A 
ATOM     41  C   UNL     1       6.786   2.773   9.761  1.00  0.00     0.131 A 
ATOM     42  C   UNL     1       7.702   0.207   9.297  1.00  0.00     0.055 A 
ATOM     43  C   UNL     1       6.699   1.816  10.774  1.00  0.00     0.041 A 
ATOM     44  F   UNL     1       6.276   3.989  10.013  1.00  0.00    -0.206 F 
ATOM     45  C   UNL     1       7.144   0.518  10.539  1.00  0.00     0.022 A 
BRANCH  42  46
ATOM     46  S   UNL     1       8.091  -1.517   8.886  1.00  0.00     0.124 S 
ATOM     47  O   UNL     1       7.234  -1.746   7.725  1.00  0.00    -0.237 OA
ATOM     48  O   UNL     1       9.524  -1.462   8.620  1.00  0.00    -0.237 OA
ATOM     49  O   UNL     1       7.707  -2.253  10.089  1.00  0.00    -0.744 OA
ENDBRANCH  42  46
ENDBRANCH  25  39
BRANCH  26  50
ATOM     50  C   UNL     1       7.057   9.419   1.278  1.00  0.00     0.023 A 
ATOM     51  C   UNL     1       8.209   9.788   0.566  1.00  0.00     0.031 A 
ATOM     52  C   UNL     1       5.851  10.076   0.971  1.00  0.00     0.131 A 
ATOM     53  C   UNL     1       8.139  10.811  -0.392  1.00  0.00     0.055 A 
ATOM     54  C   UNL     1       5.777  11.056  -0.019  1.00  0.00     0.041 A 
ATOM     55  F   UNL     1       4.720   9.756   1.619  1.00  0.00    -0.206 F 
ATOM     56  C   UNL     1       6.929  11.437  -0.699  1.00  0.00     0.022 A 
BRANCH  53  57
ATOM     57  S   UNL     1       9.674  11.364  -1.183  1.00  0.00     0.124 S 
ATOM     58  O   UNL     1      10.471  11.776  -0.033  1.00  0.00    -0.237 OA
ATOM     59  O   UNL     1      10.114  10.154  -1.869  1.00  0.00    -0.237 OA
ATOM     60  O   UNL     1       9.233  12.449  -2.058  1.00  0.00    -0.744 OA
ENDBRANCH  53  57
ENDBRANCH  26  50
BRANCH  38  61
ATOM     61  C   UNL     1      10.322   9.026   7.418  1.00  0.00     0.023 A 
ATOM     62  C   UNL     1       9.914  10.290   7.880  1.00  0.00     0.031 A 
ATOM     63  C   UNL     1      11.671   8.665   7.580  1.00  0.00     0.131 A 
ATOM     64  C   UNL     1      10.860  11.173   8.422  1.00  0.00     0.055 A 
ATOM     65  C   UNL     1      12.595   9.524   8.175  1.00  0.00     0.041 A 
ATOM     66  F   UNL     1      12.115   7.471   7.153  1.00  0.00    -0.206 F 
ATOM     67  C   UNL     1      12.194  10.793   8.585  1.00  0.00     0.022 A 
BRANCH  64  68
ATOM     68  S   UNL     1      10.345  12.869   8.809  1.00  0.00     0.124 S 
ATOM     69  O   UNL     1       9.825  13.330   7.526  1.00  0.00    -0.237 OA
ATOM     70  O   UNL     1       9.356  12.662   9.861  1.00  0.00    -0.237 OA
ATOM     71  O   UNL     1      11.584  13.513   9.242  1.00  0.00    -0.744 OA
ENDBRANCH  64  68
ENDBRANCH  38  61
ENDBRANCH  12  13
ENDBRANCH   5   7
ENDBRANCH   2   3
ENDBRANCH   1   2
BRANCH   1  72
ATOM     72  C   UNL     1       4.548  -3.710  -0.776  1.00  0.00     0.118 C 
BRANCH  72  73
ATOM     73  N   UNL     1       5.159  -3.824  -2.096  1.00  0.00    -0.352 N 
ATOM     74  C   UNL     1       5.982  -4.796  -2.607  1.00  0.00     0.251 C 
ATOM     75  H   UNL     1       4.948  -3.089  -2.717  1.00  0.00     0.163 HD
ATOM     76  O   UNL     1       6.551  -4.618  -3.680  1.00  0.00    -0.269 OA
BRANCH  74  77
ATOM     77  C   UNL     1       6.159  -6.076  -1.891  1.00  0.00     0.043 A 
ATOM     78  C   UNL     1       7.424  -6.659  -1.813  1.00  0.00     0.014 A 
ATOM     79  C   UNL     1       5.047  -6.739  -1.366  1.00  0.00     0.061 A 
ATOM     80  C   UNL     1       7.579  -7.880  -1.155  1.00  0.00     0.005 A 
ATOM     81  C   UNL     1       5.199  -7.945  -0.682  1.00  0.00     0.130 A 
ATOM     82  C   UNL     1       6.470  -8.515  -0.583  1.00  0.00     0.047 A 
BRANCH  81  83
ATOM     83  O   UNL     1       4.157  -8.660  -0.125  1.00  0.00    -0.438 OA
BRANCH  83  84
ATOM     84  C   UNL     1       2.980  -7.971   0.092  1.00  0.00     0.234 A 
ATOM     85  N   UNL     1       2.879  -7.332   1.286  1.00  0.00    -0.214 NA
ATOM     86  C   UNL     1       1.978  -7.947  -0.879  1.00  0.00     0.087 A 
ATOM     87  C   UNL     1       1.751  -6.614   1.514  1.00  0.00     0.200 A 
ATOM     88  C   UNL     1       0.843  -7.173  -0.642  1.00  0.00     0.108 A 
ATOM     89  Br  UNL     1       2.127  -8.872  -2.523  1.00  0.00    -0.045 Br
ATOM     90  C   UNL     1       0.733  -6.500   0.579  1.00  0.00     0.288 A 
BRANCH  90  91
ATOM     91  N   UNL     1      -0.440  -5.691   0.874  1.00  0.00     0.064 N 
ATOM     92  O   UNL     1      -0.637  -5.373   2.052  1.00  0.00    -0.258 OA
ATOM     93  O   UNL     1      -1.175  -5.389  -0.077  1.00  0.00    -0.258 OA
ENDBRANCH  90  91
ENDBRANCH  83  84
ENDBRANCH  81  83
ENDBRANCH  74  77
ENDBRANCH  72  73
ENDBRANCH   1  72
TORSDOF 16
