REMARK SMILES CCC(CC)([NH2+]Cc1ccc(I)cc1)C(=O)NCCCNC(=O)c1ccc(-c2c3nc(c(-c4cc(S(=O)(=O)[O-])ccc4F)c4ccc([nH]4)c(-c4cc(S(=O)(=O)[O-])ccc4F)c4nc(c(-c5cc(S(=O)(=O)[O-])ccc5F)c5ccc2[nH]5)C=C4)C=C3)cc1
REMARK SMILES IDX 19 1 18 2 17 3 15 4 16 5 3 7 2 8 1 9 4 10 5 11 6 12 7 15
REMARK SMILES IDX 8 16 9 17 14 18 10 19 13 20 11 21 12 22 20 23 21 24 22 25
REMARK SMILES IDX 23 27 24 28 25 29 86 30 26 31 85 32 27 33 28 34 29 35 79 36
REMARK SMILES IDX 30 37 84 38 78 39 80 40 31 41 83 42 77 43 76 44 32 46 64 47
REMARK SMILES IDX 44 48 63 49 45 50 48 51 62 52 81 53 46 54 47 55 61 57 82 58
REMARK SMILES IDX 49 59 33 60 34 61 42 62 35 63 41 64 43 65 40 66 36 67 37 68
REMARK SMILES IDX 38 69 39 70 65 71 66 72 74 73 67 74 73 75 75 76 72 77 68 78
REMARK SMILES IDX 69 79 70 80 71 81 50 82 51 83 59 84 52 85 58 86 60 87 57 88
REMARK SMILES IDX 53 89 54 90 55 91 56 92
REMARK H PARENT 17 6 6 13 6 14 21 26 80 45 48 56
REMARK Flexibility Score: inf
ROOT
ATOM      1  C   UNL     1       3.530   2.492   4.949  1.00  0.00     0.042 C 
ENDROOT
BRANCH   1   2
ATOM      2  C   UNL     1       3.142   2.747   3.491  1.00  0.00     0.118 C 
BRANCH   2   3
ATOM      3  N   UNL     1       3.261   1.524   2.735  1.00  0.00    -0.351 N 
ATOM      4  C   UNL     1       2.339   0.559   2.467  1.00  0.00     0.281 C 
ATOM      5  O   UNL     1       2.833  -0.572   2.355  1.00  0.00    -0.268 OA
ATOM      6  H   UNL     1       4.152   1.361   2.350  1.00  0.00     0.163 HD
BRANCH   4   7
ATOM      7  C   UNL     1       0.798   0.826   2.215  1.00  0.00     0.175 C 
BRANCH   7   8
ATOM      8  C   UNL     1       0.330  -0.439   1.373  1.00  0.00     0.076 C 
ATOM      9  C   UNL     1       0.925  -0.572  -0.034  1.00  0.00     0.011 C 
ENDBRANCH   7   8
BRANCH   7  10
ATOM     10  C   UNL     1       0.528   2.100   1.369  1.00  0.00     0.076 C 
ATOM     11  C   UNL     1      -0.869   2.200   0.745  1.00  0.00     0.011 C 
ENDBRANCH   7  10
BRANCH   7  12
ATOM     12  N   UNL     1      -0.035   0.704   3.451  1.00  0.00    -0.330 N 
ATOM     13  H   UNL     1       0.151  -0.230   3.814  1.00  0.00     0.347 HD
ATOM     14  H   UNL     1      -0.951   0.964   3.083  1.00  0.00     0.347 HD
BRANCH  12  15
ATOM     15  C   UNL     1       0.048   1.597   4.607  1.00  0.00     0.298 C 
BRANCH  15  16
ATOM     16  C   UNL     1      -0.403   3.035   4.432  1.00  0.00     0.006 A 
ATOM     17  C   UNL     1       0.324   4.075   5.034  1.00  0.00     0.010 A 
ATOM     18  C   UNL     1      -1.531   3.389   3.689  1.00  0.00     0.010 A 
ATOM     19  C   UNL     1       0.102   5.411   4.692  1.00  0.00     0.015 A 
ATOM     20  C   UNL     1      -1.768   4.725   3.341  1.00  0.00     0.015 A 
ATOM     21  C   UNL     1      -0.917   5.726   3.803  1.00  0.00     0.013 A 
ATOM     22  I   UNL     1      -1.154   7.681   3.148  1.00  0.00    -0.044 I 
ENDBRANCH  15  16
ENDBRANCH  12  15
ENDBRANCH   7  12
ENDBRANCH   4   7
ENDBRANCH   2   3
ENDBRANCH   1   2
BRANCH   1  23
ATOM     23  C   UNL     1       5.017   2.637   5.229  1.00  0.00     0.118 C 
BRANCH  23  24
ATOM     24  N   UNL     1       5.431   4.032   5.185  1.00  0.00    -0.352 N 
ATOM     25  C   UNL     1       5.761   4.921   6.179  1.00  0.00     0.251 C 
ATOM     26  H   UNL     1       5.485   4.407   4.277  1.00  0.00     0.163 HD
ATOM     27  O   UNL     1       5.799   6.117   5.886  1.00  0.00    -0.269 OA
BRANCH  25  28
ATOM     28  C   UNL     1       6.055   4.494   7.571  1.00  0.00     0.039 A 
ATOM     29  C   UNL     1       5.840   5.410   8.609  1.00  0.00     0.014 A 
ATOM     30  C   UNL     1       6.611   3.251   7.875  1.00  0.00     0.014 A 
ATOM     31  C   UNL     1       6.144   5.066   9.931  1.00  0.00     0.010 A 
ATOM     32  C   UNL     1       6.802   2.865   9.202  1.00  0.00     0.010 A 
ATOM     33  C   UNL     1       6.602   3.777  10.245  1.00  0.00    -0.014 A 
BRANCH  33  34
ATOM     34  C   UNL     1       6.924   3.389  11.647  1.00  0.00     0.031 A 
ATOM     35  C   UNL     1       8.324   2.958  12.012  1.00  0.00     0.074 A 
ATOM     36  C   UNL     1       5.952   3.385  12.580  1.00  0.00     0.049 A 
ATOM     37  N   UNL     1       8.790   2.539  13.162  1.00  0.00    -0.248 NA
ATOM     38  C   UNL     1       9.322   2.962  10.932  1.00  0.00     0.031 C 
ATOM     39  C   UNL     1       4.548   3.729  12.338  1.00  0.00     0.029 A 
ATOM     40  N   UNL     1       5.991   3.084  13.918  1.00  0.00    -0.354 N 
ATOM     41  C   UNL     1      10.124   2.211  12.936  1.00  0.00     0.074 A 
ATOM     42  C   UNL     1      10.369   2.409  11.524  1.00  0.00     0.031 C 
ATOM     43  C   UNL     1       3.872   3.659  13.496  1.00  0.00     0.029 A 
ATOM     44  C   UNL     1       4.778   3.224  14.553  1.00  0.00     0.049 A 
ATOM     45  H   UNL     1       6.810   2.795  14.381  1.00  0.00     0.167 HD
ATOM     46  C   UNL     1      11.067   1.811  13.826  1.00  0.00     0.034 A 
ATOM     47  C   UNL     1       4.434   3.023  15.841  1.00  0.00     0.034 A 
ATOM     48  C   UNL     1      10.813   1.646  15.237  1.00  0.00     0.049 A 
ATOM     49  C   UNL     1       5.500   2.592  16.815  1.00  0.00     0.074 A 
ATOM     50  C   UNL     1      11.702   1.303  16.241  1.00  0.00     0.029 A 
ATOM     51  N   UNL     1       9.575   1.814  15.845  1.00  0.00    -0.354 N 
ATOM     52  N   UNL     1       6.770   2.338  16.593  1.00  0.00    -0.248 NA
ATOM     53  C   UNL     1       5.090   2.438  18.216  1.00  0.00     0.031 C 
ATOM     54  C   UNL     1      10.991   1.202  17.442  1.00  0.00     0.029 A 
ATOM     55  C   UNL     1       9.672   1.557  17.205  1.00  0.00     0.049 A 
ATOM     56  H   UNL     1       8.749   2.076  15.379  1.00  0.00     0.167 HD
ATOM     57  C   UNL     1       7.315   2.023  17.835  1.00  0.00     0.074 A 
ATOM     58  C   UNL     1       6.241   2.142  18.800  1.00  0.00     0.031 C 
ATOM     59  C   UNL     1       8.587   1.668  18.151  1.00  0.00     0.034 A 
BRANCH  46  60
ATOM     60  C   UNL     1      12.450   1.510  13.290  1.00  0.00     0.023 A 
ATOM     61  C   UNL     1      13.230   2.497  12.660  1.00  0.00     0.031 A 
ATOM     62  C   UNL     1      12.984   0.212  13.377  1.00  0.00     0.131 A 
ATOM     63  C   UNL     1      14.455   2.154  12.068  1.00  0.00     0.055 A 
ATOM     64  C   UNL     1      14.244  -0.103  12.864  1.00  0.00     0.041 A 
ATOM     65  F   UNL     1      12.282  -0.779  13.950  1.00  0.00    -0.206 F 
ATOM     66  C   UNL     1      14.981   0.866  12.189  1.00  0.00     0.022 A 
BRANCH  63  67
ATOM     67  S   UNL     1      15.279   3.371  11.005  1.00  0.00     0.124 S 
ATOM     68  O   UNL     1      14.256   3.611   9.987  1.00  0.00    -0.237 OA
ATOM     69  O   UNL     1      15.527   4.477  11.929  1.00  0.00    -0.237 OA
ATOM     70  O   UNL     1      16.465   2.673  10.534  1.00  0.00    -0.744 OA
ENDBRANCH  63  67
ENDBRANCH  46  60
BRANCH  47  71
ATOM     71  C   UNL     1       3.027   3.233  16.290  1.00  0.00     0.023 A 
ATOM     72  C   UNL     1       2.705   4.244  17.210  1.00  0.00     0.031 A 
ATOM     73  C   UNL     1       1.988   2.403  15.833  1.00  0.00     0.131 A 
ATOM     74  C   UNL     1       1.389   4.369  17.682  1.00  0.00     0.055 A 
ATOM     75  C   UNL     1       0.670   2.566  16.265  1.00  0.00     0.041 A 
ATOM     76  F   UNL     1       2.239   1.426  14.947  1.00  0.00    -0.206 F 
ATOM     77  C   UNL     1       0.367   3.545  17.205  1.00  0.00     0.022 A 
BRANCH  74  78
ATOM     78  S   UNL     1       1.048   5.573  18.995  1.00  0.00     0.124 S 
ATOM     79  O   UNL     1       1.960   5.135  20.045  1.00  0.00    -0.237 OA
ATOM     80  O   UNL     1       1.380   6.835  18.341  1.00  0.00    -0.237 OA
ATOM     81  O   UNL     1      -0.372   5.375  19.277  1.00  0.00    -0.744 OA
ENDBRANCH  74  78
ENDBRANCH  47  71
BRANCH  59  82
ATOM     82  C   UNL     1       8.883   1.427  19.612  1.00  0.00     0.023 A 
ATOM     83  C   UNL     1       8.300   0.360  20.317  1.00  0.00     0.031 A 
ATOM     84  C   UNL     1       9.738   2.296  20.313  1.00  0.00     0.131 A 
ATOM     85  C   UNL     1       8.524   0.230  21.696  1.00  0.00     0.055 A 
ATOM     86  C   UNL     1      10.010   2.122  21.670  1.00  0.00     0.041 A 
ATOM     87  F   UNL     1      10.322   3.332  19.690  1.00  0.00    -0.206 F 
ATOM     88  C   UNL     1       9.388   1.094  22.374  1.00  0.00     0.022 A 
BRANCH  85  89
ATOM     89  S   UNL     1       7.579  -1.016  22.615  1.00  0.00     0.124 S 
ATOM     90  O   UNL     1       6.203  -0.636  22.314  1.00  0.00    -0.237 OA
ATOM     91  O   UNL     1       8.042  -2.263  22.015  1.00  0.00    -0.237 OA
ATOM     92  O   UNL     1       7.992  -0.805  24.002  1.00  0.00    -0.744 OA
ENDBRANCH  85  89
ENDBRANCH  59  82
ENDBRANCH  33  34
ENDBRANCH  25  28
ENDBRANCH  23  24
ENDBRANCH   1  23
TORSDOF 18
