REMARK SMILES O=C(NCCCNC(=O)c1cc(-c2cc(Cl)ccc2Cl)cc([N+](=O)[O-])c1)c1ccc(-c2c3nc(c(-c4cc(S(=O)(=O)[O-])ccc4F)c4ccc([nH]4)c(-c4cc(S(=O)(=O)[O-])ccc4F)c4nc(c(-c5cc(S(=O)(=O)[O-])ccc5F)c5ccc2[nH]5)C=C4)C=C3)cc1
REMARK SMILES IDX 4 1 3 2 1 3 2 4 27 6 28 7 89 8 29 9 88 10 30 11 31 12 32 13
REMARK SMILES IDX 82 14 33 15 87 16 81 17 83 18 34 19 86 20 80 21 79 22 35 24
REMARK SMILES IDX 67 25 47 26 66 27 48 28 51 29 65 30 84 31 49 32 50 33 64 35
REMARK SMILES IDX 85 36 52 37 36 38 37 39 45 40 38 41 44 42 46 43 43 44 39 45
REMARK SMILES IDX 40 46 41 47 42 48 68 49 69 50 77 51 70 52 76 53 78 54 75 55
REMARK SMILES IDX 71 56 72 57 73 58 74 59 53 60 54 61 62 62 55 63 61 64 63 65
REMARK SMILES IDX 60 66 56 67 57 68 58 69 59 70 5 71 6 72 7 73 8 74 9 76 10 77
REMARK SMILES IDX 11 78 26 79 12 80 22 81 21 82 13 83 14 84 19 85 15 86 18 87
REMARK SMILES IDX 20 88 16 89 17 90 23 91 24 92 25 93
REMARK H PARENT 3 5 83 23 51 34 7 75
REMARK Flexibility Score: inf
ROOT
ATOM      1  C   UNL     1       4.547  -0.056   1.430  1.00  0.00     0.118 C 
ENDROOT
BRANCH   1   2
ATOM      2  N   UNL     1       3.111  -0.182   1.213  1.00  0.00    -0.352 N 
ATOM      3  O   UNL     1       1.154  -0.071   0.109  1.00  0.00    -0.269 OA
ATOM      4  C   UNL     1       2.382  -0.112   0.050  1.00  0.00     0.251 C 
ATOM      5  H   UNL     1       2.581  -0.343   2.026  1.00  0.00     0.163 HD
BRANCH   4   6
ATOM      6  C   UNL     1       3.064  -0.068  -1.262  1.00  0.00     0.039 A 
ATOM      7  C   UNL     1       4.166  -0.883  -1.521  1.00  0.00     0.014 A 
ATOM      8  C   UNL     1       2.580   0.786  -2.259  1.00  0.00     0.014 A 
ATOM      9  C   UNL     1       4.884  -0.723  -2.699  1.00  0.00     0.010 A 
ATOM     10  C   UNL     1       3.242   0.866  -3.489  1.00  0.00     0.010 A 
ATOM     11  C   UNL     1       4.420   0.136  -3.707  1.00  0.00    -0.014 A 
BRANCH  11  12
ATOM     12  C   UNL     1       5.153   0.195  -4.998  1.00  0.00     0.031 A 
ATOM     13  C   UNL     1       5.811   1.464  -5.464  1.00  0.00     0.074 A 
ATOM     14  C   UNL     1       5.252  -0.932  -5.733  1.00  0.00     0.049 A 
ATOM     15  N   UNL     1       6.500   1.682  -6.556  1.00  0.00    -0.248 NA
ATOM     16  C   UNL     1       5.669   2.644  -4.599  1.00  0.00     0.031 C 
ATOM     17  C   UNL     1       4.646  -2.220  -5.379  1.00  0.00     0.029 A 
ATOM     18  N   UNL     1       5.909  -1.189  -6.907  1.00  0.00    -0.354 N 
ATOM     19  C   UNL     1       6.859   3.026  -6.521  1.00  0.00     0.074 A 
ATOM     20  C   UNL     1       6.282   3.578  -5.313  1.00  0.00     0.031 C 
ATOM     21  C   UNL     1       5.004  -3.139  -6.286  1.00  0.00     0.029 A 
ATOM     22  C   UNL     1       5.798  -2.494  -7.325  1.00  0.00     0.049 A 
ATOM     23  H   UNL     1       6.412  -0.504  -7.405  1.00  0.00     0.167 HD
ATOM     24  C   UNL     1       7.605   3.726  -7.412  1.00  0.00     0.034 A 
ATOM     25  C   UNL     1       6.261  -3.104  -8.432  1.00  0.00     0.034 A 
ATOM     26  C   UNL     1       8.175   3.153  -8.609  1.00  0.00     0.049 A 
ATOM     27  C   UNL     1       7.056  -2.297  -9.419  1.00  0.00     0.074 A 
ATOM     28  C   UNL     1       8.972   3.763  -9.564  1.00  0.00     0.029 A 
ATOM     29  N   UNL     1       8.004   1.837  -9.023  1.00  0.00    -0.354 N 
ATOM     30  N   UNL     1       7.394  -1.029  -9.364  1.00  0.00    -0.248 NA
ATOM     31  C   UNL     1       7.532  -3.001 -10.614  1.00  0.00     0.031 C 
ATOM     32  C   UNL     1       9.227   2.837 -10.583  1.00  0.00     0.029 A 
ATOM     33  C   UNL     1       8.652   1.627 -10.232  1.00  0.00     0.049 A 
ATOM     34  H   UNL     1       7.496   1.153  -8.530  1.00  0.00     0.167 HD
ATOM     35  C   UNL     1       8.135  -0.787 -10.515  1.00  0.00     0.074 A 
ATOM     36  C   UNL     1       8.214  -2.046 -11.230  1.00  0.00     0.031 C 
ATOM     37  C   UNL     1       8.699   0.371 -10.944  1.00  0.00     0.034 A 
BRANCH  24  38
ATOM     38  C   UNL     1       7.805   5.200  -7.146  1.00  0.00     0.023 A 
ATOM     39  C   UNL     1       8.518   5.664  -6.026  1.00  0.00     0.031 A 
ATOM     40  C   UNL     1       7.255   6.158  -8.017  1.00  0.00     0.131 A 
ATOM     41  C   UNL     1       8.605   7.042  -5.771  1.00  0.00     0.055 A 
ATOM     42  C   UNL     1       7.409   7.529  -7.798  1.00  0.00     0.041 A 
ATOM     43  F   UNL     1       6.547   5.777  -9.092  1.00  0.00    -0.206 F 
ATOM     44  C   UNL     1       8.075   7.978  -6.662  1.00  0.00     0.022 A 
BRANCH  41  45
ATOM     45  S   UNL     1       9.303   7.590  -4.189  1.00  0.00     0.124 S 
ATOM     46  O   UNL     1       8.432   6.914  -3.230  1.00  0.00    -0.237 OA
ATOM     47  O   UNL     1      10.674   7.098  -4.262  1.00  0.00    -0.237 OA
ATOM     48  O   UNL     1       9.158   9.043  -4.234  1.00  0.00    -0.744 OA
ENDBRANCH  41  45
ENDBRANCH  24  38
BRANCH  25  49
ATOM     49  C   UNL     1       5.948  -4.539  -8.680  1.00  0.00     0.023 A 
ATOM     50  C   UNL     1       6.961  -5.509  -8.713  1.00  0.00     0.031 A 
ATOM     51  C   UNL     1       4.623  -4.959  -8.901  1.00  0.00     0.131 A 
ATOM     52  C   UNL     1       6.638  -6.846  -8.993  1.00  0.00     0.055 A 
ATOM     53  C   UNL     1       4.301  -6.296  -9.128  1.00  0.00     0.041 A 
ATOM     54  F   UNL     1       3.616  -4.070  -8.874  1.00  0.00    -0.206 F 
ATOM     55  C   UNL     1       5.314  -7.248  -9.186  1.00  0.00     0.022 A 
BRANCH  52  56
ATOM     56  S   UNL     1       7.985  -8.046  -9.170  1.00  0.00     0.124 S 
ATOM     57  O   UNL     1       8.777  -7.450 -10.239  1.00  0.00    -0.237 OA
ATOM     58  O   UNL     1       8.585  -8.025  -7.839  1.00  0.00    -0.237 OA
ATOM     59  O   UNL     1       7.293  -9.284  -9.520  1.00  0.00    -0.744 OA
ENDBRANCH  52  56
ENDBRANCH  25  49
BRANCH  37  60
ATOM     60  C   UNL     1       9.473   0.304 -12.236  1.00  0.00     0.023 A 
ATOM     61  C   UNL     1       8.831   0.079 -13.466  1.00  0.00     0.031 A 
ATOM     62  C   UNL     1      10.872   0.434 -12.230  1.00  0.00     0.131 A 
ATOM     63  C   UNL     1       9.594  -0.069 -14.634  1.00  0.00     0.055 A 
ATOM     64  C   UNL     1      11.621   0.342 -13.404  1.00  0.00     0.041 A 
ATOM     65  F   UNL     1      11.534   0.646 -11.082  1.00  0.00    -0.206 F 
ATOM     66  C   UNL     1      10.984   0.076 -14.613  1.00  0.00     0.022 A 
BRANCH  63  67
ATOM     67  S   UNL     1       8.754  -0.548 -16.168  1.00  0.00     0.124 S 
ATOM     68  O   UNL     1       8.144  -1.820 -15.796  1.00  0.00    -0.237 OA
ATOM     69  O   UNL     1       7.832   0.564 -16.379  1.00  0.00    -0.237 OA
ATOM     70  O   UNL     1       9.842  -0.642 -17.140  1.00  0.00    -0.744 OA
ENDBRANCH  63  67
ENDBRANCH  37  60
ENDBRANCH  11  12
ENDBRANCH   4   6
ENDBRANCH   1   2
BRANCH   1  71
ATOM     71  C   UNL     1       4.924   1.211   2.182  1.00  0.00     0.042 C 
BRANCH  71  72
ATOM     72  C   UNL     1       4.385   1.282   3.601  1.00  0.00     0.118 C 
BRANCH  72  73
ATOM     73  N   UNL     1       4.870   0.195   4.442  1.00  0.00    -0.352 N 
ATOM     74  C   UNL     1       5.619   0.213   5.587  1.00  0.00     0.251 C 
ATOM     75  H   UNL     1       4.616  -0.705   4.134  1.00  0.00     0.163 HD
ATOM     76  O   UNL     1       6.059  -0.842   6.042  1.00  0.00    -0.269 OA
BRANCH  74  77
ATOM     77  C   UNL     1       5.911   1.478   6.297  1.00  0.00     0.047 A 
ATOM     78  C   UNL     1       7.163   1.623   6.910  1.00  0.00     0.023 A 
ATOM     79  C   UNL     1       4.938   2.465   6.459  1.00  0.00     0.099 A 
ATOM     80  C   UNL     1       7.478   2.776   7.649  1.00  0.00    -0.009 A 
ATOM     81  C   UNL     1       5.270   3.649   7.121  1.00  0.00     0.270 A 
ATOM     82  C   UNL     1       6.535   3.816   7.700  1.00  0.00     0.094 A 
BRANCH  80  83
ATOM     83  C   UNL     1       8.733   2.850   8.418  1.00  0.00     0.002 A 
ATOM     84  C   UNL     1       9.970   2.845   7.746  1.00  0.00     0.030 A 
ATOM     85  C   UNL     1       8.748   2.882   9.830  1.00  0.00     0.048 A 
ATOM     86  C   UNL     1      11.170   2.873   8.462  1.00  0.00     0.041 A 
ATOM     87  C   UNL     1       9.954   2.918  10.539  1.00  0.00     0.023 A 
ATOM     88  Cl  UNL     1       7.292   2.832  10.771  1.00  0.00    -0.084 Cl
ATOM     89  Cl  UNL     1      12.671   2.848   7.622  1.00  0.00    -0.084 Cl
ATOM     90  C   UNL     1      11.166   2.912   9.854  1.00  0.00     0.022 A 
ENDBRANCH  80  83
BRANCH  81  91
ATOM     91  N   UNL     1       4.266   4.713   7.237  1.00  0.00     0.062 N 
ATOM     92  O   UNL     1       4.569   5.726   7.882  1.00  0.00    -0.258 OA
ATOM     93  O   UNL     1       3.171   4.530   6.686  1.00  0.00    -0.258 OA
ENDBRANCH  81  91
ENDBRANCH  74  77
ENDBRANCH  72  73
ENDBRANCH  71  72
ENDBRANCH   1  71
TORSDOF 15
