REMARK SMILES CS(=O)(=O)c1ccc(/C=C(/C(=O)NCCCNC(=O)c2ccc(-c3c4nc(c(-c5cc(S(=O)(=O)[O-])ccc5F)c5ccc([nH]5)c(-c5cc(S(=O)(=O)[O-])ccc5F)c5nc(c(-c6cc(S(=O)(=O)[O-])ccc6F)c6ccc3[nH]6)C=C5)C=C4)cc2)c2ccc(-c3ccc(S(C)(=O)=O)cc3)cc2)cc1
REMARK SMILES IDX 15 1 14 2 13 3 11 4 12 5 10 7 9 8 8 9 5 10 6 11 100 12 7 13
REMARK SMILES IDX 99 14 2 15 1 16 3 17 4 18 83 19 84 20 98 21 85 22 97 23
REMARK SMILES IDX 86 24 87 25 88 26 96 27 89 28 95 29 90 30 91 31 92 32 93 33
REMARK SMILES IDX 94 34 16 35 17 36 18 37 19 39 20 40 21 41 82 42 22 43 81 44
REMARK SMILES IDX 23 45 24 46 25 47 75 48 26 49 80 50 74 51 76 52 27 53 79 54
REMARK SMILES IDX 73 55 72 56 28 58 60 59 40 60 59 61 41 62 44 63 58 64 77 65
REMARK SMILES IDX 42 66 43 67 57 69 78 70 45 71 29 72 30 73 38 74 31 75 37 76
REMARK SMILES IDX 39 77 36 78 32 79 33 80 34 81 35 82 61 83 62 84 70 85 63 86
REMARK SMILES IDX 69 87 71 88 68 89 64 90 65 91 66 92 67 93 46 94 47 95 55 96
REMARK SMILES IDX 48 97 54 98 56 99 53 100 49 101 50 102 51 103 52 104
REMARK H PARENT 13 6 17 38 76 57 44 68
REMARK Flexibility Score: inf
ROOT
ATOM      1  C   UNL     1       3.066   3.397  -8.466  1.00  0.00     0.042 C 
ENDROOT
BRANCH   1   2
ATOM      2  C   UNL     1       2.174   2.215  -8.850  1.00  0.00     0.118 C 
BRANCH   2   3
ATOM      3  N   UNL     1       2.969   1.126  -9.384  1.00  0.00    -0.352 N 
ATOM      4  C   UNL     1       3.417  -0.053  -8.881  1.00  0.00     0.251 C 
ATOM      5  O   UNL     1       4.118  -0.730  -9.638  1.00  0.00    -0.269 OA
ATOM      6  H   UNL     1       3.245   1.274 -10.317  1.00  0.00     0.163 HD
BRANCH   4   7
ATOM      7  C   UNL     1       3.024  -0.583  -7.520  1.00  0.00     0.047 C 
ATOM      8  C   UNL     1       2.859   0.234  -6.454  1.00  0.00     0.022 C 
BRANCH   8   9
ATOM      9  C   UNL     1       2.364  -0.081  -5.095  1.00  0.00    -0.025 A 
ATOM     10  C   UNL     1       1.173  -0.643  -2.615  1.00  0.00     0.067 A 
ATOM     11  C   UNL     1       2.159  -1.490  -3.119  1.00  0.00     0.021 A 
ATOM     12  C   UNL     1       0.798   0.504  -3.315  1.00  0.00     0.021 A 
ATOM     13  C   UNL     1       2.772  -1.188  -4.340  1.00  0.00     0.009 A 
ATOM     14  C   UNL     1       1.398   0.782  -4.546  1.00  0.00     0.009 A 
BRANCH  10  15
ATOM     15  S   UNL     1       0.332  -1.048  -1.104  1.00  0.00     0.175 S 
ATOM     16  C   UNL     1       1.017   0.086   0.072  1.00  0.00     0.163 C 
ATOM     17  O   UNL     1       0.739  -2.389  -0.716  1.00  0.00    -0.224 OA
ATOM     18  O   UNL     1      -1.068  -0.726  -1.290  1.00  0.00    -0.224 OA
ENDBRANCH  10  15
ENDBRANCH   8   9
BRANCH   7  19
ATOM     19  C   UNL     1       3.018  -2.058  -7.359  1.00  0.00    -0.013 A 
ATOM     20  C   UNL     1       4.237  -2.742  -7.474  1.00  0.00     0.009 A 
ATOM     21  C   UNL     1       1.876  -2.782  -7.006  1.00  0.00     0.009 A 
ATOM     22  C   UNL     1       4.324  -4.105  -7.195  1.00  0.00     0.009 A 
ATOM     23  C   UNL     1       1.973  -4.148  -6.699  1.00  0.00     0.009 A 
ATOM     24  C   UNL     1       3.202  -4.829  -6.766  1.00  0.00    -0.018 A 
BRANCH  24  25
ATOM     25  C   UNL     1       3.336  -6.244  -6.370  1.00  0.00    -0.018 A 
ATOM     26  C   UNL     1       4.419  -6.665  -5.572  1.00  0.00     0.010 A 
ATOM     27  C   UNL     1       2.398  -7.212  -6.766  1.00  0.00     0.010 A 
ATOM     28  C   UNL     1       4.572  -8.001  -5.196  1.00  0.00     0.021 A 
ATOM     29  C   UNL     1       2.541  -8.553  -6.396  1.00  0.00     0.021 A 
ATOM     30  C   UNL     1       3.636  -8.940  -5.624  1.00  0.00     0.067 A 
BRANCH  30  31
ATOM     31  S   UNL     1       3.848 -10.640  -5.161  1.00  0.00     0.175 S 
ATOM     32  C   UNL     1       5.293 -11.140  -6.061  1.00  0.00     0.163 C 
ATOM     33  O   UNL     1       4.163 -10.665  -3.745  1.00  0.00    -0.224 OA
ATOM     34  O   UNL     1       2.724 -11.391  -5.687  1.00  0.00    -0.224 OA
ENDBRANCH  30  31
ENDBRANCH  24  25
ENDBRANCH   7  19
ENDBRANCH   4   7
ENDBRANCH   2   3
ENDBRANCH   1   2
BRANCH   1  35
ATOM     35  C   UNL     1       3.719   4.084  -9.666  1.00  0.00     0.118 C 
BRANCH  35  36
ATOM     36  N   UNL     1       2.740   4.751 -10.511  1.00  0.00    -0.352 N 
ATOM     37  C   UNL     1       2.623   6.077 -10.845  1.00  0.00     0.251 C 
ATOM     38  H   UNL     1       2.056   4.161 -10.903  1.00  0.00     0.163 HD
ATOM     39  O   UNL     1       1.581   6.472 -11.361  1.00  0.00    -0.269 OA
BRANCH  37  40
ATOM     40  C   UNL     1       3.729   7.024 -10.579  1.00  0.00     0.039 A 
ATOM     41  C   UNL     1       3.421   8.309 -10.121  1.00  0.00     0.014 A 
ATOM     42  C   UNL     1       5.059   6.672 -10.826  1.00  0.00     0.014 A 
ATOM     43  C   UNL     1       4.448   9.220  -9.862  1.00  0.00     0.010 A 
ATOM     44  C   UNL     1       6.086   7.558 -10.501  1.00  0.00     0.010 A 
ATOM     45  C   UNL     1       5.791   8.844 -10.023  1.00  0.00    -0.014 A 
BRANCH  45  46
ATOM     46  C   UNL     1       6.899   9.785  -9.709  1.00  0.00     0.031 A 
ATOM     47  C   UNL     1       7.822  10.255 -10.802  1.00  0.00     0.074 A 
ATOM     48  C   UNL     1       7.110  10.167  -8.434  1.00  0.00     0.049 A 
ATOM     49  N   UNL     1       8.895  11.000 -10.719  1.00  0.00    -0.248 NA
ATOM     50  C   UNL     1       7.512   9.799 -12.165  1.00  0.00     0.031 C 
ATOM     51  C   UNL     1       6.303   9.752  -7.285  1.00  0.00     0.029 A 
ATOM     52  N   UNL     1       8.071  10.980  -7.887  1.00  0.00    -0.354 N 
ATOM     53  C   UNL     1       9.397  11.090 -12.013  1.00  0.00     0.074 A 
ATOM     54  C   UNL     1       8.543  10.273 -12.849  1.00  0.00     0.031 C 
ATOM     55  C   UNL     1       6.790  10.329  -6.174  1.00  0.00     0.029 A 
ATOM     56  C   UNL     1       7.969  11.115  -6.521  1.00  0.00     0.049 A 
ATOM     57  H   UNL     1       8.767  11.426  -8.421  1.00  0.00     0.167 HD
ATOM     58  C   UNL     1      10.458  11.805 -12.466  1.00  0.00     0.034 A 
ATOM     59  C   UNL     1       8.747  11.783  -5.646  1.00  0.00     0.034 A 
ATOM     60  C   UNL     1      11.290  12.625 -11.618  1.00  0.00     0.049 A 
ATOM     61  C   UNL     1       9.934  12.552  -6.168  1.00  0.00     0.074 A 
ATOM     62  C   UNL     1      12.358  13.430 -11.976  1.00  0.00     0.029 A 
ATOM     63  N   UNL     1      11.154  12.740 -10.240  1.00  0.00    -0.354 N 
ATOM     64  N   UNL     1      10.370  12.662  -7.402  1.00  0.00    -0.248 NA
ATOM     65  C   UNL     1      10.727  13.296  -5.180  1.00  0.00     0.031 C 
ATOM     66  C   UNL     1      12.907  13.976 -10.811  1.00  0.00     0.029 A 
ATOM     67  C   UNL     1      12.135  13.579  -9.732  1.00  0.00     0.049 A 
ATOM     68  H   UNL     1      10.461  12.292  -9.703  1.00  0.00     0.167 HD
ATOM     69  C   UNL     1      11.469  13.515  -7.341  1.00  0.00     0.074 A 
ATOM     70  C   UNL     1      11.618  13.900  -5.952  1.00  0.00     0.031 C 
ATOM     71  C   UNL     1      12.278  13.946  -8.342  1.00  0.00     0.034 A 
BRANCH  58  72
ATOM     72  C   UNL     1      10.788  11.704 -13.937  1.00  0.00     0.023 A 
ATOM     73  C   UNL     1       9.886  12.131 -14.928  1.00  0.00     0.031 A 
ATOM     74  C   UNL     1      12.010  11.150 -14.358  1.00  0.00     0.131 A 
ATOM     75  C   UNL     1      10.181  11.921 -16.283  1.00  0.00     0.055 A 
ATOM     76  C   UNL     1      12.335  11.023 -15.711  1.00  0.00     0.041 A 
ATOM     77  F   UNL     1      12.905  10.706 -13.462  1.00  0.00    -0.206 F 
ATOM     78  C   UNL     1      11.411  11.394 -16.683  1.00  0.00     0.022 A 
BRANCH  75  79
ATOM     79  S   UNL     1       8.873  12.206 -17.508  1.00  0.00     0.124 S 
ATOM     80  O   UNL     1       7.833  11.289 -17.045  1.00  0.00    -0.237 OA
ATOM     81  O   UNL     1       8.591  13.627 -17.344  1.00  0.00    -0.237 OA
ATOM     82  O   UNL     1       9.502  11.835 -18.774  1.00  0.00    -0.744 OA
ENDBRANCH  75  79
ENDBRANCH  58  72
BRANCH  59  83
ATOM     83  C   UNL     1       8.441  11.750  -4.187  1.00  0.00     0.023 A 
ATOM     84  C   UNL     1       8.078  12.918  -3.498  1.00  0.00     0.031 A 
ATOM     85  C   UNL     1       8.546  10.557  -3.450  1.00  0.00     0.131 A 
ATOM     86  C   UNL     1       7.880  12.879  -2.109  1.00  0.00     0.055 A 
ATOM     87  C   UNL     1       8.296  10.512  -2.078  1.00  0.00     0.041 A 
ATOM     88  F   UNL     1       8.883   9.409  -4.060  1.00  0.00    -0.206 F 
ATOM     89  C   UNL     1       7.973  11.681  -1.396  1.00  0.00     0.022 A 
BRANCH  86  90
ATOM     90  S   UNL     1       7.580  14.437  -1.230  1.00  0.00     0.124 S 
ATOM     91  O   UNL     1       8.769  15.207  -1.578  1.00  0.00    -0.237 OA
ATOM     92  O   UNL     1       6.327  14.885  -1.829  1.00  0.00    -0.237 OA
ATOM     93  O   UNL     1       7.489  14.026   0.169  1.00  0.00    -0.744 OA
ENDBRANCH  86  90
ENDBRANCH  59  83
BRANCH  71  94
ATOM     94  C   UNL     1      13.366  14.925  -7.971  1.00  0.00     0.023 A 
ATOM     95  C   UNL     1      14.447  14.557  -7.152  1.00  0.00     0.031 A 
ATOM     96  C   UNL     1      13.310  16.251  -8.438  1.00  0.00     0.131 A 
ATOM     97  C   UNL     1      15.398  15.518  -6.777  1.00  0.00     0.055 A 
ATOM     98  C   UNL     1      14.293  17.186  -8.112  1.00  0.00     0.041 A 
ATOM     99  F   UNL     1      12.299  16.658  -9.221  1.00  0.00    -0.206 F 
ATOM    100  C   UNL     1      15.338  16.825  -7.266  1.00  0.00     0.022 A 
BRANCH  97 101
ATOM    101  S   UNL     1      16.666  15.061  -5.564  1.00  0.00     0.124 S 
ATOM    102  O   UNL     1      15.858  14.654  -4.418  1.00  0.00    -0.237 OA
ATOM    103  O   UNL     1      17.384  13.991  -6.250  1.00  0.00    -0.237 OA
ATOM    104  O   UNL     1      17.426  16.296  -5.379  1.00  0.00    -0.744 OA
ENDBRANCH  97 101
ENDBRANCH  71  94
ENDBRANCH  45  46
ENDBRANCH  37  40
ENDBRANCH  35  36
ENDBRANCH   1  35
TORSDOF 18
