REMARK SMILES O=C(CC(=O)OC/C=C\c1ccccc1)NCCCNC(=O)c1ccc(-c2c3nc(c(-c4cc(S(=O)(=O)[O-])ccc4F)c4ccc([nH]4)c(-c4cc(S(=O)(=O)[O-])ccc4F)c4nc(c(-c5cc(S(=O)(=O)[O-])ccc5F)c5ccc2[nH]5)C=C4)C=C3)cc1
REMARK SMILES IDX 17 1 16 2 1 3 2 4 3 6 4 7 5 8 6 9 7 10 8 11 9 12 10 13 11 14
REMARK SMILES IDX 15 15 12 16 14 17 13 18 18 19 19 20 20 21 21 22 22 24 23 25
REMARK SMILES IDX 24 26 85 27 25 28 84 29 26 30 27 31 28 32 78 33 29 34 83 35
REMARK SMILES IDX 77 36 79 37 30 38 82 39 76 40 75 41 31 43 63 44 43 45 62 46
REMARK SMILES IDX 44 47 47 48 61 49 80 50 45 51 46 52 60 54 81 55 48 56 32 57
REMARK SMILES IDX 33 58 41 59 34 60 40 61 42 62 39 63 35 64 36 65 37 66 38 67
REMARK SMILES IDX 64 68 65 69 73 70 66 71 72 72 74 73 71 74 67 75 68 76 69 77
REMARK SMILES IDX 70 78 49 79 50 80 58 81 51 82 57 83 59 84 56 85 52 86 53 87
REMARK SMILES IDX 54 88 55 89
REMARK H PARENT 16 5 20 23 79 42 47 53
REMARK Flexibility Score: inf
ROOT
ATOM      1  C   UNL     1       2.061   2.442   0.093  1.00  0.00     0.117 C 
ENDROOT
BRANCH   1   2
ATOM      2  N   UNL     1       2.712   1.150  -0.005  1.00  0.00    -0.356 N 
ATOM      3  O   UNL     1       0.778  -0.090  -0.063  1.00  0.00    -0.274 OA
ATOM      4  C   UNL     1       2.004  -0.029  -0.092  1.00  0.00     0.231 C 
ATOM      5  H   UNL     1       3.696   1.114  -0.010  1.00  0.00     0.163 HD
BRANCH   4   6
ATOM      6  C   UNL     1       2.855  -1.266  -0.150  1.00  0.00     0.222 C 
BRANCH   6   7
ATOM      7  C   UNL     1       3.719  -1.402  -1.364  1.00  0.00     0.315 C 
ATOM      8  O   UNL     1       4.718  -2.114  -1.379  1.00  0.00    -0.252 OA
BRANCH   7   9
ATOM      9  O   UNL     1       3.237  -0.706  -2.425  1.00  0.00    -0.461 OA
BRANCH   9  10
ATOM     10  C   UNL     1       3.947  -0.881  -3.659  1.00  0.00     0.260 C 
BRANCH  10  11
ATOM     11  C   UNL     1       5.060   0.120  -3.746  1.00  0.00     0.015 C 
ATOM     12  C   UNL     1       6.363  -0.129  -3.963  1.00  0.00     0.007 C 
BRANCH  12  13
ATOM     13  C   UNL     1       6.952  -1.456  -4.169  1.00  0.00    -0.026 A 
ATOM     14  C   UNL     1       7.966  -1.897  -3.313  1.00  0.00     0.008 A 
ATOM     15  C   UNL     1       6.535  -2.287  -5.217  1.00  0.00     0.008 A 
ATOM     16  C   UNL     1       8.529  -3.164  -3.478  1.00  0.00     0.001 A 
ATOM     17  C   UNL     1       7.090  -3.558  -5.375  1.00  0.00     0.001 A 
ATOM     18  C   UNL     1       8.085  -3.998  -4.504  1.00  0.00     0.000 A 
ENDBRANCH  12  13
ENDBRANCH  10  11
ENDBRANCH   9  10
ENDBRANCH   7   9
ENDBRANCH   6   7
ENDBRANCH   4   6
ENDBRANCH   1   2
BRANCH   1  19
ATOM     19  C   UNL     1       2.358   3.136   1.417  1.00  0.00     0.042 C 
BRANCH  19  20
ATOM     20  C   UNL     1       3.832   3.457   1.650  1.00  0.00     0.118 C 
BRANCH  20  21
ATOM     21  N   UNL     1       4.378   4.377   0.664  1.00  0.00    -0.352 N 
ATOM     22  C   UNL     1       5.054   5.561   0.830  1.00  0.00     0.251 C 
ATOM     23  H   UNL     1       4.241   4.107  -0.273  1.00  0.00     0.163 HD
ATOM     24  O   UNL     1       5.283   6.252  -0.161  1.00  0.00    -0.269 OA
BRANCH  22  25
ATOM     25  C   UNL     1       5.482   6.022   2.172  1.00  0.00     0.039 A 
ATOM     26  C   UNL     1       5.392   7.386   2.467  1.00  0.00     0.014 A 
ATOM     27  C   UNL     1       6.003   5.144   3.125  1.00  0.00     0.014 A 
ATOM     28  C   UNL     1       5.772   7.856   3.728  1.00  0.00     0.010 A 
ATOM     29  C   UNL     1       6.304   5.601   4.409  1.00  0.00     0.010 A 
ATOM     30  C   UNL     1       6.201   6.964   4.724  1.00  0.00    -0.014 A 
BRANCH  30  31
ATOM     31  C   UNL     1       6.554   7.452   6.086  1.00  0.00     0.031 A 
ATOM     32  C   UNL     1       7.959   7.300   6.610  1.00  0.00     0.074 A 
ATOM     33  C   UNL     1       5.603   8.004   6.865  1.00  0.00     0.049 A 
ATOM     34  N   UNL     1       8.450   7.639   7.776  1.00  0.00    -0.248 NA
ATOM     35  C   UNL     1       8.933   6.659   5.715  1.00  0.00     0.031 C 
ATOM     36  C   UNL     1       4.197   8.172   6.490  1.00  0.00     0.029 A 
ATOM     37  N   UNL     1       5.670   8.529   8.133  1.00  0.00    -0.354 N 
ATOM     38  C   UNL     1       9.784   7.246   7.757  1.00  0.00     0.074 A 
ATOM     39  C   UNL     1      10.004   6.582   6.490  1.00  0.00     0.031 C 
ATOM     40  C   UNL     1       3.545   8.789   7.488  1.00  0.00     0.029 A 
ATOM     41  C   UNL     1       4.469   9.019   8.594  1.00  0.00     0.049 A 
ATOM     42  H   UNL     1       6.499   8.552   8.662  1.00  0.00     0.167 HD
ATOM     43  C   UNL     1      10.744   7.443   8.697  1.00  0.00     0.034 A 
ATOM     44  C   UNL     1       4.146   9.585   9.774  1.00  0.00     0.034 A 
ATOM     45  C   UNL     1      10.512   8.112   9.955  1.00  0.00     0.049 A 
ATOM     46  C   UNL     1       5.224   9.772  10.812  1.00  0.00     0.074 A 
ATOM     47  C   UNL     1      11.421   8.400  10.959  1.00  0.00     0.029 A 
ATOM     48  N   UNL     1       9.281   8.591  10.389  1.00  0.00    -0.354 N 
ATOM     49  N   UNL     1       6.493   9.438  10.757  1.00  0.00    -0.248 NA
ATOM     50  C   UNL     1       4.828  10.430  12.063  1.00  0.00     0.031 C 
ATOM     51  C   UNL     1      10.729   8.983  12.027  1.00  0.00     0.029 A 
ATOM     52  C   UNL     1       9.404   9.144  11.656  1.00  0.00     0.049 A 
ATOM     53  H   UNL     1       8.444   8.544   9.873  1.00  0.00     0.167 HD
ATOM     54  C   UNL     1       7.053   9.881  11.954  1.00  0.00     0.074 A 
ATOM     55  C   UNL     1       5.987  10.523  12.695  1.00  0.00     0.031 C 
ATOM     56  C   UNL     1       8.333   9.773  12.396  1.00  0.00     0.034 A 
BRANCH  43  57
ATOM     57  C   UNL     1      12.126   6.901   8.403  1.00  0.00     0.023 A 
ATOM     58  C   UNL     1      12.881   7.353   7.306  1.00  0.00     0.031 A 
ATOM     59  C   UNL     1      12.689   5.901   9.217  1.00  0.00     0.131 A 
ATOM     60  C   UNL     1      14.113   6.753   7.005  1.00  0.00     0.055 A 
ATOM     61  C   UNL     1      13.956   5.371   8.964  1.00  0.00     0.041 A 
ATOM     62  F   UNL     1      12.011   5.411  10.267  1.00  0.00    -0.206 F 
ATOM     63  C   UNL     1      14.669   5.784   7.843  1.00  0.00     0.022 A 
BRANCH  60  64
ATOM     64  S   UNL     1      14.903   7.145   5.420  1.00  0.00     0.124 S 
ATOM     65  O   UNL     1      13.867   6.750   4.469  1.00  0.00    -0.237 OA
ATOM     66  O   UNL     1      15.152   8.577   5.537  1.00  0.00    -0.237 OA
ATOM     67  O   UNL     1      16.097   6.301   5.414  1.00  0.00    -0.744 OA
ENDBRANCH  60  64
ENDBRANCH  43  57
BRANCH  44  68
ATOM     68  C   UNL     1       2.743  10.016  10.049  1.00  0.00     0.023 A 
ATOM     69  C   UNL     1       2.431  11.366  10.276  1.00  0.00     0.031 A 
ATOM     70  C   UNL     1       1.702   9.075  10.143  1.00  0.00     0.131 A 
ATOM     71  C   UNL     1       1.125  11.732  10.638  1.00  0.00     0.055 A 
ATOM     72  C   UNL     1       0.392   9.451  10.444  1.00  0.00     0.041 A 
ATOM     73  F   UNL     1       1.944   7.771   9.933  1.00  0.00    -0.206 F 
ATOM     74  C   UNL     1       0.100  10.785  10.709  1.00  0.00     0.022 A 
BRANCH  71  75
ATOM     75  S   UNL     1       0.804  13.453  11.113  1.00  0.00     0.124 S 
ATOM     76  O   UNL     1       1.737  13.634  12.219  1.00  0.00    -0.237 OA
ATOM     77  O   UNL     1       1.120  14.170   9.882  1.00  0.00    -0.237 OA
ATOM     78  O   UNL     1      -0.610  13.446  11.482  1.00  0.00    -0.744 OA
ENDBRANCH  71  75
ENDBRANCH  44  68
BRANCH  56  79
ATOM     79  C   UNL     1       8.655  10.415  13.727  1.00  0.00     0.023 A 
ATOM     80  C   UNL     1       8.062   9.980  14.926  1.00  0.00     0.031 A 
ATOM     81  C   UNL     1       9.540  11.507  13.789  1.00  0.00     0.131 A 
ATOM     82  C   UNL     1       8.297  10.683  16.118  1.00  0.00     0.055 A 
ATOM     83  C   UNL     1       9.829  12.154  14.991  1.00  0.00     0.041 A 
ATOM     84  F   UNL     1      10.134  11.970  12.677  1.00  0.00    -0.206 F 
ATOM     85  C   UNL     1       9.191  11.755  16.162  1.00  0.00     0.022 A 
BRANCH  82  86
ATOM     86  S   UNL     1       7.315  10.261  17.584  1.00  0.00     0.124 S 
ATOM     87  O   UNL     1       5.951  10.406  17.087  1.00  0.00    -0.237 OA
ATOM     88  O   UNL     1       7.748   8.897  17.867  1.00  0.00    -0.237 OA
ATOM     89  O   UNL     1       7.725  11.259  18.570  1.00  0.00    -0.744 OA
ENDBRANCH  82  86
ENDBRANCH  56  79
ENDBRANCH  30  31
ENDBRANCH  22  25
ENDBRANCH  20  21
ENDBRANCH  19  20
ENDBRANCH   1  19
TORSDOF 18
