REMARK SMILES O=C(NCCCNC(=O)[C@@H]1CNc2ccccc2C1)c1ccc(-c2c3nc(c(-c4cc(S(=O)(=O)[O-])ccc4F)c4ccc([nH]4)c(-c4cc(S(=O)(=O)[O-])ccc4F)c4nc(c(-c5cc(S(=O)(=O)[O-])ccc5F)c5ccc2[nH]5)C=C4)C=C3)cc1
REMARK SMILES IDX 1 1 2 2 3 3 20 5 21 6 82 7 22 8 81 9 23 10 24 11 25 12 75 13
REMARK SMILES IDX 26 14 80 15 74 16 76 17 27 18 79 19 73 20 72 21 28 23 60 24
REMARK SMILES IDX 40 25 59 26 41 27 44 28 58 29 77 30 42 31 43 32 57 34 78 35
REMARK SMILES IDX 45 36 29 37 30 38 38 39 31 40 37 41 39 42 36 43 32 44 33 45
REMARK SMILES IDX 34 46 35 47 61 48 62 49 70 50 63 51 69 52 71 53 68 54 64 55
REMARK SMILES IDX 65 56 66 57 67 58 46 59 47 60 55 61 48 62 54 63 56 64 53 65
REMARK SMILES IDX 49 66 50 67 51 68 52 69 4 70 5 71 6 72 7 73 8 74 9 76 10 77
REMARK SMILES IDX 11 78 19 79 12 80 18 81 13 82 17 84 14 85 16 86 15 87
REMARK H PARENT 3 4 76 22 44 33 7 75 12 83
REMARK Flexibility Score: inf
ROOT
ATOM      1  O   UNL     1       1.116   0.154  -0.104  1.00  0.00    -0.269 OA
ATOM      2  C   UNL     1       2.347   0.151  -0.084  1.00  0.00     0.251 C 
ATOM      3  N   UNL     1       3.020  -1.027  -0.292  1.00  0.00    -0.352 N 
ATOM      4  H   UNL     1       2.468  -1.771  -0.627  1.00  0.00     0.163 HD
ENDROOT
BRANCH   2   5
ATOM      5  C   UNL     1       3.089   1.405   0.170  1.00  0.00     0.039 A 
ATOM      6  C   UNL     1       4.237   1.715  -0.563  1.00  0.00     0.014 A 
ATOM      7  C   UNL     1       2.607   2.304   1.126  1.00  0.00     0.014 A 
ATOM      8  C   UNL     1       4.976   2.849  -0.247  1.00  0.00     0.010 A 
ATOM      9  C   UNL     1       3.301   3.492   1.376  1.00  0.00     0.010 A 
ATOM     10  C   UNL     1       4.505   3.764   0.708  1.00  0.00    -0.014 A 
BRANCH  10  11
ATOM     11  C   UNL     1       5.255   5.026   0.939  1.00  0.00     0.031 A 
ATOM     12  C   UNL     1       5.883   5.325   2.270  1.00  0.00     0.074 A 
ATOM     13  C   UNL     1       5.381   5.897  -0.081  1.00  0.00     0.049 A 
ATOM     14  N   UNL     1       6.575   6.372   2.640  1.00  0.00    -0.248 NA
ATOM     15  C   UNL     1       5.700   4.321   3.328  1.00  0.00     0.031 C 
ATOM     16  C   UNL     1       4.811   5.712  -1.419  1.00  0.00     0.029 A 
ATOM     17  N   UNL     1       6.038   7.097  -0.166  1.00  0.00    -0.354 N 
ATOM     18  C   UNL     1       6.902   6.164   3.976  1.00  0.00     0.074 A 
ATOM     19  C   UNL     1       6.289   4.908   4.360  1.00  0.00     0.031 C 
ATOM     20  C   UNL     1       5.185   6.732  -2.202  1.00  0.00     0.029 A 
ATOM     21  C   UNL     1       5.953   7.683  -1.407  1.00  0.00     0.049 A 
ATOM     22  H   UNL     1       6.524   7.501   0.589  1.00  0.00     0.167 HD
ATOM     23  C   UNL     1       7.649   6.944   4.798  1.00  0.00     0.034 A 
ATOM     24  C   UNL     1       6.420   8.865  -1.854  1.00  0.00     0.034 A 
ATOM     25  C   UNL     1       8.240   8.200   4.394  1.00  0.00     0.049 A 
ATOM     26  C   UNL     1       7.187   9.743  -0.905  1.00  0.00     0.074 A 
ATOM     27  C   UNL     1       9.038   9.056   5.134  1.00  0.00     0.029 A 
ATOM     28  N   UNL     1       8.082   8.793   3.146  1.00  0.00    -0.354 N 
ATOM     29  N   UNL     1       7.506   9.523   0.349  1.00  0.00    -0.248 NA
ATOM     30  C   UNL     1       7.659  11.028  -1.433  1.00  0.00     0.031 C 
ATOM     31  C   UNL     1       9.292  10.198   4.365  1.00  0.00     0.029 A 
ATOM     32  C   UNL     1       8.732  10.019   3.110  1.00  0.00     0.049 A 
ATOM     33  H   UNL     1       7.581   8.399   2.395  1.00  0.00     0.167 HD
ATOM     34  C   UNL     1       8.240  10.634   0.753  1.00  0.00     0.074 A 
ATOM     35  C   UNL     1       8.328  11.511  -0.397  1.00  0.00     0.031 C 
ATOM     36  C   UNL     1       8.795  10.899   1.964  1.00  0.00     0.034 A 
BRANCH  23  37
ATOM     37  C   UNL     1       7.820   6.481   6.229  1.00  0.00     0.023 A 
ATOM     38  C   UNL     1       8.445   5.261   6.545  1.00  0.00     0.031 A 
ATOM     39  C   UNL     1       7.311   7.248   7.292  1.00  0.00     0.131 A 
ATOM     40  C   UNL     1       8.463   4.803   7.872  1.00  0.00     0.055 A 
ATOM     41  C   UNL     1       7.414   6.830   8.621  1.00  0.00     0.041 A 
ATOM     42  F   UNL     1       6.684   8.412   7.057  1.00  0.00    -0.206 F 
ATOM     43  C   UNL     1       7.975   5.592   8.916  1.00  0.00     0.022 A 
BRANCH  40  44
ATOM     44  S   UNL     1       8.969   3.089   8.189  1.00  0.00     0.124 S 
ATOM     45  O   UNL     1       8.056   2.345   7.324  1.00  0.00    -0.237 OA
ATOM     46  O   UNL     1      10.370   3.094   7.784  1.00  0.00    -0.237 OA
ATOM     47  O   UNL     1       8.731   2.920   9.621  1.00  0.00    -0.744 OA
ENDBRANCH  40  44
ENDBRANCH  23  37
BRANCH  24  48
ATOM     48  C   UNL     1       6.149   9.291  -3.256  1.00  0.00     0.023 A 
ATOM     49  C   UNL     1       7.194   9.464  -4.176  1.00  0.00     0.031 A 
ATOM     50  C   UNL     1       4.835   9.540  -3.694  1.00  0.00     0.131 A 
ATOM     51  C   UNL     1       6.911   9.906  -5.477  1.00  0.00     0.055 A 
ATOM     52  C   UNL     1       4.554   9.925  -5.005  1.00  0.00     0.041 A 
ATOM     53  F   UNL     1       3.798   9.386  -2.854  1.00  0.00    -0.206 F 
ATOM     54  C   UNL     1       5.598  10.120  -5.903  1.00  0.00     0.022 A 
BRANCH  51  55
ATOM     55  S   UNL     1       8.296  10.263  -6.591  1.00  0.00     0.124 S 
ATOM     56  O   UNL     1       9.014  11.294  -5.851  1.00  0.00    -0.237 OA
ATOM     57  O   UNL     1       8.954   8.964  -6.685  1.00  0.00    -0.237 OA
ATOM     58  O   UNL     1       7.639  10.716  -7.816  1.00  0.00    -0.744 OA
ENDBRANCH  51  55
ENDBRANCH  24  48
BRANCH  36  59
ATOM     59  C   UNL     1       9.585  12.181   2.085  1.00  0.00     0.023 A 
ATOM     60  C   UNL     1       8.975  13.444   1.974  1.00  0.00     0.031 A 
ATOM     61  C   UNL     1      10.976  12.136   2.290  1.00  0.00     0.131 A 
ATOM     62  C   UNL     1       9.761  14.605   2.008  1.00  0.00     0.055 A 
ATOM     63  C   UNL     1      11.743  13.298   2.391  1.00  0.00     0.041 A 
ATOM     64  F   UNL     1      11.613  10.960   2.397  1.00  0.00    -0.206 F 
ATOM     65  C   UNL     1      11.138  14.541   2.235  1.00  0.00     0.022 A 
BRANCH  62  66
ATOM     66  S   UNL     1       8.976  16.200   1.644  1.00  0.00     0.124 S 
ATOM     67  O   UNL     1       8.432  15.972   0.309  1.00  0.00    -0.237 OA
ATOM     68  O   UNL     1       7.998  16.320   2.720  1.00  0.00    -0.237 OA
ATOM     69  O   UNL     1      10.085  17.151   1.707  1.00  0.00    -0.744 OA
ENDBRANCH  62  66
ENDBRANCH  36  59
ENDBRANCH  10  11
ENDBRANCH   2   5
BRANCH   3  70
ATOM     70  C   UNL     1       4.428  -1.342  -0.092  1.00  0.00     0.118 C 
BRANCH  70  71
ATOM     71  C   UNL     1       4.639  -2.384   0.999  1.00  0.00     0.042 C 
BRANCH  71  72
ATOM     72  C   UNL     1       4.106  -3.768   0.638  1.00  0.00     0.117 C 
BRANCH  72  73
ATOM     73  N   UNL     1       4.829  -4.349  -0.475  1.00  0.00    -0.356 N 
ATOM     74  C   UNL     1       5.848  -5.252  -0.512  1.00  0.00     0.225 C 
ATOM     75  H   UNL     1       4.531  -4.037  -1.359  1.00  0.00     0.163 HD
ATOM     76  O   UNL     1       6.221  -5.591  -1.640  1.00  0.00    -0.275 OA
BRANCH  74  77
ATOM     77  C   UNL     1       6.371  -5.922   0.761  1.00  0.00     0.102 C 
ATOM     78  C   UNL     1       6.901  -4.987   1.843  1.00  0.00     0.126 C 
ATOM     79  C   UNL     1       7.495  -6.926   0.429  1.00  0.00     0.053 C 
ATOM     80  N   UNL     1       8.059  -4.255   1.382  1.00  0.00    -0.384 N 
ATOM     81  C   UNL     1       8.853  -6.273   0.281  1.00  0.00    -0.024 A 
ATOM     82  C   UNL     1       9.076  -4.972   0.768  1.00  0.00     0.037 A 
ATOM     83  H   UNL     1       8.124  -3.280   1.500  1.00  0.00     0.160 HD
ATOM     84  C   UNL     1       9.908  -6.987  -0.305  1.00  0.00     0.006 A 
ATOM     85  C   UNL     1      10.332  -4.386   0.595  1.00  0.00     0.026 A 
ATOM     86  C   UNL     1      11.167  -6.402  -0.436  1.00  0.00     0.000 A 
ATOM     87  C   UNL     1      11.377  -5.098   0.005  1.00  0.00     0.002 A 
ENDBRANCH  74  77
ENDBRANCH  72  73
ENDBRANCH  71  72
ENDBRANCH  70  71
ENDBRANCH   3  70
TORSDOF 13
