REMARK SMILES O=C(COc1ccccc1Br)Nc1cccc(C(=O)Nc2ccc(C(=O)NCCCNC(=O)c3ccc(-c4c5nc(c(-c6cc(S(=O)(=O)[O-])ccc6F)c6ccc([nH]6)c(-c6cc(S(=O)(=O)[O-])ccc6F)c6nc(c(-c7cc(S(=O)(=O)[O-])ccc7F)c7ccc4[nH]7)C=C6)C=C5)cc3)cc2)c1
REMARK SMILES IDX 25 1 26 2 27 3 24 5 21 6 22 7 98 8 23 9 97 10 20 11 18 12
REMARK SMILES IDX 19 13 17 15 13 16 14 17 99 18 15 19 16 20 12 21 1 22 2 23
REMARK SMILES IDX 3 25 4 26 5 27 6 28 10 29 7 30 9 31 11 32 8 33 28 34 29 35
REMARK SMILES IDX 30 36 31 37 32 38 33 40 34 41 35 42 96 43 36 44 95 45 37 46
REMARK SMILES IDX 38 47 39 48 89 49 40 50 94 51 88 52 90 53 41 54 93 55 87 56
REMARK SMILES IDX 86 57 42 59 74 60 54 61 73 62 55 63 58 64 72 65 91 66 56 67
REMARK SMILES IDX 57 68 71 70 92 71 59 72 43 73 44 74 52 75 45 76 51 77 53 78
REMARK SMILES IDX 50 79 46 80 47 81 48 82 49 83 75 84 76 85 84 86 77 87 83 88
REMARK SMILES IDX 85 89 82 90 78 91 79 92 80 93 81 94 60 95 61 96 69 97 62 98
REMARK SMILES IDX 68 99 70 100 67 101 63 102 64 103 65 104 66 105
REMARK H PARENT 27 4 20 14 12 24 31 39 90 58 58 69
REMARK Flexibility Score: inf
ROOT
ATOM      1  C   UNL     1       1.306   0.631   4.108  1.00  0.00     0.251 C 
ATOM      2  O   UNL     1       0.632  -0.030   4.900  1.00  0.00    -0.269 OA
ATOM      3  N   UNL     1       2.601   0.231   3.888  1.00  0.00    -0.352 N 
ATOM      4  H   UNL     1       2.884  -0.529   4.447  1.00  0.00     0.163 HD
ENDROOT
BRANCH   1   5
ATOM      5  C   UNL     1       0.669   1.764   3.382  1.00  0.00     0.039 A 
ATOM      6  C   UNL     1      -0.602   3.567   1.654  1.00  0.00     0.041 A 
ATOM      7  C   UNL     1      -1.347   2.568   2.278  1.00  0.00     0.027 A 
ATOM      8  C   UNL     1       0.725   3.779   2.036  1.00  0.00     0.027 A 
ATOM      9  C   UNL     1      -0.704   1.650   3.113  1.00  0.00     0.016 A 
ATOM     10  C   UNL     1       1.350   2.894   2.924  1.00  0.00     0.016 A 
BRANCH   6  11
ATOM     11  N   UNL     1      -1.205   4.257   0.592  1.00  0.00    -0.322 N 
ATOM     12  C   UNL     1      -0.698   4.598  -0.650  1.00  0.00     0.255 C 
ATOM     13  O   UNL     1      -1.342   5.374  -1.360  1.00  0.00    -0.269 OA
ATOM     14  H   UNL     1      -2.133   4.543   0.756  1.00  0.00     0.170 HD
BRANCH  12  15
ATOM     15  C   UNL     1       0.536   3.970  -1.217  1.00  0.00     0.042 A 
ATOM     16  C   UNL     1       2.182   2.177  -1.292  1.00  0.00     0.042 A 
ATOM     17  C   UNL     1       2.870   2.857  -2.298  1.00  0.00     0.026 A 
ATOM     18  C   UNL     1       0.988   2.709  -0.814  1.00  0.00     0.040 A 
ATOM     19  C   UNL     1       2.365   4.055  -2.809  1.00  0.00     0.003 A 
ATOM     20  C   UNL     1       1.210   4.617  -2.260  1.00  0.00     0.014 A 
BRANCH  16  21
ATOM     21  N   UNL     1       2.695   0.940  -0.863  1.00  0.00    -0.323 N 
ATOM     22  O   UNL     1       1.119   0.205   0.706  1.00  0.00    -0.271 OA
ATOM     23  C   UNL     1       2.091   0.018  -0.018  1.00  0.00     0.262 C 
ATOM     24  H   UNL     1       3.588   0.699  -1.201  1.00  0.00     0.170 HD
BRANCH  23  25
ATOM     25  C   UNL     1       2.763  -1.348  -0.075  1.00  0.00     0.329 C 
BRANCH  25  26
ATOM     26  O   UNL     1       3.494  -1.456  -1.298  1.00  0.00    -0.483 OA
BRANCH  26  27
ATOM     27  C   UNL     1       2.993  -2.413  -2.134  1.00  0.00     0.134 A 
ATOM     28  C   UNL     1       3.754  -3.580  -2.227  1.00  0.00     0.047 A 
ATOM     29  C   UNL     1       1.888  -2.232  -2.978  1.00  0.00     0.060 A 
ATOM     30  C   UNL     1       3.419  -4.562  -3.158  1.00  0.00     0.004 A 
ATOM     31  C   UNL     1       1.561  -3.219  -3.909  1.00  0.00     0.019 A 
ATOM     32  Br  UNL     1       0.785  -0.695  -3.001  1.00  0.00    -0.047 Br
ATOM     33  C   UNL     1       2.329  -4.377  -4.005  1.00  0.00     0.001 A 
ENDBRANCH  26  27
ENDBRANCH  25  26
ENDBRANCH  23  25
ENDBRANCH  16  21
ENDBRANCH  12  15
ENDBRANCH   6  11
ENDBRANCH   1   5
BRANCH   3  34
ATOM     34  C   UNL     1       3.631   0.716   2.989  1.00  0.00     0.118 C 
BRANCH  34  35
ATOM     35  C   UNL     1       4.717   1.469   3.744  1.00  0.00     0.042 C 
BRANCH  35  36
ATOM     36  C   UNL     1       5.610   0.547   4.565  1.00  0.00     0.118 C 
BRANCH  36  37
ATOM     37  N   UNL     1       6.413  -0.336   3.726  1.00  0.00    -0.352 N 
ATOM     38  C   UNL     1       7.778  -0.471   3.638  1.00  0.00     0.251 C 
ATOM     39  H   UNL     1       5.898  -0.926   3.131  1.00  0.00     0.163 HD
ATOM     40  O   UNL     1       8.255  -1.102   2.702  1.00  0.00    -0.269 OA
BRANCH  38  41
ATOM     41  C   UNL     1       8.656   0.150   4.655  1.00  0.00     0.039 A 
ATOM     42  C   UNL     1       9.875   0.703   4.255  1.00  0.00     0.014 A 
ATOM     43  C   UNL     1       8.293   0.164   6.004  1.00  0.00     0.014 A 
ATOM     44  C   UNL     1      10.703   1.309   5.203  1.00  0.00     0.010 A 
ATOM     45  C   UNL     1       9.066   0.860   6.925  1.00  0.00     0.010 A 
ATOM     46  C   UNL     1      10.293   1.418   6.541  1.00  0.00    -0.014 A 
BRANCH  46  47
ATOM     47  C   UNL     1      11.153   2.066   7.565  1.00  0.00     0.031 A 
ATOM     48  C   UNL     1      11.654   1.263   8.737  1.00  0.00     0.074 A 
ATOM     49  C   UNL     1      11.436   3.380   7.467  1.00  0.00     0.049 A 
ATOM     50  N   UNL     1      12.368   1.649   9.763  1.00  0.00    -0.248 NA
ATOM     51  C   UNL     1      11.268  -0.157   8.780  1.00  0.00     0.031 C 
ATOM     52  C   UNL     1      10.968   4.268   6.400  1.00  0.00     0.029 A 
ATOM     53  N   UNL     1      12.184   4.199   8.273  1.00  0.00    -0.354 N 
ATOM     54  C   UNL     1      12.495   0.529  10.580  1.00  0.00     0.074 A 
ATOM     55  C   UNL     1      11.723  -0.527   9.965  1.00  0.00     0.031 C 
ATOM     56  C   UNL     1      11.476   5.495   6.595  1.00  0.00     0.029 A 
ATOM     57  C   UNL     1      12.263   5.497   7.824  1.00  0.00     0.049 A 
ATOM     58  H   UNL     1      12.624   3.887   9.097  1.00  0.00     0.167 HD
ATOM     59  C   UNL     1      13.213   0.389  11.722  1.00  0.00     0.034 A 
ATOM     60  C   UNL     1      12.896   6.566   8.346  1.00  0.00     0.034 A 
ATOM     61  C   UNL     1      13.993   1.452  12.306  1.00  0.00     0.049 A 
ATOM     62  C   UNL     1      13.679   6.388   9.624  1.00  0.00     0.074 A 
ATOM     63  C   UNL     1      14.809   1.410  13.422  1.00  0.00     0.029 A 
ATOM     64  N   UNL     1      14.049   2.754  11.822  1.00  0.00    -0.354 N 
ATOM     65  N   UNL     1      13.840   5.307  10.353  1.00  0.00    -0.248 NA
ATOM     66  C   UNL     1      14.377   7.571  10.138  1.00  0.00     0.031 C 
ATOM     67  C   UNL     1      15.294   2.701  13.659  1.00  0.00     0.029 A 
ATOM     68  C   UNL     1      14.858   3.531  12.638  1.00  0.00     0.049 A 
ATOM     69  H   UNL     1      13.582   3.078  11.018  1.00  0.00     0.167 HD
ATOM     70  C   UNL     1      14.695   5.673  11.390  1.00  0.00     0.074 A 
ATOM     71  C   UNL     1      15.023   7.069  11.180  1.00  0.00     0.031 C 
ATOM     72  C   UNL     1      15.171   4.924  12.418  1.00  0.00     0.034 A 
BRANCH  59  73
ATOM     73  C   UNL     1      13.155  -0.951  12.422  1.00  0.00     0.023 A 
ATOM     74  C   UNL     1      13.593  -2.135  11.800  1.00  0.00     0.031 A 
ATOM     75  C   UNL     1      12.622  -1.053  13.719  1.00  0.00     0.131 A 
ATOM     76  C   UNL     1      13.408  -3.372  12.435  1.00  0.00     0.055 A 
ATOM     77  C   UNL     1      12.526  -2.278  14.384  1.00  0.00     0.041 A 
ATOM     78  F   UNL     1      12.165   0.035  14.359  1.00  0.00    -0.206 F 
ATOM     79  C   UNL     1      12.904  -3.450  13.735  1.00  0.00     0.022 A 
BRANCH  76  80
ATOM     80  S   UNL     1      13.681  -4.887  11.475  1.00  0.00     0.124 S 
ATOM     81  O   UNL     1      12.749  -4.704  10.365  1.00  0.00    -0.237 OA
ATOM     82  O   UNL     1      15.097  -4.799  11.142  1.00  0.00    -0.237 OA
ATOM     83  O   UNL     1      13.323  -5.954  12.409  1.00  0.00    -0.744 OA
ENDBRANCH  76  80
ENDBRANCH  59  73
BRANCH  60  84
ATOM     84  C   UNL     1      12.836   7.892   7.666  1.00  0.00     0.023 A 
ATOM     85  C   UNL     1      13.999   8.497   7.163  1.00  0.00     0.031 A 
ATOM     86  C   UNL     1      11.625   8.598   7.549  1.00  0.00     0.131 A 
ATOM     87  C   UNL     1      13.938   9.788   6.616  1.00  0.00     0.055 A 
ATOM     88  C   UNL     1      11.560   9.857   6.951  1.00  0.00     0.041 A 
ATOM     89  F   UNL     1      10.481   8.065   8.008  1.00  0.00    -0.206 F 
ATOM     90  C   UNL     1      12.724  10.466   6.494  1.00  0.00     0.022 A 
BRANCH  87  91
ATOM     91  S   UNL     1      15.489  10.608   6.154  1.00  0.00     0.124 S 
ATOM     92  O   UNL     1      16.219  10.594   7.415  1.00  0.00    -0.237 OA
ATOM     93  O   UNL     1      15.996   9.727   5.107  1.00  0.00    -0.237 OA
ATOM     94  O   UNL     1      15.053  11.927   5.699  1.00  0.00    -0.744 OA
ENDBRANCH  87  91
ENDBRANCH  60  84
BRANCH  72  95
ATOM     95  C   UNL     1      16.149   5.591  13.356  1.00  0.00     0.023 A 
ATOM     96  C   UNL     1      15.779   6.677  14.169  1.00  0.00     0.031 A 
ATOM     97  C   UNL     1      17.481   5.144  13.419  1.00  0.00     0.131 A 
ATOM     98  C   UNL     1      16.746   7.324  14.953  1.00  0.00     0.055 A 
ATOM     99  C   UNL     1      18.421   5.743  14.258  1.00  0.00     0.041 A 
ATOM    100  F   UNL     1      17.893   4.113  12.664  1.00  0.00    -0.206 F 
ATOM    101  C   UNL     1      18.059   6.851  15.019  1.00  0.00     0.022 A 
BRANCH  98 102
ATOM    102  S   UNL     1      16.294   8.866  15.794  1.00  0.00     0.124 S 
ATOM    103  O   UNL     1      15.831   9.692  14.683  1.00  0.00    -0.237 OA
ATOM    104  O   UNL     1      15.266   8.421  16.729  1.00  0.00    -0.237 OA
ATOM    105  O   UNL     1      17.546   9.300  16.410  1.00  0.00    -0.744 OA
ENDBRANCH  98 102
ENDBRANCH  72  95
ENDBRANCH  46  47
ENDBRANCH  38  41
ENDBRANCH  36  37
ENDBRANCH  35  36
ENDBRANCH  34  35
ENDBRANCH   3  34
TORSDOF 19
