REMARK SMILES CC[C@H](Nc1cccc(C(F)(F)F)c1)C(=O)NCCCNC(=O)c1ccc(-c2c3nc(c(-c4cc(S(=O)(=O)[O-])ccc4F)c4ccc([nH]4)c(-c4cc(S(=O)(=O)[O-])ccc4F)c4nc(c(-c5cc(S(=O)(=O)[O-])ccc5F)c5ccc2[nH]5)C=C4)C=C3)cc1
REMARK SMILES IDX 19 1 18 2 17 3 15 4 16 5 3 7 2 8 1 9 4 10 5 12 6 13 14 14
REMARK SMILES IDX 7 15 9 16 8 17 10 18 11 19 12 20 13 21 20 22 21 23 22 24
REMARK SMILES IDX 23 26 24 27 25 28 86 29 26 30 85 31 27 32 28 33 29 34 79 35
REMARK SMILES IDX 30 36 84 37 78 38 80 39 31 40 83 41 77 42 76 43 32 45 64 46
REMARK SMILES IDX 44 47 63 48 45 49 48 50 62 51 81 52 46 53 47 54 61 56 82 57
REMARK SMILES IDX 49 58 33 59 34 60 42 61 35 62 41 63 43 64 40 65 36 66 37 67
REMARK SMILES IDX 38 68 39 69 65 70 66 71 74 72 67 73 73 74 75 75 72 76 68 77
REMARK SMILES IDX 69 78 70 79 71 80 50 81 51 82 59 83 52 84 58 85 60 86 57 87
REMARK SMILES IDX 53 88 54 89 55 90 56 91
REMARK H PARENT 17 6 4 11 21 25 80 44 48 55
REMARK Flexibility Score: inf
ROOT
ATOM      1  C   UNL     1      -2.888   2.408   1.571  1.00  0.00     0.042 C 
ENDROOT
BRANCH   1   2
ATOM      2  C   UNL     1      -1.998   3.153   0.582  1.00  0.00     0.117 C 
BRANCH   2   3
ATOM      3  N   UNL     1      -0.847   3.768   1.226  1.00  0.00    -0.354 N 
ATOM      4  C   UNL     1       0.486   3.468   1.164  1.00  0.00     0.242 C 
ATOM      5  O   UNL     1       1.263   4.203   1.781  1.00  0.00    -0.273 OA
ATOM      6  H   UNL     1      -1.066   4.532   1.807  1.00  0.00     0.163 HD
BRANCH   4   7
ATOM      7  C   UNL     1       1.015   2.279   0.326  1.00  0.00     0.168 C 
BRANCH   7   8
ATOM      8  C   UNL     1       0.873   2.599  -1.172  1.00  0.00     0.031 C 
ATOM      9  C   UNL     1       1.834   1.802  -2.041  1.00  0.00     0.006 C 
ENDBRANCH   7   8
BRANCH   7  10
ATOM     10  N   UNL     1       0.293   1.048   0.666  1.00  0.00    -0.374 N 
ATOM     11  H   UNL     1      -0.690   1.099   0.696  1.00  0.00     0.161 HD
BRANCH  10  12
ATOM     12  C   UNL     1       0.870  -0.175   0.948  1.00  0.00     0.035 A 
ATOM     13  C   UNL     1       0.148  -1.325   0.604  1.00  0.00     0.026 A 
ATOM     14  C   UNL     1       2.035  -0.325   1.702  1.00  0.00     0.038 A 
ATOM     15  C   UNL     1       0.589  -2.596   0.965  1.00  0.00     0.003 A 
ATOM     16  C   UNL     1       2.487  -1.600   2.092  1.00  0.00     0.058 A 
ATOM     17  C   UNL     1       1.756  -2.734   1.708  1.00  0.00     0.013 A 
BRANCH  16  18
ATOM     18  C   UNL     1       3.720  -1.766   2.943  1.00  0.00     0.416 C 
ATOM     19  F   UNL     1       3.456  -2.379   4.131  1.00  0.00    -0.166 F 
ATOM     20  F   UNL     1       4.671  -2.530   2.336  1.00  0.00    -0.166 F 
ATOM     21  F   UNL     1       4.335  -0.592   3.258  1.00  0.00    -0.166 F 
ENDBRANCH  16  18
ENDBRANCH  10  12
ENDBRANCH   7  10
ENDBRANCH   4   7
ENDBRANCH   2   3
ENDBRANCH   1   2
BRANCH   1  22
ATOM     22  C   UNL     1      -3.615   3.315   2.553  1.00  0.00     0.118 C 
BRANCH  22  23
ATOM     23  N   UNL     1      -4.573   4.185   1.891  1.00  0.00    -0.352 N 
ATOM     24  C   UNL     1      -5.933   4.279   2.039  1.00  0.00     0.251 C 
ATOM     25  H   UNL     1      -4.184   4.804   1.231  1.00  0.00     0.163 HD
ATOM     26  O   UNL     1      -6.573   4.923   1.206  1.00  0.00    -0.269 OA
BRANCH  24  27
ATOM     27  C   UNL     1      -6.631   3.615   3.163  1.00  0.00     0.039 A 
ATOM     28  C   UNL     1      -7.911   3.097   2.947  1.00  0.00     0.014 A 
ATOM     29  C   UNL     1      -6.064   3.547   4.439  1.00  0.00     0.014 A 
ATOM     30  C   UNL     1      -8.603   2.485   3.995  1.00  0.00     0.010 A 
ATOM     31  C   UNL     1      -6.713   2.853   5.457  1.00  0.00     0.010 A 
ATOM     32  C   UNL     1      -8.002   2.339   5.256  1.00  0.00    -0.014 A 
BRANCH  32  33
ATOM     33  C   UNL     1      -8.732   1.710   6.388  1.00  0.00     0.031 A 
ATOM     34  C   UNL     1      -9.052   2.521   7.617  1.00  0.00     0.074 A 
ATOM     35  C   UNL     1      -9.071   0.408   6.328  1.00  0.00     0.049 A 
ATOM     36  N   UNL     1      -9.630   2.149   8.731  1.00  0.00    -0.248 NA
ATOM     37  C   UNL     1      -8.632   3.930   7.603  1.00  0.00     0.031 C 
ATOM     38  C   UNL     1      -8.772  -0.493   5.213  1.00  0.00     0.029 A 
ATOM     39  N   UNL     1      -9.737  -0.387   7.227  1.00  0.00    -0.354 N 
ATOM     40  C   UNL     1      -9.629   3.272   9.552  1.00  0.00     0.074 A 
ATOM     41  C   UNL     1      -8.922   4.312   8.836  1.00  0.00     0.031 C 
ATOM     42  C   UNL     1      -9.274  -1.709   5.484  1.00  0.00     0.029 A 
ATOM     43  C   UNL     1      -9.896  -1.686   6.804  1.00  0.00     0.049 A 
ATOM     44  H   UNL     1     -10.069  -0.059   8.093  1.00  0.00     0.167 HD
ATOM     45  C   UNL     1     -10.193   3.434  10.776  1.00  0.00     0.034 A 
ATOM     46  C   UNL     1     -10.475  -2.740   7.412  1.00  0.00     0.034 A 
ATOM     47  C   UNL     1     -10.907   2.389  11.469  1.00  0.00     0.049 A 
ATOM     48  C   UNL     1     -11.103  -2.540   8.768  1.00  0.00     0.074 A 
ATOM     49  C   UNL     1     -11.549   2.446  12.694  1.00  0.00     0.029 A 
ATOM     50  N   UNL     1     -11.075   1.093  10.995  1.00  0.00    -0.354 N 
ATOM     51  N   UNL     1     -11.133  -1.459   9.514  1.00  0.00    -0.248 NA
ATOM     52  C   UNL     1     -11.795  -3.694   9.353  1.00  0.00     0.031 C 
ATOM     53  C   UNL     1     -12.053   1.173  12.986  1.00  0.00     0.029 A 
ATOM     54  C   UNL     1     -11.793   0.338  11.910  1.00  0.00     0.049 A 
ATOM     55  H   UNL     1     -10.733   0.759  10.134  1.00  0.00     0.167 HD
ATOM     56  C   UNL     1     -11.874  -1.797  10.643  1.00  0.00     0.074 A 
ATOM     57  C   UNL     1     -12.286  -3.175  10.468  1.00  0.00     0.031 C 
ATOM     58  C   UNL     1     -12.189  -1.039  11.725  1.00  0.00     0.034 A 
BRANCH  45  59
ATOM     59  C   UNL     1     -10.036   4.785  11.436  1.00  0.00     0.023 A 
ATOM     60  C   UNL     1     -10.549   5.956  10.849  1.00  0.00     0.031 A 
ATOM     61  C   UNL     1      -9.323   4.917  12.641  1.00  0.00     0.131 A 
ATOM     62  C   UNL     1     -10.263   7.209  11.411  1.00  0.00     0.055 A 
ATOM     63  C   UNL     1      -9.121   6.160  13.246  1.00  0.00     0.041 A 
ATOM     64  F   UNL     1      -8.791   3.841  13.242  1.00  0.00    -0.206 F 
ATOM     65  C   UNL     1      -9.575   7.317  12.621  1.00  0.00     0.022 A 
BRANCH  62  66
ATOM     66  S   UNL     1     -10.657   8.697  10.452  1.00  0.00     0.124 S 
ATOM     67  O   UNL     1      -9.878   8.478   9.236  1.00  0.00    -0.237 OA
ATOM     68  O   UNL     1     -12.105   8.607  10.309  1.00  0.00    -0.237 OA
ATOM     69  O   UNL     1     -10.180   9.788  11.300  1.00  0.00    -0.744 OA
ENDBRANCH  62  66
ENDBRANCH  45  59
BRANCH  46  70
ATOM     70  C   UNL     1     -10.493  -4.075   6.750  1.00  0.00     0.023 A 
ATOM     71  C   UNL     1     -11.698  -4.667   6.339  1.00  0.00     0.031 A 
ATOM     72  C   UNL     1      -9.302  -4.793   6.543  1.00  0.00     0.131 A 
ATOM     73  C   UNL     1     -11.691  -5.957   5.785  1.00  0.00     0.055 A 
ATOM     74  C   UNL     1      -9.295  -6.055   5.946  1.00  0.00     0.041 A 
ATOM     75  F   UNL     1      -8.121  -4.268   6.908  1.00  0.00    -0.206 F 
ATOM     76  C   UNL     1     -10.496  -6.649   5.574  1.00  0.00     0.022 A 
BRANCH  73  77
ATOM     77  S   UNL     1     -13.278  -6.751   5.412  1.00  0.00     0.124 S 
ATOM     78  O   UNL     1     -13.930  -6.741   6.716  1.00  0.00    -0.237 OA
ATOM     79  O   UNL     1     -13.837  -5.851   4.408  1.00  0.00    -0.237 OA
ATOM     80  O   UNL     1     -12.890  -8.070   4.916  1.00  0.00    -0.744 OA
ENDBRANCH  73  77
ENDBRANCH  46  70
BRANCH  58  81
ATOM     81  C   UNL     1     -13.065  -1.678  12.775  1.00  0.00     0.023 A 
ATOM     82  C   UNL     1     -12.622  -2.765  13.548  1.00  0.00     0.031 A 
ATOM     83  C   UNL     1     -14.371  -1.203  12.988  1.00  0.00     0.131 A 
ATOM     84  C   UNL     1     -13.501  -3.385  14.450  1.00  0.00     0.055 A 
ATOM     85  C   UNL     1     -15.219  -1.783  13.933  1.00  0.00     0.041 A 
ATOM     86  F   UNL     1     -14.847  -0.168  12.278  1.00  0.00    -0.206 F 
ATOM     87  C   UNL     1     -14.791  -2.890  14.659  1.00  0.00     0.022 A 
BRANCH  84  88
ATOM     88  S   UNL     1     -12.973  -4.916  15.267  1.00  0.00     0.124 S 
ATOM     89  O   UNL     1     -12.646  -5.770  14.130  1.00  0.00    -0.237 OA
ATOM     90  O   UNL     1     -11.842  -4.465  16.071  1.00  0.00    -0.237 OA
ATOM     91  O   UNL     1     -14.152  -5.322  16.029  1.00  0.00    -0.744 OA
ENDBRANCH  84  88
ENDBRANCH  58  81
ENDBRANCH  32  33
ENDBRANCH  24  27
ENDBRANCH  22  23
ENDBRANCH   1  22
TORSDOF 17
