REMARK SMILES COc1ccc2[nH]cc([C@H](C(=O)NCCCNC(=O)c3ccc(-c4c5nc(c(-c6cc(S(=O)(=O)[O-])ccc6F)c6ccc([nH]6)c(-c6cc(S(=O)(=O)[O-])ccc6F)c6nc(c(-c7cc(S(=O)(=O)[O-])ccc7F)c7ccc4[nH]7)C=C6)C=C5)cc3)[NH+]3CC[NH+](Cc4cccc5ccccc45)CC3)c2c1
REMARK SMILES IDX 15 1 14 2 13 3 11 4 12 5 10 7 9 8 3 9 4 10 101 11 5 12
REMARK SMILES IDX 100 13 6 14 7 15 8 16 2 18 1 19 83 20 84 21 99 22 85 24
REMARK SMILES IDX 98 25 86 26 87 28 88 29 89 30 97 31 90 32 92 33 96 34 91 35
REMARK SMILES IDX 93 36 95 37 94 38 16 39 17 40 18 41 19 43 20 44 21 45 82 46
REMARK SMILES IDX 22 47 81 48 23 49 24 50 25 51 75 52 26 53 80 54 74 55 76 56
REMARK SMILES IDX 27 57 79 58 73 59 72 60 28 62 60 63 40 64 59 65 41 66 44 67
REMARK SMILES IDX 58 68 77 69 42 70 43 71 57 73 78 74 45 75 29 76 30 77 38 78
REMARK SMILES IDX 31 79 37 80 39 81 36 82 32 83 33 84 34 85 35 86 61 87 62 88
REMARK SMILES IDX 70 89 63 90 69 91 71 92 68 93 64 94 65 95 66 96 67 97 46 98
REMARK SMILES IDX 47 99 55 100 48 101 54 102 56 103 53 104 49 105 50 106
REMARK SMILES IDX 51 107 52 108
REMARK H PARENT 13 6 7 17 83 23 86 27 17 42 76 61 44 72
REMARK Flexibility Score: inf
ROOT
ATOM      1  C   UNL     1       2.191   5.669   5.511  1.00  0.00     0.042 C 
ENDROOT
BRANCH   1   2
ATOM      2  C   UNL     1       1.448   4.956   4.377  1.00  0.00     0.118 C 
BRANCH   2   3
ATOM      3  N   UNL     1       0.505   3.837   4.702  1.00  0.00    -0.351 N 
ATOM      4  C   UNL     1      -0.363   3.154   3.808  1.00  0.00     0.283 C 
ATOM      5  O   UNL     1       0.154   2.187   3.225  1.00  0.00    -0.268 OA
ATOM      6  H   UNL     1       0.484   3.542   5.641  1.00  0.00     0.163 HD
BRANCH   4   7
ATOM      7  C   UNL     1      -2.037   3.383   3.652  1.00  0.00     0.308 C 
BRANCH   7   8
ATOM      8  C   UNL     1      -2.846   2.980   4.903  1.00  0.00     0.045 A 
ATOM      9  C   UNL     1      -1.137   1.937   8.190  1.00  0.00     0.119 A 
ATOM     10  C   UNL     1      -2.275   1.919   8.978  1.00  0.00     0.048 A 
ATOM     11  C   UNL     1      -1.204   2.217   6.825  1.00  0.00     0.057 A 
ATOM     12  C   UNL     1      -3.522   2.171   8.404  1.00  0.00     0.030 A 
ATOM     13  C   UNL     1      -2.432   2.538   6.215  1.00  0.00     0.013 A 
ATOM     14  C   UNL     1      -3.567   2.487   7.035  1.00  0.00     0.046 A 
ATOM     15  N   UNL     1      -4.643   2.825   6.256  1.00  0.00    -0.361 N 
ATOM     16  C   UNL     1      -4.234   3.089   4.981  1.00  0.00     0.094 A 
ATOM     17  H   UNL     1      -5.574   2.871   6.571  1.00  0.00     0.166 HD
BRANCH   9  18
ATOM     18  O   UNL     1       0.104   1.792   8.751  1.00  0.00    -0.497 OA
ATOM     19  C   UNL     1       0.430   0.413   8.894  1.00  0.00     0.278 C 
ENDBRANCH   9  18
ENDBRANCH   7   8
BRANCH   7  20
ATOM     20  N   UNL     1      -2.487   4.752   3.354  1.00  0.00    -0.312 N 
ATOM     21  C   UNL     1      -1.478   5.665   3.684  1.00  0.00     0.325 C 
ATOM     22  C   UNL     1      -3.232   5.352   2.229  1.00  0.00     0.325 C 
ATOM     23  H   UNL     1      -3.335   4.544   3.880  1.00  0.00     0.349 HD
ATOM     24  C   UNL     1      -0.711   6.019   2.401  1.00  0.00     0.324 C 
ATOM     25  C   UNL     1      -2.734   6.938   1.823  1.00  0.00     0.324 C 
ATOM     26  N   UNL     1      -1.301   7.300   2.090  1.00  0.00    -0.322 N 
ATOM     27  H   UNL     1      -1.042   7.844   1.266  1.00  0.00     0.348 HD
BRANCH  26  28
ATOM     28  C   UNL     1      -0.822   8.280   3.172  1.00  0.00     0.300 C 
BRANCH  28  29
ATOM     29  C   UNL     1      -1.604   8.755   4.436  1.00  0.00     0.014 A 
ATOM     30  C   UNL     1      -2.027  10.088   4.338  1.00  0.00     0.010 A 
ATOM     31  C   UNL     1      -1.876   8.072   5.722  1.00  0.00    -0.010 A 
ATOM     32  C   UNL     1      -2.844  10.658   5.301  1.00  0.00     0.001 A 
ATOM     33  C   UNL     1      -2.897   8.587   6.550  1.00  0.00    -0.018 A 
ATOM     34  C   UNL     1      -1.243   6.940   6.325  1.00  0.00     0.009 A 
ATOM     35  C   UNL     1      -3.356   9.881   6.331  1.00  0.00     0.009 A 
ATOM     36  C   UNL     1      -3.432   7.854   7.638  1.00  0.00     0.009 A 
ATOM     37  C   UNL     1      -1.717   6.234   7.450  1.00  0.00     0.001 A 
ATOM     38  C   UNL     1      -2.868   6.662   8.071  1.00  0.00     0.001 A 
ENDBRANCH  28  29
ENDBRANCH  26  28
ENDBRANCH   7  20
ENDBRANCH   4   7
ENDBRANCH   2   3
ENDBRANCH   1   2
BRANCH   1  39
ATOM     39  C   UNL     1       3.361   6.552   5.032  1.00  0.00     0.118 C 
BRANCH  39  40
ATOM     40  N   UNL     1       3.087   7.499   3.940  1.00  0.00    -0.352 N 
ATOM     41  C   UNL     1       3.204   8.867   3.756  1.00  0.00     0.251 C 
ATOM     42  H   UNL     1       2.731   7.047   3.141  1.00  0.00     0.163 HD
ATOM     43  O   UNL     1       2.962   9.294   2.625  1.00  0.00    -0.269 OA
BRANCH  41  44
ATOM     44  C   UNL     1       3.534   9.850   4.829  1.00  0.00     0.039 A 
ATOM     45  C   UNL     1       3.192  11.205   4.659  1.00  0.00     0.014 A 
ATOM     46  C   UNL     1       4.176   9.494   6.002  1.00  0.00     0.014 A 
ATOM     47  C   UNL     1       3.419  12.142   5.685  1.00  0.00     0.010 A 
ATOM     48  C   UNL     1       4.234  10.372   7.079  1.00  0.00     0.010 A 
ATOM     49  C   UNL     1       3.892  11.721   6.935  1.00  0.00    -0.014 A 
BRANCH  49  50
ATOM     50  C   UNL     1       4.113  12.634   8.098  1.00  0.00     0.031 A 
ATOM     51  C   UNL     1       5.451  12.622   8.809  1.00  0.00     0.074 A 
ATOM     52  C   UNL     1       3.099  13.369   8.598  1.00  0.00     0.049 A 
ATOM     53  N   UNL     1       5.788  13.130   9.968  1.00  0.00    -0.248 NA
ATOM     54  C   UNL     1       6.536  11.869   8.157  1.00  0.00     0.031 C 
ATOM     55  C   UNL     1       1.743  13.433   8.049  1.00  0.00     0.029 A 
ATOM     56  N   UNL     1       3.044  14.191   9.698  1.00  0.00    -0.354 N 
ATOM     57  C   UNL     1       7.093  12.703  10.205  1.00  0.00     0.074 A 
ATOM     58  C   UNL     1       7.448  11.823   9.114  1.00  0.00     0.031 C 
ATOM     59  C   UNL     1       1.005  14.279   8.786  1.00  0.00     0.029 A 
ATOM     60  C   UNL     1       1.809  14.767   9.901  1.00  0.00     0.049 A 
ATOM     61  H   UNL     1       3.816  14.354  10.286  1.00  0.00     0.167 HD
ATOM     62  C   UNL     1       7.934  13.039  11.216  1.00  0.00     0.034 A 
ATOM     63  C   UNL     1       1.369  15.579  10.883  1.00  0.00     0.034 A 
ATOM     64  C   UNL     1       7.583  13.974  12.256  1.00  0.00     0.049 A 
ATOM     65  C   UNL     1       2.326  15.968  11.983  1.00  0.00     0.074 A 
ATOM     66  C   UNL     1       8.373  14.463  13.281  1.00  0.00     0.029 A 
ATOM     67  N   UNL     1       6.336  14.572  12.397  1.00  0.00    -0.354 N 
ATOM     68  N   UNL     1       3.571  15.589  12.170  1.00  0.00    -0.248 NA
ATOM     69  C   UNL     1       1.823  16.901  12.998  1.00  0.00     0.031 C 
ATOM     70  C   UNL     1       7.587  15.301  14.079  1.00  0.00     0.029 A 
ATOM     71  C   UNL     1       6.330  15.404  13.505  1.00  0.00     0.049 A 
ATOM     72  H   UNL     1       5.569  14.425  11.797  1.00  0.00     0.167 HD
ATOM     73  C   UNL     1       4.006  16.265  13.307  1.00  0.00     0.074 A 
ATOM     74  C   UNL     1       2.899  17.089  13.747  1.00  0.00     0.031 C 
ATOM     75  C   UNL     1       5.212  16.213  13.931  1.00  0.00     0.034 A 
BRANCH  62  76
ATOM     76  C   UNL     1       9.302  12.390  11.241  1.00  0.00     0.023 A 
ATOM     77  C   UNL     1      10.213  12.533  10.178  1.00  0.00     0.031 A 
ATOM     78  C   UNL     1       9.692  11.584  12.327  1.00  0.00     0.131 A 
ATOM     79  C   UNL     1      11.413  11.805  10.175  1.00  0.00     0.055 A 
ATOM     80  C   UNL     1      10.933  10.942  12.363  1.00  0.00     0.041 A 
ATOM     81  F   UNL     1       8.866  11.389  13.367  1.00  0.00    -0.206 F 
ATOM     82  C   UNL     1      11.793  11.034  11.274  1.00  0.00     0.022 A 
BRANCH  79  83
ATOM     83  S   UNL     1      12.382  11.755   8.642  1.00  0.00     0.124 S 
ATOM     84  O   UNL     1      11.415  11.176   7.704  1.00  0.00    -0.237 OA
ATOM     85  O   UNL     1      12.725  13.144   8.432  1.00  0.00    -0.237 OA
ATOM     86  O   UNL     1      13.505  10.870   8.979  1.00  0.00    -0.744 OA
ENDBRANCH  79  83
ENDBRANCH  62  76
BRANCH  63  87
ATOM     87  C   UNL     1      -0.034  16.090  10.875  1.00  0.00     0.023 A 
ATOM     88  C   UNL     1      -0.300  17.462  10.738  1.00  0.00     0.031 A 
ATOM     89  C   UNL     1      -1.129  15.222  11.034  1.00  0.00     0.131 A 
ATOM     90  C   UNL     1      -1.621  17.932  10.808  1.00  0.00     0.055 A 
ATOM     91  C   UNL     1      -2.446  15.688  11.043  1.00  0.00     0.041 A 
ATOM     92  F   UNL     1      -0.936  13.900  11.166  1.00  0.00    -0.206 F 
ATOM     93  C   UNL     1      -2.697  17.053  10.943  1.00  0.00     0.022 A 
BRANCH  90  94
ATOM     94  S   UNL     1      -1.907  19.724  10.808  1.00  0.00     0.124 S 
ATOM     95  O   UNL     1      -1.122  20.150  11.962  1.00  0.00    -0.237 OA
ATOM     96  O   UNL     1      -1.389  20.114   9.501  1.00  0.00    -0.237 OA
ATOM     97  O   UNL     1      -3.356  19.837  10.961  1.00  0.00    -0.744 OA
ENDBRANCH  90  94
ENDBRANCH  63  87
BRANCH  75  98
ATOM     98  C   UNL     1       5.403  17.114  15.127  1.00  0.00     0.023 A 
ATOM     99  C   UNL     1       4.669  16.937  16.311  1.00  0.00     0.031 A 
ATOM    100  C   UNL     1       6.326  18.174  15.072  1.00  0.00     0.131 A 
ATOM    101  C   UNL     1       4.820  17.846  17.369  1.00  0.00     0.055 A 
ATOM    102  C   UNL     1       6.525  19.031  16.154  1.00  0.00     0.041 A 
ATOM    103  F   UNL     1       7.054  18.392  13.965  1.00  0.00    -0.206 F 
ATOM    104  C   UNL     1       5.758  18.879  17.306  1.00  0.00     0.022 A 
BRANCH 101 105
ATOM    105  S   UNL     1       3.693  17.726  18.784  1.00  0.00     0.124 S 
ATOM    106  O   UNL     1       2.388  17.855  18.143  1.00  0.00    -0.237 OA
ATOM    107  O   UNL     1       4.010  16.409  19.325  1.00  0.00    -0.237 OA
ATOM    108  O   UNL     1       4.083  18.853  19.629  1.00  0.00    -0.744 OA
ENDBRANCH 101 105
ENDBRANCH  75  98
ENDBRANCH  49  50
ENDBRANCH  41  44
ENDBRANCH  39  40
ENDBRANCH   1  39
TORSDOF 18
