REMARK SMILES CCc1ccc(C[NH+]2CCC(Oc3ccccc3OC)(C(=O)NCCCNC(=O)c3ccc(-c4c5nc(c(-c6cc(S(=O)(=O)[O-])ccc6F)c6ccc([nH]6)c(-c6cc(S(=O)(=O)[O-])ccc6F)c6nc(c(-c7cc(S(=O)(=O)[O-])ccc7F)c7ccc4[nH]7)C=C6)C=C5)cc3)CC2)nc1
REMARK SMILES IDX 25 1 24 2 23 3 21 4 22 5 11 7 8 8 9 9 94 10 10 12 93 13 7 14
REMARK SMILES IDX 6 15 3 16 4 17 96 18 5 19 95 20 2 21 1 22 12 23 13 24 14 25
REMARK SMILES IDX 18 26 15 27 17 28 16 29 19 30 20 31 26 32 27 33 28 34 29 36
REMARK SMILES IDX 30 37 31 38 92 39 32 40 91 41 33 42 34 43 35 44 85 45 36 46
REMARK SMILES IDX 90 47 84 48 86 49 37 50 89 51 83 52 82 53 38 55 70 56 50 57
REMARK SMILES IDX 69 58 51 59 54 60 68 61 87 62 52 63 53 64 67 66 88 67 55 68
REMARK SMILES IDX 39 69 40 70 48 71 41 72 47 73 49 74 46 75 42 76 43 77 44 78
REMARK SMILES IDX 45 79 71 80 72 81 80 82 73 83 79 84 81 85 78 86 74 87 75 88
REMARK SMILES IDX 76 89 77 90 56 91 57 92 65 93 58 94 64 95 66 96 63 97 59 98
REMARK SMILES IDX 60 99 61 100 62 101
REMARK H PARENT 23 6 8 11 27 35 86 54 54 65
REMARK Flexibility Score: inf
ROOT
ATOM      1  C   UNL     1       1.734   4.432   7.538  1.00  0.00     0.042 C 
ENDROOT
BRANCH   1   2
ATOM      2  C   UNL     1       3.229   4.193   7.375  1.00  0.00     0.118 C 
BRANCH   2   3
ATOM      3  N   UNL     1       3.579   3.581   6.106  1.00  0.00    -0.353 N 
ATOM      4  C   UNL     1       4.234   4.078   5.012  1.00  0.00     0.264 C 
ATOM      5  O   UNL     1       4.668   3.214   4.240  1.00  0.00    -0.270 OA
ATOM      6  H   UNL     1       3.295   2.642   6.016  1.00  0.00     0.163 HD
BRANCH   4   7
ATOM      7  C   UNL     1       4.408   5.613   4.734  1.00  0.00     0.197 C 
ATOM      8  N   UNL     1       3.317   6.092   2.036  1.00  0.00    -0.330 N 
ATOM      9  C   UNL     1       2.425   5.792   3.161  1.00  0.00     0.267 C 
ATOM     10  C   UNL     1       4.606   5.402   2.181  1.00  0.00     0.267 C 
ATOM     11  H   UNL     1       3.505   7.094   2.053  1.00  0.00     0.348 HD
ATOM     12  C   UNL     1       3.051   6.269   4.461  1.00  0.00     0.120 C 
ATOM     13  C   UNL     1       5.310   5.800   3.490  1.00  0.00     0.120 C 
BRANCH   8  14
ATOM     14  C   UNL     1       2.674   5.803   0.729  1.00  0.00     0.319 C 
BRANCH  14  15
ATOM     15  C   UNL     1       2.012   4.440   0.599  1.00  0.00     0.095 A 
ATOM     16  C   UNL     1       0.898   1.921   0.783  1.00  0.00    -0.030 A 
ATOM     17  C   UNL     1       0.074   3.045   0.855  1.00  0.00     0.007 A 
ATOM     18  C   UNL     1       2.257   2.142   0.585  1.00  0.00     0.115 A 
ATOM     19  C   UNL     1       0.632   4.317   0.763  1.00  0.00     0.030 A 
ATOM     20  N   UNL     1       2.822   3.362   0.467  1.00  0.00    -0.255 NA
BRANCH  16  21
ATOM     21  C   UNL     1       0.346   0.537   0.984  1.00  0.00     0.034 C 
ATOM     22  C   UNL     1       0.684  -0.415  -0.154  1.00  0.00     0.009 C 
ENDBRANCH  16  21
ENDBRANCH  14  15
ENDBRANCH   8  14
BRANCH   7  23
ATOM     23  O   UNL     1       4.988   6.100   5.966  1.00  0.00    -0.473 OA
BRANCH  23  24
ATOM     24  C   UNL     1       5.665   7.281   5.987  1.00  0.00     0.162 A 
ATOM     25  C   UNL     1       7.061   7.189   5.994  1.00  0.00     0.050 A 
ATOM     26  C   UNL     1       5.056   8.527   6.172  1.00  0.00     0.160 A 
ATOM     27  C   UNL     1       7.845   8.336   6.117  1.00  0.00     0.004 A 
ATOM     28  C   UNL     1       5.845   9.677   6.270  1.00  0.00     0.050 A 
ATOM     29  C   UNL     1       7.236   9.582   6.251  1.00  0.00     0.004 A 
BRANCH  26  30
ATOM     30  O   UNL     1       3.705   8.739   6.194  1.00  0.00    -0.493 OA
ATOM     31  C   UNL     1       3.082   8.213   7.360  1.00  0.00     0.278 C 
ENDBRANCH  26  30
ENDBRANCH  23  24
ENDBRANCH   7  23
ENDBRANCH   4   7
ENDBRANCH   2   3
ENDBRANCH   1   2
BRANCH   1  32
ATOM     32  C   UNL     1       0.934   3.165   7.811  1.00  0.00     0.118 C 
BRANCH  32  33
ATOM     33  N   UNL     1       1.216   2.608   9.127  1.00  0.00    -0.352 N 
ATOM     34  C   UNL     1       0.389   2.410  10.206  1.00  0.00     0.251 C 
ATOM     35  H   UNL     1       2.150   2.329   9.265  1.00  0.00     0.163 HD
ATOM     36  O   UNL     1       0.890   2.132  11.292  1.00  0.00    -0.269 OA
BRANCH  34  37
ATOM     37  C   UNL     1      -1.081   2.547  10.079  1.00  0.00     0.039 A 
ATOM     38  C   UNL     1      -1.797   3.114  11.138  1.00  0.00     0.014 A 
ATOM     39  C   UNL     1      -1.765   2.082   8.953  1.00  0.00     0.014 A 
ATOM     40  C   UNL     1      -3.183   3.268  11.042  1.00  0.00     0.010 A 
ATOM     41  C   UNL     1      -3.135   2.306   8.825  1.00  0.00     0.010 A 
ATOM     42  C   UNL     1      -3.861   2.896   9.870  1.00  0.00    -0.014 A 
BRANCH  42  43
ATOM     43  C   UNL     1      -5.326   3.101   9.726  1.00  0.00     0.031 A 
ATOM     44  C   UNL     1      -6.243   1.918   9.568  1.00  0.00     0.074 A 
ATOM     45  C   UNL     1      -5.824   4.353   9.682  1.00  0.00     0.049 A 
ATOM     46  N   UNL     1      -7.532   1.892   9.339  1.00  0.00    -0.248 NA
ATOM     47  C   UNL     1      -5.621   0.589   9.649  1.00  0.00     0.031 C 
ATOM     48  C   UNL     1      -5.034   5.581   9.795  1.00  0.00     0.029 A 
ATOM     49  N   UNL     1      -7.112   4.802   9.522  1.00  0.00    -0.354 N 
ATOM     50  C   UNL     1      -7.873   0.547   9.240  1.00  0.00     0.074 A 
ATOM     51  C   UNL     1      -6.643  -0.206   9.368  1.00  0.00     0.031 C 
ATOM     52  C   UNL     1      -5.856   6.640   9.727  1.00  0.00     0.029 A 
ATOM     53  C   UNL     1      -7.222   6.173   9.516  1.00  0.00     0.049 A 
ATOM     54  H   UNL     1      -7.883   4.199   9.421  1.00  0.00     0.167 HD
ATOM     55  C   UNL     1      -9.100  -0.010   9.081  1.00  0.00     0.034 A 
ATOM     56  C   UNL     1      -8.300   6.965   9.347  1.00  0.00     0.034 A 
ATOM     57  C   UNL     1     -10.319   0.755   8.963  1.00  0.00     0.049 A 
ATOM     58  C   UNL     1      -9.649   6.326   9.139  1.00  0.00     0.074 A 
ATOM     59  C   UNL     1     -11.618   0.294   8.832  1.00  0.00     0.029 A 
ATOM     60  N   UNL     1     -10.390   2.142   8.957  1.00  0.00    -0.354 N 
ATOM     61  N   UNL     1      -9.958   5.051   9.072  1.00  0.00    -0.248 NA
ATOM     62  C   UNL     1     -10.794   7.233   8.993  1.00  0.00     0.031 C 
ATOM     63  C   UNL     1     -12.464   1.398   8.685  1.00  0.00     0.029 A 
ATOM     64  C   UNL     1     -11.706   2.552   8.800  1.00  0.00     0.049 A 
ATOM     65  H   UNL     1      -9.619   2.747   9.051  1.00  0.00     0.167 HD
ATOM     66  C   UNL     1     -11.339   5.005   8.907  1.00  0.00     0.074 A 
ATOM     67  C   UNL     1     -11.802   6.378   8.898  1.00  0.00     0.031 C 
ATOM     68  C   UNL     1     -12.153   3.926   8.780  1.00  0.00     0.034 A 
BRANCH  55  69
ATOM     69  C   UNL     1      -9.173  -1.517   9.003  1.00  0.00     0.023 A 
ATOM     70  C   UNL     1      -8.778  -2.330  10.081  1.00  0.00     0.031 A 
ATOM     71  C   UNL     1      -9.613  -2.153   7.829  1.00  0.00     0.131 A 
ATOM     72  C   UNL     1      -8.754  -3.725   9.935  1.00  0.00     0.055 A 
ATOM     73  C   UNL     1      -9.668  -3.545   7.720  1.00  0.00     0.041 A 
ATOM     74  F   UNL     1      -9.983  -1.432   6.758  1.00  0.00    -0.206 F 
ATOM     75  C   UNL     1      -9.221  -4.340   8.772  1.00  0.00     0.022 A 
BRANCH  72  76
ATOM     76  S   UNL     1      -7.962  -4.716  11.232  1.00  0.00     0.124 S 
ATOM     77  O   UNL     1      -6.607  -4.171  11.232  1.00  0.00    -0.237 OA
ATOM     78  O   UNL     1      -8.774  -4.410  12.403  1.00  0.00    -0.237 OA
ATOM     79  O   UNL     1      -8.074  -6.085  10.733  1.00  0.00    -0.744 OA
ENDBRANCH  72  76
ENDBRANCH  55  69
BRANCH  56  80
ATOM     80  C   UNL     1      -8.153   8.448   9.360  1.00  0.00     0.023 A 
ATOM     81  C   UNL     1      -8.744   9.223  10.371  1.00  0.00     0.031 A 
ATOM     82  C   UNL     1      -7.448   9.116   8.343  1.00  0.00     0.131 A 
ATOM     83  C   UNL     1      -8.656  10.623  10.320  1.00  0.00     0.055 A 
ATOM     84  C   UNL     1      -7.320  10.506   8.325  1.00  0.00     0.041 A 
ATOM     85  F   UNL     1      -6.859   8.422   7.357  1.00  0.00    -0.206 F 
ATOM     86  C   UNL     1      -7.937  11.269   9.312  1.00  0.00     0.022 A 
BRANCH  83  87
ATOM     87  S   UNL     1      -9.562  11.594  11.555  1.00  0.00     0.124 S 
ATOM     88  O   UNL     1     -10.934  11.155  11.330  1.00  0.00    -0.237 OA
ATOM     89  O   UNL     1      -8.943  11.153  12.801  1.00  0.00    -0.237 OA
ATOM     90  O   UNL     1      -9.278  12.976  11.176  1.00  0.00    -0.744 OA
ENDBRANCH  83  87
ENDBRANCH  56  80
BRANCH  68  91
ATOM     91  C   UNL     1     -13.633   4.194   8.666  1.00  0.00     0.023 A 
ATOM     92  C   UNL     1     -14.187   4.833   7.543  1.00  0.00     0.031 A 
ATOM     93  C   UNL     1     -14.501   3.814   9.705  1.00  0.00     0.131 A 
ATOM     94  C   UNL     1     -15.559   5.123   7.510  1.00  0.00     0.055 A 
ATOM     95  C   UNL     1     -15.875   4.051   9.640  1.00  0.00     0.041 A 
ATOM     96  F   UNL     1     -14.026   3.202  10.802  1.00  0.00    -0.206 F 
ATOM     97  C   UNL     1     -16.409   4.721   8.544  1.00  0.00     0.022 A 
BRANCH  94  98
ATOM     98  S   UNL     1     -16.207   6.114   6.135  1.00  0.00     0.124 S 
ATOM     99  O   UNL     1     -15.423   7.339   6.249  1.00  0.00    -0.237 OA
ATOM    100  O   UNL     1     -15.912   5.274   4.979  1.00  0.00    -0.237 OA
ATOM    101  O   UNL     1     -17.627   6.254   6.453  1.00  0.00    -0.744 OA
ENDBRANCH  94  98
ENDBRANCH  68  91
ENDBRANCH  42  43
ENDBRANCH  34  37
ENDBRANCH  32  33
ENDBRANCH   1  32
TORSDOF 19
