REMARK SMILES CCCc1nnc(SCC(=O)NCCCNC(=O)c2ccc(-c3c4nc(c(-c5cc(S(=O)(=O)[O-])ccc5F)c5ccc([nH]5)c(-c5cc(S(=O)(=O)[O-])ccc5F)c5nc(c(-c6cc(S(=O)(=O)[O-])ccc6F)c6ccc3[nH]6)C=C5)C=C4)cc2)n1C[C@H]1CCCO1
REMARK SMILES IDX 13 1 12 2 10 3 11 4 9 6 8 7 7 8 4 9 5 10 82 11 6 12 3 13
REMARK SMILES IDX 2 14 1 15 83 16 84 17 85 18 88 19 86 20 87 21 14 22 15 23
REMARK SMILES IDX 16 24 17 25 18 27 19 28 20 29 81 30 21 31 80 32 22 33 23 34
REMARK SMILES IDX 24 35 74 36 25 37 79 38 73 39 75 40 26 41 78 42 72 43 71 44
REMARK SMILES IDX 27 46 59 47 39 48 58 49 40 50 43 51 57 52 76 53 41 54 42 55
REMARK SMILES IDX 56 57 77 58 44 59 28 60 29 61 37 62 30 63 36 64 38 65 35 66
REMARK SMILES IDX 31 67 32 68 33 69 34 70 60 71 61 72 69 73 62 74 68 75 70 76
REMARK SMILES IDX 67 77 63 78 64 79 65 80 66 81 45 82 46 83 54 84 47 85 53 86
REMARK SMILES IDX 55 87 52 88 48 89 49 90 50 91 51 92
REMARK H PARENT 12 5 16 26 75 45 43 56
REMARK Flexibility Score: inf
ROOT
ATOM      1  C   UNL     1       1.045   5.214 -11.151  1.00  0.00     0.117 C 
ENDROOT
BRANCH   1   2
ATOM      2  N   UNL     1       1.593   5.397  -9.822  1.00  0.00    -0.355 N 
ATOM      3  C   UNL     1       1.362   4.678  -8.695  1.00  0.00     0.230 C 
ATOM      4  O   UNL     1       1.995   4.970  -7.679  1.00  0.00    -0.274 OA
ATOM      5  H   UNL     1       2.221   6.149  -9.723  1.00  0.00     0.163 HD
BRANCH   3   6
ATOM      6  C   UNL     1       0.439   3.484  -8.726  1.00  0.00     0.178 C 
BRANCH   6   7
ATOM      7  S   UNL     1      -1.291   3.864  -8.846  1.00  0.00    -0.076 SA
BRANCH   7   8
ATOM      8  C   UNL     1      -2.039   4.072  -7.304  1.00  0.00     0.191 A 
ATOM      9  C   UNL     1      -2.612   4.545  -5.243  1.00  0.00     0.133 A 
ATOM     10  N   UNL     1      -3.697   4.565  -5.987  1.00  0.00    -0.134 NA
ATOM     11  N   UNL     1      -1.555   4.070  -6.014  1.00  0.00    -0.303 N 
ATOM     12  N   UNL     1      -3.337   4.289  -7.268  1.00  0.00    -0.123 NA
BRANCH   9  13
ATOM     13  C   UNL     1      -2.582   4.976  -3.811  1.00  0.00     0.077 C 
BRANCH  13  14
ATOM     14  C   UNL     1      -2.858   6.479  -3.634  1.00  0.00     0.005 C 
ATOM     15  C   UNL     1      -4.307   6.883  -3.890  1.00  0.00     0.004 C 
ENDBRANCH  13  14
ENDBRANCH   9  13
BRANCH  11  16
ATOM     16  C   UNL     1      -0.243   3.735  -5.514  1.00  0.00     0.158 C 
BRANCH  16  17
ATOM     17  C   UNL     1       0.012   2.262  -5.118  1.00  0.00     0.138 C 
ATOM     18  C   UNL     1      -0.192   1.154  -6.147  1.00  0.00     0.036 C 
ATOM     19  O   UNL     1       1.384   2.129  -4.695  1.00  0.00    -0.376 OA
ATOM     20  C   UNL     1       1.188   0.753  -6.628  1.00  0.00     0.031 C 
ATOM     21  C   UNL     1       2.149   1.476  -5.712  1.00  0.00     0.160 C 
ENDBRANCH  16  17
ENDBRANCH  11  16
ENDBRANCH   7   8
ENDBRANCH   6   7
ENDBRANCH   3   6
ENDBRANCH   1   2
BRANCH   1  22
ATOM     22  C   UNL     1      -0.142   6.129 -11.447  1.00  0.00     0.042 C 
BRANCH  22  23
ATOM     23  C   UNL     1       0.194   7.601 -11.293  1.00  0.00     0.118 C 
BRANCH  23  24
ATOM     24  N   UNL     1       1.242   8.030 -12.213  1.00  0.00    -0.352 N 
ATOM     25  C   UNL     1       1.784   9.294 -12.354  1.00  0.00     0.251 C 
ATOM     26  H   UNL     1       1.607   7.334 -12.807  1.00  0.00     0.163 HD
ATOM     27  O   UNL     1       2.407   9.588 -13.355  1.00  0.00    -0.269 OA
BRANCH  25  28
ATOM     28  C   UNL     1       1.563  10.268 -11.268  1.00  0.00     0.039 A 
ATOM     29  C   UNL     1       1.168  11.574 -11.560  1.00  0.00     0.014 A 
ATOM     30  C   UNL     1       1.698   9.836  -9.950  1.00  0.00     0.014 A 
ATOM     31  C   UNL     1       0.829  12.420 -10.507  1.00  0.00     0.010 A 
ATOM     32  C   UNL     1       1.234  10.624  -8.925  1.00  0.00     0.010 A 
ATOM     33  C   UNL     1       0.839  11.932  -9.190  1.00  0.00    -0.014 A 
BRANCH  33  34
ATOM     34  C   UNL     1       0.313  12.743  -8.095  1.00  0.00     0.031 A 
ATOM     35  C   UNL     1      -1.063  13.262  -8.313  1.00  0.00     0.074 A 
ATOM     36  C   UNL     1       0.910  12.851  -6.889  1.00  0.00     0.049 A 
ATOM     37  N   UNL     1      -1.414  14.483  -8.544  1.00  0.00    -0.248 NA
ATOM     38  C   UNL     1      -2.164  12.296  -8.447  1.00  0.00     0.031 C 
ATOM     39  C   UNL     1       2.113  12.164  -6.408  1.00  0.00     0.029 A 
ATOM     40  N   UNL     1       0.489  13.525  -5.784  1.00  0.00    -0.354 N 
ATOM     41  C   UNL     1      -2.805  14.481  -8.595  1.00  0.00     0.074 A 
ATOM     42  C   UNL     1      -3.183  13.102  -8.754  1.00  0.00     0.031 C 
ATOM     43  C   UNL     1       2.186  12.266  -5.062  1.00  0.00     0.029 A 
ATOM     44  C   UNL     1       1.145  13.171  -4.609  1.00  0.00     0.049 A 
ATOM     45  H   UNL     1      -0.220  14.207  -5.813  1.00  0.00     0.167 HD
ATOM     46  C   UNL     1      -3.520  15.588  -8.246  1.00  0.00     0.034 A 
ATOM     47  C   UNL     1       0.853  13.575  -3.345  1.00  0.00     0.034 A 
ATOM     48  C   UNL     1      -2.662  16.756  -8.196  1.00  0.00     0.049 A 
ATOM     49  C   UNL     1       0.111  14.853  -3.471  1.00  0.00     0.074 A 
ATOM     50  C   UNL     1      -1.826  17.384  -9.100  1.00  0.00     0.029 A 
ATOM     51  N   UNL     1      -2.272  17.221  -6.958  1.00  0.00    -0.354 N 
ATOM     52  N   UNL     1       0.644  15.941  -3.960  1.00  0.00    -0.248 NA
ATOM     53  C   UNL     1      -1.343  14.806  -3.518  1.00  0.00     0.031 C 
ATOM     54  C   UNL     1      -0.677  17.755  -8.339  1.00  0.00     0.029 A 
ATOM     55  C   UNL     1      -0.914  17.422  -7.003  1.00  0.00     0.049 A 
ATOM     56  H   UNL     1      -2.859  17.380  -6.183  1.00  0.00     0.167 HD
ATOM     57  C   UNL     1      -0.341  16.490  -4.767  1.00  0.00     0.074 A 
ATOM     58  C   UNL     1      -1.574  15.814  -4.366  1.00  0.00     0.031 C 
ATOM     59  C   UNL     1      -0.022  17.227  -5.873  1.00  0.00     0.034 A 
BRANCH  46  60
ATOM     60  C   UNL     1      -4.882  15.577  -7.575  1.00  0.00     0.023 A 
ATOM     61  C   UNL     1      -5.425  16.828  -7.219  1.00  0.00     0.031 A 
ATOM     62  C   UNL     1      -5.526  14.454  -7.009  1.00  0.00     0.131 A 
ATOM     63  C   UNL     1      -6.434  16.933  -6.247  1.00  0.00     0.055 A 
ATOM     64  C   UNL     1      -6.581  14.561  -6.096  1.00  0.00     0.041 A 
ATOM     65  F   UNL     1      -5.129  13.197  -7.229  1.00  0.00    -0.206 F 
ATOM     66  C   UNL     1      -7.014  15.805  -5.677  1.00  0.00     0.022 A 
BRANCH  63  67
ATOM     67  S   UNL     1      -6.823  18.577  -5.596  1.00  0.00     0.124 S 
ATOM     68  O   UNL     1      -5.501  19.049  -5.196  1.00  0.00    -0.237 OA
ATOM     69  O   UNL     1      -7.415  19.227  -6.760  1.00  0.00    -0.237 OA
ATOM     70  O   UNL     1      -7.746  18.297  -4.499  1.00  0.00    -0.744 OA
ENDBRANCH  63  67
ENDBRANCH  46  60
BRANCH  47  71
ATOM     71  C   UNL     1       0.924  12.766  -2.099  1.00  0.00     0.023 A 
ATOM     72  C   UNL     1       0.962  13.341  -0.812  1.00  0.00     0.031 A 
ATOM     73  C   UNL     1       0.708  11.370  -2.163  1.00  0.00     0.131 A 
ATOM     74  C   UNL     1       0.785  12.531   0.336  1.00  0.00     0.055 A 
ATOM     75  C   UNL     1       0.537  10.575  -1.028  1.00  0.00     0.041 A 
ATOM     76  F   UNL     1       0.571  10.741  -3.341  1.00  0.00    -0.206 F 
ATOM     77  C   UNL     1       0.564  11.156   0.229  1.00  0.00     0.022 A 
BRANCH  74  78
ATOM     78  S   UNL     1       0.744  13.277   1.999  1.00  0.00     0.124 S 
ATOM     79  O   UNL     1       2.127  13.698   2.185  1.00  0.00    -0.237 OA
ATOM     80  O   UNL     1      -0.244  14.339   1.843  1.00  0.00    -0.237 OA
ATOM     81  O   UNL     1       0.319  12.171   2.859  1.00  0.00    -0.744 OA
ENDBRANCH  74  78
ENDBRANCH  47  71
BRANCH  59  82
ATOM     82  C   UNL     1       1.410  17.702  -6.042  1.00  0.00     0.023 A 
ATOM     83  C   UNL     1       2.547  16.862  -6.092  1.00  0.00     0.031 A 
ATOM     84  C   UNL     1       1.606  19.074  -6.282  1.00  0.00     0.131 A 
ATOM     85  C   UNL     1       3.818  17.409  -6.365  1.00  0.00     0.055 A 
ATOM     86  C   UNL     1       2.860  19.608  -6.573  1.00  0.00     0.041 A 
ATOM     87  F   UNL     1       0.564  19.922  -6.274  1.00  0.00    -0.206 F 
ATOM     88  C   UNL     1       3.973  18.777  -6.610  1.00  0.00     0.022 A 
BRANCH  85  89
ATOM     89  S   UNL     1       5.305  16.354  -6.390  1.00  0.00     0.124 S 
ATOM     90  O   UNL     1       5.185  15.562  -5.171  1.00  0.00    -0.237 OA
ATOM     91  O   UNL     1       5.154  15.623  -7.645  1.00  0.00    -0.237 OA
ATOM     92  O   UNL     1       6.407  17.319  -6.381  1.00  0.00    -0.744 OA
ENDBRANCH  85  89
ENDBRANCH  59  82
ENDBRANCH  33  34
ENDBRANCH  25  28
ENDBRANCH  23  24
ENDBRANCH  22  23
ENDBRANCH   1  22
TORSDOF 19
