REMARK SMILES C[C@@]([NH2+]CC(=O)NC1CCOCC1)(C(=O)NCCCNC(=O)c1ccc(-c2c3nc(c(-c4cc(S(=O)(=O)[O-])ccc4F)c4ccc([nH]4)c(-c4cc(S(=O)(=O)[O-])ccc4F)c4nc(c(-c5cc(S(=O)(=O)[O-])ccc5F)c5ccc2[nH]5)C=C4)C=C3)cc1)C(F)(F)F
REMARK SMILES IDX 17 1 16 2 14 3 15 4 2 6 1 7 3 8 4 11 5 12 6 13 7 14 8 16
REMARK SMILES IDX 9 17 13 18 10 19 12 20 11 21 86 22 87 23 88 24 89 25 18 26
REMARK SMILES IDX 19 27 20 28 21 29 22 31 23 32 24 33 85 34 25 35 84 36 26 37
REMARK SMILES IDX 27 38 28 39 78 40 29 41 83 42 77 43 79 44 30 45 82 46 76 47
REMARK SMILES IDX 75 48 31 50 63 51 43 52 62 53 44 54 47 55 61 56 80 57 45 58
REMARK SMILES IDX 46 59 60 61 81 62 48 63 32 64 33 65 41 66 34 67 40 68 42 69
REMARK SMILES IDX 39 70 35 71 36 72 37 73 38 74 64 75 65 76 73 77 66 78 72 79
REMARK SMILES IDX 74 80 71 81 67 82 68 83 69 84 70 85 49 86 50 87 58 88 51 89
REMARK SMILES IDX 57 90 59 91 56 92 52 93 53 94 54 95 55 96
REMARK H PARENT 16 5 3 9 3 10 7 15 20 30 79 49 47 60
REMARK Flexibility Score: inf
ROOT
ATOM      1  C   UNL     1      -0.517  -3.122  -1.088  1.00  0.00     0.118 C 
ENDROOT
BRANCH   1   2
ATOM      2  N   UNL     1      -0.832  -1.813  -1.613  1.00  0.00    -0.350 N 
ATOM      3  C   UNL     1      -0.255  -0.648  -1.921  1.00  0.00     0.290 C 
ATOM      4  O   UNL     1      -1.088  -0.003  -2.577  1.00  0.00    -0.267 OA
ATOM      5  H   UNL     1      -1.796  -1.763  -1.811  1.00  0.00     0.163 HD
BRANCH   3   6
ATOM      6  C   UNL     1       1.204  -0.110  -1.641  1.00  0.00     0.268 C 
ATOM      7  C   UNL     1       2.056  -1.270  -1.097  1.00  0.00     0.101 C 
BRANCH   6   8
ATOM      8  N   UNL     1       1.786   0.376  -2.959  1.00  0.00    -0.318 N 
ATOM      9  H   UNL     1       1.999  -0.450  -3.519  1.00  0.00     0.347 HD
ATOM     10  H   UNL     1       2.588   0.946  -2.690  1.00  0.00     0.347 HD
BRANCH   8  11
ATOM     11  C   UNL     1       0.945   1.287  -3.807  1.00  0.00     0.362 C 
BRANCH  11  12
ATOM     12  C   UNL     1       0.931   2.797  -3.470  1.00  0.00     0.275 C 
ATOM     13  O   UNL     1       1.956   3.468  -3.637  1.00  0.00    -0.268 OA
ATOM     14  N   UNL     1      -0.251   3.478  -3.219  1.00  0.00    -0.348 N 
ATOM     15  H   UNL     1      -0.671   3.925  -3.988  1.00  0.00     0.163 HD
BRANCH  14  16
ATOM     16  C   UNL     1      -0.956   3.607  -1.907  1.00  0.00     0.086 C 
ATOM     17  C   UNL     1      -1.612   2.336  -1.411  1.00  0.00     0.053 C 
ATOM     18  C   UNL     1      -2.055   4.681  -1.920  1.00  0.00     0.053 C 
ATOM     19  C   UNL     1      -2.299   2.495  -0.072  1.00  0.00     0.162 C 
ATOM     20  C   UNL     1      -2.768   4.745  -0.562  1.00  0.00     0.162 C 
ATOM     21  O   UNL     1      -3.310   3.483  -0.179  1.00  0.00    -0.381 OA
ENDBRANCH  14  16
ENDBRANCH  11  12
ENDBRANCH   8  11
ENDBRANCH   6   8
BRANCH   6  22
ATOM     22  C   UNL     1       1.328   0.962  -0.506  1.00  0.00     0.453 C 
ATOM     23  F   UNL     1       0.469   0.762   0.515  1.00  0.00    -0.164 F 
ATOM     24  F   UNL     1       2.580   0.972   0.032  1.00  0.00    -0.164 F 
ATOM     25  F   UNL     1       1.160   2.226  -0.942  1.00  0.00    -0.164 F 
ENDBRANCH   6  22
ENDBRANCH   3   6
ENDBRANCH   1   2
BRANCH   1  26
ATOM     26  C   UNL     1      -1.251  -3.379   0.220  1.00  0.00     0.042 C 
BRANCH  26  27
ATOM     27  C   UNL     1      -2.744  -3.040   0.179  1.00  0.00     0.118 C 
BRANCH  27  28
ATOM     28  N   UNL     1      -3.450  -3.711  -0.905  1.00  0.00    -0.352 N 
ATOM     29  C   UNL     1      -4.132  -4.904  -0.916  1.00  0.00     0.251 C 
ATOM     30  H   UNL     1      -3.436  -3.235  -1.766  1.00  0.00     0.163 HD
ATOM     31  O   UNL     1      -4.396  -5.437  -1.988  1.00  0.00    -0.269 OA
BRANCH  29  32
ATOM     32  C   UNL     1      -4.526  -5.540   0.356  1.00  0.00     0.039 A 
ATOM     33  C   UNL     1      -4.405  -6.924   0.494  1.00  0.00     0.014 A 
ATOM     34  C   UNL     1      -5.054  -4.775   1.398  1.00  0.00     0.014 A 
ATOM     35  C   UNL     1      -4.764  -7.529   1.699  1.00  0.00     0.010 A 
ATOM     36  C   UNL     1      -5.312  -5.363   2.630  1.00  0.00     0.010 A 
ATOM     37  C   UNL     1      -5.193  -6.750   2.787  1.00  0.00    -0.014 A 
BRANCH  37  38
ATOM     38  C   UNL     1      -5.567  -7.377   4.080  1.00  0.00     0.031 A 
ATOM     39  C   UNL     1      -6.978  -7.254   4.592  1.00  0.00     0.074 A 
ATOM     40  C   UNL     1      -4.628  -8.015   4.805  1.00  0.00     0.049 A 
ATOM     41  N   UNL     1      -7.496  -7.700   5.708  1.00  0.00    -0.248 NA
ATOM     42  C   UNL     1      -7.923  -6.497   3.756  1.00  0.00     0.031 C 
ATOM     43  C   UNL     1      -3.217  -8.146   4.433  1.00  0.00     0.029 A 
ATOM     44  N   UNL     1      -4.716  -8.675   6.004  1.00  0.00    -0.354 N 
ATOM     45  C   UNL     1      -8.819  -7.267   5.711  1.00  0.00     0.074 A 
ATOM     46  C   UNL     1      -8.997  -6.457   4.527  1.00  0.00     0.031 C 
ATOM     47  C   UNL     1      -2.583  -8.878   5.363  1.00  0.00     0.029 A 
ATOM     48  C   UNL     1      -3.528  -9.233   6.416  1.00  0.00     0.049 A 
ATOM     49  H   UNL     1      -5.551  -8.744   6.521  1.00  0.00     0.167 HD
ATOM     50  C   UNL     1      -9.802  -7.547   6.603  1.00  0.00     0.034 A 
ATOM     51  C   UNL     1      -3.237  -9.952   7.518  1.00  0.00     0.034 A 
ATOM     52  C   UNL     1      -9.605  -8.371   7.770  1.00  0.00     0.049 A 
ATOM     53  C   UNL     1      -4.348 -10.257   8.491  1.00  0.00     0.074 A 
ATOM     54  C   UNL     1     -10.532  -8.759   8.721  1.00  0.00     0.029 A 
ATOM     55  N   UNL     1      -8.392  -8.935   8.147  1.00  0.00    -0.354 N 
ATOM     56  N   UNL     1      -5.608  -9.886   8.453  1.00  0.00    -0.248 NA
ATOM     57  C   UNL     1      -4.001 -11.099   9.641  1.00  0.00     0.031 C 
ATOM     58  C   UNL     1      -9.867  -9.500   9.705  1.00  0.00     0.029 A 
ATOM     59  C   UNL     1      -8.542  -9.649   9.326  1.00  0.00     0.049 A 
ATOM     60  H   UNL     1      -7.548  -8.842   7.649  1.00  0.00     0.167 HD
ATOM     61  C   UNL     1      -6.212 -10.482   9.557  1.00  0.00     0.074 A 
ATOM     62  C   UNL     1      -5.181 -11.252  10.223  1.00  0.00     0.031 C 
ATOM     63  C   UNL     1      -7.500 -10.403   9.983  1.00  0.00     0.034 A 
BRANCH  50  64
ATOM     64  C   UNL     1     -11.163  -6.936   6.350  1.00  0.00     0.023 A 
ATOM     65  C   UNL     1     -11.899  -7.224   5.186  1.00  0.00     0.031 A 
ATOM     66  C   UNL     1     -11.717  -6.022   7.264  1.00  0.00     0.131 A 
ATOM     67  C   UNL     1     -13.097  -6.543   4.925  1.00  0.00     0.055 A 
ATOM     68  C   UNL     1     -12.955  -5.415   7.042  1.00  0.00     0.041 A 
ATOM     69  F   UNL     1     -11.055  -5.687   8.383  1.00  0.00    -0.206 F 
ATOM     70  C   UNL     1     -13.645  -5.661   5.858  1.00  0.00     0.022 A 
BRANCH  67  71
ATOM     71  S   UNL     1     -13.847  -6.708   3.281  1.00  0.00     0.124 S 
ATOM     72  O   UNL     1     -12.772  -6.223   2.418  1.00  0.00    -0.237 OA
ATOM     73  O   UNL     1     -14.132  -8.135   3.205  1.00  0.00    -0.237 OA
ATOM     74  O   UNL     1     -15.020  -5.839   3.350  1.00  0.00    -0.744 OA
ENDBRANCH  67  71
ENDBRANCH  50  64
BRANCH  51  75
ATOM     75  C   UNL     1      -1.851 -10.447   7.757  1.00  0.00     0.023 A 
ATOM     76  C   UNL     1      -1.568 -11.822   7.790  1.00  0.00     0.031 A 
ATOM     77  C   UNL     1      -0.793  -9.552   7.996  1.00  0.00     0.131 A 
ATOM     78  C   UNL     1      -0.276 -12.264   8.112  1.00  0.00     0.055 A 
ATOM     79  C   UNL     1       0.504  -9.996   8.260  1.00  0.00     0.041 A 
ATOM     80  F   UNL     1      -1.004  -8.227   7.966  1.00  0.00    -0.206 F 
ATOM     81  C   UNL     1       0.765 -11.361   8.334  1.00  0.00     0.022 A 
BRANCH  78  82
ATOM     82  S   UNL     1       0.005 -14.044   8.326  1.00  0.00     0.124 S 
ATOM     83  O   UNL     1      -0.956 -14.373   9.372  1.00  0.00    -0.237 OA
ATOM     84  O   UNL     1      -0.293 -14.559   6.994  1.00  0.00    -0.237 OA
ATOM     85  O   UNL     1       1.410 -14.120   8.721  1.00  0.00    -0.744 OA
ENDBRANCH  78  82
ENDBRANCH  51  75
BRANCH  63  86
ATOM     86  C   UNL     1      -7.864 -11.220  11.200  1.00  0.00     0.023 A 
ATOM     87  C   UNL     1      -7.294 -10.969  12.460  1.00  0.00     0.031 A 
ATOM     88  C   UNL     1      -8.766 -12.294  11.086  1.00  0.00     0.131 A 
ATOM     89  C   UNL     1      -7.564 -11.830  13.533  1.00  0.00     0.055 A 
ATOM     90  C   UNL     1      -9.091 -13.101  12.177  1.00  0.00     0.041 A 
ATOM     91  F   UNL     1      -9.341 -12.582   9.907  1.00  0.00    -0.206 F 
ATOM     92  C   UNL     1      -8.473 -12.883  13.405  1.00  0.00     0.022 A 
BRANCH  89  93
ATOM     93  S   UNL     1      -6.606 -11.638  15.061  1.00  0.00     0.124 S 
ATOM     94  O   UNL     1      -5.234 -11.723  14.571  1.00  0.00    -0.237 OA
ATOM     95  O   UNL     1      -7.034 -10.326  15.534  1.00  0.00    -0.237 OA
ATOM     96  O   UNL     1      -7.041 -12.766  15.883  1.00  0.00    -0.744 OA
ENDBRANCH  89  93
ENDBRANCH  63  86
ENDBRANCH  37  38
ENDBRANCH  29  32
ENDBRANCH  27  28
ENDBRANCH  26  27
ENDBRANCH   1  26
TORSDOF 18
