REMARK SMILES O=C(NCCCNC(=O)c1ccc(-c2c3nc(c(-c4cc(S(=O)(=O)[O-])ccc4F)c4ccc([nH]4)c(-c4cc(S(=O)(=O)[O-])ccc4F)c4nc(c(-c5cc(S(=O)(=O)[O-])ccc5F)c5ccc2[nH]5)C=C4)C=C3)cc1)c1ccc(C[N@@H+]2CCC[C@H]2c2nc(-c3ccc(-c4cncnc4)nc3)no2)cc1
REMARK SMILES IDX 4 1 3 2 1 3 2 4 73 6 74 7 101 8 75 9 100 10 76 11 77 12
REMARK SMILES IDX 78 13 79 14 82 15 80 17 81 18 83 19 84 20 99 21 85 22 98 23
REMARK SMILES IDX 86 24 87 25 97 26 88 27 96 28 89 29 90 30 91 31 95 32 92 33
REMARK SMILES IDX 94 34 93 35 5 36 6 37 7 38 8 39 9 41 10 42 11 43 72 44 12 45
REMARK SMILES IDX 71 46 13 47 14 48 15 49 65 50 16 51 70 52 64 53 66 54 17 55
REMARK SMILES IDX 69 56 63 57 62 58 18 60 50 61 30 62 49 63 31 64 34 65 48 66
REMARK SMILES IDX 67 67 32 68 33 69 47 71 68 72 35 73 19 74 20 75 28 76 21 77
REMARK SMILES IDX 27 78 29 79 26 80 22 81 23 82 24 83 25 84 51 85 52 86 60 87
REMARK SMILES IDX 53 88 59 89 61 90 58 91 54 92 55 93 56 94 57 95 36 96 37 97
REMARK SMILES IDX 45 98 38 99 44 100 46 101 43 102 39 103 40 104 41 105 42 106
REMARK H PARENT 3 5 78 16 7 40 66 59 34 70
REMARK Flexibility Score: inf
ROOT
ATOM      1  C   UNL     1       4.483   1.036  -0.540  1.00  0.00     0.118 C 
ENDROOT
BRANCH   1   2
ATOM      2  N   UNL     1       3.047   0.849  -0.367  1.00  0.00    -0.352 N 
ATOM      3  O   UNL     1       1.150  -0.253   0.195  1.00  0.00    -0.269 OA
ATOM      4  C   UNL     1       2.374  -0.187   0.233  1.00  0.00     0.251 C 
ATOM      5  H   UNL     1       2.481   1.567  -0.732  1.00  0.00     0.163 HD
BRANCH   4   6
ATOM      6  C   UNL     1       3.145  -1.246   0.908  1.00  0.00     0.039 A 
ATOM      7  C   UNL     1       3.961  -0.939   1.999  1.00  0.00     0.014 A 
ATOM      8  C   UNL     1       3.072  -2.550   0.420  1.00  0.00     0.014 A 
ATOM      9  C   UNL     1       4.799  -1.919   2.527  1.00  0.00     0.010 A 
ATOM     10  C   UNL     1       3.910  -3.529   0.955  1.00  0.00     0.010 A 
ATOM     11  C   UNL     1       4.822  -3.211   1.976  1.00  0.00     0.006 A 
BRANCH  11  12
ATOM     12  C   UNL     1       5.840  -4.229   2.453  1.00  0.00     0.299 C 
BRANCH  12  13
ATOM     13  N   UNL     1       7.144  -4.249   1.775  1.00  0.00    -0.321 N 
ATOM     14  C   UNL     1       7.933  -3.021   1.874  1.00  0.00     0.263 C 
ATOM     15  C   UNL     1       7.102  -4.615   0.346  1.00  0.00     0.275 C 
ATOM     16  H   UNL     1       7.603  -4.985   2.312  1.00  0.00     0.349 HD
ATOM     17  C   UNL     1       7.705  -2.263   0.580  1.00  0.00     0.068 C 
ATOM     18  C   UNL     1       7.402  -3.338  -0.450  1.00  0.00     0.081 C 
BRANCH  15  19
ATOM     19  C   UNL     1       8.091  -5.692  -0.008  1.00  0.00     0.285 A 
ATOM     20  N   UNL     1       9.395  -5.777   0.175  1.00  0.00    -0.186 NA
ATOM     21  O   UNL     1       7.588  -6.718  -0.755  1.00  0.00    -0.332 OA
ATOM     22  C   UNL     1       9.719  -6.898  -0.556  1.00  0.00     0.204 A 
ATOM     23  N   UNL     1       8.668  -7.512  -1.120  1.00  0.00    -0.057 NA
BRANCH  22  24
ATOM     24  C   UNL     1      11.078  -7.353  -0.754  1.00  0.00     0.041 A 
ATOM     25  C   UNL     1      11.553  -7.658  -2.031  1.00  0.00     0.016 A 
ATOM     26  C   UNL     1      11.947  -7.541   0.310  1.00  0.00     0.123 A 
ATOM     27  C   UNL     1      12.852  -8.137  -2.193  1.00  0.00     0.030 A 
ATOM     28  N   UNL     1      13.206  -8.044   0.186  1.00  0.00    -0.255 NA
ATOM     29  C   UNL     1      13.649  -8.331  -1.066  1.00  0.00     0.073 A 
BRANCH  29  30
ATOM     30  C   UNL     1      14.986  -8.906  -1.160  1.00  0.00     0.037 A 
ATOM     31  C   UNL     1      15.971  -8.426  -2.005  1.00  0.00     0.124 A 
ATOM     32  C   UNL     1      15.370 -10.018  -0.429  1.00  0.00     0.124 A 
ATOM     33  N   UNL     1      17.197  -8.980  -2.142  1.00  0.00    -0.244 NA
ATOM     34  N   UNL     1      16.576 -10.625  -0.525  1.00  0.00    -0.244 NA
ATOM     35  C   UNL     1      17.433 -10.065  -1.392  1.00  0.00     0.221 A 
ENDBRANCH  29  30
ENDBRANCH  22  24
ENDBRANCH  15  19
ENDBRANCH  12  13
ENDBRANCH  11  12
ENDBRANCH   4   6
ENDBRANCH   1   2
BRANCH   1  36
ATOM     36  C   UNL     1       4.935   0.852  -1.985  1.00  0.00     0.042 C 
BRANCH  36  37
ATOM     37  C   UNL     1       4.418   1.916  -2.948  1.00  0.00     0.118 C 
BRANCH  37  38
ATOM     38  N   UNL     1       4.896   3.255  -2.624  1.00  0.00    -0.352 N 
ATOM     39  C   UNL     1       5.702   4.117  -3.329  1.00  0.00     0.251 C 
ATOM     40  H   UNL     1       4.589   3.599  -1.754  1.00  0.00     0.163 HD
ATOM     41  O   UNL     1       6.117   5.130  -2.771  1.00  0.00    -0.269 OA
BRANCH  39  42
ATOM     42  C   UNL     1       6.096   3.825  -4.726  1.00  0.00     0.039 A 
ATOM     43  C   UNL     1       7.415   4.076  -5.121  1.00  0.00     0.014 A 
ATOM     44  C   UNL     1       5.178   3.329  -5.654  1.00  0.00     0.014 A 
ATOM     45  C   UNL     1       7.834   3.741  -6.412  1.00  0.00     0.010 A 
ATOM     46  C   UNL     1       5.613   2.930  -6.917  1.00  0.00     0.010 A 
ATOM     47  C   UNL     1       6.949   3.116  -7.305  1.00  0.00    -0.014 A 
BRANCH  47  48
ATOM     48  C   UNL     1       7.397   2.624  -8.636  1.00  0.00     0.031 A 
ATOM     49  C   UNL     1       6.808   3.202  -9.893  1.00  0.00     0.074 A 
ATOM     50  C   UNL     1       8.268   1.598  -8.708  1.00  0.00     0.049 A 
ATOM     51  N   UNL     1       6.946   2.803 -11.132  1.00  0.00    -0.248 NA
ATOM     52  C   UNL     1       5.927   4.368  -9.730  1.00  0.00     0.031 C 
ATOM     53  C   UNL     1       8.900   0.942  -7.561  1.00  0.00     0.029 A 
ATOM     54  N   UNL     1       8.759   0.912  -9.791  1.00  0.00    -0.354 N 
ATOM     55  C   UNL     1       6.164   3.661 -11.897  1.00  0.00     0.074 A 
ATOM     56  C   UNL     1       5.513   4.567 -10.973  1.00  0.00     0.031 C 
ATOM     57  C   UNL     1       9.703  -0.040  -8.002  1.00  0.00     0.029 A 
ATOM     58  C   UNL     1       9.600  -0.125  -9.456  1.00  0.00     0.049 A 
ATOM     59  H   UNL     1       8.532   1.140 -10.722  1.00  0.00     0.167 HD
ATOM     60  C   UNL     1       6.017   3.702 -13.245  1.00  0.00     0.034 A 
ATOM     61  C   UNL     1      10.197  -1.056 -10.226  1.00  0.00     0.034 A 
ATOM     62  C   UNL     1       6.678   2.800 -14.155  1.00  0.00     0.049 A 
ATOM     63  C   UNL     1       9.963  -1.033 -11.715  1.00  0.00     0.074 A 
ATOM     64  C   UNL     1       6.629   2.780 -15.539  1.00  0.00     0.029 A 
ATOM     65  N   UNL     1       7.504   1.751 -13.775  1.00  0.00    -0.354 N 
ATOM     66  N   UNL     1       9.233  -0.203 -12.423  1.00  0.00    -0.248 NA
ATOM     67  C   UNL     1      10.630  -2.075 -12.508  1.00  0.00     0.031 C 
ATOM     68  C   UNL     1       7.377   1.688 -15.991  1.00  0.00     0.029 A 
ATOM     69  C   UNL     1       7.946   1.062 -14.894  1.00  0.00     0.049 A 
ATOM     70  H   UNL     1       7.742   1.529 -12.845  1.00  0.00     0.167 HD
ATOM     71  C   UNL     1       9.379  -0.607 -13.747  1.00  0.00     0.074 A 
ATOM     72  C   UNL     1      10.271  -1.746 -13.740  1.00  0.00     0.031 C 
ATOM     73  C   UNL     1       8.828  -0.079 -14.869  1.00  0.00     0.034 A 
BRANCH  60  74
ATOM     74  C   UNL     1       5.088   4.749 -13.808  1.00  0.00     0.023 A 
ATOM     75  C   UNL     1       5.363   6.121 -13.679  1.00  0.00     0.031 A 
ATOM     76  C   UNL     1       3.904   4.373 -14.468  1.00  0.00     0.131 A 
ATOM     77  C   UNL     1       4.436   7.068 -14.137  1.00  0.00     0.055 A 
ATOM     78  C   UNL     1       3.022   5.321 -14.991  1.00  0.00     0.041 A 
ATOM     79  F   UNL     1       3.580   3.078 -14.606  1.00  0.00    -0.206 F 
ATOM     80  C   UNL     1       3.278   6.678 -14.814  1.00  0.00     0.022 A 
BRANCH  77  81
ATOM     81  S   UNL     1       4.702   8.812 -13.720  1.00  0.00     0.124 S 
ATOM     82  O   UNL     1       4.689   8.770 -12.259  1.00  0.00    -0.237 OA
ATOM     83  O   UNL     1       5.992   9.091 -14.339  1.00  0.00    -0.237 OA
ATOM     84  O   UNL     1       3.558   9.488 -14.327  1.00  0.00    -0.744 OA
ENDBRANCH  77  81
ENDBRANCH  60  74
BRANCH  61  85
ATOM     85  C   UNL     1      11.049  -2.116  -9.613  1.00  0.00     0.023 A 
ATOM     86  C   UNL     1      12.419  -2.194  -9.906  1.00  0.00     0.031 A 
ATOM     87  C   UNL     1      10.496  -3.100  -8.775  1.00  0.00     0.131 A 
ATOM     88  C   UNL     1      13.181  -3.261  -9.407  1.00  0.00     0.055 A 
ATOM     89  C   UNL     1      11.269  -4.131  -8.238  1.00  0.00     0.041 A 
ATOM     90  F   UNL     1       9.191  -3.070  -8.461  1.00  0.00    -0.206 F 
ATOM     91  C   UNL     1      12.618  -4.224  -8.566  1.00  0.00     0.022 A 
BRANCH  88  92
ATOM     92  S   UNL     1      14.902  -3.428  -9.954  1.00  0.00     0.124 S 
ATOM     93  O   UNL     1      14.749  -3.488 -11.403  1.00  0.00    -0.237 OA
ATOM     94  O   UNL     1      15.506  -2.212  -9.420  1.00  0.00    -0.237 OA
ATOM     95  O   UNL     1      15.339  -4.670  -9.320  1.00  0.00    -0.744 OA
ENDBRANCH  88  92
ENDBRANCH  61  85
BRANCH  73  96
ATOM     96  C   UNL     1       9.216  -0.710 -16.181  1.00  0.00     0.023 A 
ATOM     97  C   UNL     1       8.774  -1.995 -16.541  1.00  0.00     0.031 A 
ATOM     98  C   UNL     1      10.043  -0.015 -17.081  1.00  0.00     0.131 A 
ATOM     99  C   UNL     1       9.197  -2.564 -17.752  1.00  0.00     0.055 A 
ATOM    100  C   UNL     1      10.420  -0.566 -18.306  1.00  0.00     0.041 A 
ATOM    101  F   UNL     1      10.493   1.214 -16.784  1.00  0.00    -0.206 F 
ATOM    102  C   UNL     1      10.004  -1.851 -18.643  1.00  0.00     0.022 A 
BRANCH  99 103
ATOM    103  S   UNL     1       8.725  -4.275 -18.123  1.00  0.00     0.124 S 
ATOM    104  O   UNL     1       9.374  -5.010 -17.041  1.00  0.00    -0.237 OA
ATOM    105  O   UNL     1       7.268  -4.218 -18.070  1.00  0.00    -0.237 OA
ATOM    106  O   UNL     1       9.287  -4.505 -19.453  1.00  0.00    -0.744 OA
ENDBRANCH  99 103
ENDBRANCH  73  96
ENDBRANCH  47  48
ENDBRANCH  39  42
ENDBRANCH  37  38
ENDBRANCH  36  37
ENDBRANCH   1  36
TORSDOF 18
