REMARK SMILES C[C@@](CC(=O)Nc1ccc(NC(=O)c2ccco2)cc1)(C(=O)NCCCNC(=O)c1ccc(-c2c3nc(c(-c4cc(S(=O)(=O)[O-])ccc4F)c4ccc([nH]4)c(-c4cc(S(=O)(=O)[O-])ccc4F)c4nc(c(-c5cc(S(=O)(=O)[O-])ccc5F)c5ccc2[nH]5)C=C4)C=C3)cc1)c1ccccc1
REMARK SMILES IDX 24 1 23 2 21 3 22 4 2 6 1 7 3 8 4 9 5 10 6 11 7 13 8 14
REMARK SMILES IDX 20 15 9 16 19 17 10 18 11 19 12 20 13 22 14 23 15 24 18 25
REMARK SMILES IDX 16 26 17 27 93 28 94 29 98 30 95 31 97 32 96 33 25 34 26 35
REMARK SMILES IDX 27 36 28 37 29 39 30 40 31 41 92 42 32 43 91 44 33 45 34 46
REMARK SMILES IDX 35 47 85 48 36 49 90 50 84 51 86 52 37 53 89 54 83 55 82 56
REMARK SMILES IDX 38 58 70 59 50 60 69 61 51 62 54 63 68 64 87 65 52 66 53 67
REMARK SMILES IDX 67 69 88 70 55 71 39 72 40 73 48 74 41 75 47 76 49 77 46 78
REMARK SMILES IDX 42 79 43 80 44 81 45 82 71 83 72 84 80 85 73 86 79 87 81 88
REMARK SMILES IDX 78 89 74 90 75 91 76 92 77 93 56 94 57 95 65 96 58 97 64 98
REMARK SMILES IDX 66 99 63 100 59 101 60 102 61 103 62 104
REMARK H PARENT 23 5 6 12 11 21 27 38 86 57 54 68
REMARK Flexibility Score: inf
ROOT
ATOM      1  C   UNL     1      -1.659  -1.809   1.293  1.00  0.00     0.117 C 
ENDROOT
BRANCH   1   2
ATOM      2  N   UNL     1      -2.061  -1.875  -0.099  1.00  0.00    -0.355 N 
ATOM      3  C   UNL     1      -1.316  -1.866  -1.252  1.00  0.00     0.230 C 
ATOM      4  O   UNL     1      -1.901  -2.245  -2.272  1.00  0.00    -0.274 OA
ATOM      5  H   UNL     1      -3.033  -1.937  -0.241  1.00  0.00     0.163 HD
BRANCH   3   6
ATOM      6  C   UNL     1       0.161  -1.348  -1.291  1.00  0.00     0.080 C 
ATOM      7  C   UNL     1       0.153   0.038  -0.605  1.00  0.00     0.027 C 
BRANCH   6   8
ATOM      8  C   UNL     1       1.165  -2.403  -0.708  1.00  0.00     0.121 C 
BRANCH   8   9
ATOM      9  C   UNL     1       1.308  -2.763   0.752  1.00  0.00     0.225 C 
ATOM     10  O   UNL     1       0.827  -3.833   1.151  1.00  0.00    -0.275 OA
ATOM     11  N   UNL     1       1.918  -2.000   1.693  1.00  0.00    -0.326 N 
ATOM     12  H   UNL     1       1.889  -2.410   2.587  1.00  0.00     0.169 HD
BRANCH  11  13
ATOM     13  C   UNL     1       2.579  -0.766   1.692  1.00  0.00     0.041 A 
ATOM     14  C   UNL     1       2.795  -0.177   2.943  1.00  0.00     0.028 A 
ATOM     15  C   UNL     1       2.997  -0.082   0.557  1.00  0.00     0.028 A 
ATOM     16  C   UNL     1       3.382   1.087   3.046  1.00  0.00     0.028 A 
ATOM     17  C   UNL     1       3.530   1.206   0.652  1.00  0.00     0.028 A 
ATOM     18  C   UNL     1       3.769   1.775   1.897  1.00  0.00     0.041 A 
BRANCH  18  19
ATOM     19  N   UNL     1       4.406   3.023   1.919  1.00  0.00    -0.319 N 
ATOM     20  C   UNL     1       5.284   3.542   2.851  1.00  0.00     0.291 C 
ATOM     21  H   UNL     1       4.198   3.615   1.161  1.00  0.00     0.170 HD
ATOM     22  O   UNL     1       5.552   4.744   2.776  1.00  0.00    -0.265 OA
BRANCH  20  23
ATOM     23  C   UNL     1       5.936   2.636   3.775  1.00  0.00     0.191 A 
ATOM     24  C   UNL     1       6.468   1.366   3.617  1.00  0.00     0.056 A 
ATOM     25  O   UNL     1       6.095   3.030   5.074  1.00  0.00    -0.459 OA
ATOM     26  C   UNL     1       6.907   0.944   4.893  1.00  0.00     0.043 A 
ATOM     27  C   UNL     1       6.661   1.995   5.744  1.00  0.00     0.196 A 
ENDBRANCH  20  23
ENDBRANCH  18  19
ENDBRANCH  11  13
ENDBRANCH   8   9
ENDBRANCH   6   8
BRANCH   6  28
ATOM     28  C   UNL     1       0.617  -1.142  -2.803  1.00  0.00    -0.032 A 
ATOM     29  C   UNL     1       1.161  -2.210  -3.552  1.00  0.00     0.005 A 
ATOM     30  C   UNL     1       0.576   0.112  -3.444  1.00  0.00     0.005 A 
ATOM     31  C   UNL     1       1.760  -2.011  -4.800  1.00  0.00     0.000 A 
ATOM     32  C   UNL     1       1.165   0.310  -4.700  1.00  0.00     0.000 A 
ATOM     33  C   UNL     1       1.783  -0.744  -5.364  1.00  0.00     0.000 A 
ENDBRANCH   6  28
ENDBRANCH   3   6
ENDBRANCH   1   2
BRANCH   1  34
ATOM     34  C   UNL     1      -2.122  -0.594   2.076  1.00  0.00     0.042 C 
BRANCH  34  35
ATOM     35  C   UNL     1      -3.563  -0.634   2.549  1.00  0.00     0.118 C 
BRANCH  35  36
ATOM     36  N   UNL     1      -3.878  -1.812   3.344  1.00  0.00    -0.352 N 
ATOM     37  C   UNL     1      -4.321  -1.970   4.634  1.00  0.00     0.251 C 
ATOM     38  H   UNL     1      -3.750  -2.661   2.862  1.00  0.00     0.163 HD
ATOM     39  O   UNL     1      -4.377  -3.113   5.086  1.00  0.00    -0.269 OA
BRANCH  37  40
ATOM     40  C   UNL     1      -4.697  -0.820   5.493  1.00  0.00     0.039 A 
ATOM     41  C   UNL     1      -4.527  -0.943   6.878  1.00  0.00     0.014 A 
ATOM     42  C   UNL     1      -5.252   0.352   4.980  1.00  0.00     0.014 A 
ATOM     43  C   UNL     1      -4.852   0.121   7.724  1.00  0.00     0.010 A 
ATOM     44  C   UNL     1      -5.463   1.452   5.808  1.00  0.00     0.010 A 
ATOM     45  C   UNL     1      -5.286   1.345   7.193  1.00  0.00    -0.014 A 
BRANCH  45  46
ATOM     46  C   UNL     1      -5.588   2.505   8.073  1.00  0.00     0.031 A 
ATOM     47  C   UNL     1      -6.973   3.099   8.100  1.00  0.00     0.074 A 
ATOM     48  C   UNL     1      -4.600   3.057   8.805  1.00  0.00     0.049 A 
ATOM     49  N   UNL     1      -7.419   4.135   8.764  1.00  0.00    -0.248 NA
ATOM     50  C   UNL     1      -7.979   2.470   7.231  1.00  0.00     0.031 C 
ATOM     51  C   UNL     1      -3.201   2.620   8.806  1.00  0.00     0.029 A 
ATOM     52  N   UNL     1      -4.619   4.104   9.691  1.00  0.00    -0.354 N 
ATOM     53  C   UNL     1      -8.744   4.298   8.371  1.00  0.00     0.074 A 
ATOM     54  C   UNL     1      -9.005   3.297   7.360  1.00  0.00     0.031 C 
ATOM     55  C   UNL     1      -2.507   3.366   9.681  1.00  0.00     0.029 A 
ATOM     56  C   UNL     1      -3.400   4.353  10.278  1.00  0.00     0.049 A 
ATOM     57  H   UNL     1      -5.428   4.629   9.887  1.00  0.00     0.167 HD
ATOM     58  C   UNL     1      -9.668   5.179   8.832  1.00  0.00     0.034 A 
ATOM     59  C   UNL     1      -3.045   5.268  11.200  1.00  0.00     0.034 A 
ATOM     60  C   UNL     1      -9.400   6.148   9.867  1.00  0.00     0.049 A 
ATOM     61  C   UNL     1      -4.100   6.193  11.745  1.00  0.00     0.074 A 
ATOM     62  C   UNL     1     -10.269   7.053  10.453  1.00  0.00     0.029 A 
ATOM     63  N   UNL     1      -8.166   6.333  10.478  1.00  0.00    -0.354 N 
ATOM     64  N   UNL     1      -5.364   6.297  11.403  1.00  0.00    -0.248 NA
ATOM     65  C   UNL     1      -3.686   7.104  12.817  1.00  0.00     0.031 C 
ATOM     66  C   UNL     1      -9.550   7.815  11.383  1.00  0.00     0.029 A 
ATOM     67  C   UNL     1      -8.247   7.344  11.424  1.00  0.00     0.049 A 
ATOM     68  H   UNL     1      -7.351   5.821  10.270  1.00  0.00     0.167 HD
ATOM     69  C   UNL     1      -5.901   7.273  12.238  1.00  0.00     0.074 A 
ATOM     70  C   UNL     1      -4.829   7.703  13.114  1.00  0.00     0.031 C 
ATOM     71  C   UNL     1      -7.164   7.770  12.278  1.00  0.00     0.034 A 
BRANCH  58  72
ATOM     72  C   UNL     1     -11.041   5.135   8.201  1.00  0.00     0.023 A 
ATOM     73  C   UNL     1     -11.855   3.991   8.284  1.00  0.00     0.031 A 
ATOM     74  C   UNL     1     -11.525   6.231   7.465  1.00  0.00     0.131 A 
ATOM     75  C   UNL     1     -13.062   3.934   7.570  1.00  0.00     0.055 A 
ATOM     76  C   UNL     1     -12.768   6.200   6.828  1.00  0.00     0.041 A 
ATOM     77  F   UNL     1     -10.788   7.345   7.332  1.00  0.00    -0.206 F 
ATOM     78  C   UNL     1     -13.537   5.040   6.863  1.00  0.00     0.022 A 
BRANCH  75  79
ATOM     79  S   UNL     1     -13.921   2.341   7.451  1.00  0.00     0.124 S 
ATOM     80  O   UNL     1     -12.911   1.510   6.799  1.00  0.00    -0.237 OA
ATOM     81  O   UNL     1     -14.202   2.027   8.847  1.00  0.00    -0.237 OA
ATOM     82  O   UNL     1     -15.092   2.643   6.630  1.00  0.00    -0.744 OA
ENDBRANCH  75  79
ENDBRANCH  58  72
BRANCH  59  83
ATOM     83  C   UNL     1      -1.639   5.340  11.688  1.00  0.00     0.023 A 
ATOM     84  C   UNL     1      -1.318   4.995  13.011  1.00  0.00     0.031 A 
ATOM     85  C   UNL     1      -0.602   5.779  10.848  1.00  0.00     0.131 A 
ATOM     86  C   UNL     1       0.000   5.139  13.470  1.00  0.00     0.055 A 
ATOM     87  C   UNL     1       0.716   5.878  11.296  1.00  0.00     0.041 A 
ATOM     88  F   UNL     1      -0.856   6.104   9.570  1.00  0.00    -0.206 F 
ATOM     89  C   UNL     1       1.021   5.569  12.619  1.00  0.00     0.022 A 
BRANCH  86  90
ATOM     90  S   UNL     1       0.349   4.818  15.221  1.00  0.00     0.124 S 
ATOM     91  O   UNL     1      -0.548   5.759  15.882  1.00  0.00    -0.237 OA
ATOM     92  O   UNL     1       0.001   3.406  15.343  1.00  0.00    -0.237 OA
ATOM     93  O   UNL     1       1.773   5.120  15.345  1.00  0.00    -0.744 OA
ENDBRANCH  86  90
ENDBRANCH  59  83
BRANCH  71  94
ATOM     94  C   UNL     1      -7.445   8.810  13.333  1.00  0.00     0.023 A 
ATOM     95  C   UNL     1      -6.839  10.078  13.296  1.00  0.00     0.031 A 
ATOM     96  C   UNL     1      -8.293   8.511  14.413  1.00  0.00     0.131 A 
ATOM     97  C   UNL     1      -7.030  10.974  14.358  1.00  0.00     0.055 A 
ATOM     98  C   UNL     1      -8.528   9.430  15.437  1.00  0.00     0.041 A 
ATOM     99  F   UNL     1      -8.897   7.315  14.498  1.00  0.00    -0.206 F 
ATOM    100  C   UNL     1      -7.880  10.662  15.422  1.00  0.00     0.022 A 
BRANCH  97 101
ATOM    101  S   UNL     1      -6.053  12.502  14.391  1.00  0.00     0.124 S 
ATOM    102  O   UNL     1      -4.689  11.995  14.285  1.00  0.00    -0.237 OA
ATOM    103  O   UNL     1      -6.560  13.219  13.225  1.00  0.00    -0.237 OA
ATOM    104  O   UNL     1      -6.394  13.098  15.682  1.00  0.00    -0.744 OA
ENDBRANCH  97 101
ENDBRANCH  71  94
ENDBRANCH  45  46
ENDBRANCH  37  40
ENDBRANCH  35  36
ENDBRANCH  34  35
ENDBRANCH   1  34
TORSDOF 19
