REMARK SMILES Cc1ccc(F)cc1-c1ccc(F)cc1C(=O)NCCCNC(=O)c1ccc(-c2c3nc(c(-c4cc(S(=O)(=O)[O-])ccc4F)c4ccc([nH]4)c(-c4cc(S(=O)(=O)[O-])ccc4F)c4nc(c(-c5cc(S(=O)(=O)[O-])ccc5F)c5ccc2[nH]5)C=C4)C=C3)cc1
REMARK SMILES IDX 21 1 20 2 19 3 18 4 16 5 17 6 15 8 9 9 10 10 11 11 14 12
REMARK SMILES IDX 12 13 13 14 8 15 1 16 2 17 3 18 4 19 7 20 5 21 6 22 22 23
REMARK SMILES IDX 23 24 24 26 25 27 26 28 87 29 27 30 86 31 28 32 29 33 30 34
REMARK SMILES IDX 80 35 31 36 85 37 79 38 81 39 32 40 84 41 78 42 77 43 33 45
REMARK SMILES IDX 65 46 45 47 64 48 46 49 49 50 63 51 82 52 47 53 48 54 62 56
REMARK SMILES IDX 83 57 50 58 34 59 35 60 43 61 36 62 42 63 44 64 41 65 37 66
REMARK SMILES IDX 38 67 39 68 40 69 66 70 67 71 75 72 68 73 74 74 76 75 73 76
REMARK SMILES IDX 69 77 70 78 71 79 72 80 51 81 52 82 60 83 53 84 59 85 61 86
REMARK SMILES IDX 58 87 54 88 55 89 56 90 57 91
REMARK H PARENT 18 7 22 25 81 44 49 55
REMARK Flexibility Score: inf
ROOT
ATOM      1  C   UNL     1      -0.927   0.699  -3.653  1.00  0.00     0.118 C 
ENDROOT
BRANCH   1   2
ATOM      2  C   UNL     1       0.478   0.407  -3.139  1.00  0.00     0.042 C 
BRANCH   2   3
ATOM      3  C   UNL     1       0.537  -0.654  -2.055  1.00  0.00     0.118 C 
BRANCH   3   4
ATOM      4  N   UNL     1       0.125  -1.984  -2.423  1.00  0.00    -0.352 N 
ATOM      5  C   UNL     1       0.380  -3.184  -1.808  1.00  0.00     0.252 C 
ATOM      6  O   UNL     1      -0.207  -4.173  -2.257  1.00  0.00    -0.269 OA
ATOM      7  H   UNL     1      -0.422  -2.042  -3.240  1.00  0.00     0.163 HD
BRANCH   5   8
ATOM      8  C   UNL     1       1.374  -3.407  -0.708  1.00  0.00     0.050 A 
ATOM      9  C   UNL     1       1.558  -2.669   0.490  1.00  0.00    -0.005 A 
ATOM     10  C   UNL     1       2.473  -3.170   1.452  1.00  0.00     0.012 A 
ATOM     11  C   UNL     1       3.208  -4.334   1.240  1.00  0.00     0.040 A 
ATOM     12  C   UNL     1       2.128  -4.589  -0.897  1.00  0.00     0.053 A 
ATOM     13  C   UNL     1       3.030  -5.032   0.061  1.00  0.00     0.124 A 
ATOM     14  F   UNL     1       3.725  -6.157  -0.151  1.00  0.00    -0.207 F 
BRANCH   9  15
ATOM     15  C   UNL     1       0.865  -1.420   0.855  1.00  0.00    -0.012 A 
ATOM     16  C   UNL     1       3.003   0.010   0.559  1.00  0.00     0.045 C 
ATOM     17  C   UNL     1       1.543  -0.167   0.907  1.00  0.00    -0.043 A 
ATOM     18  C   UNL     1       0.815   1.007   1.183  1.00  0.00     0.007 A 
ATOM     19  C   UNL     1      -0.554   0.953   1.432  1.00  0.00     0.039 A 
ATOM     20  C   UNL     1      -0.508  -1.453   1.156  1.00  0.00     0.048 A 
ATOM     21  C   UNL     1      -1.198  -0.275   1.433  1.00  0.00     0.123 A 
ATOM     22  F   UNL     1      -2.515  -0.329   1.673  1.00  0.00    -0.207 F 
ENDBRANCH   9  15
ENDBRANCH   5   8
ENDBRANCH   3   4
ENDBRANCH   2   3
ENDBRANCH   1   2
BRANCH   1  23
ATOM     23  N   UNL     1      -1.841   1.254  -2.657  1.00  0.00    -0.352 N 
ATOM     24  C   UNL     1      -2.177   2.533  -2.276  1.00  0.00     0.251 C 
ATOM     25  H   UNL     1      -2.321   0.562  -2.148  1.00  0.00     0.163 HD
ATOM     26  O   UNL     1      -2.942   2.671  -1.320  1.00  0.00    -0.269 OA
BRANCH  24  27
ATOM     27  C   UNL     1      -1.605   3.740  -2.922  1.00  0.00     0.039 A 
ATOM     28  C   UNL     1      -1.402   4.891  -2.147  1.00  0.00     0.014 A 
ATOM     29  C   UNL     1      -1.284   3.783  -4.273  1.00  0.00     0.014 A 
ATOM     30  C   UNL     1      -0.777   6.018  -2.699  1.00  0.00     0.010 A 
ATOM     31  C   UNL     1      -0.547   4.845  -4.786  1.00  0.00     0.010 A 
ATOM     32  C   UNL     1      -0.276   5.978  -4.007  1.00  0.00    -0.014 A 
BRANCH  32  33
ATOM     33  C   UNL     1       0.513   7.088  -4.614  1.00  0.00     0.031 A 
ATOM     34  C   UNL     1       0.088   7.662  -5.943  1.00  0.00     0.074 A 
ATOM     35  C   UNL     1       1.671   7.492  -4.052  1.00  0.00     0.049 A 
ATOM     36  N   UNL     1       0.769   8.390  -6.790  1.00  0.00    -0.248 NA
ATOM     37  C   UNL     1      -1.266   7.316  -6.404  1.00  0.00     0.031 C 
ATOM     38  C   UNL     1       2.219   7.009  -2.782  1.00  0.00     0.029 A 
ATOM     39  N   UNL     1       2.609   8.393  -4.491  1.00  0.00    -0.354 N 
ATOM     40  C   UNL     1      -0.048   8.534  -7.907  1.00  0.00     0.074 A 
ATOM     41  C   UNL     1      -1.256   7.780  -7.644  1.00  0.00     0.031 C 
ATOM     42  C   UNL     1       3.375   7.643  -2.530  1.00  0.00     0.029 A 
ATOM     43  C   UNL     1       3.689   8.524  -3.649  1.00  0.00     0.049 A 
ATOM     44  H   UNL     1       2.518   8.899  -5.331  1.00  0.00     0.167 HD
ATOM     45  C   UNL     1       0.179   9.243  -9.040  1.00  0.00     0.034 A 
ATOM     46  C   UNL     1       4.818   9.248  -3.773  1.00  0.00     0.034 A 
ATOM     47  C   UNL     1       1.349  10.056  -9.254  1.00  0.00     0.049 A 
ATOM     48  C   UNL     1       5.035  10.059  -5.022  1.00  0.00     0.074 A 
ATOM     49  C   UNL     1       1.648  10.868 -10.335  1.00  0.00     0.029 A 
ATOM     50  N   UNL     1       2.403  10.181  -8.359  1.00  0.00    -0.354 N 
ATOM     51  N   UNL     1       4.272  10.151  -6.086  1.00  0.00    -0.248 NA
ATOM     52  C   UNL     1       6.268  10.854  -5.090  1.00  0.00     0.031 C 
ATOM     53  C   UNL     1       2.897  11.455 -10.109  1.00  0.00     0.029 A 
ATOM     54  C   UNL     1       3.354  11.052  -8.865  1.00  0.00     0.049 A 
ATOM     55  H   UNL     1       2.465   9.719  -7.492  1.00  0.00     0.167 HD
ATOM     56  C   UNL     1       4.930  11.024  -6.947  1.00  0.00     0.074 A 
ATOM     57  C   UNL     1       6.142  11.442  -6.271  1.00  0.00     0.031 C 
ATOM     58  C   UNL     1       4.564  11.442  -8.184  1.00  0.00     0.034 A 
BRANCH  45  59
ATOM     59  C   UNL     1      -0.858   9.166 -10.131  1.00  0.00     0.023 A 
ATOM     60  C   UNL     1      -2.152   9.684  -9.955  1.00  0.00     0.031 A 
ATOM     61  C   UNL     1      -0.552   8.556 -11.361  1.00  0.00     0.131 A 
ATOM     62  C   UNL     1      -3.113   9.522 -10.963  1.00  0.00     0.055 A 
ATOM     63  C   UNL     1      -1.492   8.466 -12.390  1.00  0.00     0.041 A 
ATOM     64  F   UNL     1       0.663   8.029 -11.579  1.00  0.00    -0.206 F 
ATOM     65  C   UNL     1      -2.785   8.940 -12.190  1.00  0.00     0.022 A 
BRANCH  62  66
ATOM     66  S   UNL     1      -4.827   9.991 -10.609  1.00  0.00     0.124 S 
ATOM     67  O   UNL     1      -5.193   9.008  -9.592  1.00  0.00    -0.237 OA
ATOM     68  O   UNL     1      -4.693  11.367 -10.146  1.00  0.00    -0.237 OA
ATOM     69  O   UNL     1      -5.499   9.829 -11.897  1.00  0.00    -0.744 OA
ENDBRANCH  62  66
ENDBRANCH  45  59
BRANCH  46  70
ATOM     70  C   UNL     1       5.840   9.232  -2.690  1.00  0.00     0.023 A 
ATOM     71  C   UNL     1       6.037  10.360  -1.880  1.00  0.00     0.031 A 
ATOM     72  C   UNL     1       6.629   8.094  -2.450  1.00  0.00     0.131 A 
ATOM     73  C   UNL     1       7.021  10.337  -0.880  1.00  0.00     0.055 A 
ATOM     74  C   UNL     1       7.582   8.064  -1.430  1.00  0.00     0.041 A 
ATOM     75  F   UNL     1       6.465   6.986  -3.189  1.00  0.00    -0.206 F 
ATOM     76  C   UNL     1       7.787   9.193  -0.642  1.00  0.00     0.022 A 
BRANCH  73  77
ATOM     77  S   UNL     1       7.301  11.838   0.100  1.00  0.00     0.124 S 
ATOM     78  O   UNL     1       7.814  12.758  -0.908  1.00  0.00    -0.237 OA
ATOM     79  O   UNL     1       5.964  12.123   0.610  1.00  0.00    -0.237 OA
ATOM     80  O   UNL     1       8.269  11.409   1.107  1.00  0.00    -0.744 OA
ENDBRANCH  73  77
ENDBRANCH  46  70
BRANCH  58  81
ATOM     81  C   UNL     1       5.478  12.418  -8.875  1.00  0.00     0.023 A 
ATOM     82  C   UNL     1       6.729  12.021  -9.374  1.00  0.00     0.031 A 
ATOM     83  C   UNL     1       5.082  13.755  -9.050  1.00  0.00     0.131 A 
ATOM     84  C   UNL     1       7.560  12.964  -9.995  1.00  0.00     0.055 A 
ATOM     85  C   UNL     1       5.893  14.678  -9.712  1.00  0.00     0.041 A 
ATOM     86  F   UNL     1       3.894  14.182  -8.591  1.00  0.00    -0.206 F 
ATOM     87  C   UNL     1       7.143  14.286 -10.182  1.00  0.00     0.022 A 
BRANCH  84  88
ATOM     88  S   UNL     1       9.220  12.453 -10.514  1.00  0.00     0.124 S 
ATOM     89  O   UNL     1       9.842  12.110  -9.239  1.00  0.00    -0.237 OA
ATOM     90  O   UNL     1       8.940  11.333 -11.408  1.00  0.00    -0.237 OA
ATOM     91  O   UNL     1       9.759  13.645 -11.166  1.00  0.00    -0.744 OA
ENDBRANCH  84  88
ENDBRANCH  58  81
ENDBRANCH  32  33
ENDBRANCH  24  27
ENDBRANCH   1  23
TORSDOF 14
