REMARK SMILES CC(C)(C)OC(=O)N1C[C@H](Oc2ccncc2)C[C@H]1C(=O)NCCCNC(=O)c1ccc(-c2c3nc(c(-c4cc(S(=O)(=O)[O-])ccc4F)c4ccc([nH]4)c(-c4cc(S(=O)(=O)[O-])ccc4F)c4nc(c(-c5cc(S(=O)(=O)[O-])ccc5F)c5ccc2[nH]5)C=C4)C=C3)cc1
REMARK SMILES IDX 24 1 23 2 22 3 20 4 21 5 19 7 8 8 9 9 10 10 18 11 6 12 7 13
REMARK SMILES IDX 5 14 2 15 1 16 3 17 4 18 11 19 12 20 13 21 17 22 14 23 16 24
REMARK SMILES IDX 15 25 25 26 26 27 27 28 28 30 29 31 30 32 91 33 31 34 90 35
REMARK SMILES IDX 32 36 33 37 34 38 84 39 35 40 89 41 83 42 85 43 36 44 88 45
REMARK SMILES IDX 82 46 81 47 37 49 69 50 49 51 68 52 50 53 53 54 67 55 86 56
REMARK SMILES IDX 51 57 52 58 66 60 87 61 54 62 38 63 39 64 47 65 40 66 46 67
REMARK SMILES IDX 48 68 45 69 41 70 42 71 43 72 44 73 70 74 71 75 79 76 72 77
REMARK SMILES IDX 78 78 80 79 77 80 73 81 74 82 75 83 76 84 55 85 56 86 64 87
REMARK SMILES IDX 57 88 63 89 65 90 62 91 58 92 59 93 60 94 61 95
REMARK H PARENT 22 6 26 29 85 48 53 59
REMARK Flexibility Score: inf
ROOT
ATOM      1  C   UNL     1       1.233   2.795  -9.488  1.00  0.00     0.042 C 
ENDROOT
BRANCH   1   2
ATOM      2  C   UNL     1      -0.052   2.460  -8.726  1.00  0.00     0.117 C 
BRANCH   2   3
ATOM      3  N   UNL     1       0.059   1.175  -8.059  1.00  0.00    -0.354 N 
ATOM      4  C   UNL     1       0.444   0.848  -6.792  1.00  0.00     0.243 C 
ATOM      5  O   UNL     1       0.727  -0.339  -6.606  1.00  0.00    -0.273 OA
ATOM      6  H   UNL     1      -0.187   0.405  -8.620  1.00  0.00     0.163 HD
BRANCH   4   7
ATOM      7  C   UNL     1       0.438   1.897  -5.646  1.00  0.00     0.181 C 
ATOM      8  N   UNL     1       1.012   1.315  -4.431  1.00  0.00    -0.292 N 
ATOM      9  C   UNL     1       2.313   1.881  -4.131  1.00  0.00     0.169 C 
ATOM     10  C   UNL     1       2.216   3.295  -4.686  1.00  0.00     0.195 C 
ATOM     11  C   UNL     1       1.308   3.137  -5.910  1.00  0.00     0.082 C 
BRANCH   8  12
ATOM     12  C   UNL     1       0.320   0.431  -3.644  1.00  0.00     0.411 C 
ATOM     13  O   UNL     1      -0.777  -0.024  -3.938  1.00  0.00    -0.224 OA
BRANCH  12  14
ATOM     14  O   UNL     1       0.980   0.191  -2.485  1.00  0.00    -0.444 OA
BRANCH  14  15
ATOM     15  C   UNL     1       0.498  -0.726  -1.471  1.00  0.00     0.106 C 
ATOM     16  C   UNL     1       1.192  -0.265  -0.180  1.00  0.00     0.056 C 
ATOM     17  C   UNL     1       0.974  -2.134  -1.830  1.00  0.00     0.056 C 
ATOM     18  C   UNL     1      -1.017  -0.690  -1.240  1.00  0.00     0.056 C 
ENDBRANCH  14  15
ENDBRANCH  12  14
ENDBRANCH   8  12
BRANCH  10  19
ATOM     19  O   UNL     1       1.810   4.328  -3.768  1.00  0.00    -0.488 OA
BRANCH  19  20
ATOM     20  C   UNL     1       0.618   4.180  -3.123  1.00  0.00     0.122 A 
ATOM     21  C   UNL     1       0.533   3.450  -1.946  1.00  0.00     0.066 A 
ATOM     22  C   UNL     1      -0.485   4.895  -3.569  1.00  0.00     0.066 A 
ATOM     23  C   UNL     1      -0.692   3.388  -1.306  1.00  0.00     0.115 A 
ATOM     24  C   UNL     1      -1.663   4.784  -2.851  1.00  0.00     0.115 A 
ATOM     25  N   UNL     1      -1.797   4.035  -1.734  1.00  0.00    -0.264 NA
ENDBRANCH  19  20
ENDBRANCH  10  19
ENDBRANCH   4   7
ENDBRANCH   2   3
ENDBRANCH   1   2
BRANCH   1  26
ATOM     26  C   UNL     1       1.529   1.856 -10.656  1.00  0.00     0.118 C 
BRANCH  26  27
ATOM     27  N   UNL     1       0.628   2.074 -11.774  1.00  0.00    -0.352 N 
ATOM     28  C   UNL     1       0.906   2.468 -13.060  1.00  0.00     0.251 C 
ATOM     29  H   UNL     1      -0.324   1.916 -11.581  1.00  0.00     0.163 HD
ATOM     30  O   UNL     1      -0.020   2.823 -13.785  1.00  0.00    -0.269 OA
BRANCH  28  31
ATOM     31  C   UNL     1       2.299   2.489 -13.568  1.00  0.00     0.039 A 
ATOM     32  C   UNL     1       2.699   3.549 -14.387  1.00  0.00     0.014 A 
ATOM     33  C   UNL     1       3.198   1.456 -13.284  1.00  0.00     0.014 A 
ATOM     34  C   UNL     1       4.008   3.601 -14.875  1.00  0.00     0.010 A 
ATOM     35  C   UNL     1       4.523   1.544 -13.714  1.00  0.00     0.010 A 
ATOM     36  C   UNL     1       4.941   2.615 -14.519  1.00  0.00    -0.014 A 
BRANCH  36  37
ATOM     37  C   UNL     1       6.352   2.683 -14.987  1.00  0.00     0.031 A 
ATOM     38  C   UNL     1       6.897   1.625 -15.908  1.00  0.00     0.074 A 
ATOM     39  C   UNL     1       7.157   3.666 -14.538  1.00  0.00     0.049 A 
ATOM     40  N   UNL     1       8.116   1.465 -16.359  1.00  0.00    -0.248 NA
ATOM     41  C   UNL     1       5.950   0.594 -16.359  1.00  0.00     0.031 C 
ATOM     42  C   UNL     1       6.755   4.733 -13.618  1.00  0.00     0.029 A 
ATOM     43  N   UNL     1       8.483   3.925 -14.784  1.00  0.00    -0.354 N 
ATOM     44  C   UNL     1       8.086   0.311 -17.135  1.00  0.00     0.074 A 
ATOM     45  C   UNL     1       6.741  -0.218 -17.045  1.00  0.00     0.031 C 
ATOM     46  C   UNL     1       7.805   5.538 -13.392  1.00  0.00     0.029 A 
ATOM     47  C   UNL     1       8.966   5.024 -14.111  1.00  0.00     0.049 A 
ATOM     48  H   UNL     1       9.036   3.376 -15.385  1.00  0.00     0.167 HD
ATOM     49  C   UNL     1       9.082  -0.245 -17.870  1.00  0.00     0.034 A 
ATOM     50  C   UNL     1      10.207   5.548 -14.065  1.00  0.00     0.034 A 
ATOM     51  C   UNL     1      10.416   0.300 -17.959  1.00  0.00     0.049 A 
ATOM     52  C   UNL     1      11.305   4.899 -14.868  1.00  0.00     0.074 A 
ATOM     53  C   UNL     1      11.484  -0.151 -18.716  1.00  0.00     0.029 A 
ATOM     54  N   UNL     1      10.869   1.413 -17.262  1.00  0.00    -0.354 N 
ATOM     55  N   UNL     1      11.249   3.832 -15.632  1.00  0.00    -0.248 NA
ATOM     56  C   UNL     1      12.629   5.530 -14.811  1.00  0.00     0.031 C 
ATOM     57  C   UNL     1      12.597   0.647 -18.427  1.00  0.00     0.029 A 
ATOM     58  C   UNL     1      12.207   1.643 -17.547  1.00  0.00     0.049 A 
ATOM     59  H   UNL     1      10.320   1.960 -16.655  1.00  0.00     0.167 HD
ATOM     60  C   UNL     1      12.525   3.683 -16.167  1.00  0.00     0.074 A 
ATOM     61  C   UNL     1      13.322   4.777 -15.652  1.00  0.00     0.031 C 
ATOM     62  C   UNL     1      12.995   2.730 -17.012  1.00  0.00     0.034 A 
BRANCH  49  63
ATOM     63  C   UNL     1       8.768  -1.525 -18.611  1.00  0.00     0.023 A 
ATOM     64  C   UNL     1       7.800  -1.570 -19.630  1.00  0.00     0.031 A 
ATOM     65  C   UNL     1       9.425  -2.722 -18.277  1.00  0.00     0.131 A 
ATOM     66  C   UNL     1       7.460  -2.796 -20.222  1.00  0.00     0.055 A 
ATOM     67  C   UNL     1       9.142  -3.925 -18.928  1.00  0.00     0.041 A 
ATOM     68  F   UNL     1      10.346  -2.747 -17.301  1.00  0.00    -0.206 F 
ATOM     69  C   UNL     1       8.142  -3.970 -19.895  1.00  0.00     0.022 A 
BRANCH  66  70
ATOM     70  S   UNL     1       6.016  -2.858 -21.317  1.00  0.00     0.124 S 
ATOM     71  O   UNL     1       4.954  -2.389 -20.430  1.00  0.00    -0.237 OA
ATOM     72  O   UNL     1       6.397  -1.951 -22.393  1.00  0.00    -0.237 OA
ATOM     73  O   UNL     1       5.928  -4.269 -21.689  1.00  0.00    -0.744 OA
ENDBRANCH  66  70
ENDBRANCH  49  63
BRANCH  50  74
ATOM     74  C   UNL     1      10.490   6.743 -13.218  1.00  0.00     0.023 A 
ATOM     75  C   UNL     1      10.871   7.964 -13.795  1.00  0.00     0.031 A 
ATOM     76  C   UNL     1      10.419   6.669 -11.816  1.00  0.00     0.131 A 
ATOM     77  C   UNL     1      11.211   9.050 -12.973  1.00  0.00     0.055 A 
ATOM     78  C   UNL     1      10.710   7.766 -11.003  1.00  0.00     0.041 A 
ATOM     79  F   UNL     1      10.053   5.526 -11.213  1.00  0.00    -0.206 F 
ATOM     80  C   UNL     1      11.121   8.963 -11.582  1.00  0.00     0.022 A 
BRANCH  77  81
ATOM     81  S   UNL     1      11.851  10.559 -13.749  1.00  0.00     0.124 S 
ATOM     82  O   UNL     1      13.017  10.054 -14.465  1.00  0.00    -0.237 OA
ATOM     83  O   UNL     1      10.722  10.977 -14.573  1.00  0.00    -0.237 OA
ATOM     84  O   UNL     1      12.144  11.428 -12.611  1.00  0.00    -0.744 OA
ENDBRANCH  77  81
ENDBRANCH  50  74
BRANCH  62  85
ATOM     85  C   UNL     1      14.431   2.860 -17.459  1.00  0.00     0.023 A 
ATOM     86  C   UNL     1      15.502   2.697 -16.562  1.00  0.00     0.031 A 
ATOM     87  C   UNL     1      14.729   3.171 -18.797  1.00  0.00     0.131 A 
ATOM     88  C   UNL     1      16.818   2.900 -17.003  1.00  0.00     0.055 A 
ATOM     89  C   UNL     1      16.044   3.312 -19.243  1.00  0.00     0.041 A 
ATOM     90  F   UNL     1      13.746   3.340 -19.695  1.00  0.00    -0.206 F 
ATOM     91  C   UNL     1      17.097   3.190 -18.341  1.00  0.00     0.022 A 
BRANCH  88  92
ATOM     92  S   UNL     1      18.160   2.868 -15.782  1.00  0.00     0.124 S 
ATOM     93  O   UNL     1      17.757   3.927 -14.862  1.00  0.00    -0.237 OA
ATOM     94  O   UNL     1      18.078   1.507 -15.262  1.00  0.00    -0.237 OA
ATOM     95  O   UNL     1      19.353   3.157 -16.576  1.00  0.00    -0.744 OA
ENDBRANCH  88  92
ENDBRANCH  62  85
ENDBRANCH  36  37
ENDBRANCH  28  31
ENDBRANCH  26  27
ENDBRANCH   1  26
TORSDOF 18
