REMARK SMILES COc1ccc2c(c1)O[C@@]1(CCC(=O)N([C@@H](C)C(=O)NCCCNC(=O)c3ccc(-c4c5nc(c(-c6cc(S(=O)(=O)[O-])ccc6F)c6ccc([nH]6)c(-c6cc(S(=O)(=O)[O-])ccc6F)c6nc(c(-c7cc(S(=O)(=O)[O-])ccc7F)c7ccc4[nH]7)C=C6)C=C5)cc3)CC1)CC2=O
REMARK SMILES IDX 21 1 20 2 18 3 19 4 16 6 17 7 15 8 90 9 91 10 10 11 3 12
REMARK SMILES IDX 4 13 8 14 5 15 7 16 6 17 9 18 93 19 92 20 94 21 2 22 1 23
REMARK SMILES IDX 11 24 13 26 14 27 12 28 22 30 23 31 24 32 25 33 26 35 27 36
REMARK SMILES IDX 28 37 89 38 29 39 88 40 30 41 31 42 32 43 82 44 33 45 87 46
REMARK SMILES IDX 81 47 83 48 34 49 86 50 80 51 79 52 35 54 67 55 47 56 66 57
REMARK SMILES IDX 48 58 51 59 65 60 84 61 49 62 50 63 64 65 85 66 52 67 36 68
REMARK SMILES IDX 37 69 45 70 38 71 44 72 46 73 43 74 39 75 40 76 41 77 42 78
REMARK SMILES IDX 68 79 69 80 77 81 70 82 76 83 78 84 75 85 71 86 72 87 73 88
REMARK SMILES IDX 74 89 53 90 54 91 62 92 55 93 61 94 63 95 60 96 56 97 57 98
REMARK SMILES IDX 58 99 59 100
REMARK H PARENT 20 5 24 34 83 53 51 64
REMARK Flexibility Score: 90.00
ROOT
ATOM      1  C   UNL     1      -4.588  -0.186   4.133  1.00  0.00     0.117 C 
ENDROOT
BRANCH   1   2
ATOM      2  N   UNL     1      -3.701   0.403   3.154  1.00  0.00    -0.354 N 
ATOM      3  C   UNL     1      -3.047  -0.411   2.275  1.00  0.00     0.242 C 
ATOM      4  O   UNL     1      -1.821  -0.406   2.192  1.00  0.00    -0.273 OA
ATOM      5  H   UNL     1      -3.571   1.378   3.122  1.00  0.00     0.163 HD
BRANCH   3   6
ATOM      6  C   UNL     1      -3.963  -1.026   1.229  1.00  0.00     0.171 C 
ATOM      7  C   UNL     1      -5.391  -0.392   1.214  1.00  0.00     0.042 C 
BRANCH   6   8
ATOM      8  N   UNL     1      -3.921  -2.479   0.872  1.00  0.00    -0.331 N 
BRANCH   8   9
ATOM      9  C   UNL     1      -3.075  -3.074  -0.187  1.00  0.00     0.124 C 
BRANCH   9  10
ATOM     10  C   UNL     1      -3.720  -3.194  -1.647  1.00  0.00     0.070 C 
BRANCH  10  11
ATOM     11  C   UNL     1      -4.744  -2.072  -1.883  1.00  0.00     0.118 C 
ATOM     12  C   UNL     1      -1.143   1.016  -1.915  1.00  0.00     0.122 A 
ATOM     13  C   UNL     1      -1.849   2.053  -2.546  1.00  0.00     0.047 A 
ATOM     14  C   UNL     1      -1.812  -0.167  -1.658  1.00  0.00     0.093 A 
ATOM     15  C   UNL     1      -3.172   1.865  -3.014  1.00  0.00     0.019 A 
ATOM     16  C   UNL     1      -3.143  -0.293  -2.050  1.00  0.00     0.134 A 
ATOM     17  C   UNL     1      -3.777   0.629  -2.836  1.00  0.00     0.060 A 
ATOM     18  O   UNL     1      -4.038  -1.004  -1.292  1.00  0.00    -0.486 OA
ATOM     19  C   UNL     1      -5.093   0.104  -3.267  1.00  0.00     0.170 C 
ATOM     20  C   UNL     1      -5.203  -1.471  -3.251  1.00  0.00     0.129 C 
ATOM     21  O   UNL     1      -5.985   0.858  -3.633  1.00  0.00    -0.294 OA
BRANCH  12  22
ATOM     22  O   UNL     1       0.160   1.263  -1.577  1.00  0.00    -0.497 OA
ATOM     23  C   UNL     1       0.690   0.518  -0.473  1.00  0.00     0.278 C 
ENDBRANCH  12  22
BRANCH  11  24
ATOM     24  C   UNL     1      -6.056  -2.531  -1.125  1.00  0.00     0.059 CG0
ATOM     25  G   UNL     1      -6.087  -3.323   0.218  1.00  0.00     0.000 G0
ENDBRANCH  11  24
ENDBRANCH  10  11
ENDBRANCH   9  10
ENDBRANCH   8   9
BRANCH   8  26
ATOM     26  C   UNL     1      -4.986  -3.237   1.256  1.00  0.00     0.223 C 
ATOM     27  O   UNL     1      -5.062  -3.769   2.357  1.00  0.00    -0.275 OA
BRANCH  26  28
ATOM     28  C   UNL     1      -6.087  -3.323   0.218  1.00  0.00     0.104 CG0
ATOM     29  G   UNL     1      -6.056  -2.531  -1.125  1.00  0.00     0.000 G0
ENDBRANCH  26  28
ENDBRANCH   8  26
ENDBRANCH   6   8
ENDBRANCH   3   6
ENDBRANCH   1   2
BRANCH   1  30
ATOM     30  C   UNL     1      -3.786  -0.425   5.387  1.00  0.00     0.042 C 
BRANCH  30  31
ATOM     31  C   UNL     1      -3.135   0.867   5.847  1.00  0.00     0.118 C 
BRANCH  31  32
ATOM     32  N   UNL     1      -4.135   1.888   6.170  1.00  0.00    -0.352 N 
ATOM     33  C   UNL     1      -4.626   2.213   7.420  1.00  0.00     0.251 C 
ATOM     34  H   UNL     1      -4.498   2.400   5.411  1.00  0.00     0.163 HD
ATOM     35  O   UNL     1      -5.643   2.858   7.565  1.00  0.00    -0.269 OA
BRANCH  33  36
ATOM     36  C   UNL     1      -3.845   1.694   8.558  1.00  0.00     0.039 A 
ATOM     37  C   UNL     1      -2.468   1.891   8.512  1.00  0.00     0.014 A 
ATOM     38  C   UNL     1      -4.424   0.793   9.448  1.00  0.00     0.014 A 
ATOM     39  C   UNL     1      -1.661   0.963   9.139  1.00  0.00     0.010 A 
ATOM     40  C   UNL     1      -3.589  -0.001  10.238  1.00  0.00     0.010 A 
ATOM     41  C   UNL     1      -2.199   0.026  10.040  1.00  0.00    -0.014 A 
BRANCH  41  42
ATOM     42  C   UNL     1      -1.265  -0.881  10.760  1.00  0.00     0.031 A 
ATOM     43  C   UNL     1      -1.415  -2.379  10.714  1.00  0.00     0.074 A 
ATOM     44  C   UNL     1      -0.221  -0.322  11.406  1.00  0.00     0.049 A 
ATOM     45  N   UNL     1      -0.706  -3.289  11.332  1.00  0.00    -0.248 NA
ATOM     46  C   UNL     1      -2.501  -2.935   9.889  1.00  0.00     0.031 C 
ATOM     47  C   UNL     1       0.030   1.120  11.492  1.00  0.00     0.029 A 
ATOM     48  N   UNL     1       0.846  -0.875  12.064  1.00  0.00    -0.354 N 
ATOM     49  C   UNL     1      -1.285  -4.514  11.015  1.00  0.00     0.074 A 
ATOM     50  C   UNL     1      -2.415  -4.232  10.158  1.00  0.00     0.031 C 
ATOM     51  C   UNL     1       1.225   1.331  12.046  1.00  0.00     0.029 A 
ATOM     52  C   UNL     1       1.755   0.057  12.511  1.00  0.00     0.049 A 
ATOM     53  H   UNL     1       0.953  -1.844  12.204  1.00  0.00     0.167 HD
ATOM     54  C   UNL     1      -0.899  -5.753  11.405  1.00  0.00     0.034 A 
ATOM     55  C   UNL     1       2.870  -0.078  13.254  1.00  0.00     0.034 A 
ATOM     56  C   UNL     1       0.265  -6.002  12.221  1.00  0.00     0.049 A 
ATOM     57  C   UNL     1       3.261  -1.458  13.690  1.00  0.00     0.074 A 
ATOM     58  C   UNL     1       0.756  -7.218  12.661  1.00  0.00     0.029 A 
ATOM     59  N   UNL     1       1.129  -5.027  12.704  1.00  0.00    -0.354 N 
ATOM     60  N   UNL     1       2.686  -2.602  13.402  1.00  0.00    -0.248 NA
ATOM     61  C   UNL     1       4.432  -1.574  14.564  1.00  0.00     0.031 C 
ATOM     62  C   UNL     1       1.875  -6.976  13.457  1.00  0.00     0.029 A 
ATOM     63  C   UNL     1       2.134  -5.614  13.456  1.00  0.00     0.049 A 
ATOM     64  H   UNL     1       1.041  -4.061  12.536  1.00  0.00     0.167 HD
ATOM     65  C   UNL     1       3.427  -3.577  14.056  1.00  0.00     0.074 A 
ATOM     66  C   UNL     1       4.514  -2.889  14.725  1.00  0.00     0.031 C 
ATOM     67  C   UNL     1       3.217  -4.916  14.110  1.00  0.00     0.034 A 
BRANCH  54  68
ATOM     68  C   UNL     1      -1.718  -6.949  10.976  1.00  0.00     0.023 A 
ATOM     69  C   UNL     1      -2.340  -7.758  11.949  1.00  0.00     0.031 A 
ATOM     70  C   UNL     1      -1.772  -7.370   9.636  1.00  0.00     0.131 A 
ATOM     71  C   UNL     1      -2.955  -8.960  11.573  1.00  0.00     0.055 A 
ATOM     72  C   UNL     1      -2.425  -8.547   9.261  1.00  0.00     0.041 A 
ATOM     73  F   UNL     1      -1.194  -6.640   8.669  1.00  0.00    -0.206 F 
ATOM     74  C   UNL     1      -3.007  -9.355  10.233  1.00  0.00     0.022 A 
BRANCH  71  75
ATOM     75  S   UNL     1      -3.645 -10.092  12.812  1.00  0.00     0.124 S 
ATOM     76  O   UNL     1      -5.047 -10.163  12.405  1.00  0.00    -0.237 OA
ATOM     77  O   UNL     1      -2.868 -11.307  12.583  1.00  0.00    -0.237 OA
ATOM     78  O   UNL     1      -3.401  -9.416  14.081  1.00  0.00    -0.744 OA
ENDBRANCH  71  75
ENDBRANCH  54  68
BRANCH  55  79
ATOM     79  C   UNL     1       3.660   1.141  13.598  1.00  0.00     0.023 A 
ATOM     80  C   UNL     1       3.066   2.213  14.293  1.00  0.00     0.031 A 
ATOM     81  C   UNL     1       4.958   1.320  13.096  1.00  0.00     0.131 A 
ATOM     82  C   UNL     1       3.722   3.447  14.367  1.00  0.00     0.055 A 
ATOM     83  C   UNL     1       5.646   2.525  13.254  1.00  0.00     0.041 A 
ATOM     84  F   UNL     1       5.563   0.334  12.417  1.00  0.00    -0.206 F 
ATOM     85  C   UNL     1       5.018   3.605  13.867  1.00  0.00     0.022 A 
BRANCH  82  86
ATOM     86  S   UNL     1       2.844   4.930  14.940  1.00  0.00     0.124 S 
ATOM     87  O   UNL     1       3.626   5.312  16.111  1.00  0.00    -0.237 OA
ATOM     88  O   UNL     1       2.964   5.815  13.783  1.00  0.00    -0.237 OA
ATOM     89  O   UNL     1       1.494   4.448  15.210  1.00  0.00    -0.744 OA
ENDBRANCH  82  86
ENDBRANCH  55  79
BRANCH  67  90
ATOM     90  C   UNL     1       4.176  -5.753  14.917  1.00  0.00     0.023 A 
ATOM     91  C   UNL     1       4.960  -6.732  14.280  1.00  0.00     0.031 A 
ATOM     92  C   UNL     1       4.200  -5.685  16.321  1.00  0.00     0.131 A 
ATOM     93  C   UNL     1       5.701  -7.637  15.049  1.00  0.00     0.055 A 
ATOM     94  C   UNL     1       4.981  -6.556  17.080  1.00  0.00     0.041 A 
ATOM     95  F   UNL     1       3.463  -4.772  16.972  1.00  0.00    -0.206 F 
ATOM     96  C   UNL     1       5.723  -7.548  16.445  1.00  0.00     0.022 A 
BRANCH  93  97
ATOM     97  S   UNL     1       6.585  -9.016  14.272  1.00  0.00     0.124 S 
ATOM     98  O   UNL     1       7.965  -8.755  14.675  1.00  0.00    -0.237 OA
ATOM     99  O   UNL     1       5.960 -10.175  14.903  1.00  0.00    -0.237 OA
ATOM    100  O   UNL     1       6.313  -8.853  12.848  1.00  0.00    -0.744 OA
ENDBRANCH  93  97
ENDBRANCH  67  90
ENDBRANCH  41  42
ENDBRANCH  33  36
ENDBRANCH  31  32
ENDBRANCH  30  31
ENDBRANCH   1  30
TORSDOF 15
