REMARK SMILES CN(CC(C)(C)O)C(=O)N1CCCC[C@H]1CC(=O)NCCCNC(=O)c1ccc(-c2c3nc(c(-c4cc(S(=O)(=O)[O-])ccc4F)c4ccc([nH]4)c(-c4cc(S(=O)(=O)[O-])ccc4F)c4nc(c(-c5cc(S(=O)(=O)[O-])ccc5F)c5ccc2[nH]5)C=C4)C=C3)cc1
REMARK SMILES IDX 17 1 18 2 19 3 16 5 15 6 10 7 11 8 12 9 14 10 13 11 8 12
REMARK SMILES IDX 9 13 2 14 1 15 3 16 4 17 5 18 6 19 7 20 20 22 21 23 22 24
REMARK SMILES IDX 23 25 24 26 25 28 26 29 27 30 88 31 28 32 87 33 29 34 30 35
REMARK SMILES IDX 31 36 81 37 32 38 86 39 80 40 82 41 33 42 85 43 79 44 78 45
REMARK SMILES IDX 34 47 66 48 46 49 65 50 47 51 50 52 64 53 83 54 48 55 49 56
REMARK SMILES IDX 63 58 84 59 51 60 35 61 36 62 44 63 37 64 43 65 45 66 42 67
REMARK SMILES IDX 38 68 39 69 40 70 41 71 67 72 68 73 76 74 69 75 75 76 77 77
REMARK SMILES IDX 74 78 70 79 71 80 72 81 73 82 52 83 53 84 61 85 54 86 60 87
REMARK SMILES IDX 62 88 59 89 55 90 56 91 57 92 58 93
REMARK H PARENT 19 4 7 21 23 27 82 46 50 57
REMARK Flexibility Score: inf
ROOT
ATOM      1  C   UNL     1      -0.129  -1.278  -4.979  1.00  0.00     0.222 C 
ATOM      2  O   UNL     1      -1.133  -1.996  -4.979  1.00  0.00    -0.275 OA
ATOM      3  N   UNL     1       1.021  -1.788  -4.454  1.00  0.00    -0.356 N 
ATOM      4  H   UNL     1       0.939  -2.703  -4.100  1.00  0.00     0.163 HD
ENDROOT
BRANCH   1   5
ATOM      5  C   UNL     1      -0.208   0.135  -5.516  1.00  0.00     0.125 C 
BRANCH   5   6
ATOM      6  C   UNL     1      -0.692   1.162  -4.469  1.00  0.00     0.096 C 
ATOM      7  N   UNL     1       0.359   1.657  -3.570  1.00  0.00    -0.321 N 
ATOM      8  C   UNL     1       1.407   2.442  -4.247  1.00  0.00     0.121 C 
ATOM      9  C   UNL     1       0.832   3.635  -5.009  1.00  0.00     0.022 C 
ATOM     10  C   UNL     1      -1.350   2.390  -5.138  1.00  0.00     0.026 C 
ATOM     11  C   UNL     1      -0.333   3.228  -5.910  1.00  0.00     0.004 C 
BRANCH   7  12
ATOM     12  C   UNL     1       0.235   1.857  -2.200  1.00  0.00     0.320 C 
ATOM     13  O   UNL     1       0.769   2.850  -1.692  1.00  0.00    -0.248 OA
BRANCH  12  14
ATOM     14  N   UNL     1      -0.353   0.901  -1.374  1.00  0.00    -0.325 N 
ATOM     15  C   UNL     1      -0.047   1.092   0.047  1.00  0.00     0.148 C 
BRANCH  14  16
ATOM     16  C   UNL     1      -0.912  -0.423  -1.698  1.00  0.00     0.155 C 
BRANCH  16  17
ATOM     17  C   UNL     1      -2.441  -0.616  -1.458  1.00  0.00     0.077 C 
ATOM     18  C   UNL     1      -3.344   0.274  -2.316  1.00  0.00     0.043 C 
ATOM     19  C   UNL     1      -2.799  -2.086  -1.722  1.00  0.00     0.043 C 
BRANCH  17  20
ATOM     20  O   UNL     1      -2.767  -0.357  -0.088  1.00  0.00    -0.389 OA
ATOM     21  H   UNL     1      -2.556   0.566   0.125  1.00  0.00     0.211 HD
ENDBRANCH  17  20
ENDBRANCH  16  17
ENDBRANCH  14  16
ENDBRANCH  12  14
ENDBRANCH   7  12
ENDBRANCH   5   6
ENDBRANCH   1   5
BRANCH   3  22
ATOM     22  C   UNL     1       2.351  -1.207  -4.329  1.00  0.00     0.117 C 
BRANCH  22  23
ATOM     23  C   UNL     1       2.666  -0.690  -2.925  1.00  0.00     0.042 C 
BRANCH  23  24
ATOM     24  C   UNL     1       2.841  -1.761  -1.853  1.00  0.00     0.118 C 
BRANCH  24  25
ATOM     25  N   UNL     1       4.193  -2.287  -1.851  1.00  0.00    -0.352 N 
ATOM     26  C   UNL     1       5.240  -2.040  -0.995  1.00  0.00     0.251 C 
ATOM     27  H   UNL     1       4.393  -2.921  -2.578  1.00  0.00     0.163 HD
ATOM     28  O   UNL     1       6.375  -2.309  -1.386  1.00  0.00    -0.269 OA
BRANCH  26  29
ATOM     29  C   UNL     1       5.048  -1.476   0.369  1.00  0.00     0.039 A 
ATOM     30  C   UNL     1       6.061  -0.666   0.898  1.00  0.00     0.014 A 
ATOM     31  C   UNL     1       3.968  -1.825   1.186  1.00  0.00     0.014 A 
ATOM     32  C   UNL     1       5.988  -0.203   2.219  1.00  0.00     0.010 A 
ATOM     33  C   UNL     1       3.865  -1.311   2.487  1.00  0.00     0.010 A 
ATOM     34  C   UNL     1       4.884  -0.510   3.028  1.00  0.00    -0.014 A 
BRANCH  34  35
ATOM     35  C   UNL     1       4.811  -0.028   4.441  1.00  0.00     0.031 A 
ATOM     36  C   UNL     1       4.838  -1.008   5.589  1.00  0.00     0.074 A 
ATOM     37  C   UNL     1       4.708   1.291   4.701  1.00  0.00     0.049 A 
ATOM     38  N   UNL     1       4.744  -0.782   6.877  1.00  0.00    -0.248 NA
ATOM     39  C   UNL     1       4.969  -2.429   5.241  1.00  0.00     0.031 C 
ATOM     40  C   UNL     1       4.661   2.348   3.689  1.00  0.00     0.029 A 
ATOM     41  N   UNL     1       4.621   1.971   5.893  1.00  0.00    -0.354 N 
ATOM     42  C   UNL     1       4.793  -2.030   7.491  1.00  0.00     0.074 A 
ATOM     43  C   UNL     1       4.872  -3.010   6.428  1.00  0.00     0.031 C 
ATOM     44  C   UNL     1       4.575   3.539   4.302  1.00  0.00     0.029 A 
ATOM     45  C   UNL     1       4.511   3.336   5.747  1.00  0.00     0.049 A 
ATOM     46  H   UNL     1       4.637   1.524   6.770  1.00  0.00     0.167 HD
ATOM     47  C   UNL     1       4.792  -2.332   8.815  1.00  0.00     0.034 A 
ATOM     48  C   UNL     1       4.356   4.313   6.664  1.00  0.00     0.034 A 
ATOM     49  C   UNL     1       4.722  -1.348   9.871  1.00  0.00     0.049 A 
ATOM     50  C   UNL     1       4.307   3.950   8.128  1.00  0.00     0.074 A 
ATOM     51  C   UNL     1       4.764  -1.549  11.241  1.00  0.00     0.029 A 
ATOM     52  N   UNL     1       4.585   0.021   9.680  1.00  0.00    -0.354 N 
ATOM     53  N   UNL     1       4.393   2.767   8.690  1.00  0.00    -0.248 NA
ATOM     54  C   UNL     1       4.148   5.057   9.081  1.00  0.00     0.031 C 
ATOM     55  C   UNL     1       4.575  -0.317  11.875  1.00  0.00     0.029 A 
ATOM     56  C   UNL     1       4.502   0.669  10.905  1.00  0.00     0.049 A 
ATOM     57  H   UNL     1       4.551   0.467   8.803  1.00  0.00     0.167 HD
ATOM     58  C   UNL     1       4.332   2.993  10.063  1.00  0.00     0.074 A 
ATOM     59  C   UNL     1       4.216   4.425  10.244  1.00  0.00     0.031 C 
ATOM     60  C   UNL     1       4.373   2.097  11.082  1.00  0.00     0.034 A 
BRANCH  47  61
ATOM     61  C   UNL     1       4.835  -3.795   9.199  1.00  0.00     0.023 A 
ATOM     62  C   UNL     1       5.931  -4.615   8.877  1.00  0.00     0.031 A 
ATOM     63  C   UNL     1       3.759  -4.382   9.888  1.00  0.00     0.131 A 
ATOM     64  C   UNL     1       5.894  -5.986   9.176  1.00  0.00     0.055 A 
ATOM     65  C   UNL     1       3.765  -5.729  10.258  1.00  0.00     0.041 A 
ATOM     66  F   UNL     1       2.675  -3.657  10.209  1.00  0.00    -0.206 F 
ATOM     67  C   UNL     1       4.830  -6.543   9.887  1.00  0.00     0.022 A 
BRANCH  64  68
ATOM     68  S   UNL     1       7.189  -7.058   8.493  1.00  0.00     0.124 S 
ATOM     69  O   UNL     1       7.052  -6.810   7.060  1.00  0.00    -0.237 OA
ATOM     70  O   UNL     1       8.397  -6.531   9.120  1.00  0.00    -0.237 OA
ATOM     71  O   UNL     1       6.793  -8.394   8.927  1.00  0.00    -0.744 OA
ENDBRANCH  64  68
ENDBRANCH  47  61
BRANCH  48  72
ATOM     72  C   UNL     1       4.209   5.735   6.234  1.00  0.00     0.023 A 
ATOM     73  C   UNL     1       5.158   6.706   6.594  1.00  0.00     0.031 A 
ATOM     74  C   UNL     1       3.086   6.153   5.498  1.00  0.00     0.131 A 
ATOM     75  C   UNL     1       4.943   8.052   6.258  1.00  0.00     0.055 A 
ATOM     76  C   UNL     1       2.907   7.483   5.115  1.00  0.00     0.041 A 
ATOM     77  F   UNL     1       2.147   5.267   5.130  1.00  0.00    -0.206 F 
ATOM     78  C   UNL     1       3.833   8.445   5.508  1.00  0.00     0.022 A 
BRANCH  75  79
ATOM     79  S   UNL     1       6.093   9.301   6.898  1.00  0.00     0.124 S 
ATOM     80  O   UNL     1       5.988   9.091   8.338  1.00  0.00    -0.237 OA
ATOM     81  O   UNL     1       7.352   8.899   6.281  1.00  0.00    -0.237 OA
ATOM     82  O   UNL     1       5.535  10.560   6.408  1.00  0.00    -0.744 OA
ENDBRANCH  75  79
ENDBRANCH  48  72
BRANCH  60  83
ATOM     83  C   UNL     1       4.343   2.648  12.489  1.00  0.00     0.023 A 
ATOM     84  C   UNL     1       3.213   3.306  13.007  1.00  0.00     0.031 A 
ATOM     85  C   UNL     1       5.470   2.519  13.322  1.00  0.00     0.131 A 
ATOM     86  C   UNL     1       3.254   3.857  14.298  1.00  0.00     0.055 A 
ATOM     87  C   UNL     1       5.482   3.015  14.627  1.00  0.00     0.041 A 
ATOM     88  F   UNL     1       6.579   1.904  12.881  1.00  0.00    -0.206 F 
ATOM     89  C   UNL     1       4.375   3.700  15.117  1.00  0.00     0.022 A 
BRANCH  86  90
ATOM     90  S   UNL     1       1.854   4.864  14.863  1.00  0.00     0.124 S 
ATOM     91  O   UNL     1       1.810   5.916  13.853  1.00  0.00    -0.237 OA
ATOM     92  O   UNL     1       0.751   3.909  14.837  1.00  0.00    -0.237 OA
ATOM     93  O   UNL     1       2.262   5.302  16.197  1.00  0.00    -0.744 OA
ENDBRANCH  86  90
ENDBRANCH  60  83
ENDBRANCH  34  35
ENDBRANCH  26  29
ENDBRANCH  24  25
ENDBRANCH  23  24
ENDBRANCH  22  23
ENDBRANCH   3  22
TORSDOF 19
