REMARK SMILES O=C(CCN/C(=[NH+]\S(=O)(=O)c1ccccc1)c1ccccc1)NCCCNC(=O)c1ccc(-c2c3nc(c(-c4cc(S(=O)(=O)[O-])ccc4F)c4ccc([nH]4)c(-c4cc(S(=O)(=O)[O-])ccc4F)c4nc(c(-c5cc(S(=O)(=O)[O-])ccc5F)c5ccc2[nH]5)C=C4)C=C3)cc1
REMARK SMILES IDX 24 1 23 2 1 3 2 4 3 6 4 7 5 8 6 9 7 11 17 13 18 14 22 15
REMARK SMILES IDX 19 16 21 17 20 18 8 19 9 20 10 21 11 22 12 23 16 24 13 25
REMARK SMILES IDX 15 26 14 27 25 28 26 29 27 30 28 31 29 33 30 34 31 35 92 36
REMARK SMILES IDX 32 37 91 38 33 39 34 40 35 41 85 42 36 43 90 44 84 45 86 46
REMARK SMILES IDX 37 47 89 48 83 49 82 50 38 52 70 53 50 54 69 55 51 56 54 57
REMARK SMILES IDX 68 58 87 59 52 60 53 61 67 63 88 64 55 65 39 66 40 67 48 68
REMARK SMILES IDX 41 69 47 70 49 71 46 72 42 73 43 74 44 75 45 76 71 77 72 78
REMARK SMILES IDX 80 79 73 80 79 81 81 82 78 83 74 84 75 85 76 86 77 87 56 88
REMARK SMILES IDX 57 89 65 90 58 91 64 92 66 93 63 94 59 95 60 96 61 97 62 98
REMARK H PARENT 23 5 5 10 7 12 27 32 86 51 54 62
REMARK Flexibility Score: inf
ROOT
ATOM      1  C   UNL     1       2.032  -0.079   2.415  1.00  0.00     0.117 C 
ENDROOT
BRANCH   1   2
ATOM      2  N   UNL     1       2.795  -0.203   1.190  1.00  0.00    -0.356 N 
ATOM      3  O   UNL     1       1.071   0.347  -0.231  1.00  0.00    -0.275 OA
ATOM      4  C   UNL     1       2.245   0.041  -0.046  1.00  0.00     0.223 C 
ATOM      5  H   UNL     1       3.741  -0.472   1.244  1.00  0.00     0.163 HD
BRANCH   4   6
ATOM      6  C   UNL     1       3.228  -0.034  -1.186  1.00  0.00     0.145 C 
BRANCH   6   7
ATOM      7  C   UNL     1       3.815   1.345  -1.455  1.00  0.00     0.243 C 
BRANCH   7   8
ATOM      8  N   UNL     1       4.831   1.698  -0.474  1.00  0.00    -0.273 N 
ATOM      9  C   UNL     1       6.202   1.542  -0.573  1.00  0.00     0.290 C 
ATOM     10  H   UNL     1       4.501   2.096   0.363  1.00  0.00     0.305 HD
ATOM     11  N   UNL     1       7.013   1.327   0.418  1.00  0.00    -0.162 N 
ATOM     12  H   UNL     1       7.986   1.332   0.268  1.00  0.00     0.327 HD
BRANCH   9  13
ATOM     13  C   UNL     1       6.846   1.644  -1.923  1.00  0.00     0.064 A 
ATOM     14  C   UNL     1       7.832   0.726  -2.293  1.00  0.00     0.016 A 
ATOM     15  C   UNL     1       6.450   2.647  -2.816  1.00  0.00     0.016 A 
ATOM     16  C   UNL     1       8.390   0.786  -3.572  1.00  0.00     0.001 A 
ATOM     17  C   UNL     1       7.002   2.697  -4.096  1.00  0.00     0.001 A 
ATOM     18  C   UNL     1       7.967   1.764  -4.474  1.00  0.00     0.000 A 
ENDBRANCH   9  13
BRANCH  11  19
ATOM     19  S   UNL     1       6.426   1.052   1.901  1.00  0.00     0.328 S 
ATOM     20  O   UNL     1       5.578   2.164   2.292  1.00  0.00    -0.179 OA
ATOM     21  O   UNL     1       5.844  -0.282   1.890  1.00  0.00    -0.179 OA
BRANCH  19  22
ATOM     22  C   UNL     1       7.830   1.034   2.991  1.00  0.00     0.109 A 
ATOM     23  C   UNL     1       8.348  -0.185   3.441  1.00  0.00     0.024 A 
ATOM     24  C   UNL     1       8.331   2.243   3.486  1.00  0.00     0.024 A 
ATOM     25  C   UNL     1       9.370  -0.191   4.393  1.00  0.00     0.001 A 
ATOM     26  C   UNL     1       9.356   2.228   4.435  1.00  0.00     0.001 A 
ATOM     27  C   UNL     1       9.870   1.013   4.890  1.00  0.00     0.000 A 
ENDBRANCH  19  22
ENDBRANCH  11  19
ENDBRANCH   7   8
ENDBRANCH   6   7
ENDBRANCH   4   6
ENDBRANCH   1   2
BRANCH   1  28
ATOM     28  C   UNL     1       2.146  -1.304   3.316  1.00  0.00     0.042 C 
BRANCH  28  29
ATOM     29  C   UNL     1       3.556  -1.626   3.802  1.00  0.00     0.118 C 
BRANCH  29  30
ATOM     30  N   UNL     1       4.194  -0.530   4.514  1.00  0.00    -0.352 N 
ATOM     31  C   UNL     1       5.082  -0.570   5.560  1.00  0.00     0.251 C 
ATOM     32  H   UNL     1       3.954   0.372   4.200  1.00  0.00     0.163 HD
ATOM     33  O   UNL     1       5.459   0.479   6.075  1.00  0.00    -0.269 OA
BRANCH  31  34
ATOM     34  C   UNL     1       5.552  -1.869   6.093  1.00  0.00     0.039 A 
ATOM     35  C   UNL     1       5.564  -2.049   7.479  1.00  0.00     0.014 A 
ATOM     36  C   UNL     1       5.979  -2.899   5.250  1.00  0.00     0.014 A 
ATOM     37  C   UNL     1       5.936  -3.284   8.015  1.00  0.00     0.010 A 
ATOM     38  C   UNL     1       6.297  -4.148   5.784  1.00  0.00     0.010 A 
ATOM     39  C   UNL     1       6.269  -4.356   7.171  1.00  0.00    -0.014 A 
BRANCH  39  40
ATOM     40  C   UNL     1       6.545  -5.703   7.737  1.00  0.00     0.031 A 
ATOM     41  C   UNL     1       7.916  -6.313   7.640  1.00  0.00     0.074 A 
ATOM     42  C   UNL     1       5.538  -6.393   8.309  1.00  0.00     0.049 A 
ATOM     43  N   UNL     1       8.338  -7.473   8.077  1.00  0.00    -0.248 NA
ATOM     44  C   UNL     1       8.939  -5.526   6.938  1.00  0.00     0.031 C 
ATOM     45  C   UNL     1       4.152  -5.928   8.414  1.00  0.00     0.029 A 
ATOM     46  N   UNL     1       5.518  -7.628   8.906  1.00  0.00    -0.354 N 
ATOM     47  C   UNL     1       9.675  -7.558   7.704  1.00  0.00     0.074 A 
ATOM     48  C   UNL     1       9.972  -6.356   6.951  1.00  0.00     0.031 C 
ATOM     49  C   UNL     1       3.427  -6.851   9.064  1.00  0.00     0.029 A 
ATOM     50  C   UNL     1       4.282  -7.988   9.390  1.00  0.00     0.049 A 
ATOM     51  H   UNL     1       6.315  -8.202   8.982  1.00  0.00     0.167 HD
ATOM     52  C   UNL     1      10.574  -8.536   7.982  1.00  0.00     0.034 A 
ATOM     53  C   UNL     1       3.880  -9.107  10.023  1.00  0.00     0.034 A 
ATOM     54  C   UNL     1      10.258  -9.730   8.731  1.00  0.00     0.049 A 
ATOM     55  C   UNL     1       4.895 -10.181  10.317  1.00  0.00     0.074 A 
ATOM     56  C   UNL     1      11.102 -10.762   9.108  1.00  0.00     0.029 A 
ATOM     57  N   UNL     1       8.996 -10.061   9.212  1.00  0.00    -0.354 N 
ATOM     58  N   UNL     1       6.172 -10.219  10.011  1.00  0.00    -0.248 NA
ATOM     59  C   UNL     1       4.418 -11.353  11.060  1.00  0.00     0.031 C 
ATOM     60  C   UNL     1      10.341 -11.742   9.755  1.00  0.00     0.029 A 
ATOM     61  C   UNL     1       9.035 -11.291   9.855  1.00  0.00     0.049 A 
ATOM     62  H   UNL     1       8.191  -9.504   9.110  1.00  0.00     0.167 HD
ATOM     63  C   UNL     1       6.656 -11.407  10.552  1.00  0.00     0.074 A 
ATOM     64  C   UNL     1       5.538 -12.041  11.221  1.00  0.00     0.031 C 
ATOM     65  C   UNL     1       7.910 -11.925  10.503  1.00  0.00     0.034 A 
BRANCH  52  66
ATOM     66  C   UNL     1      11.976  -8.361   7.446  1.00  0.00     0.023 A 
ATOM     67  C   UNL     1      12.792  -7.288   7.850  1.00  0.00     0.031 A 
ATOM     68  C   UNL     1      12.499  -9.262   6.501  1.00  0.00     0.131 A 
ATOM     69  C   UNL     1      14.050  -7.100   7.257  1.00  0.00     0.055 A 
ATOM     70  C   UNL     1      13.786  -9.116   5.976  1.00  0.00     0.041 A 
ATOM     71  F   UNL     1      11.763 -10.294   6.060  1.00  0.00    -0.206 F 
ATOM     72  C   UNL     1      14.563  -8.021   6.342  1.00  0.00     0.022 A 
BRANCH  69  73
ATOM     73  S   UNL     1      14.941  -5.555   7.588  1.00  0.00     0.124 S 
ATOM     74  O   UNL     1      13.981  -4.555   7.127  1.00  0.00    -0.237 OA
ATOM     75  O   UNL     1      15.156  -5.618   9.029  1.00  0.00    -0.237 OA
ATOM     76  O   UNL     1      16.147  -5.673   6.771  1.00  0.00    -0.744 OA
ENDBRANCH  69  73
ENDBRANCH  52  66
BRANCH  53  77
ATOM     77  C   UNL     1       2.456  -9.274  10.430  1.00  0.00     0.023 A 
ATOM     78  C   UNL     1       2.093  -9.346  11.784  1.00  0.00     0.031 A 
ATOM     79  C   UNL     1       1.440  -9.404   9.467  1.00  0.00     0.131 A 
ATOM     80  C   UNL     1       0.758  -9.592  12.139  1.00  0.00     0.055 A 
ATOM     81  C   UNL     1       0.104  -9.595   9.826  1.00  0.00     0.041 A 
ATOM     82  F   UNL     1       1.731  -9.334   8.158  1.00  0.00    -0.206 F 
ATOM     83  C   UNL     1      -0.241  -9.704  11.169  1.00  0.00     0.022 A 
BRANCH  80  84
ATOM     84  S   UNL     1       0.358  -9.847  13.890  1.00  0.00     0.124 S 
ATOM     85  O   UNL     1       1.215 -10.977  14.230  1.00  0.00    -0.237 OA
ATOM     86  O   UNL     1       0.727  -8.562  14.475  1.00  0.00    -0.237 OA
ATOM     87  O   UNL     1      -1.075 -10.133  13.873  1.00  0.00    -0.744 OA
ENDBRANCH  80  84
ENDBRANCH  53  77
BRANCH  65  88
ATOM     88  C   UNL     1       8.135 -13.229  11.233  1.00  0.00     0.023 A 
ATOM     89  C   UNL     1       7.498 -14.419  10.838  1.00  0.00     0.031 A 
ATOM     90  C   UNL     1       8.963 -13.270  12.369  1.00  0.00     0.131 A 
ATOM     91  C   UNL     1       7.636 -15.579  11.616  1.00  0.00     0.055 A 
ATOM     92  C   UNL     1       9.151 -14.445  13.100  1.00  0.00     0.041 A 
ATOM     93  F   UNL     1       9.596 -12.165  12.795  1.00  0.00    -0.206 F 
ATOM     94  C   UNL     1       8.471 -15.603  12.735  1.00  0.00     0.022 A 
BRANCH  91  95
ATOM     95  S   UNL     1       6.611 -17.022  11.217  1.00  0.00     0.124 S 
ATOM     96  O   UNL     1       5.265 -16.459  11.258  1.00  0.00    -0.237 OA
ATOM     97  O   UNL     1       7.104 -17.398   9.896  1.00  0.00    -0.237 OA
ATOM     98  O   UNL     1       6.920 -17.969  12.286  1.00  0.00    -0.744 OA
ENDBRANCH  91  95
ENDBRANCH  65  88
ENDBRANCH  39  40
ENDBRANCH  31  34
ENDBRANCH  29  30
ENDBRANCH  28  29
ENDBRANCH   1  28
TORSDOF 18
