REMARK SMILES CCCCOc1ccc(-c2nc(C)c(C(=O)NCCCNC(=O)c3ccc(-c4c5nc(c(-c6cc(S(=O)(=O)[O-])ccc6F)c6ccc([nH]6)c(-c6cc(S(=O)(=O)[O-])ccc6F)c6nc(c(-c7cc(S(=O)(=O)[O-])ccc7F)c7ccc4[nH]7)C=C6)C=C5)cc3)s2)cc1
REMARK SMILES IDX 18 1 17 2 15 3 16 4 14 6 10 7 11 8 87 9 12 10 13 11 9 12
REMARK SMILES IDX 6 13 7 14 89 15 8 16 88 17 5 18 4 19 3 20 2 21 1 22 19 23
REMARK SMILES IDX 20 24 21 25 22 26 23 28 24 29 25 30 86 31 26 32 85 33 27 34
REMARK SMILES IDX 28 35 29 36 79 37 30 38 84 39 78 40 80 41 31 42 83 43 77 44
REMARK SMILES IDX 76 45 32 47 64 48 44 49 63 50 45 51 48 52 62 53 81 54 46 55
REMARK SMILES IDX 47 56 61 58 82 59 49 60 33 61 34 62 42 63 35 64 41 65 43 66
REMARK SMILES IDX 40 67 36 68 37 69 38 70 39 71 65 72 66 73 74 74 67 75 73 76
REMARK SMILES IDX 75 77 72 78 68 79 69 80 70 81 71 82 50 83 51 84 59 85 52 86
REMARK SMILES IDX 58 87 60 88 57 89 53 90 54 91 55 92 56 93
REMARK H PARENT 17 5 21 27 80 46 48 57
REMARK Flexibility Score: inf
ROOT
ATOM      1  C   UNL     1      -5.406  -4.432  -5.555  1.00  0.00     0.118 C 
ENDROOT
BRANCH   1   2
ATOM      2  N   UNL     1      -5.260  -5.085  -4.276  1.00  0.00    -0.351 N 
ATOM      3  C   UNL     1      -4.829  -4.665  -3.047  1.00  0.00     0.263 C 
ATOM      4  O   UNL     1      -4.874  -5.558  -2.190  1.00  0.00    -0.268 OA
ATOM      5  H   UNL     1      -5.527  -6.033  -4.291  1.00  0.00     0.163 HD
BRANCH   3   6
ATOM      6  C   UNL     1      -4.401  -3.308  -2.734  1.00  0.00     0.115 A 
ATOM      7  C   UNL     1      -3.744  -1.407  -1.321  1.00  0.00     0.124 A 
ATOM      8  N   UNL     1      -3.542  -1.130  -2.587  1.00  0.00    -0.241 NA
ATOM      9  S   UNL     1      -4.550  -2.882  -1.048  1.00  0.00    -0.108 S 
ATOM     10  C   UNL     1      -3.821  -2.227  -3.394  1.00  0.00     0.062 A 
ATOM     11  C   UNL     1      -3.359  -2.050  -4.794  1.00  0.00     0.068 C 
BRANCH   7  12
ATOM     12  C   UNL     1      -3.261  -0.561  -0.225  1.00  0.00     0.011 A 
ATOM     13  C   UNL     1      -1.912   1.035   1.629  1.00  0.00     0.119 A 
ATOM     14  C   UNL     1      -2.465   1.625   0.496  1.00  0.00     0.047 A 
ATOM     15  C   UNL     1      -2.135  -0.306   1.913  1.00  0.00     0.047 A 
ATOM     16  C   UNL     1      -3.132   0.823  -0.432  1.00  0.00     0.015 A 
ATOM     17  C   UNL     1      -2.782  -1.110   0.976  1.00  0.00     0.015 A 
BRANCH  13  18
ATOM     18  O   UNL     1      -1.123   1.742   2.489  1.00  0.00    -0.494 OA
BRANCH  18  19
ATOM     19  C   UNL     1       0.184   1.978   1.936  1.00  0.00     0.229 C 
BRANCH  19  20
ATOM     20  C   UNL     1       1.166   0.832   2.220  1.00  0.00     0.041 C 
BRANCH  20  21
ATOM     21  C   UNL     1       1.209  -0.324   1.209  1.00  0.00     0.000 C 
ATOM     22  C   UNL     1       1.422   0.097  -0.235  1.00  0.00     0.004 C 
ENDBRANCH  20  21
ENDBRANCH  19  20
ENDBRANCH  18  19
ENDBRANCH  13  18
ENDBRANCH   7  12
ENDBRANCH   3   6
ENDBRANCH   1   2
BRANCH   1  23
ATOM     23  C   UNL     1      -4.264  -4.826  -6.489  1.00  0.00     0.042 C 
BRANCH  23  24
ATOM     24  C   UNL     1      -4.470  -6.176  -7.168  1.00  0.00     0.118 C 
BRANCH  24  25
ATOM     25  N   UNL     1      -5.505  -6.109  -8.187  1.00  0.00    -0.352 N 
ATOM     26  C   UNL     1      -5.413  -6.256  -9.549  1.00  0.00     0.251 C 
ATOM     27  H   UNL     1      -6.412  -5.930  -7.847  1.00  0.00     0.163 HD
ATOM     28  O   UNL     1      -6.351  -5.881 -10.248  1.00  0.00    -0.269 OA
BRANCH  26  29
ATOM     29  C   UNL     1      -4.205  -6.844 -10.174  1.00  0.00     0.039 A 
ATOM     30  C   UNL     1      -3.765  -6.334 -11.399  1.00  0.00     0.014 A 
ATOM     31  C   UNL     1      -3.535  -7.925  -9.593  1.00  0.00     0.014 A 
ATOM     32  C   UNL     1      -2.629  -6.872 -12.012  1.00  0.00     0.010 A 
ATOM     33  C   UNL     1      -2.359  -8.408 -10.164  1.00  0.00     0.010 A 
ATOM     34  C   UNL     1      -1.897  -7.892 -11.384  1.00  0.00    -0.014 A 
BRANCH  34  35
ATOM     35  C   UNL     1      -0.655  -8.438 -11.991  1.00  0.00     0.031 A 
ATOM     36  C   UNL     1      -0.592  -9.881 -12.416  1.00  0.00     0.074 A 
ATOM     37  C   UNL     1       0.434  -7.651 -12.099  1.00  0.00     0.049 A 
ATOM     38  N   UNL     1       0.423 -10.565 -12.880  1.00  0.00    -0.248 NA
ATOM     39  C   UNL     1      -1.827 -10.664 -12.271  1.00  0.00     0.031 C 
ATOM     40  C   UNL     1       0.503  -6.246 -11.689  1.00  0.00     0.029 A 
ATOM     41  N   UNL     1       1.693  -7.918 -12.574  1.00  0.00    -0.354 N 
ATOM     42  C   UNL     1      -0.046 -11.861 -13.068  1.00  0.00     0.074 A 
ATOM     43  C   UNL     1      -1.420 -11.878 -12.611  1.00  0.00     0.031 C 
ATOM     44  C   UNL     1       1.731  -5.771 -11.949  1.00  0.00     0.029 A 
ATOM     45  C   UNL     1       2.552  -6.846 -12.498  1.00  0.00     0.049 A 
ATOM     46  H   UNL     1       1.957  -8.794 -12.937  1.00  0.00     0.167 HD
ATOM     47  C   UNL     1       0.602 -12.931 -13.592  1.00  0.00     0.034 A 
ATOM     48  C   UNL     1       3.858  -6.744 -12.816  1.00  0.00     0.034 A 
ATOM     49  C   UNL     1       1.969 -12.890 -14.054  1.00  0.00     0.049 A 
ATOM     50  C   UNL     1       4.566  -7.954 -13.371  1.00  0.00     0.074 A 
ATOM     51  C   UNL     1       2.707 -13.896 -14.655  1.00  0.00     0.029 A 
ATOM     52  N   UNL     1       2.809 -11.787 -13.958  1.00  0.00    -0.354 N 
ATOM     53  N   UNL     1       4.093  -9.160 -13.588  1.00  0.00    -0.248 NA
ATOM     54  C   UNL     1       5.979  -7.786 -13.732  1.00  0.00     0.031 C 
ATOM     55  C   UNL     1       4.009 -13.424 -14.858  1.00  0.00     0.029 A 
ATOM     56  C   UNL     1       4.065 -12.099 -14.457  1.00  0.00     0.049 A 
ATOM     57  H   UNL     1       2.550 -10.912 -13.590  1.00  0.00     0.167 HD
ATOM     58  C   UNL     1       5.146  -9.886 -14.138  1.00  0.00     0.074 A 
ATOM     59  C   UNL     1       6.271  -8.977 -14.234  1.00  0.00     0.031 C 
ATOM     60  C   UNL     1       5.181 -11.185 -14.531  1.00  0.00     0.034 A 
BRANCH  47  61
ATOM     61  C   UNL     1      -0.154 -14.238 -13.665  1.00  0.00     0.023 A 
ATOM     62  C   UNL     1      -1.318 -14.377 -14.443  1.00  0.00     0.031 A 
ATOM     63  C   UNL     1       0.279 -15.355 -12.928  1.00  0.00     0.131 A 
ATOM     64  C   UNL     1      -2.050 -15.573 -14.404  1.00  0.00     0.055 A 
ATOM     65  C   UNL     1      -0.408 -16.570 -12.960  1.00  0.00     0.041 A 
ATOM     66  F   UNL     1       1.371 -15.280 -12.152  1.00  0.00    -0.206 F 
ATOM     67  C   UNL     1      -1.589 -16.680 -13.688  1.00  0.00     0.022 A 
BRANCH  64  68
ATOM     68  S   UNL     1      -3.688 -15.611 -15.182  1.00  0.00     0.124 S 
ATOM     69  O   UNL     1      -4.380 -14.544 -14.464  1.00  0.00    -0.237 OA
ATOM     70  O   UNL     1      -3.378 -15.344 -16.582  1.00  0.00    -0.237 OA
ATOM     71  O   UNL     1      -4.172 -16.960 -14.897  1.00  0.00    -0.744 OA
ENDBRANCH  64  68
ENDBRANCH  47  61
BRANCH  48  72
ATOM     72  C   UNL     1       4.588  -5.461 -12.607  1.00  0.00     0.023 A 
ATOM     73  C   UNL     1       5.111  -4.742 -13.694  1.00  0.00     0.031 A 
ATOM     74  C   UNL     1       4.807  -4.953 -11.314  1.00  0.00     0.131 A 
ATOM     75  C   UNL     1       5.864  -3.580 -13.466  1.00  0.00     0.055 A 
ATOM     76  C   UNL     1       5.511  -3.768 -11.096  1.00  0.00     0.041 A 
ATOM     77  F   UNL     1       4.324  -5.598 -10.240  1.00  0.00    -0.206 F 
ATOM     78  C   UNL     1       6.056  -3.080 -12.176  1.00  0.00     0.022 A 
BRANCH  75  79
ATOM     79  S   UNL     1       6.663  -2.772 -14.880  1.00  0.00     0.124 S 
ATOM     80  O   UNL     1       7.490  -3.851 -15.409  1.00  0.00    -0.237 OA
ATOM     81  O   UNL     1       5.516  -2.384 -15.694  1.00  0.00    -0.237 OA
ATOM     82  O   UNL     1       7.396  -1.665 -14.270  1.00  0.00    -0.744 OA
ENDBRANCH  75  79
ENDBRANCH  48  72
BRANCH  60  83
ATOM     83  C   UNL     1       6.471 -11.681 -15.137  1.00  0.00     0.023 A 
ATOM     84  C   UNL     1       7.648 -11.799 -14.377  1.00  0.00     0.031 A 
ATOM     85  C   UNL     1       6.525 -12.028 -16.499  1.00  0.00     0.131 A 
ATOM     86  C   UNL     1       8.842 -12.199 -14.996  1.00  0.00     0.055 A 
ATOM     87  C   UNL     1       7.701 -12.484 -17.095  1.00  0.00     0.041 A 
ATOM     88  F   UNL     1       5.432 -11.931 -17.273  1.00  0.00    -0.206 F 
ATOM     89  C   UNL     1       8.872 -12.559 -16.346  1.00  0.00     0.022 A 
BRANCH  86  90
ATOM     90  S   UNL     1      10.379 -12.156 -14.034  1.00  0.00     0.124 S 
ATOM     91  O   UNL     1      10.454 -10.751 -13.646  1.00  0.00    -0.237 OA
ATOM     92  O   UNL     1      10.100 -13.101 -12.957  1.00  0.00    -0.237 OA
ATOM     93  O   UNL     1      11.395 -12.591 -14.991  1.00  0.00    -0.744 OA
ENDBRANCH  86  90
ENDBRANCH  60  83
ENDBRANCH  34  35
ENDBRANCH  26  29
ENDBRANCH  24  25
ENDBRANCH  23  24
ENDBRANCH   1  23
TORSDOF 18
