REMARK SMILES CC[N@@H+]1CCO[C@@H](Cn2cc(C(=O)NCCCNC(=O)c3ccc(-c4c5nc(c(-c6cc(S(=O)(=O)[O-])ccc6F)c6ccc([nH]6)c(-c6cc(S(=O)(=O)[O-])ccc6F)c6nc(c(-c7cc(S(=O)(=O)[O-])ccc7F)c7ccc4[nH]7)C=C6)C=C5)cc3)nn2)C1
REMARK SMILES IDX 16 1 15 2 14 3 12 4 13 5 11 7 9 8 10 9 85 10 84 11 8 12 7 13
REMARK SMILES IDX 3 14 4 15 86 16 5 18 6 19 2 20 1 21 17 22 18 23 19 24 20 26
REMARK SMILES IDX 21 27 22 28 83 29 23 30 82 31 24 32 25 33 26 34 76 35 27 36
REMARK SMILES IDX 81 37 75 38 77 39 28 40 80 41 74 42 73 43 29 45 61 46 41 47
REMARK SMILES IDX 60 48 42 49 45 50 59 51 78 52 43 53 44 54 58 56 79 57 46 58
REMARK SMILES IDX 30 59 31 60 39 61 32 62 38 63 40 64 37 65 33 66 34 67 35 68
REMARK SMILES IDX 36 69 62 70 63 71 71 72 64 73 70 74 72 75 69 76 65 77 66 78
REMARK SMILES IDX 67 79 68 80 47 81 48 82 56 83 49 84 55 85 57 86 54 87 50 88
REMARK SMILES IDX 51 89 52 90 53 91
REMARK H PARENT 14 6 3 17 18 25 77 44 45 55
REMARK Flexibility Score: inf
ROOT
ATOM      1  C   UNL     1      -5.369   1.695   1.040  1.00  0.00     0.042 C 
ENDROOT
BRANCH   1   2
ATOM      2  C   UNL     1      -4.472   0.760   0.220  1.00  0.00     0.118 C 
BRANCH   2   3
ATOM      3  N   UNL     1      -5.070   0.382  -1.049  1.00  0.00    -0.351 N 
ATOM      4  C   UNL     1      -4.871   0.871  -2.328  1.00  0.00     0.273 C 
ATOM      5  O   UNL     1      -5.379   0.256  -3.254  1.00  0.00    -0.267 OA
ATOM      6  H   UNL     1      -5.730  -0.346  -0.989  1.00  0.00     0.163 HD
BRANCH   4   7
ATOM      7  C   UNL     1      -4.038   2.051  -2.541  1.00  0.00     0.170 A 
ATOM      8  N   UNL     1      -2.776   3.798  -2.361  1.00  0.00    -0.249 N 
ATOM      9  C   UNL     1      -3.746   3.107  -1.703  1.00  0.00     0.145 A 
ATOM     10  N   UNL     1      -2.593   3.328  -3.600  1.00  0.00    -0.067 NA
ATOM     11  N   UNL     1      -3.366   2.258  -3.729  1.00  0.00    -0.125 NA
BRANCH   8  12
ATOM     12  C   UNL     1      -1.839   4.731  -1.784  1.00  0.00     0.184 C 
BRANCH  12  13
ATOM     13  C   UNL     1      -0.863   4.037  -0.826  1.00  0.00     0.194 C 
ATOM     14  N   UNL     1       1.085   2.411  -0.682  1.00  0.00    -0.331 N 
ATOM     15  C   UNL     1       1.800   3.498   0.012  1.00  0.00     0.291 C 
ATOM     16  C   UNL     1       0.049   3.011  -1.555  1.00  0.00     0.296 C 
ATOM     17  H   UNL     1       1.747   1.891  -1.257  1.00  0.00     0.348 HD
ATOM     18  C   UNL     1       0.866   4.482   0.730  1.00  0.00     0.222 C 
ATOM     19  O   UNL     1      -0.075   5.062  -0.185  1.00  0.00    -0.365 OA
BRANCH  14  20
ATOM     20  C   UNL     1       0.531   1.415   0.245  1.00  0.00     0.258 C 
ATOM     21  C   UNL     1       1.026   0.030  -0.147  1.00  0.00     0.071 C 
ENDBRANCH  14  20
ENDBRANCH  12  13
ENDBRANCH   8  12
ENDBRANCH   4   7
ENDBRANCH   2   3
ENDBRANCH   1   2
BRANCH   1  22
ATOM     22  C   UNL     1      -6.451   0.932   1.785  1.00  0.00     0.118 C 
BRANCH  22  23
ATOM     23  N   UNL     1      -5.918   0.130   2.893  1.00  0.00    -0.352 N 
ATOM     24  C   UNL     1      -6.607  -0.676   3.786  1.00  0.00     0.251 C 
ATOM     25  H   UNL     1      -4.942   0.171   3.019  1.00  0.00     0.163 HD
ATOM     26  O   UNL     1      -6.096  -0.981   4.858  1.00  0.00    -0.269 OA
BRANCH  24  27
ATOM     27  C   UNL     1      -7.954  -1.153   3.419  1.00  0.00     0.039 A 
ATOM     28  C   UNL     1      -8.983  -1.305   4.353  1.00  0.00     0.014 A 
ATOM     29  C   UNL     1      -8.182  -1.419   2.075  1.00  0.00     0.014 A 
ATOM     30  C   UNL     1     -10.253  -1.657   3.892  1.00  0.00     0.010 A 
ATOM     31  C   UNL     1      -9.459  -1.519   1.606  1.00  0.00     0.010 A 
ATOM     32  C   UNL     1     -10.482  -1.744   2.508  1.00  0.00    -0.014 A 
BRANCH  32  33
ATOM     33  C   UNL     1     -11.810  -1.936   1.940  1.00  0.00     0.031 A 
ATOM     34  C   UNL     1     -12.779  -0.902   2.375  1.00  0.00     0.074 A 
ATOM     35  C   UNL     1     -12.060  -2.796   0.924  1.00  0.00     0.049 A 
ATOM     36  N   UNL     1     -13.724  -1.043   3.240  1.00  0.00    -0.248 NA
ATOM     37  C   UNL     1     -12.540   0.500   1.988  1.00  0.00     0.031 C 
ATOM     38  C   UNL     1     -11.115  -3.651   0.195  1.00  0.00     0.029 A 
ATOM     39  N   UNL     1     -13.218  -3.012   0.245  1.00  0.00    -0.354 N 
ATOM     40  C   UNL     1     -14.387   0.177   3.269  1.00  0.00     0.074 A 
ATOM     41  C   UNL     1     -13.467   1.130   2.713  1.00  0.00     0.031 C 
ATOM     42  C   UNL     1     -11.684  -4.094  -0.950  1.00  0.00     0.029 A 
ATOM     43  C   UNL     1     -13.081  -3.694  -0.966  1.00  0.00     0.049 A 
ATOM     44  H   UNL     1     -14.092  -2.709   0.583  1.00  0.00     0.167 HD
ATOM     45  C   UNL     1     -15.735   0.227   3.466  1.00  0.00     0.034 A 
ATOM     46  C   UNL     1     -14.040  -3.894  -1.916  1.00  0.00     0.034 A 
ATOM     47  C   UNL     1     -16.227  -1.056   3.932  1.00  0.00     0.049 A 
ATOM     48  C   UNL     1     -15.345  -3.739  -1.220  1.00  0.00     0.074 A 
ATOM     49  C   UNL     1     -15.926  -1.872   5.007  1.00  0.00     0.029 A 
ATOM     50  N   UNL     1     -16.859  -1.872   3.017  1.00  0.00    -0.354 N 
ATOM     51  N   UNL     1     -15.745  -4.549  -0.276  1.00  0.00    -0.248 NA
ATOM     52  C   UNL     1     -15.935  -2.408  -1.181  1.00  0.00     0.031 C 
ATOM     53  C   UNL     1     -15.910  -3.193   4.466  1.00  0.00     0.029 A 
ATOM     54  C   UNL     1     -16.316  -3.129   3.131  1.00  0.00     0.049 A 
ATOM     55  H   UNL     1     -17.572  -1.602   2.393  1.00  0.00     0.167 HD
ATOM     56  C   UNL     1     -16.260  -3.723   0.712  1.00  0.00     0.074 A 
ATOM     57  C   UNL     1     -16.428  -2.420   0.063  1.00  0.00     0.031 C 
ATOM     58  C   UNL     1     -16.211  -4.075   2.033  1.00  0.00     0.034 A 
BRANCH  45  59
ATOM     59  C   UNL     1     -16.665   1.261   2.869  1.00  0.00     0.023 A 
ATOM     60  C   UNL     1     -18.031   1.135   3.184  1.00  0.00     0.031 A 
ATOM     61  C   UNL     1     -16.360   2.153   1.817  1.00  0.00     0.131 A 
ATOM     62  C   UNL     1     -19.015   1.763   2.403  1.00  0.00     0.055 A 
ATOM     63  C   UNL     1     -17.340   2.831   1.086  1.00  0.00     0.041 A 
ATOM     64  F   UNL     1     -15.117   2.357   1.368  1.00  0.00    -0.206 F 
ATOM     65  C   UNL     1     -18.679   2.610   1.353  1.00  0.00     0.022 A 
BRANCH  62  66
ATOM     66  S   UNL     1     -20.742   1.295   2.673  1.00  0.00     0.124 S 
ATOM     67  O   UNL     1     -20.681  -0.152   2.502  1.00  0.00    -0.237 OA
ATOM     68  O   UNL     1     -20.972   1.775   4.032  1.00  0.00    -0.237 OA
ATOM     69  O   UNL     1     -21.455   2.021   1.626  1.00  0.00    -0.744 OA
ENDBRANCH  62  66
ENDBRANCH  45  59
BRANCH  46  70
ATOM     70  C   UNL     1     -13.883  -3.845  -3.407  1.00  0.00     0.023 A 
ATOM     71  C   UNL     1     -14.857  -4.329  -4.317  1.00  0.00     0.031 A 
ATOM     72  C   UNL     1     -12.843  -3.068  -3.967  1.00  0.00     0.131 A 
ATOM     73  C   UNL     1     -14.762  -4.028  -5.703  1.00  0.00     0.055 A 
ATOM     74  C   UNL     1     -12.758  -2.772  -5.331  1.00  0.00     0.041 A 
ATOM     75  F   UNL     1     -11.912  -2.490  -3.192  1.00  0.00    -0.206 F 
ATOM     76  C   UNL     1     -13.723  -3.241  -6.204  1.00  0.00     0.022 A 
BRANCH  73  77
ATOM     77  S   UNL     1     -16.041  -4.585  -6.886  1.00  0.00     0.124 S 
ATOM     78  O   UNL     1     -15.826  -6.027  -6.922  1.00  0.00    -0.237 OA
ATOM     79  O   UNL     1     -17.275  -4.127  -6.257  1.00  0.00    -0.237 OA
ATOM     80  O   UNL     1     -15.693  -3.884  -8.123  1.00  0.00    -0.744 OA
ENDBRANCH  73  77
ENDBRANCH  46  70
BRANCH  58  81
ATOM     81  C   UNL     1     -15.847  -5.505   2.396  1.00  0.00     0.023 A 
ATOM     82  C   UNL     1     -14.647  -6.167   2.038  1.00  0.00     0.031 A 
ATOM     83  C   UNL     1     -16.723  -6.179   3.265  1.00  0.00     0.131 A 
ATOM     84  C   UNL     1     -14.374  -7.457   2.544  1.00  0.00     0.055 A 
ATOM     85  C   UNL     1     -16.438  -7.441   3.783  1.00  0.00     0.041 A 
ATOM     86  F   UNL     1     -17.867  -5.598   3.662  1.00  0.00    -0.206 F 
ATOM     87  C   UNL     1     -15.264  -8.088   3.420  1.00  0.00     0.022 A 
BRANCH  84  88
ATOM     88  S   UNL     1     -12.864  -8.359   2.059  1.00  0.00     0.124 S 
ATOM     89  O   UNL     1     -12.830  -8.212   0.609  1.00  0.00    -0.237 OA
ATOM     90  O   UNL     1     -11.821  -7.652   2.798  1.00  0.00    -0.237 OA
ATOM     91  O   UNL     1     -13.118  -9.723   2.527  1.00  0.00    -0.744 OA
ENDBRANCH  84  88
ENDBRANCH  58  81
ENDBRANCH  32  33
ENDBRANCH  24  27
ENDBRANCH  22  23
ENDBRANCH   1  22
TORSDOF 16
