REMARK SMILES O=C(NCCCNC(=O)c1ccccc1C[NH2+]C1CCCC1)c1ccc(-c2c3nc(c(-c4cc(S(=O)(=O)[O-])ccc4F)c4ccc([nH]4)c(-c4cc(S(=O)(=O)[O-])ccc4F)c4nc(c(-c5cc(S(=O)(=O)[O-])ccc5F)c5ccc2[nH]5)C=C4)C=C3)cc1
REMARK SMILES IDX 5 1 4 2 3 3 1 4 2 5 23 7 24 8 85 9 25 10 84 11 26 12 27 13
REMARK SMILES IDX 28 14 78 15 29 16 83 17 77 18 79 19 30 20 82 21 76 22 75 23
REMARK SMILES IDX 31 25 63 26 43 27 62 28 44 29 47 30 61 31 80 32 45 33 46 34
REMARK SMILES IDX 60 36 81 37 48 38 32 39 33 40 41 41 34 42 40 43 42 44 39 45
REMARK SMILES IDX 35 46 36 47 37 48 38 49 64 50 65 51 73 52 66 53 72 54 74 55
REMARK SMILES IDX 71 56 67 57 68 58 69 59 70 60 49 61 50 62 58 63 51 64 57 65
REMARK SMILES IDX 59 66 56 67 52 68 53 69 54 70 55 71 6 72 7 73 8 74 9 76
REMARK SMILES IDX 10 77 11 78 15 79 12 80 14 81 13 82 16 83 17 84 18 87 19 88
REMARK SMILES IDX 22 89 20 90 21 91
REMARK H PARENT 3 6 79 24 47 35 7 75 17 85 17 86
REMARK Flexibility Score: inf
ROOT
ATOM      1  C   UNL     1       5.435  -2.004  -0.120  1.00  0.00     0.042 C 
ENDROOT
BRANCH   1   2
ATOM      2  C   UNL     1       4.822  -0.769  -0.768  1.00  0.00     0.118 C 
BRANCH   2   3
ATOM      3  N   UNL     1       3.362  -0.720  -0.724  1.00  0.00    -0.352 N 
ATOM      4  O   UNL     1       1.295  -0.095  -0.070  1.00  0.00    -0.269 OA
ATOM      5  C   UNL     1       2.508   0.098  -0.014  1.00  0.00     0.251 C 
ATOM      6  H   UNL     1       2.912  -1.382  -1.296  1.00  0.00     0.163 HD
BRANCH   5   7
ATOM      7  C   UNL     1       3.049   1.172   0.849  1.00  0.00     0.039 A 
ATOM      8  C   UNL     1       4.107   1.964   0.415  1.00  0.00     0.014 A 
ATOM      9  C   UNL     1       2.527   1.357   2.133  1.00  0.00     0.014 A 
ATOM     10  C   UNL     1       4.814   2.724   1.336  1.00  0.00     0.010 A 
ATOM     11  C   UNL     1       3.156   2.241   3.019  1.00  0.00     0.010 A 
ATOM     12  C   UNL     1       4.354   2.874   2.655  1.00  0.00    -0.014 A 
BRANCH  12  13
ATOM     13  C   UNL     1       5.165   3.680   3.612  1.00  0.00     0.031 A 
ATOM     14  C   UNL     1       5.717   3.067   4.876  1.00  0.00     0.074 A 
ATOM     15  C   UNL     1       5.478   4.953   3.292  1.00  0.00     0.049 A 
ATOM     16  N   UNL     1       6.483   3.610   5.791  1.00  0.00    -0.248 NA
ATOM     17  C   UNL     1       5.350   1.673   5.162  1.00  0.00     0.031 C 
ATOM     18  C   UNL     1       5.001   5.661   2.100  1.00  0.00     0.029 A 
ATOM     19  N   UNL     1       6.303   5.861   3.905  1.00  0.00    -0.354 N 
ATOM     20  C   UNL     1       6.654   2.641   6.777  1.00  0.00     0.074 A 
ATOM     21  C   UNL     1       5.889   1.486   6.359  1.00  0.00     0.031 C 
ATOM     22  C   UNL     1       5.611   6.852   2.021  1.00  0.00     0.029 A 
ATOM     23  C   UNL     1       6.452   7.032   3.197  1.00  0.00     0.049 A 
ATOM     24  H   UNL     1       6.745   5.691   4.768  1.00  0.00     0.167 HD
ATOM     25  C   UNL     1       7.383   2.707   7.920  1.00  0.00     0.034 A 
ATOM     26  C   UNL     1       7.176   8.136   3.465  1.00  0.00     0.034 A 
ATOM     27  C   UNL     1       8.173   3.854   8.306  1.00  0.00     0.049 A 
ATOM     28  C   UNL     1       7.989   8.177   4.728  1.00  0.00     0.074 A 
ATOM     29  C   UNL     1       8.972   4.015   9.426  1.00  0.00     0.029 A 
ATOM     30  N   UNL     1       8.269   5.035   7.581  1.00  0.00    -0.354 N 
ATOM     31  N   UNL     1       8.127   7.254   5.651  1.00  0.00    -0.248 NA
ATOM     32  C   UNL     1       8.742   9.410   4.985  1.00  0.00     0.031 C 
ATOM     33  C   UNL     1       9.504   5.310   9.406  1.00  0.00     0.029 A 
ATOM     34  C   UNL     1       9.094   5.935   8.240  1.00  0.00     0.049 A 
ATOM     35  H   UNL     1       7.816   5.209   6.724  1.00  0.00     0.167 HD
ATOM     36  C   UNL     1       8.995   7.792   6.595  1.00  0.00     0.074 A 
ATOM     37  C   UNL     1       9.367   9.108   6.113  1.00  0.00     0.031 C 
ATOM     38  C   UNL     1       9.442   7.250   7.756  1.00  0.00     0.034 A 
BRANCH  25  39
ATOM     39  C   UNL     1       7.317   1.524   8.859  1.00  0.00     0.023 A 
ATOM     40  C   UNL     1       7.809   0.256   8.501  1.00  0.00     0.031 A 
ATOM     41  C   UNL     1       6.723   1.663  10.127  1.00  0.00     0.131 A 
ATOM     42  C   UNL     1       7.633  -0.835   9.368  1.00  0.00     0.055 A 
ATOM     43  C   UNL     1       6.620   0.591  11.016  1.00  0.00     0.041 A 
ATOM     44  F   UNL     1       6.217   2.843  10.518  1.00  0.00    -0.206 F 
ATOM     45  C   UNL     1       7.063  -0.671  10.633  1.00  0.00     0.022 A 
BRANCH  42  46
ATOM     46  S   UNL     1       8.027  -2.499   8.761  1.00  0.00     0.124 S 
ATOM     47  O   UNL     1       7.176  -2.592   7.577  1.00  0.00    -0.237 OA
ATOM     48  O   UNL     1       9.461  -2.412   8.511  1.00  0.00    -0.237 OA
ATOM     49  O   UNL     1       7.637  -3.370   9.868  1.00  0.00    -0.744 OA
ENDBRANCH  42  46
ENDBRANCH  25  39
BRANCH  26  50
ATOM     50  C   UNL     1       7.144   9.296   2.531  1.00  0.00     0.023 A 
ATOM     51  C   UNL     1       8.296   9.704   1.840  1.00  0.00     0.031 A 
ATOM     52  C   UNL     1       5.959  10.027   2.330  1.00  0.00     0.131 A 
ATOM     53  C   UNL     1       8.246  10.830   1.005  1.00  0.00     0.055 A 
ATOM     54  C   UNL     1       5.902  11.114   1.458  1.00  0.00     0.041 A 
ATOM     55  F   UNL     1       4.829   9.674   2.962  1.00  0.00    -0.206 F 
ATOM     56  C   UNL     1       7.054  11.529   0.798  1.00  0.00     0.022 A 
BRANCH  53  57
ATOM     57  S   UNL     1       9.783  11.414   0.240  1.00  0.00     0.124 S 
ATOM     58  O   UNL     1      10.623  11.659   1.407  1.00  0.00    -0.237 OA
ATOM     59  O   UNL     1      10.158  10.275  -0.592  1.00  0.00    -0.237 OA
ATOM     60  O   UNL     1       9.367  12.608  -0.492  1.00  0.00    -0.744 OA
ENDBRANCH  53  57
ENDBRANCH  26  50
BRANCH  38  61
ATOM     61  C   UNL     1      10.414   8.080   8.556  1.00  0.00     0.023 A 
ATOM     62  C   UNL     1      10.021   9.279   9.177  1.00  0.00     0.031 A 
ATOM     63  C   UNL     1      11.759   7.688   8.660  1.00  0.00     0.131 A 
ATOM     64  C   UNL     1      10.979  10.078   9.818  1.00  0.00     0.055 A 
ATOM     65  C   UNL     1      12.696   8.459   9.349  1.00  0.00     0.041 A 
ATOM     66  F   UNL     1      12.187   6.553   8.084  1.00  0.00    -0.206 F 
ATOM     67  C   UNL     1      12.311   9.669   9.919  1.00  0.00     0.022 A 
BRANCH  64  68
ATOM     68  S   UNL     1      10.481  11.713  10.427  1.00  0.00     0.124 S 
ATOM     69  O   UNL     1       9.954  12.340   9.219  1.00  0.00    -0.237 OA
ATOM     70  O   UNL     1       9.498  11.377  11.452  1.00  0.00    -0.237 OA
ATOM     71  O   UNL     1      11.728  12.286  10.929  1.00  0.00    -0.744 OA
ENDBRANCH  64  68
ENDBRANCH  38  61
ENDBRANCH  12  13
ENDBRANCH   5   7
ENDBRANCH   2   3
ENDBRANCH   1   2
BRANCH   1  72
ATOM     72  C   UNL     1       5.086  -3.309  -0.809  1.00  0.00     0.118 C 
BRANCH  72  73
ATOM     73  N   UNL     1       5.451  -3.336  -2.218  1.00  0.00    -0.352 N 
ATOM     74  C   UNL     1       5.841  -4.388  -3.004  1.00  0.00     0.251 C 
ATOM     75  H   UNL     1       5.411  -2.465  -2.676  1.00  0.00     0.163 HD
ATOM     76  O   UNL     1       6.093  -4.199  -4.192  1.00  0.00    -0.269 OA
BRANCH  74  77
ATOM     77  C   UNL     1       5.987  -5.750  -2.443  1.00  0.00     0.048 A 
ATOM     78  C   UNL     1       7.266  -6.315  -2.552  1.00  0.00     0.014 A 
ATOM     79  C   UNL     1       4.914  -6.487  -1.898  1.00  0.00     0.019 A 
ATOM     80  C   UNL     1       7.505  -7.600  -2.074  1.00  0.00     0.001 A 
ATOM     81  C   UNL     1       5.180  -7.779  -1.416  1.00  0.00     0.010 A 
ATOM     82  C   UNL     1       6.464  -8.328  -1.502  1.00  0.00     0.001 A 
BRANCH  79  83
ATOM     83  C   UNL     1       3.545  -5.883  -1.724  1.00  0.00     0.298 C 
BRANCH  83  84
ATOM     84  N   UNL     1       2.418  -6.671  -2.228  1.00  0.00    -0.340 N 
ATOM     85  H   UNL     1       2.401  -7.577  -1.760  1.00  0.00     0.346 HD
ATOM     86  H   UNL     1       2.522  -6.810  -3.233  1.00  0.00     0.346 HD
BRANCH  84  87
ATOM     87  C   UNL     1       1.161  -5.955  -1.958  1.00  0.00     0.182 C 
ATOM     88  C   UNL     1       1.071  -4.518  -2.491  1.00  0.00     0.065 C 
ATOM     89  C   UNL     1      -0.039  -6.610  -2.640  1.00  0.00     0.065 C 
ATOM     90  C   UNL     1      -0.414  -4.198  -2.436  1.00  0.00     0.006 C 
ATOM     91  C   UNL     1      -1.129  -5.537  -2.612  1.00  0.00     0.006 C 
ENDBRANCH  84  87
ENDBRANCH  83  84
ENDBRANCH  79  83
ENDBRANCH  74  77
ENDBRANCH  72  73
ENDBRANCH   1  72
TORSDOF 16
