REMARK SMILES COc1ccccc1[C@@H]1C[N@@H+](Cc2cc3c(cc2C)OCO3)C[C@H]1C(=O)NCCCNC(=O)c1ccc(-c2c3nc(c(-c4cc(S(=O)(=O)[O-])ccc4F)c4ccc([nH]4)c(-c4cc(S(=O)(=O)[O-])ccc4F)c4nc(c(-c5cc(S(=O)(=O)[O-])ccc5F)c5ccc2[nH]5)C=C4)C=C3)cc1
REMARK SMILES IDX 29 1 28 2 27 3 25 4 26 5 24 7 9 8 10 9 11 10 23 11 8 13 3 14
REMARK SMILES IDX 4 15 5 16 7 17 6 18 2 19 1 20 12 21 13 22 14 23 18 24 15 25
REMARK SMILES IDX 17 26 19 27 16 28 22 29 20 30 21 31 30 32 31 33 32 34 33 36
REMARK SMILES IDX 34 37 35 38 96 39 36 40 95 41 37 42 38 43 39 44 89 45 40 46
REMARK SMILES IDX 94 47 88 48 90 49 41 50 93 51 87 52 86 53 42 55 74 56 54 57
REMARK SMILES IDX 73 58 55 59 58 60 72 61 91 62 56 63 57 64 71 66 92 67 59 68
REMARK SMILES IDX 43 69 44 70 52 71 45 72 51 73 53 74 50 75 46 76 47 77 48 78
REMARK SMILES IDX 49 79 75 80 76 81 84 82 77 83 83 84 85 85 82 86 78 87 79 88
REMARK SMILES IDX 80 89 81 90 60 91 61 92 69 93 62 94 68 95 70 96 67 97 63 98
REMARK SMILES IDX 64 99 65 100 66 101
REMARK H PARENT 27 6 11 12 31 35 90 54 58 65
REMARK Flexibility Score: inf
ROOT
ATOM      1  C   UNL     1       6.481  -3.744   1.647  1.00  0.00     0.042 C 
ENDROOT
BRANCH   1   2
ATOM      2  C   UNL     1       4.958  -3.889   1.241  1.00  0.00     0.117 C 
BRANCH   2   3
ATOM      3  N   UNL     1       3.811  -3.058   1.775  1.00  0.00    -0.356 N 
ATOM      4  C   UNL     1       2.838  -2.141   1.500  1.00  0.00     0.229 C 
ATOM      5  O   UNL     1       1.826  -2.450   2.180  1.00  0.00    -0.275 OA
ATOM      6  H   UNL     1       3.734  -3.270   2.733  1.00  0.00     0.163 HD
BRANCH   4   7
ATOM      7  C   UNL     1       2.613  -0.786   0.674  1.00  0.00     0.146 C 
ATOM      8  C   UNL     1       2.574   0.514   1.549  1.00  0.00     0.096 C 
ATOM      9  C   UNL     1       2.883   1.693   0.606  1.00  0.00     0.272 C 
ATOM     10  N   UNL     1       3.689   1.155  -0.489  1.00  0.00    -0.330 N 
ATOM     11  C   UNL     1       3.248  -0.259  -0.634  1.00  0.00     0.276 C 
ATOM     12  H   UNL     1       3.543   1.563  -1.412  1.00  0.00     0.348 HD
BRANCH   8  13
ATOM     13  C   UNL     1       1.447   0.929   2.496  1.00  0.00     0.004 A 
ATOM     14  C   UNL     1       0.165   1.423   2.172  1.00  0.00     0.122 A 
ATOM     15  C   UNL     1      -0.641   2.011   3.172  1.00  0.00     0.047 A 
ATOM     16  C   UNL     1      -0.189   2.169   4.479  1.00  0.00     0.004 A 
ATOM     17  C   UNL     1       1.864   1.094   3.845  1.00  0.00     0.008 A 
ATOM     18  C   UNL     1       1.076   1.722   4.812  1.00  0.00     0.001 A 
BRANCH  14  19
ATOM     19  O   UNL     1      -0.356   1.656   0.926  1.00  0.00    -0.496 OA
ATOM     20  C   UNL     1      -0.433   0.567   0.030  1.00  0.00     0.278 C 
ENDBRANCH  14  19
ENDBRANCH   8  13
BRANCH  10  21
ATOM     21  C   UNL     1       5.121   1.537  -0.367  1.00  0.00     0.299 C 
BRANCH  21  22
ATOM     22  C   UNL     1       5.826   1.023   0.875  1.00  0.00     0.013 A 
ATOM     23  C   UNL     1       6.249   1.860   1.935  1.00  0.00     0.060 A 
ATOM     24  C   UNL     1       5.877  -0.359   1.048  1.00  0.00    -0.038 A 
ATOM     25  C   UNL     1       6.467   1.293   3.179  1.00  0.00     0.166 A 
ATOM     26  C   UNL     1       5.816  -0.828   2.363  1.00  0.00     0.054 A 
ATOM     27  C   UNL     1       6.014  -1.245  -0.161  1.00  0.00     0.045 C 
ATOM     28  C   UNL     1       6.143  -0.008   3.401  1.00  0.00     0.166 A 
ATOM     29  O   UNL     1       6.918   1.878   4.320  1.00  0.00    -0.454 OA
ATOM     30  O   UNL     1       6.242  -0.397   4.695  1.00  0.00    -0.454 OA
ATOM     31  C   UNL     1       6.962   0.734   5.216  1.00  0.00     0.468 C 
ENDBRANCH  21  22
ENDBRANCH  10  21
ENDBRANCH   4   7
ENDBRANCH   2   3
ENDBRANCH   1   2
BRANCH   1  32
ATOM     32  C   UNL     1       7.047  -4.029   3.061  1.00  0.00     0.118 C 
BRANCH  32  33
ATOM     33  N   UNL     1       8.433  -4.514   2.905  1.00  0.00    -0.352 N 
ATOM     34  C   UNL     1       9.681  -4.021   3.208  1.00  0.00     0.251 C 
ATOM     35  H   UNL     1       8.474  -5.403   2.484  1.00  0.00     0.163 HD
ATOM     36  O   UNL     1      10.614  -4.440   2.517  1.00  0.00    -0.269 OA
BRANCH  34  37
ATOM     37  C   UNL     1       9.992  -3.102   4.340  1.00  0.00     0.039 A 
ATOM     38  C   UNL     1      11.267  -2.503   4.371  1.00  0.00     0.014 A 
ATOM     39  C   UNL     1       9.173  -2.966   5.460  1.00  0.00     0.014 A 
ATOM     40  C   UNL     1      11.728  -1.833   5.515  1.00  0.00     0.010 A 
ATOM     41  C   UNL     1       9.609  -2.235   6.579  1.00  0.00     0.010 A 
ATOM     42  C   UNL     1      10.911  -1.708   6.646  1.00  0.00    -0.014 A 
BRANCH  42  43
ATOM     43  C   UNL     1      11.461  -1.143   7.921  1.00  0.00     0.031 A 
ATOM     44  C   UNL     1      11.564  -2.010   9.157  1.00  0.00     0.074 A 
ATOM     45  C   UNL     1      11.884   0.136   7.982  1.00  0.00     0.049 A 
ATOM     46  N   UNL     1      12.030  -1.718  10.348  1.00  0.00    -0.248 NA
ATOM     47  C   UNL     1      11.034  -3.376   9.048  1.00  0.00     0.031 C 
ATOM     48  C   UNL     1      11.801   1.103   6.886  1.00  0.00     0.029 A 
ATOM     49  N   UNL     1      12.472   0.844   9.003  1.00  0.00    -0.354 N 
ATOM     50  C   UNL     1      11.834  -2.857  11.127  1.00  0.00     0.074 A 
ATOM     51  C   UNL     1      11.123  -3.805  10.297  1.00  0.00     0.031 C 
ATOM     52  C   UNL     1      12.345   2.265   7.283  1.00  0.00     0.029 A 
ATOM     53  C   UNL     1      12.792   2.140   8.669  1.00  0.00     0.049 A 
ATOM     54  H   UNL     1      12.647   0.459   9.893  1.00  0.00     0.167 HD
ATOM     55  C   UNL     1      12.238  -3.112  12.399  1.00  0.00     0.034 A 
ATOM     56  C   UNL     1      13.382   3.118   9.388  1.00  0.00     0.034 A 
ATOM     57  C   UNL     1      12.963  -2.166  13.214  1.00  0.00     0.049 A 
ATOM     58  C   UNL     1      13.841   2.820  10.794  1.00  0.00     0.074 A 
ATOM     59  C   UNL     1      13.468  -2.331  14.493  1.00  0.00     0.029 A 
ATOM     60  N   UNL     1      13.285  -0.869  12.829  1.00  0.00    -0.354 N 
ATOM     61  N   UNL     1      13.706   1.714  11.491  1.00  0.00    -0.248 NA
ATOM     62  C   UNL     1      14.555   3.892  11.499  1.00  0.00     0.031 C 
ATOM     63  C   UNL     1      14.030  -1.117  14.905  1.00  0.00     0.029 A 
ATOM     64  C   UNL     1      13.954  -0.217  13.855  1.00  0.00     0.049 A 
ATOM     65  H   UNL     1      13.068  -0.471  11.955  1.00  0.00     0.167 HD
ATOM     66  C   UNL     1      14.339   1.952  12.709  1.00  0.00     0.074 A 
ATOM     67  C   UNL     1      14.875   3.297  12.639  1.00  0.00     0.031 C 
ATOM     68  C   UNL     1      14.469   1.133  13.785  1.00  0.00     0.034 A 
BRANCH  55  69
ATOM     69  C   UNL     1      11.879  -4.465  12.982  1.00  0.00     0.023 A 
ATOM     70  C   UNL     1      12.307  -5.664  12.382  1.00  0.00     0.031 A 
ATOM     71  C   UNL     1      11.044  -4.565  14.110  1.00  0.00     0.131 A 
ATOM     72  C   UNL     1      11.807  -6.895  12.832  1.00  0.00     0.055 A 
ATOM     73  C   UNL     1      10.635  -5.801  14.618  1.00  0.00     0.041 A 
ATOM     74  F   UNL     1      10.587  -3.462  14.724  1.00  0.00    -0.206 F 
ATOM     75  C   UNL     1      10.995  -6.975  13.964  1.00  0.00     0.022 A 
BRANCH  72  76
ATOM     76  S   UNL     1      12.070  -8.361  11.794  1.00  0.00     0.124 S 
ATOM     77  O   UNL     1      11.479  -7.936  10.528  1.00  0.00    -0.237 OA
ATOM     78  O   UNL     1      13.518  -8.505  11.810  1.00  0.00    -0.237 OA
ATOM     79  O   UNL     1      11.328  -9.413  12.494  1.00  0.00    -0.744 OA
ENDBRANCH  72  76
ENDBRANCH  55  69
BRANCH  56  80
ATOM     80  C   UNL     1      13.575   4.472   8.790  1.00  0.00     0.023 A 
ATOM     81  C   UNL     1      14.856   4.983   8.522  1.00  0.00     0.031 A 
ATOM     82  C   UNL     1      12.467   5.284   8.487  1.00  0.00     0.131 A 
ATOM     83  C   UNL     1      14.998   6.279   8.000  1.00  0.00     0.055 A 
ATOM     84  C   UNL     1      12.611   6.552   7.922  1.00  0.00     0.041 A 
ATOM     85  F   UNL     1      11.220   4.842   8.719  1.00  0.00    -0.206 F 
ATOM     86  C   UNL     1      13.884   7.061   7.684  1.00  0.00     0.022 A 
BRANCH  83  87
ATOM     87  S   UNL     1      16.667   6.960   7.790  1.00  0.00     0.124 S 
ATOM     88  O   UNL     1      17.181   6.914   9.155  1.00  0.00    -0.237 OA
ATOM     89  O   UNL     1      17.263   6.019   6.848  1.00  0.00    -0.237 OA
ATOM     90  O   UNL     1      16.425   8.300   7.259  1.00  0.00    -0.744 OA
ENDBRANCH  83  87
ENDBRANCH  56  80
BRANCH  68  91
ATOM     91  C   UNL     1      15.254   1.662  14.963  1.00  0.00     0.023 A 
ATOM     92  C   UNL     1      14.807   2.761  15.718  1.00  0.00     0.031 A 
ATOM     93  C   UNL     1      16.476   1.067  15.325  1.00  0.00     0.131 A 
ATOM     94  C   UNL     1      15.608   3.272  16.752  1.00  0.00     0.055 A 
ATOM     95  C   UNL     1      17.236   1.538  16.397  1.00  0.00     0.041 A 
ATOM     96  F   UNL     1      16.955   0.017  14.639  1.00  0.00    -0.206 F 
ATOM     97  C   UNL     1      16.811   2.657  17.107  1.00  0.00     0.022 A 
BRANCH  94  98
ATOM     98  S   UNL     1      15.111   4.822  17.552  1.00  0.00     0.124 S 
ATOM     99  O   UNL     1      15.016   5.733  16.416  1.00  0.00    -0.237 OA
ATOM    100  O   UNL     1      13.848   4.456  18.184  1.00  0.00    -0.237 OA
ATOM    101  O   UNL     1      16.209   5.098  18.477  1.00  0.00    -0.744 OA
ENDBRANCH  94  98
ENDBRANCH  68  91
ENDBRANCH  42  43
ENDBRANCH  34  37
ENDBRANCH  32  33
ENDBRANCH   1  32
TORSDOF 17
