REMARK SMILES Cc1c(C[NH2+]CC(=O)NCCCNC(=O)c2ccc(-c3c4nc(c(-c5cc(S(=O)(=O)[O-])ccc5F)c5ccc([nH]5)c(-c5cc(S(=O)(=O)[O-])ccc5F)c5nc(c(-c6cc(S(=O)(=O)[O-])ccc6F)c6ccc3[nH]6)C=C5)C=C4)cc2)cnn1C
REMARK SMILES IDX 11 1 10 2 9 3 7 4 8 5 6 7 5 8 4 11 3 12 1 13 2 14 81 15
REMARK SMILES IDX 79 16 80 17 82 18 12 19 13 20 14 21 15 23 16 24 17 25 78 26
REMARK SMILES IDX 18 27 77 28 19 29 20 30 21 31 71 32 22 33 76 34 70 35 72 36
REMARK SMILES IDX 23 37 75 38 69 39 68 40 24 42 56 43 36 44 55 45 37 46 40 47
REMARK SMILES IDX 54 48 73 49 38 50 39 51 53 53 74 54 41 55 25 56 26 57 34 58
REMARK SMILES IDX 27 59 33 60 35 61 32 62 28 63 29 64 30 65 31 66 57 67 58 68
REMARK SMILES IDX 66 69 59 70 65 71 67 72 64 73 60 74 61 75 62 76 63 77 42 78
REMARK SMILES IDX 43 79 51 80 44 81 50 82 52 83 49 84 45 85 46 86 47 87 48 88
REMARK H PARENT 9 6 5 9 5 10 13 22 72 41 40 52
REMARK Flexibility Score: inf
ROOT
ATOM      1  C   UNL     1      -2.993  -3.420   1.721  1.00  0.00     0.042 C 
ENDROOT
BRANCH   1   2
ATOM      2  C   UNL     1      -2.367  -4.754   1.296  1.00  0.00     0.118 C 
BRANCH   2   3
ATOM      3  N   UNL     1      -2.556  -5.060  -0.119  1.00  0.00    -0.351 N 
ATOM      4  C   UNL     1      -1.670  -5.105  -1.161  1.00  0.00     0.275 C 
ATOM      5  O   UNL     1      -2.111  -5.381  -2.280  1.00  0.00    -0.269 OA
ATOM      6  H   UNL     1      -3.485  -5.271  -0.367  1.00  0.00     0.163 HD
BRANCH   4   7
ATOM      7  C   UNL     1      -0.180  -4.775  -0.964  1.00  0.00     0.362 C 
BRANCH   7   8
ATOM      8  N   UNL     1       0.151  -3.372  -1.316  1.00  0.00    -0.335 N 
ATOM      9  H   UNL     1       1.150  -3.214  -1.181  1.00  0.00     0.347 HD
ATOM     10  H   UNL     1      -0.091  -3.200  -2.292  1.00  0.00     0.347 HD
BRANCH   8  11
ATOM     11  C   UNL     1      -0.603  -2.466  -0.462  1.00  0.00     0.301 C 
BRANCH  11  12
ATOM     12  C   UNL     1      -0.259  -1.036  -0.622  1.00  0.00     0.047 A 
ATOM     13  C   UNL     1       2.292  -0.892  -0.120  1.00  0.00     0.067 C 
ATOM     14  C   UNL     1       0.937  -0.366  -0.414  1.00  0.00     0.044 A 
ATOM     15  N   UNL     1       0.620   0.971  -0.457  1.00  0.00    -0.272 N 
ATOM     16  C   UNL     1      -1.200  -0.005  -0.853  1.00  0.00     0.145 A 
ATOM     17  N   UNL     1      -0.662   1.207  -0.778  1.00  0.00    -0.181 NA
ATOM     18  C   UNL     1       1.461   2.095  -0.116  1.00  0.00     0.174 C 
ENDBRANCH  11  12
ENDBRANCH   8  11
ENDBRANCH   7   8
ENDBRANCH   4   7
ENDBRANCH   2   3
ENDBRANCH   1   2
BRANCH   1  19
ATOM     19  C   UNL     1      -4.517  -3.385   1.684  1.00  0.00     0.118 C 
BRANCH  19  20
ATOM     20  N   UNL     1      -5.089  -3.824   2.943  1.00  0.00    -0.352 N 
ATOM     21  C   UNL     1      -5.729  -3.101   3.923  1.00  0.00     0.251 C 
ATOM     22  H   UNL     1      -5.006  -4.787   3.125  1.00  0.00     0.163 HD
ATOM     23  O   UNL     1      -5.873  -3.620   5.028  1.00  0.00    -0.269 OA
BRANCH  21  24
ATOM     24  C   UNL     1      -6.231  -1.721   3.683  1.00  0.00     0.039 A 
ATOM     25  C   UNL     1      -6.186  -0.801   4.737  1.00  0.00     0.014 A 
ATOM     26  C   UNL     1      -6.819  -1.340   2.473  1.00  0.00     0.014 A 
ATOM     27  C   UNL     1      -6.688   0.495   4.568  1.00  0.00     0.010 A 
ATOM     28  C   UNL     1      -7.253  -0.025   2.281  1.00  0.00     0.010 A 
ATOM     29  C   UNL     1      -7.207   0.906   3.330  1.00  0.00    -0.014 A 
BRANCH  29  30
ATOM     30  C   UNL     1      -7.731   2.288   3.133  1.00  0.00     0.031 A 
ATOM     31  C   UNL     1      -9.190   2.514   2.824  1.00  0.00     0.074 A 
ATOM     32  C   UNL     1      -6.891   3.342   3.190  1.00  0.00     0.049 A 
ATOM     33  N   UNL     1      -9.820   3.631   2.558  1.00  0.00    -0.248 NA
ATOM     34  C   UNL     1     -10.046   1.320   2.785  1.00  0.00     0.031 C 
ATOM     35  C   UNL     1      -5.452   3.261   3.445  1.00  0.00     0.029 A 
ATOM     36  N   UNL     1      -7.122   4.686   3.028  1.00  0.00    -0.354 N 
ATOM     37  C   UNL     1     -11.141   3.274   2.302  1.00  0.00     0.074 A 
ATOM     38  C   UNL     1     -11.204   1.830   2.393  1.00  0.00     0.031 C 
ATOM     39  C   UNL     1      -4.934   4.500   3.442  1.00  0.00     0.029 A 
ATOM     40  C   UNL     1      -5.991   5.461   3.143  1.00  0.00     0.049 A 
ATOM     41  H   UNL     1      -8.015   5.061   2.846  1.00  0.00     0.167 HD
ATOM     42  C   UNL     1     -12.205   4.073   2.037  1.00  0.00     0.034 A 
ATOM     43  C   UNL     1      -5.818   6.792   3.009  1.00  0.00     0.034 A 
ATOM     44  C   UNL     1     -12.134   5.514   1.967  1.00  0.00     0.049 A 
ATOM     45  C   UNL     1      -7.011   7.659   2.697  1.00  0.00     0.074 A 
ATOM     46  C   UNL     1     -13.162   6.419   1.764  1.00  0.00     0.029 A 
ATOM     47  N   UNL     1     -10.970   6.261   2.090  1.00  0.00    -0.354 N 
ATOM     48  N   UNL     1      -8.261   7.308   2.503  1.00  0.00    -0.248 NA
ATOM     49  C   UNL     1      -6.770   9.105   2.597  1.00  0.00     0.031 C 
ATOM     50  C   UNL     1     -12.612   7.705   1.703  1.00  0.00     0.029 A 
ATOM     51  C   UNL     1     -11.251   7.612   1.938  1.00  0.00     0.049 A 
ATOM     52  H   UNL     1     -10.075   5.887   2.260  1.00  0.00     0.167 HD
ATOM     53  C   UNL     1      -8.958   8.493   2.284  1.00  0.00     0.074 A 
ATOM     54  C   UNL     1      -7.993   9.568   2.386  1.00  0.00     0.031 C 
ATOM     55  C   UNL     1     -10.278   8.675   2.027  1.00  0.00     0.034 A 
BRANCH  42  56
ATOM     56  C   UNL     1     -13.533   3.399   1.776  1.00  0.00     0.023 A 
ATOM     57  C   UNL     1     -14.181   2.636   2.763  1.00  0.00     0.031 A 
ATOM     58  C   UNL     1     -14.148   3.501   0.515  1.00  0.00     0.131 A 
ATOM     59  C   UNL     1     -15.360   1.941   2.451  1.00  0.00     0.055 A 
ATOM     60  C   UNL     1     -15.364   2.873   0.236  1.00  0.00     0.041 A 
ATOM     61  F   UNL     1     -13.570   4.201  -0.473  1.00  0.00    -0.206 F 
ATOM     62  C   UNL     1     -15.969   2.074   1.202  1.00  0.00     0.022 A 
BRANCH  59  63
ATOM     63  S   UNL     1     -16.006   0.748   3.655  1.00  0.00     0.124 S 
ATOM     64  O   UNL     1     -14.878  -0.171   3.793  1.00  0.00    -0.237 OA
ATOM     65  O   UNL     1     -16.292   1.588   4.811  1.00  0.00    -0.237 OA
ATOM     66  O   UNL     1     -17.178   0.185   2.985  1.00  0.00    -0.744 OA
ENDBRANCH  59  63
ENDBRANCH  42  56
BRANCH  43  67
ATOM     67  C   UNL     1      -4.461   7.393   3.150  1.00  0.00     0.023 A 
ATOM     68  C   UNL     1      -4.162   8.268   4.206  1.00  0.00     0.031 A 
ATOM     69  C   UNL     1      -3.454   7.131   2.204  1.00  0.00     0.131 A 
ATOM     70  C   UNL     1      -2.902   8.883   4.269  1.00  0.00     0.055 A 
ATOM     71  C   UNL     1      -2.186   7.706   2.299  1.00  0.00     0.041 A 
ATOM     72  F   UNL     1      -3.688   6.299   1.177  1.00  0.00    -0.206 F 
ATOM     73  C   UNL     1      -1.908   8.598   3.330  1.00  0.00     0.022 A 
BRANCH  70  74
ATOM     74  S   UNL     1      -2.602  10.123   5.559  1.00  0.00     0.124 S 
ATOM     75  O   UNL     1      -3.646  11.102   5.279  1.00  0.00    -0.237 OA
ATOM     76  O   UNL     1      -2.769   9.338   6.778  1.00  0.00    -0.237 OA
ATOM     77  O   UNL     1      -1.237  10.570   5.291  1.00  0.00    -0.744 OA
ENDBRANCH  70  74
ENDBRANCH  43  67
BRANCH  55  78
ATOM     78  C   UNL     1     -10.756  10.099   1.881  1.00  0.00     0.023 A 
ATOM     79  C   UNL     1     -10.369  10.903   0.794  1.00  0.00     0.031 A 
ATOM     80  C   UNL     1     -11.598  10.665   2.856  1.00  0.00     0.131 A 
ATOM     81  C   UNL     1     -10.780  12.244   0.735  1.00  0.00     0.055 A 
ATOM     82  C   UNL     1     -12.049  11.982   2.763  1.00  0.00     0.041 A 
ATOM     83  F   UNL     1     -11.996   9.943   3.916  1.00  0.00    -0.206 F 
ATOM     84  C   UNL     1     -11.629  12.784   1.705  1.00  0.00     0.022 A 
BRANCH  81  85
ATOM     85  S   UNL     1     -10.119  13.302  -0.581  1.00  0.00     0.124 S 
ATOM     86  O   UNL     1      -8.681  13.220  -0.344  1.00  0.00    -0.237 OA
ATOM     87  O   UNL     1     -10.605  12.642  -1.788  1.00  0.00    -0.237 OA
ATOM     88  O   UNL     1     -10.718  14.607  -0.306  1.00  0.00    -0.744 OA
ENDBRANCH  81  85
ENDBRANCH  55  78
ENDBRANCH  29  30
ENDBRANCH  21  24
ENDBRANCH  19  20
ENDBRANCH   1  19
TORSDOF 16
