REMARK SMILES COc1c(Cl)cc(C(=O)NCCCNC(=O)c2ccc(-c3c4nc(c(-c5cc(S(=O)(=O)[O-])ccc5F)c5ccc([nH]5)c(-c5cc(S(=O)(=O)[O-])ccc5F)c5nc(c(-c6cc(S(=O)(=O)[O-])ccc6F)c6ccc3[nH]6)C=C5)C=C4)cc2)cc1NC(=S)NC(=O)c1ccccc1F
REMARK SMILES IDX 11 1 10 2 8 3 9 4 7 6 3 7 4 8 81 9 5 10 6 11 80 12 2 13 1 14
REMARK SMILES IDX 82 15 83 17 84 18 85 19 86 20 87 22 88 23 89 24 93 25 90 26
REMARK SMILES IDX 92 27 94 28 91 29 12 30 13 31 14 32 15 33 16 35 17 36 18 37
REMARK SMILES IDX 79 38 19 39 78 40 20 41 21 42 22 43 72 44 23 45 77 46 71 47
REMARK SMILES IDX 73 48 24 49 76 50 70 51 69 52 25 54 57 55 37 56 56 57 38 58
REMARK SMILES IDX 41 59 55 60 74 61 39 62 40 63 54 65 75 66 42 67 26 68 27 69
REMARK SMILES IDX 35 70 28 71 34 72 36 73 33 74 29 75 30 76 31 77 32 78 58 79
REMARK SMILES IDX 59 80 67 81 60 82 66 83 68 84 65 85 61 86 62 87 63 88 64 89
REMARK SMILES IDX 43 90 44 91 52 92 45 93 51 94 53 95 50 96 46 97 47 98 48 99
REMARK SMILES IDX 49 100
REMARK H PARENT 10 5 82 16 85 21 14 34 73 53 41 64
REMARK Flexibility Score: inf
ROOT
ATOM      1  C   UNL     1       0.115   1.720  -7.976  1.00  0.00     0.118 C 
ENDROOT
BRANCH   1   2
ATOM      2  N   UNL     1       1.399   1.841  -7.236  1.00  0.00    -0.352 N 
ATOM      3  C   UNL     1       2.116   1.644  -5.926  1.00  0.00     0.251 C 
ATOM      4  O   UNL     1       3.210   1.994  -6.510  1.00  0.00    -0.269 OA
ATOM      5  H   UNL     1       2.059   2.202  -7.870  1.00  0.00     0.163 HD
BRANCH   3   6
ATOM      6  C   UNL     1       1.589   1.032  -3.938  1.00  0.00     0.043 A 
ATOM      7  C   UNL     1       0.338   0.646  -1.125  1.00  0.00     0.160 A 
ATOM      8  C   UNL     1       1.623   1.146  -1.282  1.00  0.00     0.086 A 
ATOM      9  C   UNL     1      -0.328   0.381  -2.295  1.00  0.00     0.085 A 
ATOM     10  Cl  UNL     1       2.575   1.749   0.041  1.00  0.00    -0.080 Cl
ATOM     11  C   UNL     1       2.188   1.333  -2.588  1.00  0.00     0.038 A 
ATOM     12  C   UNL     1       0.421   0.234  -3.458  1.00  0.00     0.044 A 
BRANCH   7  13
ATOM     13  O   UNL     1      -0.318   0.395   0.044  1.00  0.00    -0.493 OA
ATOM     14  C   UNL     1       0.483  -0.243   1.045  1.00  0.00     0.278 C 
ENDBRANCH   7  13
BRANCH   9  15
ATOM     15  N   UNL     1      -1.722   0.194  -2.421  1.00  0.00    -0.329 N 
ATOM     16  H   UNL     1      -2.197  -0.018  -1.585  1.00  0.00     0.169 HD
BRANCH  15  17
ATOM     17  C   UNL     1      -2.507   0.265  -3.545  1.00  0.00     0.177 C 
ATOM     18  S   UNL     1      -4.025  -0.443  -3.507  1.00  0.00    -0.040 S 
BRANCH  17  19
ATOM     19  N   UNL     1      -2.151   0.931  -4.707  1.00  0.00    -0.299 N 
ATOM     20  C   UNL     1      -1.306   2.014  -4.931  1.00  0.00     0.260 C 
ATOM     21  H   UNL     1      -2.571   0.572  -5.522  1.00  0.00     0.172 HD
ATOM     22  O   UNL     1      -1.712   3.171  -4.898  1.00  0.00    -0.269 OA
BRANCH  20  23
ATOM     23  C   UNL     1       0.126   1.770  -5.266  1.00  0.00     0.075 A 
ATOM     24  C   UNL     1       1.264   3.046  -4.660  1.00  0.00     0.017 A 
ATOM     25  C   UNL     1       0.793   0.110  -5.734  1.00  0.00     0.135 A 
ATOM     26  C   UNL     1       3.010   2.662  -4.390  1.00  0.00     0.001 A 
ATOM     27  C   UNL     1       2.518  -0.303  -5.370  1.00  0.00     0.040 A 
ATOM     28  F   UNL     1      -0.033  -0.863  -6.157  1.00  0.00    -0.206 F 
ATOM     29  C   UNL     1       3.623   0.949  -4.667  1.00  0.00     0.003 A 
ENDBRANCH  20  23
ENDBRANCH  17  19
ENDBRANCH  15  17
ENDBRANCH   9  15
ENDBRANCH   3   6
ENDBRANCH   1   2
BRANCH   1  30
ATOM     30  C   UNL     1      -0.769   2.958  -7.864  1.00  0.00     0.042 C 
BRANCH  30  31
ATOM     31  C   UNL     1      -0.882   3.768  -9.138  1.00  0.00     0.118 C 
BRANCH  31  32
ATOM     32  N   UNL     1      -1.482   2.998 -10.215  1.00  0.00    -0.352 N 
ATOM     33  C   UNL     1      -2.691   3.151 -10.846  1.00  0.00     0.251 C 
ATOM     34  H   UNL     1      -0.935   2.249 -10.544  1.00  0.00     0.163 HD
ATOM     35  O   UNL     1      -3.130   2.214 -11.510  1.00  0.00    -0.269 OA
BRANCH  33  36
ATOM     36  C   UNL     1      -3.457   4.413 -10.733  1.00  0.00     0.039 A 
ATOM     37  C   UNL     1      -4.852   4.361 -10.805  1.00  0.00     0.014 A 
ATOM     38  C   UNL     1      -2.818   5.649 -10.612  1.00  0.00     0.014 A 
ATOM     39  C   UNL     1      -5.594   5.539 -10.719  1.00  0.00     0.010 A 
ATOM     40  C   UNL     1      -3.560   6.806 -10.403  1.00  0.00     0.010 A 
ATOM     41  C   UNL     1      -4.957   6.768 -10.482  1.00  0.00    -0.014 A 
BRANCH  41  42
ATOM     42  C   UNL     1      -5.736   8.025 -10.343  1.00  0.00     0.031 A 
ATOM     43  C   UNL     1      -5.514   9.160 -11.308  1.00  0.00     0.074 A 
ATOM     44  C   UNL     1      -6.617   8.148  -9.330  1.00  0.00     0.049 A 
ATOM     45  N   UNL     1      -6.064  10.346 -11.324  1.00  0.00    -0.248 NA
ATOM     46  C   UNL     1      -4.528   8.947 -12.381  1.00  0.00     0.031 C 
ATOM     47  C   UNL     1      -6.886   7.122  -8.319  1.00  0.00     0.029 A 
ATOM     48  N   UNL     1      -7.447   9.182  -8.979  1.00  0.00    -0.354 N 
ATOM     49  C   UNL     1      -5.488  11.019 -12.396  1.00  0.00     0.074 A 
ATOM     50  C   UNL     1      -4.501  10.133 -12.970  1.00  0.00     0.031 C 
ATOM     51  C   UNL     1      -7.845   7.562  -7.490  1.00  0.00     0.029 A 
ATOM     52  C   UNL     1      -8.208   8.925  -7.861  1.00  0.00     0.049 A 
ATOM     53  H   UNL     1      -7.495  10.028  -9.480  1.00  0.00     0.167 HD
ATOM     54  C   UNL     1      -5.772  12.257 -12.866  1.00  0.00     0.034 A 
ATOM     55  C   UNL     1      -9.080   9.707  -7.194  1.00  0.00     0.034 A 
ATOM     56  C   UNL     1      -6.764  13.123 -12.280  1.00  0.00     0.049 A 
ATOM     57  C   UNL     1      -9.335  11.102  -7.711  1.00  0.00     0.074 A 
ATOM     58  C   UNL     1      -7.169  14.374 -12.709  1.00  0.00     0.029 A 
ATOM     59  N   UNL     1      -7.495  12.839 -11.134  1.00  0.00    -0.354 N 
ATOM     60  N   UNL     1      -8.818  11.701  -8.760  1.00  0.00    -0.248 NA
ATOM     61  C   UNL     1     -10.294  11.923  -6.963  1.00  0.00     0.031 C 
ATOM     62  C   UNL     1      -8.061  14.890 -11.767  1.00  0.00     0.029 A 
ATOM     63  C   UNL     1      -8.309  13.914 -10.815  1.00  0.00     0.049 A 
ATOM     64  H   UNL     1      -7.442  11.999 -10.623  1.00  0.00     0.167 HD
ATOM     65  C   UNL     1      -9.423  12.954  -8.817  1.00  0.00     0.074 A 
ATOM     66  C   UNL     1     -10.354  13.015  -7.710  1.00  0.00     0.031 C 
ATOM     67  C   UNL     1      -9.232  13.961  -9.706  1.00  0.00     0.034 A 
BRANCH  54  68
ATOM     68  C   UNL     1      -4.982  12.769 -14.045  1.00  0.00     0.023 A 
ATOM     69  C   UNL     1      -5.046  12.157 -15.309  1.00  0.00     0.031 A 
ATOM     70  C   UNL     1      -4.170  13.909 -13.906  1.00  0.00     0.131 A 
ATOM     71  C   UNL     1      -4.277  12.661 -16.369  1.00  0.00     0.055 A 
ATOM     72  C   UNL     1      -3.474  14.455 -14.985  1.00  0.00     0.041 A 
ATOM     73  F   UNL     1      -4.043  14.516 -12.716  1.00  0.00    -0.206 F 
ATOM     74  C   UNL     1      -3.518  13.825 -16.225  1.00  0.00     0.022 A 
BRANCH  71  75
ATOM     75  S   UNL     1      -4.179  11.701 -17.905  1.00  0.00     0.124 S 
ATOM     76  O   UNL     1      -3.647  10.429 -17.424  1.00  0.00    -0.237 OA
ATOM     77  O   UNL     1      -5.565  11.685 -18.357  1.00  0.00    -0.237 OA
ATOM     78  O   UNL     1      -3.260  12.477 -18.736  1.00  0.00    -0.744 OA
ENDBRANCH  71  75
ENDBRANCH  54  68
BRANCH  55  79
ATOM     79  C   UNL     1      -9.745   9.222  -5.948  1.00  0.00     0.023 A 
ATOM     80  C   UNL     1     -11.144   9.164  -5.846  1.00  0.00     0.031 A 
ATOM     81  C   UNL     1      -8.991   8.892  -4.807  1.00  0.00     0.131 A 
ATOM     82  C   UNL     1     -11.743   8.864  -4.613  1.00  0.00     0.055 A 
ATOM     83  C   UNL     1      -9.592   8.510  -3.607  1.00  0.00     0.041 A 
ATOM     84  F   UNL     1      -7.649   8.937  -4.841  1.00  0.00    -0.206 F 
ATOM     85  C   UNL     1     -10.978   8.516  -3.499  1.00  0.00     0.022 A 
BRANCH  82  86
ATOM     86  S   UNL     1     -13.535   9.095  -4.445  1.00  0.00     0.124 S 
ATOM     87  O   UNL     1     -13.690  10.487  -4.851  1.00  0.00    -0.237 OA
ATOM     88  O   UNL     1     -14.059   8.094  -5.368  1.00  0.00    -0.237 OA
ATOM     89  O   UNL     1     -13.781   8.826  -3.030  1.00  0.00    -0.744 OA
ENDBRANCH  82  86
ENDBRANCH  55  79
BRANCH  67  90
ATOM     90  C   UNL     1     -10.094  15.191  -9.556  1.00  0.00     0.023 A 
ATOM     91  C   UNL     1     -10.022  16.020  -8.424  1.00  0.00     0.031 A 
ATOM     92  C   UNL     1     -11.008  15.535 -10.570  1.00  0.00     0.131 A 
ATOM     93  C   UNL     1     -10.895  17.112  -8.303  1.00  0.00     0.055 A 
ATOM     94  C   UNL     1     -11.812  16.671 -10.482  1.00  0.00     0.041 A 
ATOM     95  F   UNL     1     -11.128  14.775 -11.670  1.00  0.00    -0.206 F 
ATOM     96  C   UNL     1     -11.771  17.457  -9.336  1.00  0.00     0.022 A 
BRANCH  93  97
ATOM     97  S   UNL     1     -10.961  17.999  -6.723  1.00  0.00     0.124 S 
ATOM     98  O   UNL     1     -11.291  16.928  -5.789  1.00  0.00    -0.237 OA
ATOM     99  O   UNL     1      -9.613  18.546  -6.615  1.00  0.00    -0.237 OA
ATOM    100  O   UNL     1     -12.017  18.989  -6.931  1.00  0.00    -0.744 OA
ENDBRANCH  93  97
ENDBRANCH  67  90
ENDBRANCH  41  42
ENDBRANCH  33  36
ENDBRANCH  31  32
ENDBRANCH  30  31
ENDBRANCH   1  30
TORSDOF 18
