REMARK SMILES O=C(CN1C(=O)/C(=C\c2c(F)cccc2Cl)Oc2ccccc21)NCCCNC(=O)c1ccc(-c2c3nc(c(-c4cc(S(=O)(=O)[O-])ccc4F)c4ccc([nH]4)c(-c4cc(S(=O)(=O)[O-])ccc4F)c4nc(c(-c5cc(S(=O)(=O)[O-])ccc5F)c5ccc2[nH]5)C=C4)C=C3)cc1
REMARK SMILES IDX 26 1 25 2 24 3 1 4 2 5 3 7 4 8 5 9 23 10 6 11 7 12 18 13
REMARK SMILES IDX 22 14 8 15 17 16 19 17 21 18 20 19 9 20 10 21 15 22 11 23
REMARK SMILES IDX 12 24 14 25 16 26 13 27 27 28 28 29 29 30 30 32 31 33 32 34
REMARK SMILES IDX 93 35 33 36 92 37 34 38 35 39 36 40 86 41 37 42 91 43 85 44
REMARK SMILES IDX 87 45 38 46 90 47 84 48 83 49 39 51 71 52 51 53 70 54 52 55
REMARK SMILES IDX 55 56 69 57 88 58 53 59 54 60 68 62 89 63 56 64 40 65 41 66
REMARK SMILES IDX 49 67 42 68 48 69 50 70 47 71 43 72 44 73 45 74 46 75 72 76
REMARK SMILES IDX 73 77 81 78 74 79 80 80 82 81 79 82 75 83 76 84 77 85 78 86
REMARK SMILES IDX 57 87 58 88 66 89 59 90 65 91 67 92 64 93 60 94 61 95 62 96
REMARK SMILES IDX 63 97
REMARK H PARENT 24 6 28 31 87 50 55 61
REMARK Flexibility Score: inf
ROOT
ATOM      1  C   UNL     1       2.463   1.490   3.260  1.00  0.00     0.042 C 
ENDROOT
BRANCH   1   2
ATOM      2  C   UNL     1       2.117   1.810   1.818  1.00  0.00     0.117 C 
BRANCH   2   3
ATOM      3  N   UNL     1       2.694   0.892   0.860  1.00  0.00    -0.354 N 
ATOM      4  O   UNL     1       0.830  -0.414   0.585  1.00  0.00    -0.273 OA
ATOM      5  C   UNL     1       1.932  -0.040   0.189  1.00  0.00     0.240 C 
ATOM      6  H   UNL     1       3.661   0.934   0.682  1.00  0.00     0.163 HD
BRANCH   5   7
ATOM      7  C   UNL     1       2.541  -0.587  -1.113  1.00  0.00     0.226 C 
BRANCH   7   8
ATOM      8  N   UNL     1       3.670   0.177  -1.663  1.00  0.00    -0.293 N 
ATOM      9  C   UNL     1       4.889  -0.473  -1.782  1.00  0.00     0.294 C 
ATOM     10  C   UNL     1       3.520   1.538  -2.051  1.00  0.00     0.088 A 
ATOM     11  O   UNL     1       5.007  -1.677  -1.561  1.00  0.00    -0.265 OA
ATOM     12  C   UNL     1       6.063   0.380  -2.189  1.00  0.00     0.193 C 
ATOM     13  C   UNL     1       4.640   2.249  -2.484  1.00  0.00     0.151 A 
ATOM     14  C   UNL     1       2.296   2.220  -1.964  1.00  0.00     0.030 A 
ATOM     15  C   UNL     1       7.332  -0.058  -2.085  1.00  0.00     0.065 C 
ATOM     16  O   UNL     1       5.874   1.680  -2.639  1.00  0.00    -0.449 OA
ATOM     17  C   UNL     1       4.561   3.618  -2.758  1.00  0.00     0.049 A 
ATOM     18  C   UNL     1       2.219   3.593  -2.216  1.00  0.00     0.002 A 
ATOM     19  C   UNL     1       3.354   4.295  -2.603  1.00  0.00     0.004 A 
BRANCH  15  20
ATOM     20  C   UNL     1       7.752  -1.339  -1.498  1.00  0.00     0.033 A 
ATOM     21  C   UNL     1       7.927  -2.456  -2.323  1.00  0.00     0.132 A 
ATOM     22  C   UNL     1       7.906  -1.505  -0.112  1.00  0.00     0.051 A 
ATOM     23  F   UNL     1       7.787  -2.341  -3.653  1.00  0.00    -0.206 F 
ATOM     24  C   UNL     1       8.228  -3.709  -1.793  1.00  0.00     0.040 A 
ATOM     25  C   UNL     1       8.218  -2.759   0.425  1.00  0.00     0.021 A 
ATOM     26  Cl  UNL     1       7.694  -0.185   0.990  1.00  0.00    -0.084 Cl
ATOM     27  C   UNL     1       8.370  -3.863  -0.415  1.00  0.00     0.005 A 
ENDBRANCH  15  20
ENDBRANCH   7   8
ENDBRANCH   5   7
ENDBRANCH   2   3
ENDBRANCH   1   2
BRANCH   1  28
ATOM     28  C   UNL     1       3.950   1.559   3.580  1.00  0.00     0.118 C 
BRANCH  28  29
ATOM     29  N   UNL     1       4.526   2.891   3.418  1.00  0.00    -0.352 N 
ATOM     30  C   UNL     1       5.208   3.688   4.310  1.00  0.00     0.251 C 
ATOM     31  H   UNL     1       4.406   3.284   2.523  1.00  0.00     0.163 HD
ATOM     32  O   UNL     1       5.509   4.832   3.978  1.00  0.00    -0.269 OA
BRANCH  30  33
ATOM     33  C   UNL     1       5.539   3.197   5.669  1.00  0.00     0.039 A 
ATOM     34  C   UNL     1       5.976   1.891   5.883  1.00  0.00     0.014 A 
ATOM     35  C   UNL     1       5.399   4.066   6.758  1.00  0.00     0.014 A 
ATOM     36  C   UNL     1       6.072   1.396   7.180  1.00  0.00     0.010 A 
ATOM     37  C   UNL     1       5.595   3.593   8.061  1.00  0.00     0.010 A 
ATOM     38  C   UNL     1       5.872   2.237   8.287  1.00  0.00    -0.014 A 
BRANCH  38  39
ATOM     39  C   UNL     1       5.958   1.669   9.661  1.00  0.00     0.031 A 
ATOM     40  C   UNL     1       4.755   1.642  10.567  1.00  0.00     0.074 A 
ATOM     41  C   UNL     1       7.116   1.110  10.069  1.00  0.00     0.049 A 
ATOM     42  N   UNL     1       4.636   1.116  11.760  1.00  0.00    -0.248 NA
ATOM     43  C   UNL     1       3.528   2.291  10.078  1.00  0.00     0.031 C 
ATOM     44  C   UNL     1       8.349   1.082   9.283  1.00  0.00     0.029 A 
ATOM     45  N   UNL     1       7.439   0.436  11.220  1.00  0.00    -0.354 N 
ATOM     46  C   UNL     1       3.332   1.378  12.168  1.00  0.00     0.074 A 
ATOM     47  C   UNL     1       2.711   2.147  11.113  1.00  0.00     0.031 C 
ATOM     48  C   UNL     1       9.273   0.370   9.942  1.00  0.00     0.029 A 
ATOM     49  C   UNL     1       8.725  -0.054  11.228  1.00  0.00     0.049 A 
ATOM     50  H   UNL     1       6.812   0.316  11.969  1.00  0.00     0.167 HD
ATOM     51  C   UNL     1       2.706   0.995  13.306  1.00  0.00     0.034 A 
ATOM     52  C   UNL     1       9.394  -0.764  12.160  1.00  0.00     0.034 A 
ATOM     53  C   UNL     1       3.327   0.208  14.342  1.00  0.00     0.049 A 
ATOM     54  C   UNL     1       8.682  -1.159  13.427  1.00  0.00     0.074 A 
ATOM     55  C   UNL     1       2.760  -0.257  15.515  1.00  0.00     0.029 A 
ATOM     56  N   UNL     1       4.642  -0.234  14.331  1.00  0.00    -0.354 N 
ATOM     57  N   UNL     1       7.433  -0.948  13.769  1.00  0.00    -0.248 NA
ATOM     58  C   UNL     1       9.464  -1.887  14.436  1.00  0.00     0.031 C 
ATOM     59  C   UNL     1       3.745  -0.933  16.239  1.00  0.00     0.029 A 
ATOM     60  C   UNL     1       4.911  -0.944  15.490  1.00  0.00     0.049 A 
ATOM     61  H   UNL     1       5.288  -0.068  13.607  1.00  0.00     0.167 HD
ATOM     62  C   UNL     1       7.276  -1.525  15.026  1.00  0.00     0.074 A 
ATOM     63  C   UNL     1       8.550  -2.124  15.368  1.00  0.00     0.031 C 
ATOM     64  C   UNL     1       6.180  -1.547  15.825  1.00  0.00     0.034 A 
BRANCH  51  65
ATOM     65  C   UNL     1       1.264   1.393  13.506  1.00  0.00     0.023 A 
ATOM     66  C   UNL     1       0.907   2.247  14.566  1.00  0.00     0.031 A 
ATOM     67  C   UNL     1       0.236   0.828  12.732  1.00  0.00     0.131 A 
ATOM     68  C   UNL     1      -0.446   2.489  14.840  1.00  0.00     0.055 A 
ATOM     69  C   UNL     1      -1.109   1.100  12.986  1.00  0.00     0.041 A 
ATOM     70  F   UNL     1       0.525   0.006  11.710  1.00  0.00    -0.206 F 
ATOM     71  C   UNL     1      -1.455   1.925  14.052  1.00  0.00     0.022 A 
BRANCH  68  72
ATOM     72  S   UNL     1      -0.953   3.494  16.262  1.00  0.00     0.124 S 
ATOM     73  O   UNL     1      -1.706   4.567  15.617  1.00  0.00    -0.237 OA
ATOM     74  O   UNL     1      -1.753   2.549  17.036  1.00  0.00    -0.237 OA
ATOM     75  O   UNL     1       0.308   3.902  16.872  1.00  0.00    -0.744 OA
ENDBRANCH  68  72
ENDBRANCH  51  65
BRANCH  52  76
ATOM     76  C   UNL     1      10.800  -1.181  11.882  1.00  0.00     0.023 A 
ATOM     77  C   UNL     1      11.808  -0.224  11.660  1.00  0.00     0.031 A 
ATOM     78  C   UNL     1      11.129  -2.536  11.718  1.00  0.00     0.131 A 
ATOM     79  C   UNL     1      13.070  -0.632  11.210  1.00  0.00     0.055 A 
ATOM     80  C   UNL     1      12.411  -2.943  11.342  1.00  0.00     0.041 A 
ATOM     81  F   UNL     1      10.199  -3.486  11.908  1.00  0.00    -0.206 F 
ATOM     82  C   UNL     1      13.383  -1.986  11.066  1.00  0.00     0.022 A 
BRANCH  79  83
ATOM     83  S   UNL     1      14.295   0.586  10.654  1.00  0.00     0.124 S 
ATOM     84  O   UNL     1      15.396   0.357  11.584  1.00  0.00    -0.237 OA
ATOM     85  O   UNL     1      14.533   0.162   9.276  1.00  0.00    -0.237 OA
ATOM     86  O   UNL     1      13.601   1.862  10.797  1.00  0.00    -0.744 OA
ENDBRANCH  79  83
ENDBRANCH  52  76
BRANCH  64  87
ATOM     87  C   UNL     1       6.281  -2.227  17.168  1.00  0.00     0.023 A 
ATOM     88  C   UNL     1       5.489  -3.357  17.451  1.00  0.00     0.031 A 
ATOM     89  C   UNL     1       7.042  -1.669  18.210  1.00  0.00     0.131 A 
ATOM     90  C   UNL     1       5.447  -3.869  18.754  1.00  0.00     0.055 A 
ATOM     91  C   UNL     1       7.030  -2.211  19.496  1.00  0.00     0.041 A 
ATOM     92  F   UNL     1       7.804  -0.586  17.992  1.00  0.00    -0.206 F 
ATOM     93  C   UNL     1       6.219  -3.307  19.776  1.00  0.00     0.022 A 
BRANCH  90  94
ATOM     94  S   UNL     1       4.327  -5.228  19.192  1.00  0.00     0.124 S 
ATOM     95  O   UNL     1       5.263  -6.261  19.628  1.00  0.00    -0.237 OA
ATOM     96  O   UNL     1       3.518  -4.631  20.251  1.00  0.00    -0.237 OA
ATOM     97  O   UNL     1       3.619  -5.515  17.949  1.00  0.00    -0.744 OA
ENDBRANCH  90  94
ENDBRANCH  64  87
ENDBRANCH  38  39
ENDBRANCH  30  33
ENDBRANCH  28  29
ENDBRANCH   1  28
TORSDOF 15
