REMARK SMILES O=C(NCCCNC(=O)c1ccccc1-n1ccnn1)c1ccc(-c2c3nc(c(-c4cc(S(=O)(=O)[O-])ccc4F)c4ccc([nH]4)c(-c4cc(S(=O)(=O)[O-])ccc4F)c4nc(c(-c5cc(S(=O)(=O)[O-])ccc5F)c5ccc2[nH]5)C=C4)C=C3)cc1
REMARK SMILES IDX 4 1 3 2 1 3 2 4 21 6 22 7 83 8 23 9 82 10 24 11 25 12 26 13
REMARK SMILES IDX 76 14 27 15 81 16 75 17 77 18 28 19 80 20 74 21 73 22 29 24
REMARK SMILES IDX 61 25 41 26 60 27 42 28 45 29 59 30 78 31 43 32 44 33 58 35
REMARK SMILES IDX 79 36 46 37 30 38 31 39 39 40 32 41 38 42 40 43 37 44 33 45
REMARK SMILES IDX 34 46 35 47 36 48 62 49 63 50 71 51 64 52 70 53 72 54 69 55
REMARK SMILES IDX 65 56 66 57 67 58 68 59 47 60 48 61 56 62 49 63 55 64 57 65
REMARK SMILES IDX 54 66 50 67 51 68 52 69 53 70 5 71 6 72 7 73 8 74 9 76 10 77
REMARK SMILES IDX 11 78 15 79 12 80 14 81 13 82 16 83 17 84 20 85 18 86 19 87
REMARK H PARENT 3 5 77 23 45 34 7 75
REMARK Flexibility Score: inf
ROOT
ATOM      1  C   UNL     1       4.824   0.820  -0.761  1.00  0.00     0.118 C 
ENDROOT
BRANCH   1   2
ATOM      2  N   UNL     1       3.408   1.084  -0.596  1.00  0.00    -0.352 N 
ATOM      3  O   UNL     1       1.315   0.999   0.086  1.00  0.00    -0.269 OA
ATOM      4  C   UNL     1       2.337   0.351  -0.160  1.00  0.00     0.251 C 
ATOM      5  H   UNL     1       3.160   2.000  -0.857  1.00  0.00     0.163 HD
BRANCH   4   6
ATOM      6  C   UNL     1       2.303  -1.133  -0.022  1.00  0.00     0.039 A 
ATOM      7  C   UNL     1       3.392  -1.990  -0.172  1.00  0.00     0.014 A 
ATOM      8  C   UNL     1       1.040  -1.701   0.234  1.00  0.00     0.014 A 
ATOM      9  C   UNL     1       3.217  -3.373  -0.167  1.00  0.00     0.010 A 
ATOM     10  C   UNL     1       0.863  -3.082   0.271  1.00  0.00     0.010 A 
ATOM     11  C   UNL     1       1.949  -3.921   0.033  1.00  0.00    -0.014 A 
BRANCH  11  12
ATOM     12  C   UNL     1       1.830  -5.379   0.126  1.00  0.00     0.031 A 
ATOM     13  C   UNL     1       2.510  -6.012   1.296  1.00  0.00     0.074 A 
ATOM     14  C   UNL     1       1.012  -6.109  -0.659  1.00  0.00     0.049 A 
ATOM     15  N   UNL     1       3.349  -6.997   1.317  1.00  0.00    -0.248 NA
ATOM     16  C   UNL     1       2.268  -5.415   2.619  1.00  0.00     0.031 C 
ATOM     17  C   UNL     1       0.049  -5.609  -1.643  1.00  0.00     0.029 A 
ATOM     18  N   UNL     1       0.774  -7.455  -0.644  1.00  0.00    -0.354 N 
ATOM     19  C   UNL     1       3.593  -7.276   2.663  1.00  0.00     0.074 A 
ATOM     20  C   UNL     1       3.014  -6.189   3.405  1.00  0.00     0.031 C 
ATOM     21  C   UNL     1      -0.820  -6.596  -1.951  1.00  0.00     0.029 A 
ATOM     22  C   UNL     1      -0.404  -7.821  -1.285  1.00  0.00     0.049 A 
ATOM     23  H   UNL     1       1.380  -8.104  -0.220  1.00  0.00     0.167 HD
ATOM     24  C   UNL     1       4.096  -8.473   3.079  1.00  0.00     0.034 A 
ATOM     25  C   UNL     1      -1.051  -9.013  -1.210  1.00  0.00     0.034 A 
ATOM     26  C   UNL     1       4.785  -9.154   2.008  1.00  0.00     0.049 A 
ATOM     27  C   UNL     1      -0.073 -10.030  -0.760  1.00  0.00     0.074 A 
ATOM     28  C   UNL     1       5.852  -8.838   1.188  1.00  0.00     0.029 A 
ATOM     29  N   UNL     1       4.194 -10.249   1.422  1.00  0.00    -0.354 N 
ATOM     30  N   UNL     1       0.954 -10.412  -1.467  1.00  0.00    -0.248 NA
ATOM     31  C   UNL     1       0.009 -10.331   0.661  1.00  0.00     0.031 C 
ATOM     32  C   UNL     1       5.527  -9.410  -0.077  1.00  0.00     0.029 A 
ATOM     33  C   UNL     1       4.311 -10.079   0.065  1.00  0.00     0.049 A 
ATOM     34  H   UNL     1       3.769 -11.007   1.885  1.00  0.00     0.167 HD
ATOM     35  C   UNL     1       1.970 -10.610  -0.546  1.00  0.00     0.074 A 
ATOM     36  C   UNL     1       1.301 -10.658   0.750  1.00  0.00     0.031 C 
ATOM     37  C   UNL     1       3.282 -10.440  -0.888  1.00  0.00     0.034 A 
BRANCH  24  38
ATOM     38  C   UNL     1       3.692  -9.184   4.359  1.00  0.00     0.023 A 
ATOM     39  C   UNL     1       4.239 -10.464   4.587  1.00  0.00     0.031 A 
ATOM     40  C   UNL     1       2.605  -8.835   5.192  1.00  0.00     0.131 A 
ATOM     41  C   UNL     1       3.636 -11.367   5.481  1.00  0.00     0.055 A 
ATOM     42  C   UNL     1       2.055  -9.710   6.136  1.00  0.00     0.041 A 
ATOM     43  F   UNL     1       1.956  -7.670   5.090  1.00  0.00    -0.206 F 
ATOM     44  C   UNL     1       2.542 -10.999   6.256  1.00  0.00     0.022 A 
BRANCH  41  45
ATOM     45  S   UNL     1       4.171 -13.098   5.441  1.00  0.00     0.124 S 
ATOM     46  O   UNL     1       4.153 -13.377   4.008  1.00  0.00    -0.237 OA
ATOM     47  O   UNL     1       5.487 -13.017   6.065  1.00  0.00    -0.237 OA
ATOM     48  O   UNL     1       3.148 -13.786   6.224  1.00  0.00    -0.744 OA
ENDBRANCH  41  45
ENDBRANCH  24  38
BRANCH  25  49
ATOM     49  C   UNL     1      -2.525  -9.220  -1.201  1.00  0.00     0.023 A 
ATOM     50  C   UNL     1      -3.128 -10.450  -1.533  1.00  0.00     0.031 A 
ATOM     51  C   UNL     1      -3.367  -8.231  -0.642  1.00  0.00     0.131 A 
ATOM     52  C   UNL     1      -4.514 -10.640  -1.321  1.00  0.00     0.055 A 
ATOM     53  C   UNL     1      -4.736  -8.418  -0.450  1.00  0.00     0.041 A 
ATOM     54  F   UNL     1      -2.869  -7.071  -0.184  1.00  0.00    -0.206 F 
ATOM     55  C   UNL     1      -5.316  -9.629  -0.785  1.00  0.00     0.022 A 
BRANCH  52  56
ATOM     56  S   UNL     1      -5.284 -12.258  -1.652  1.00  0.00     0.124 S 
ATOM     57  O   UNL     1      -5.228 -12.336  -3.107  1.00  0.00    -0.237 OA
ATOM     58  O   UNL     1      -4.417 -13.173  -0.918  1.00  0.00    -0.237 OA
ATOM     59  O   UNL     1      -6.630 -12.116  -1.096  1.00  0.00    -0.744 OA
ENDBRANCH  52  56
ENDBRANCH  25  49
BRANCH  37  60
ATOM     60  C   UNL     1       3.650 -10.353  -2.353  1.00  0.00     0.023 A 
ATOM     61  C   UNL     1       3.129  -9.396  -3.252  1.00  0.00     0.031 A 
ATOM     62  C   UNL     1       4.677 -11.194  -2.818  1.00  0.00     0.131 A 
ATOM     63  C   UNL     1       3.631  -9.316  -4.565  1.00  0.00     0.055 A 
ATOM     64  C   UNL     1       5.183 -11.101  -4.114  1.00  0.00     0.041 A 
ATOM     65  F   UNL     1       5.239 -12.100  -2.000  1.00  0.00    -0.206 F 
ATOM     66  C   UNL     1       4.657 -10.164  -4.995  1.00  0.00     0.022 A 
BRANCH  63  67
ATOM     67  S   UNL     1       2.958  -8.099  -5.739  1.00  0.00     0.124 S 
ATOM     68  O   UNL     1       1.515  -8.276  -5.624  1.00  0.00    -0.237 OA
ATOM     69  O   UNL     1       3.495  -6.840  -5.229  1.00  0.00    -0.237 OA
ATOM     70  O   UNL     1       3.522  -8.520  -7.024  1.00  0.00    -0.744 OA
ENDBRANCH  63  67
ENDBRANCH  37  60
ENDBRANCH  11  12
ENDBRANCH   4   6
ENDBRANCH   1   2
BRANCH   1  71
ATOM     71  C   UNL     1       5.237   0.204  -2.097  1.00  0.00     0.042 C 
BRANCH  71  72
ATOM     72  C   UNL     1       4.756   0.938  -3.341  1.00  0.00     0.118 C 
BRANCH  72  73
ATOM     73  N   UNL     1       5.213   2.321  -3.418  1.00  0.00    -0.352 N 
ATOM     74  C   UNL     1       5.797   2.998  -4.458  1.00  0.00     0.253 C 
ATOM     75  H   UNL     1       5.082   2.849  -2.598  1.00  0.00     0.163 HD
ATOM     76  O   UNL     1       6.088   4.187  -4.335  1.00  0.00    -0.269 OA
BRANCH  74  77
ATOM     77  C   UNL     1       6.115   2.307  -5.725  1.00  0.00     0.065 A 
ATOM     78  C   UNL     1       7.481   2.265  -6.053  1.00  0.00     0.016 A 
ATOM     79  C   UNL     1       5.181   1.645  -6.536  1.00  0.00     0.079 A 
ATOM     80  C   UNL     1       7.924   1.516  -7.142  1.00  0.00     0.001 A 
ATOM     81  C   UNL     1       5.646   0.845  -7.596  1.00  0.00     0.029 A 
ATOM     82  C   UNL     1       7.009   0.787  -7.897  1.00  0.00     0.002 A 
BRANCH  79  83
ATOM     83  N   UNL     1       3.782   1.746  -6.334  1.00  0.00    -0.220 N 
ATOM     84  C   UNL     1       3.049   2.735  -5.717  1.00  0.00     0.137 A 
ATOM     85  N   UNL     1       2.936   0.788  -6.783  1.00  0.00    -0.062 NA
ATOM     86  C   UNL     1       1.767   2.247  -5.679  1.00  0.00     0.157 A 
ATOM     87  N   UNL     1       1.718   1.056  -6.331  1.00  0.00    -0.139 NA
ENDBRANCH  79  83
ENDBRANCH  74  77
ENDBRANCH  72  73
ENDBRANCH  71  72
ENDBRANCH   1  71
TORSDOF 14
