REMARK SMILES C[NH+](C)CC[NH2+][C@@H](C(=O)NCCCNC(=O)c1ccc(-c2c3nc(c(-c4cc(S(=O)(=O)[O-])ccc4F)c4ccc([nH]4)c(-c4cc(S(=O)(=O)[O-])ccc4F)c4nc(c(-c5cc(S(=O)(=O)[O-])ccc5F)c5ccc2[nH]5)C=C4)C=C3)cc1)c1cccc(C2CC2)c1
REMARK SMILES IDX 11 1 10 2 8 3 9 4 7 6 6 7 5 10 4 11 2 12 1 13 3 14 80 16
REMARK SMILES IDX 81 17 88 18 82 19 84 20 83 21 85 22 86 23 87 24 12 25 13 26
REMARK SMILES IDX 14 27 15 28 16 30 17 31 18 32 79 33 19 34 78 35 20 36 21 37
REMARK SMILES IDX 22 38 72 39 23 40 77 41 71 42 73 43 24 44 76 45 70 46 69 47
REMARK SMILES IDX 25 49 57 50 37 51 56 52 38 53 41 54 55 55 74 56 39 57 40 58
REMARK SMILES IDX 54 60 75 61 42 62 26 63 27 64 35 65 28 66 34 67 36 68 33 69
REMARK SMILES IDX 29 70 30 71 31 72 32 73 58 74 59 75 67 76 60 77 66 78 68 79
REMARK SMILES IDX 65 80 61 81 62 82 63 83 64 84 43 85 44 86 52 87 45 88 51 89
REMARK SMILES IDX 53 90 50 91 46 92 47 93 48 94 49 95
REMARK H PARENT 10 5 6 8 6 9 2 15 14 29 73 48 41 59
REMARK Flexibility Score: inf
ROOT
ATOM      1  C   UNL     1      -1.327   3.532   3.024  1.00  0.00     0.118 C 
ENDROOT
BRANCH   1   2
ATOM      2  N   UNL     1      -1.742   2.137   3.084  1.00  0.00    -0.351 N 
ATOM      3  C   UNL     1      -1.054   0.957   3.137  1.00  0.00     0.283 C 
ATOM      4  O   UNL     1      -1.742  -0.055   2.960  1.00  0.00    -0.268 OA
ATOM      5  H   UNL     1      -2.720   2.020   3.086  1.00  0.00     0.163 HD
BRANCH   3   6
ATOM      6  C   UNL     1       0.496   0.895   3.384  1.00  0.00     0.304 C 
BRANCH   6   7
ATOM      7  N   UNL     1       1.264   0.801   2.114  1.00  0.00    -0.328 N 
ATOM      8  H   UNL     1       2.258   0.795   2.343  1.00  0.00     0.347 HD
ATOM      9  H   UNL     1       0.955  -0.053   1.651  1.00  0.00     0.347 HD
BRANCH   7  10
ATOM     10  C   UNL     1       1.020   1.889   1.180  1.00  0.00     0.323 C 
BRANCH  10  11
ATOM     11  C   UNL     1       1.570   1.659  -0.246  1.00  0.00     0.323 C 
BRANCH  11  12
ATOM     12  N   UNL     1       0.881   0.686  -1.111  1.00  0.00    -0.335 N 
ATOM     13  C   UNL     1       1.210  -0.705  -0.842  1.00  0.00     0.332 C 
ATOM     14  C   UNL     1      -0.562   0.885  -1.211  1.00  0.00     0.332 C 
ATOM     15  H   UNL     1       1.267   0.896  -2.031  1.00  0.00     0.347 HD
ENDBRANCH  11  12
ENDBRANCH  10  11
ENDBRANCH   7  10
ENDBRANCH   6   7
BRANCH   6  16
ATOM     16  C   UNL     1       0.856  -0.341   4.232  1.00  0.00     0.019 A 
ATOM     17  C   UNL     1       0.623  -1.637   3.734  1.00  0.00     0.010 A 
ATOM     18  C   UNL     1       1.437  -0.218   5.509  1.00  0.00     0.014 A 
ATOM     19  C   UNL     1       0.950  -2.764   4.477  1.00  0.00     0.001 A 
ATOM     20  C   UNL     1       1.772  -1.346   6.293  1.00  0.00    -0.044 A 
ATOM     21  C   UNL     1       1.513  -2.614   5.739  1.00  0.00     0.004 A 
BRANCH  20  22
ATOM     22  C   UNL     1       2.377  -1.280   7.681  1.00  0.00     0.019 C 
ATOM     23  C   UNL     1       2.801  -0.009   8.368  1.00  0.00     0.009 C 
ATOM     24  C   UNL     1       1.544  -0.704   8.803  1.00  0.00     0.009 C 
ENDBRANCH  20  22
ENDBRANCH   6  16
ENDBRANCH   3   6
ENDBRANCH   1   2
BRANCH   1  25
ATOM     25  C   UNL     1      -1.604   4.190   1.661  1.00  0.00     0.042 C 
BRANCH  25  26
ATOM     26  C   UNL     1      -3.044   4.085   1.156  1.00  0.00     0.118 C 
BRANCH  26  27
ATOM     27  N   UNL     1      -3.835   5.235   1.550  1.00  0.00    -0.352 N 
ATOM     28  C   UNL     1      -4.394   6.214   0.763  1.00  0.00     0.251 C 
ATOM     29  H   UNL     1      -3.994   5.327   2.517  1.00  0.00     0.163 HD
ATOM     30  O   UNL     1      -4.780   7.251   1.295  1.00  0.00    -0.269 OA
BRANCH  28  31
ATOM     31  C   UNL     1      -4.524   6.041  -0.708  1.00  0.00     0.039 A 
ATOM     32  C   UNL     1      -4.288   7.143  -1.537  1.00  0.00     0.014 A 
ATOM     33  C   UNL     1      -4.950   4.835  -1.272  1.00  0.00     0.014 A 
ATOM     34  C   UNL     1      -4.447   7.029  -2.923  1.00  0.00     0.010 A 
ATOM     35  C   UNL     1      -5.053   4.705  -2.661  1.00  0.00     0.010 A 
ATOM     36  C   UNL     1      -4.818   5.805  -3.502  1.00  0.00    -0.014 A 
BRANCH  36  37
ATOM     37  C   UNL     1      -5.009   5.674  -4.974  1.00  0.00     0.031 A 
ATOM     38  C   UNL     1      -6.379   5.391  -5.536  1.00  0.00     0.074 A 
ATOM     39  C   UNL     1      -3.953   5.767  -5.806  1.00  0.00     0.049 A 
ATOM     40  N   UNL     1      -6.740   5.169  -6.775  1.00  0.00    -0.248 NA
ATOM     41  C   UNL     1      -7.485   5.327  -4.569  1.00  0.00     0.031 C 
ATOM     42  C   UNL     1      -2.571   6.014  -5.391  1.00  0.00     0.029 A 
ATOM     43  N   UNL     1      -3.873   5.654  -7.172  1.00  0.00    -0.354 N 
ATOM     44  C   UNL     1      -8.109   4.920  -6.735  1.00  0.00     0.074 A 
ATOM     45  C   UNL     1      -8.499   4.969  -5.342  1.00  0.00     0.031 C 
ATOM     46  C   UNL     1      -1.784   6.047  -6.479  1.00  0.00     0.029 A 
ATOM     47  C   UNL     1      -2.594   5.783  -7.665  1.00  0.00     0.049 A 
ATOM     48  H   UNL     1      -4.657   5.495  -7.746  1.00  0.00     0.167 HD
ATOM     49  C   UNL     1      -8.965   4.692  -7.764  1.00  0.00     0.034 A 
ATOM     50  C   UNL     1      -2.124   5.686  -8.925  1.00  0.00     0.034 A 
ATOM     51  C   UNL     1      -8.568   4.665  -9.152  1.00  0.00     0.049 A 
ATOM     52  C   UNL     1      -3.088   5.410 -10.051  1.00  0.00     0.074 A 
ATOM     53  C   UNL     1      -9.364   4.499 -10.273  1.00  0.00     0.029 A 
ATOM     54  N   UNL     1      -7.264   4.801  -9.610  1.00  0.00    -0.354 N 
ATOM     55  N   UNL     1      -4.386   5.216  -9.999  1.00  0.00    -0.248 NA
ATOM     56  C   UNL     1      -2.525   5.349 -11.407  1.00  0.00     0.031 C 
ATOM     57  C   UNL     1      -8.535   4.474 -11.402  1.00  0.00     0.029 A 
ATOM     58  C   UNL     1      -7.230   4.693 -10.992  1.00  0.00     0.049 A 
ATOM     59  H   UNL     1      -6.478   4.951  -9.037  1.00  0.00     0.167 HD
ATOM     60  C   UNL     1      -4.796   5.039 -11.318  1.00  0.00     0.074 A 
ATOM     61  C   UNL     1      -3.611   5.160 -12.142  1.00  0.00     0.031 C 
ATOM     62  C   UNL     1      -6.041   4.805 -11.803  1.00  0.00     0.034 A 
BRANCH  49  63
ATOM     63  C   UNL     1     -10.411   4.426  -7.418  1.00  0.00     0.023 A 
ATOM     64  C   UNL     1     -11.213   5.399  -6.793  1.00  0.00     0.031 A 
ATOM     65  C   UNL     1     -10.990   3.174  -7.689  1.00  0.00     0.131 A 
ATOM     66  C   UNL     1     -12.518   5.078  -6.391  1.00  0.00     0.055 A 
ATOM     67  C   UNL     1     -12.317   2.888  -7.360  1.00  0.00     0.041 A 
ATOM     68  F   UNL     1     -10.271   2.199  -8.268  1.00  0.00    -0.206 F 
ATOM     69  C   UNL     1     -13.084   3.837  -6.691  1.00  0.00     0.022 A 
BRANCH  66  70
ATOM     70  S   UNL     1     -13.413   6.255  -5.340  1.00  0.00     0.124 S 
ATOM     71  O   UNL     1     -12.521   6.359  -4.188  1.00  0.00    -0.237 OA
ATOM     72  O   UNL     1     -13.499   7.436  -6.191  1.00  0.00    -0.237 OA
ATOM     73  O   UNL     1     -14.683   5.582  -5.076  1.00  0.00    -0.744 OA
ENDBRANCH  66  70
ENDBRANCH  49  63
BRANCH  50  74
ATOM     74  C   UNL     1      -0.665   5.832  -9.197  1.00  0.00     0.023 A 
ATOM     75  C   UNL     1      -0.173   6.913  -9.945  1.00  0.00     0.031 A 
ATOM     76  C   UNL     1       0.253   4.868  -8.745  1.00  0.00     0.131 A 
ATOM     77  C   UNL     1       1.195   6.983 -10.255  1.00  0.00     0.055 A 
ATOM     78  C   UNL     1       1.619   4.967  -9.015  1.00  0.00     0.041 A 
ATOM     79  F   UNL     1      -0.167   3.817  -8.023  1.00  0.00    -0.206 F 
ATOM     80  C   UNL     1       2.095   6.024  -9.785  1.00  0.00     0.022 A 
BRANCH  77  81
ATOM     81  S   UNL     1       1.771   8.312 -11.346  1.00  0.00     0.124 S 
ATOM     82  O   UNL     1       0.977   8.077 -12.547  1.00  0.00    -0.237 OA
ATOM     83  O   UNL     1       1.433   9.504 -10.576  1.00  0.00    -0.237 OA
ATOM     84  O   UNL     1       3.202   8.045 -11.481  1.00  0.00    -0.744 OA
ENDBRANCH  77  81
ENDBRANCH  50  74
BRANCH  62  85
ATOM     85  C   UNL     1      -6.186   4.711 -13.302  1.00  0.00     0.023 A 
ATOM     86  C   UNL     1      -5.653   3.634 -14.032  1.00  0.00     0.031 A 
ATOM     87  C   UNL     1      -6.863   5.721 -14.009  1.00  0.00     0.131 A 
ATOM     88  C   UNL     1      -5.763   3.616 -15.431  1.00  0.00     0.055 A 
ATOM     89  C   UNL     1      -7.015   5.671 -15.395  1.00  0.00     0.041 A 
ATOM     90  F   UNL     1      -7.390   6.772 -13.361  1.00  0.00    -0.206 F 
ATOM     91  C   UNL     1      -6.454   4.621 -16.115  1.00  0.00     0.022 A 
BRANCH  88  92
ATOM     92  S   UNL     1      -4.927   2.300 -16.357  1.00  0.00     0.124 S 
ATOM     93  O   UNL     1      -3.532   2.501 -15.977  1.00  0.00    -0.237 OA
ATOM     94  O   UNL     1      -5.563   1.096 -15.832  1.00  0.00    -0.237 OA
ATOM     95  O   UNL     1      -5.241   2.607 -17.751  1.00  0.00    -0.744 OA
ENDBRANCH  88  92
ENDBRANCH  62  85
ENDBRANCH  36  37
ENDBRANCH  28  31
ENDBRANCH  26  27
ENDBRANCH  25  26
ENDBRANCH   1  25
TORSDOF 19
