REMARK SMILES Cc1n[nH]c(C[N@H+]2CCC[C@H](c3cccc(C(=O)NCCCNC(=O)c4ccc(-c5c6nc(c(-c7cc(S(=O)(=O)[O-])ccc7F)c7ccc([nH]7)c(-c7cc(S(=O)(=O)[O-])ccc7F)c7nc(c(-c8cc(S(=O)(=O)[O-])ccc8F)c8ccc5[nH]8)C=C7)C=C6)cc4)c3)C2)n1
REMARK SMILES IDX 21 1 20 2 19 3 17 4 18 5 16 7 12 8 13 9 89 10 14 11 15 12
REMARK SMILES IDX 11 13 7 14 8 15 90 16 9 18 10 19 6 20 5 21 1 22 2 23 3 24
REMARK SMILES IDX 91 25 4 26 22 28 23 29 24 30 25 32 26 33 27 34 88 35 28 36
REMARK SMILES IDX 87 37 29 38 30 39 31 40 81 41 32 42 86 43 80 44 82 45 33 46
REMARK SMILES IDX 85 47 79 48 78 49 34 51 66 52 46 53 65 54 47 55 50 56 64 57
REMARK SMILES IDX 83 58 48 59 49 60 63 62 84 63 51 64 35 65 36 66 44 67 37 68
REMARK SMILES IDX 43 69 45 70 42 71 38 72 39 73 40 74 41 75 67 76 68 77 76 78
REMARK SMILES IDX 69 79 75 80 77 81 74 82 70 83 71 84 72 85 73 86 52 87 53 88
REMARK SMILES IDX 61 89 54 90 60 91 62 92 59 93 55 94 56 95 57 96 58 97
REMARK H PARENT 19 6 7 17 4 27 23 31 82 50 50 61
REMARK Flexibility Score: inf
ROOT
ATOM      1  C   UNL     1      -3.356   8.457   1.193  1.00  0.00     0.042 C 
ENDROOT
BRANCH   1   2
ATOM      2  C   UNL     1      -4.117   8.851  -0.085  1.00  0.00     0.118 C 
BRANCH   2   3
ATOM      3  N   UNL     1      -3.532   9.996  -0.771  1.00  0.00    -0.352 N 
ATOM      4  C   UNL     1      -2.568  10.123  -1.746  1.00  0.00     0.251 C 
ATOM      5  O   UNL     1      -2.416  11.241  -2.243  1.00  0.00    -0.269 OA
ATOM      6  H   UNL     1      -3.903  10.858  -0.475  1.00  0.00     0.163 HD
BRANCH   4   7
ATOM      7  C   UNL     1      -1.719   9.002  -2.248  1.00  0.00     0.040 A 
ATOM      8  C   UNL     1      -0.906   6.684  -2.170  1.00  0.00    -0.039 A 
ATOM      9  C   UNL     1      -0.115   6.934  -3.293  1.00  0.00     0.004 A 
ATOM     10  C   UNL     1      -1.646   7.753  -1.643  1.00  0.00     0.018 A 
ATOM     11  C   UNL     1      -0.111   8.199  -3.886  1.00  0.00     0.001 A 
ATOM     12  C   UNL     1      -0.921   9.219  -3.379  1.00  0.00     0.014 A 
BRANCH   8  13
ATOM     13  C   UNL     1      -1.012   5.346  -1.447  1.00  0.00     0.074 C 
ATOM     14  N   UNL     1      -0.654   3.710  -3.316  1.00  0.00    -0.328 N 
ATOM     15  C   UNL     1      -2.036   3.228  -3.224  1.00  0.00     0.262 C 
ATOM     16  C   UNL     1      -0.157   4.201  -2.014  1.00  0.00     0.270 C 
ATOM     17  H   UNL     1      -0.677   4.501  -3.960  1.00  0.00     0.348 HD
ATOM     18  C   UNL     1      -2.976   4.301  -2.671  1.00  0.00     0.062 C 
ATOM     19  C   UNL     1      -2.472   4.842  -1.336  1.00  0.00     0.020 C 
BRANCH  14  20
ATOM     20  C   UNL     1       0.268   2.726  -3.910  1.00  0.00     0.340 C 
BRANCH  20  21
ATOM     21  C   UNL     1       0.481   1.506  -3.080  1.00  0.00     0.179 A 
ATOM     22  C   UNL     1       1.149  -0.316  -0.146  1.00  0.00     0.092 C 
ATOM     23  C   UNL     1       0.804   0.146  -1.503  1.00  0.00     0.147 A 
ATOM     24  N   UNL     1       0.123  -0.591  -2.389  1.00  0.00    -0.159 NA
ATOM     25  N   UNL     1       1.095   1.414  -1.918  1.00  0.00    -0.211 NA
ATOM     26  N   UNL     1      -0.055   0.290  -3.388  1.00  0.00    -0.258 N 
ATOM     27  H   UNL     1      -0.514   0.084  -4.235  1.00  0.00     0.192 HD
ENDBRANCH  20  21
ENDBRANCH  14  20
ENDBRANCH   8  13
ENDBRANCH   4   7
ENDBRANCH   2   3
ENDBRANCH   1   2
BRANCH   1  28
ATOM     28  C   UNL     1      -3.899   9.135   2.438  1.00  0.00     0.118 C 
BRANCH  28  29
ATOM     29  N   UNL     1      -5.241   8.657   2.780  1.00  0.00    -0.352 N 
ATOM     30  C   UNL     1      -6.157   9.189   3.675  1.00  0.00     0.251 C 
ATOM     31  H   UNL     1      -5.533   7.843   2.309  1.00  0.00     0.163 HD
ATOM     32  O   UNL     1      -7.070   8.508   4.101  1.00  0.00    -0.269 OA
BRANCH  30  33
ATOM     33  C   UNL     1      -5.979  10.588   4.104  1.00  0.00     0.039 A 
ATOM     34  C   UNL     1      -6.135  10.970   5.438  1.00  0.00     0.014 A 
ATOM     35  C   UNL     1      -5.561  11.502   3.144  1.00  0.00     0.014 A 
ATOM     36  C   UNL     1      -5.752  12.257   5.813  1.00  0.00     0.010 A 
ATOM     37  C   UNL     1      -5.005  12.685   3.547  1.00  0.00     0.010 A 
ATOM     38  C   UNL     1      -5.150  13.100   4.866  1.00  0.00    -0.014 A 
BRANCH  38  39
ATOM     39  C   UNL     1      -4.542  14.372   5.250  1.00  0.00     0.031 A 
ATOM     40  C   UNL     1      -3.570  14.279   6.372  1.00  0.00     0.074 A 
ATOM     41  C   UNL     1      -4.652  15.493   4.503  1.00  0.00     0.049 A 
ATOM     42  N   UNL     1      -3.717  14.724   7.574  1.00  0.00    -0.248 NA
ATOM     43  C   UNL     1      -2.364  13.452   6.196  1.00  0.00     0.031 C 
ATOM     44  C   UNL     1      -5.330  15.663   3.211  1.00  0.00     0.029 A 
ATOM     45  N   UNL     1      -4.061  16.705   4.681  1.00  0.00    -0.354 N 
ATOM     46  C   UNL     1      -2.517  14.471   8.229  1.00  0.00     0.074 A 
ATOM     47  C   UNL     1      -1.835  13.496   7.422  1.00  0.00     0.031 C 
ATOM     48  C   UNL     1      -4.901  16.797   2.616  1.00  0.00     0.029 A 
ATOM     49  C   UNL     1      -4.067  17.525   3.554  1.00  0.00     0.049 A 
ATOM     50  H   UNL     1      -3.662  16.981   5.538  1.00  0.00     0.167 HD
ATOM     51  C   UNL     1      -2.084  15.282   9.237  1.00  0.00     0.034 A 
ATOM     52  C   UNL     1      -3.420  18.710   3.389  1.00  0.00     0.034 A 
ATOM     53  C   UNL     1      -3.156  16.145   9.693  1.00  0.00     0.049 A 
ATOM     54  C   UNL     1      -3.164  19.239   4.752  1.00  0.00     0.074 A 
ATOM     55  C   UNL     1      -4.429  15.924  10.186  1.00  0.00     0.029 A 
ATOM     56  N   UNL     1      -3.149  17.461   9.278  1.00  0.00    -0.354 N 
ATOM     57  N   UNL     1      -4.122  19.589   5.569  1.00  0.00    -0.248 NA
ATOM     58  C   UNL     1      -1.904  18.893   5.396  1.00  0.00     0.031 C 
ATOM     59  C   UNL     1      -5.239  16.915   9.555  1.00  0.00     0.029 A 
ATOM     60  C   UNL     1      -4.406  17.748   8.803  1.00  0.00     0.049 A 
ATOM     61  H   UNL     1      -2.384  18.080   9.315  1.00  0.00     0.167 HD
ATOM     62  C   UNL     1      -3.747  19.075   6.801  1.00  0.00     0.074 A 
ATOM     63  C   UNL     1      -2.326  18.754   6.658  1.00  0.00     0.031 C 
ATOM     64  C   UNL     1      -4.678  18.679   7.722  1.00  0.00     0.034 A 
BRANCH  51  65
ATOM     65  C   UNL     1      -0.635  15.583   9.563  1.00  0.00     0.023 A 
ATOM     66  C   UNL     1      -0.394  16.476  10.627  1.00  0.00     0.031 A 
ATOM     67  C   UNL     1       0.481  15.297   8.746  1.00  0.00     0.131 A 
ATOM     68  C   UNL     1       0.842  17.131  10.761  1.00  0.00     0.055 A 
ATOM     69  C   UNL     1       1.732  15.897   8.927  1.00  0.00     0.041 A 
ATOM     70  F   UNL     1       0.415  14.498   7.676  1.00  0.00    -0.206 F 
ATOM     71  C   UNL     1       1.909  16.849   9.915  1.00  0.00     0.022 A 
BRANCH  68  72
ATOM     72  S   UNL     1       0.960  18.501  11.939  1.00  0.00     0.124 S 
ATOM     73  O   UNL     1      -0.157  19.342  11.520  1.00  0.00    -0.237 OA
ATOM     74  O   UNL     1       0.805  17.812  13.215  1.00  0.00    -0.237 OA
ATOM     75  O   UNL     1       2.288  19.053  11.683  1.00  0.00    -0.744 OA
ENDBRANCH  68  72
ENDBRANCH  51  65
BRANCH  52  76
ATOM     76  C   UNL     1      -2.780  19.230   2.147  1.00  0.00     0.023 A 
ATOM     77  C   UNL     1      -2.451  20.590   1.954  1.00  0.00     0.031 A 
ATOM     78  C   UNL     1      -2.260  18.317   1.198  1.00  0.00     0.131 A 
ATOM     79  C   UNL     1      -1.642  20.982   0.857  1.00  0.00     0.055 A 
ATOM     80  C   UNL     1      -1.467  18.710   0.118  1.00  0.00     0.041 A 
ATOM     81  F   UNL     1      -2.437  16.994   1.339  1.00  0.00    -0.206 F 
ATOM     82  C   UNL     1      -1.146  20.046  -0.052  1.00  0.00     0.022 A 
BRANCH  79  83
ATOM     83  S   UNL     1      -1.139  22.723   0.645  1.00  0.00     0.124 S 
ATOM     84  O   UNL     1      -2.397  23.370   0.289  1.00  0.00    -0.237 OA
ATOM     85  O   UNL     1      -0.587  23.053   1.954  1.00  0.00    -0.237 OA
ATOM     86  O   UNL     1      -0.152  22.666  -0.435  1.00  0.00    -0.744 OA
ENDBRANCH  79  83
ENDBRANCH  52  76
BRANCH  64  87
ATOM     87  C   UNL     1      -6.133  19.056   7.497  1.00  0.00     0.023 A 
ATOM     88  C   UNL     1      -6.894  18.720   6.352  1.00  0.00     0.031 A 
ATOM     89  C   UNL     1      -6.809  19.674   8.564  1.00  0.00     0.131 A 
ATOM     90  C   UNL     1      -8.273  19.014   6.307  1.00  0.00     0.055 A 
ATOM     91  C   UNL     1      -8.177  19.941   8.526  1.00  0.00     0.041 A 
ATOM     92  F   UNL     1      -6.152  19.995   9.692  1.00  0.00    -0.206 F 
ATOM     93  C   UNL     1      -8.914  19.617   7.394  1.00  0.00     0.022 A 
BRANCH  90  94
ATOM     94  S   UNL     1      -9.263  18.633   4.824  1.00  0.00     0.124 S 
ATOM     95  O   UNL     1      -8.454  19.154   3.728  1.00  0.00    -0.237 OA
ATOM     96  O   UNL     1      -9.389  17.179   4.891  1.00  0.00    -0.237 OA
ATOM     97  O   UNL     1     -10.514  19.360   5.055  1.00  0.00    -0.744 OA
ENDBRANCH  90  94
ENDBRANCH  64  87
ENDBRANCH  38  39
ENDBRANCH  30  33
ENDBRANCH  28  29
ENDBRANCH   1  28
TORSDOF 16
