REMARK SMILES COc1ccc(S(=O)(=O)N2CCCC[C@@H]2C(=O)NCCCNC(=O)c2ccc(-c3c4nc(c(-c5cc(S(=O)(=O)[O-])ccc5F)c5ccc([nH]5)c(-c5cc(S(=O)(=O)[O-])ccc5F)c5nc(c(-c6cc(S(=O)(=O)[O-])ccc6F)c6ccc3[nH]6)C=C5)C=C4)cc2)cc1C
REMARK SMILES IDX 20 1 19 2 18 3 16 4 17 5 15 7 10 8 11 9 12 10 14 11 13 12
REMARK SMILES IDX 7 13 8 14 9 15 6 16 3 17 4 18 89 19 5 20 88 21 90 22 2 23
REMARK SMILES IDX 1 24 21 25 22 26 23 27 24 29 25 30 26 31 87 32 27 33 86 34
REMARK SMILES IDX 28 35 29 36 30 37 80 38 31 39 85 40 79 41 81 42 32 43 84 44
REMARK SMILES IDX 78 45 77 46 33 48 65 49 45 50 64 51 46 52 49 53 63 54 82 55
REMARK SMILES IDX 47 56 48 57 62 59 83 60 50 61 34 62 35 63 43 64 36 65 42 66
REMARK SMILES IDX 44 67 41 68 37 69 38 70 39 71 40 72 66 73 67 74 75 75 68 76
REMARK SMILES IDX 74 77 76 78 73 79 69 80 70 81 71 82 72 83 51 84 52 85 60 86
REMARK SMILES IDX 53 87 59 88 61 89 58 90 54 91 55 92 56 93 57 94
REMARK H PARENT 18 6 22 28 81 47 49 58
REMARK Flexibility Score: inf
ROOT
ATOM      1  C   UNL     1       5.823   7.090  -6.979  1.00  0.00     0.042 C 
ENDROOT
BRANCH   1   2
ATOM      2  C   UNL     1       4.420   6.709  -6.540  1.00  0.00     0.117 C 
BRANCH   2   3
ATOM      3  N   UNL     1       4.121   5.330  -6.891  1.00  0.00    -0.355 N 
ATOM      4  C   UNL     1       4.138   4.210  -6.112  1.00  0.00     0.238 C 
ATOM      5  O   UNL     1       4.037   3.093  -6.629  1.00  0.00    -0.273 OA
ATOM      6  H   UNL     1       3.868   5.183  -7.831  1.00  0.00     0.163 HD
BRANCH   4   7
ATOM      7  C   UNL     1       4.348   4.325  -4.594  1.00  0.00     0.162 C 
ATOM      8  N   UNL     1       3.408   5.295  -3.941  1.00  0.00    -0.185 NA
ATOM      9  C   UNL     1       3.791   5.983  -2.690  1.00  0.00     0.103 C 
ATOM     10  C   UNL     1       5.275   6.285  -2.602  1.00  0.00     0.017 C 
ATOM     11  C   UNL     1       5.830   4.580  -4.293  1.00  0.00     0.030 C 
ATOM     12  C   UNL     1       6.093   5.039  -2.872  1.00  0.00     0.004 C 
BRANCH   8  13
ATOM     13  S   UNL     1       1.721   5.008  -4.114  1.00  0.00     0.243 S 
ATOM     14  O   UNL     1       1.434   4.639  -5.489  1.00  0.00    -0.207 OA
ATOM     15  O   UNL     1       1.022   6.071  -3.446  1.00  0.00    -0.207 OA
BRANCH  13  16
ATOM     16  C   UNL     1       1.363   3.538  -3.163  1.00  0.00     0.083 A 
ATOM     17  C   UNL     1       0.758   1.156  -1.825  1.00  0.00     0.121 A 
ATOM     18  C   UNL     1      -0.201   1.783  -2.633  1.00  0.00     0.048 A 
ATOM     19  C   UNL     1       2.044   1.702  -1.711  1.00  0.00    -0.008 A 
ATOM     20  C   UNL     1       0.099   2.967  -3.309  1.00  0.00     0.025 A 
ATOM     21  C   UNL     1       2.313   2.920  -2.352  1.00  0.00     0.029 A 
ATOM     22  C   UNL     1       3.181   1.047  -0.983  1.00  0.00     0.048 C 
BRANCH  17  23
ATOM     23  O   UNL     1       0.360  -0.036  -1.281  1.00  0.00    -0.496 OA
ATOM     24  C   UNL     1       0.620  -0.168   0.111  1.00  0.00     0.278 C 
ENDBRANCH  17  23
ENDBRANCH  13  16
ENDBRANCH   8  13
ENDBRANCH   4   7
ENDBRANCH   2   3
ENDBRANCH   1   2
BRANCH   1  25
ATOM     25  C   UNL     1       5.927   7.396  -8.462  1.00  0.00     0.118 C 
BRANCH  25  26
ATOM     26  N   UNL     1       5.795   8.823  -8.757  1.00  0.00    -0.352 N 
ATOM     27  C   UNL     1       6.283   9.563  -9.820  1.00  0.00     0.251 C 
ATOM     28  H   UNL     1       5.278   9.338  -8.096  1.00  0.00     0.163 HD
ATOM     29  O   UNL     1       6.176  10.785  -9.876  1.00  0.00    -0.269 OA
BRANCH  27  30
ATOM     30  C   UNL     1       6.763   8.835 -11.014  1.00  0.00     0.039 A 
ATOM     31  C   UNL     1       5.990   9.012 -12.170  1.00  0.00     0.014 A 
ATOM     32  C   UNL     1       7.578   7.724 -10.856  1.00  0.00     0.014 A 
ATOM     33  C   UNL     1       5.763   7.923 -12.992  1.00  0.00     0.010 A 
ATOM     34  C   UNL     1       7.233   6.603 -11.568  1.00  0.00     0.010 A 
ATOM     35  C   UNL     1       6.272   6.700 -12.580  1.00  0.00    -0.014 A 
BRANCH  35  36
ATOM     36  C   UNL     1       5.884   5.435 -13.159  1.00  0.00     0.031 A 
ATOM     37  C   UNL     1       6.785   4.870 -14.166  1.00  0.00     0.074 A 
ATOM     38  C   UNL     1       4.815   4.785 -12.653  1.00  0.00     0.049 A 
ATOM     39  N   UNL     1       6.462   3.957 -15.003  1.00  0.00    -0.248 NA
ATOM     40  C   UNL     1       8.147   5.364 -14.352  1.00  0.00     0.031 C 
ATOM     41  C   UNL     1       4.408   3.401 -12.865  1.00  0.00     0.029 A 
ATOM     42  N   UNL     1       3.722   5.374 -12.014  1.00  0.00    -0.354 N 
ATOM     43  C   UNL     1       7.622   3.520 -15.602  1.00  0.00     0.074 A 
ATOM     44  C   UNL     1       8.616   4.500 -15.254  1.00  0.00     0.031 C 
ATOM     45  C   UNL     1       3.086   3.301 -12.636  1.00  0.00     0.029 A 
ATOM     46  C   UNL     1       2.588   4.652 -12.440  1.00  0.00     0.049 A 
ATOM     47  H   UNL     1       3.739   6.137 -11.393  1.00  0.00     0.167 HD
ATOM     48  C   UNL     1       7.611   2.291 -16.184  1.00  0.00     0.034 A 
ATOM     49  C   UNL     1       1.664   5.268 -13.236  1.00  0.00     0.034 A 
ATOM     50  C   UNL     1       6.245   1.754 -16.182  1.00  0.00     0.049 A 
ATOM     51  C   UNL     1       1.573   4.650 -14.615  1.00  0.00     0.074 A 
ATOM     52  C   UNL     1       5.573   0.862 -15.363  1.00  0.00     0.029 A 
ATOM     53  N   UNL     1       5.267   2.439 -16.890  1.00  0.00    -0.354 N 
ATOM     54  N   UNL     1       2.474   3.868 -15.150  1.00  0.00    -0.248 NA
ATOM     55  C   UNL     1       0.439   4.872 -15.496  1.00  0.00     0.031 C 
ATOM     56  C   UNL     1       4.173   1.059 -15.559  1.00  0.00     0.029 A 
ATOM     57  C   UNL     1       3.998   2.035 -16.526  1.00  0.00     0.049 A 
ATOM     58  H   UNL     1       5.455   3.127 -17.568  1.00  0.00     0.167 HD
ATOM     59  C   UNL     1       2.074   3.471 -16.405  1.00  0.00     0.074 A 
ATOM     60  C   UNL     1       0.795   4.150 -16.572  1.00  0.00     0.031 C 
ATOM     61  C   UNL     1       2.838   2.633 -17.185  1.00  0.00     0.034 A 
BRANCH  48  62
ATOM     62  C   UNL     1       8.834   1.459 -16.499  1.00  0.00     0.023 A 
ATOM     63  C   UNL     1       8.666   0.065 -16.632  1.00  0.00     0.031 A 
ATOM     64  C   UNL     1      10.164   1.911 -16.622  1.00  0.00     0.131 A 
ATOM     65  C   UNL     1       9.762  -0.802 -16.797  1.00  0.00     0.055 A 
ATOM     66  C   UNL     1      11.261   1.048 -16.757  1.00  0.00     0.041 A 
ATOM     67  F   UNL     1      10.482   3.208 -16.662  1.00  0.00    -0.206 F 
ATOM     68  C   UNL     1      11.065  -0.319 -16.839  1.00  0.00     0.022 A 
BRANCH  65  69
ATOM     69  S   UNL     1       9.453  -2.580 -16.947  1.00  0.00     0.124 S 
ATOM     70  O   UNL     1       8.839  -2.894 -15.662  1.00  0.00    -0.237 OA
ATOM     71  O   UNL     1       8.582  -2.645 -18.115  1.00  0.00    -0.237 OA
ATOM     72  O   UNL     1      10.790  -3.139 -17.145  1.00  0.00    -0.744 OA
ENDBRANCH  65  69
ENDBRANCH  48  62
BRANCH  49  73
ATOM     73  C   UNL     1       1.483   6.715 -12.884  1.00  0.00     0.023 A 
ATOM     74  C   UNL     1       1.154   6.986 -11.537  1.00  0.00     0.031 A 
ATOM     75  C   UNL     1       2.070   7.747 -13.626  1.00  0.00     0.131 A 
ATOM     76  C   UNL     1       1.651   8.139 -10.910  1.00  0.00     0.055 A 
ATOM     77  C   UNL     1       2.454   8.953 -13.017  1.00  0.00     0.041 A 
ATOM     78  F   UNL     1       2.418   7.557 -14.907  1.00  0.00    -0.206 F 
ATOM     79  C   UNL     1       2.308   9.126 -11.639  1.00  0.00     0.022 A 
BRANCH  76  80
ATOM     80  S   UNL     1       1.756   8.119  -9.097  1.00  0.00     0.124 S 
ATOM     81  O   UNL     1       0.413   8.527  -8.706  1.00  0.00    -0.237 OA
ATOM     82  O   UNL     1       2.120   6.727  -8.838  1.00  0.00    -0.237 OA
ATOM     83  O   UNL     1       2.822   9.072  -8.785  1.00  0.00    -0.744 OA
ENDBRANCH  76  80
ENDBRANCH  49  73
BRANCH  61  84
ATOM     84  C   UNL     1       2.598   2.284 -18.654  1.00  0.00     0.023 A 
ATOM     85  C   UNL     1       1.403   2.555 -19.324  1.00  0.00     0.031 A 
ATOM     86  C   UNL     1       3.591   1.661 -19.459  1.00  0.00     0.131 A 
ATOM     87  C   UNL     1       1.246   2.312 -20.702  1.00  0.00     0.055 A 
ATOM     88  C   UNL     1       3.434   1.403 -20.826  1.00  0.00     0.041 A 
ATOM     89  F   UNL     1       4.777   1.272 -18.974  1.00  0.00    -0.206 F 
ATOM     90  C   UNL     1       2.258   1.744 -21.464  1.00  0.00     0.022 A 
BRANCH  87  91
ATOM     91  S   UNL     1      -0.333   2.767 -21.458  1.00  0.00     0.124 S 
ATOM     92  O   UNL     1      -1.290   2.020 -20.646  1.00  0.00    -0.237 OA
ATOM     93  O   UNL     1      -0.348   4.215 -21.277  1.00  0.00    -0.237 OA
ATOM     94  O   UNL     1      -0.199   2.312 -22.839  1.00  0.00    -0.744 OA
ENDBRANCH  87  91
ENDBRANCH  61  84
ENDBRANCH  35  36
ENDBRANCH  27  30
ENDBRANCH  25  26
ENDBRANCH   1  25
TORSDOF 16
