REMARK SMILES Cc1ccnc(C(=O)c2[nH]c3ccc(F)cc3c2CC(=O)NCCCNC(=O)c2ccc(-c3c4nc(c(-c5cc(S(=O)(=O)[O-])ccc5F)c5ccc([nH]5)c(-c5cc(S(=O)(=O)[O-])ccc5F)c5nc(c(-c6cc(S(=O)(=O)[O-])ccc6F)c6ccc3[nH]6)C=C5)C=C4)cc2)c1
REMARK SMILES IDX 24 1 23 2 22 3 20 4 21 5 19 7 18 8 9 9 10 10 11 11 17 13
REMARK SMILES IDX 12 14 16 15 13 16 14 17 15 18 7 19 8 20 6 21 1 22 2 23 3 24
REMARK SMILES IDX 92 25 4 26 5 27 25 28 26 29 27 30 28 32 29 33 30 34 91 35
REMARK SMILES IDX 31 36 90 37 32 38 33 39 34 40 84 41 35 42 89 43 83 44 85 45
REMARK SMILES IDX 36 46 88 47 82 48 81 49 37 51 69 52 49 53 68 54 50 55 53 56
REMARK SMILES IDX 67 57 86 58 51 59 52 60 66 62 87 63 54 64 38 65 39 66 47 67
REMARK SMILES IDX 40 68 46 69 48 70 45 71 41 72 42 73 43 74 44 75 70 76 71 77
REMARK SMILES IDX 79 78 72 79 78 80 80 81 77 82 73 83 74 84 75 85 76 86 55 87
REMARK SMILES IDX 56 88 64 89 57 90 63 91 65 92 62 93 58 94 59 95 60 96 61 97
REMARK H PARENT 22 6 10 12 26 31 85 50 53 61
REMARK Flexibility Score: inf
ROOT
ATOM      1  C   UNL     1      -2.913  -3.822   0.634  1.00  0.00     0.042 C 
ENDROOT
BRANCH   1   2
ATOM      2  C   UNL     1      -3.086  -3.654  -0.877  1.00  0.00     0.117 C 
BRANCH   2   3
ATOM      3  N   UNL     1      -2.430  -2.501  -1.462  1.00  0.00    -0.356 N 
ATOM      4  C   UNL     1      -1.250  -2.395  -2.139  1.00  0.00     0.224 C 
ATOM      5  O   UNL     1      -1.038  -1.333  -2.733  1.00  0.00    -0.275 OA
ATOM      6  H   UNL     1      -2.918  -1.653  -1.353  1.00  0.00     0.163 HD
BRANCH   4   7
ATOM      7  C   UNL     1      -0.251  -3.533  -2.233  1.00  0.00     0.138 C 
BRANCH   7   8
ATOM      8  C   UNL     1       0.194  -4.143  -0.935  1.00  0.00    -0.002 A 
ATOM      9  C   UNL     1       1.047  -3.627   0.044  1.00  0.00     0.093 A 
ATOM     10  N   UNL     1       1.239  -4.632   0.973  1.00  0.00    -0.352 N 
ATOM     11  C   UNL     1       0.476  -5.734   0.690  1.00  0.00     0.046 A 
ATOM     12  H   UNL     1       1.849  -4.564   1.743  1.00  0.00     0.167 HD
ATOM     13  C   UNL     1      -0.138  -5.492  -0.534  1.00  0.00     0.007 A 
ATOM     14  C   UNL     1       0.304  -6.924   1.412  1.00  0.00     0.030 A 
ATOM     15  C   UNL     1      -0.927  -6.520  -1.095  1.00  0.00     0.049 A 
ATOM     16  C   UNL     1      -0.531  -7.899   0.861  1.00  0.00     0.041 A 
ATOM     17  C   UNL     1      -1.125  -7.697  -0.375  1.00  0.00     0.123 A 
ATOM     18  F   UNL     1      -1.921  -8.646  -0.887  1.00  0.00    -0.207 F 
BRANCH   9  19
ATOM     19  C   UNL     1       1.807  -2.386   0.188  1.00  0.00     0.227 C 
ATOM     20  O   UNL     1       3.004  -2.447   0.470  1.00  0.00    -0.285 OA
BRANCH  19  21
ATOM     21  C   UNL     1       1.151  -1.031   0.123  1.00  0.00     0.113 A 
ATOM     22  C   UNL     1      -2.235   0.690   0.296  1.00  0.00     0.044 C 
ATOM     23  C   UNL     1      -0.760   0.435   0.215  1.00  0.00    -0.047 A 
ATOM     24  C   UNL     1       0.104   1.506   0.001  1.00  0.00     0.023 A 
ATOM     25  C   UNL     1      -0.211  -0.849   0.341  1.00  0.00     0.036 A 
ATOM     26  C   UNL     1       1.457   1.249  -0.131  1.00  0.00     0.112 A 
ATOM     27  N   UNL     1       1.995   0.013  -0.094  1.00  0.00    -0.253 NA
ENDBRANCH  19  21
ENDBRANCH   9  19
ENDBRANCH   7   8
ENDBRANCH   4   7
ENDBRANCH   2   3
ENDBRANCH   1   2
BRANCH   1  28
ATOM     28  C   UNL     1      -3.553  -2.777   1.544  1.00  0.00     0.118 C 
BRANCH  28  29
ATOM     29  N   UNL     1      -4.944  -2.502   1.246  1.00  0.00    -0.352 N 
ATOM     30  C   UNL     1      -6.004  -2.360   2.108  1.00  0.00     0.251 C 
ATOM     31  H   UNL     1      -5.160  -2.403   0.290  1.00  0.00     0.163 HD
ATOM     32  O   UNL     1      -7.139  -2.275   1.653  1.00  0.00    -0.269 OA
BRANCH  30  33
ATOM     33  C   UNL     1      -5.779  -2.333   3.571  1.00  0.00     0.039 A 
ATOM     34  C   UNL     1      -6.589  -3.127   4.386  1.00  0.00     0.014 A 
ATOM     35  C   UNL     1      -4.800  -1.513   4.141  1.00  0.00     0.014 A 
ATOM     36  C   UNL     1      -6.385  -3.139   5.768  1.00  0.00     0.010 A 
ATOM     37  C   UNL     1      -4.564  -1.567   5.516  1.00  0.00     0.010 A 
ATOM     38  C   UNL     1      -5.351  -2.383   6.345  1.00  0.00    -0.014 A 
BRANCH  38  39
ATOM     39  C   UNL     1      -5.077  -2.453   7.806  1.00  0.00     0.031 A 
ATOM     40  C   UNL     1      -5.269  -1.243   8.681  1.00  0.00     0.074 A 
ATOM     41  C   UNL     1      -4.612  -3.601   8.340  1.00  0.00     0.049 A 
ATOM     42  N   UNL     1      -5.034  -1.101   9.960  1.00  0.00    -0.248 NA
ATOM     43  C   UNL     1      -5.773  -0.029   8.023  1.00  0.00     0.031 C 
ATOM     44  C   UNL     1      -4.360  -4.835   7.593  1.00  0.00     0.029 A 
ATOM     45  N   UNL     1      -4.264  -3.919   9.630  1.00  0.00    -0.354 N 
ATOM     46  C   UNL     1      -5.354   0.219  10.263  1.00  0.00     0.074 A 
ATOM     47  C   UNL     1      -5.744   0.847   9.017  1.00  0.00     0.031 C 
ATOM     48  C   UNL     1      -3.922  -5.780   8.439  1.00  0.00     0.029 A 
ATOM     49  C   UNL     1      -3.810  -5.210   9.778  1.00  0.00     0.049 A 
ATOM     50  H   UNL     1      -4.333  -3.284  10.378  1.00  0.00     0.167 HD
ATOM     51  C   UNL     1      -5.342   0.842  11.469  1.00  0.00     0.034 A 
ATOM     52  C   UNL     1      -3.340  -5.858  10.864  1.00  0.00     0.034 A 
ATOM     53  C   UNL     1      -4.949   0.200  12.702  1.00  0.00     0.049 A 
ATOM     54  C   UNL     1      -3.290  -5.130  12.184  1.00  0.00     0.074 A 
ATOM     55  C   UNL     1      -4.946   0.726  13.983  1.00  0.00     0.029 A 
ATOM     56  N   UNL     1      -4.476  -1.102  12.810  1.00  0.00    -0.354 N 
ATOM     57  N   UNL     1      -3.642  -3.895  12.461  1.00  0.00    -0.248 NA
ATOM     58  C   UNL     1      -2.789  -5.885  13.339  1.00  0.00     0.031 C 
ATOM     59  C   UNL     1      -4.396  -0.225  14.848  1.00  0.00     0.029 A 
ATOM     60  C   UNL     1      -4.142  -1.381  14.128  1.00  0.00     0.049 A 
ATOM     61  H   UNL     1      -4.391  -1.735  12.061  1.00  0.00     0.167 HD
ATOM     62  C   UNL     1      -3.437  -3.740  13.830  1.00  0.00     0.074 A 
ATOM     63  C   UNL     1      -2.946  -5.011  14.322  1.00  0.00     0.031 C 
ATOM     64  C   UNL     1      -3.642  -2.648  14.610  1.00  0.00     0.034 A 
BRANCH  51  65
ATOM     65  C   UNL     1      -5.736   2.301  11.505  1.00  0.00     0.023 A 
ATOM     66  C   UNL     1      -7.020   2.731  11.128  1.00  0.00     0.031 A 
ATOM     67  C   UNL     1      -4.810   3.280  11.908  1.00  0.00     0.131 A 
ATOM     68  C   UNL     1      -7.319   4.101  11.089  1.00  0.00     0.055 A 
ATOM     69  C   UNL     1      -5.141   4.636  11.951  1.00  0.00     0.041 A 
ATOM     70  F   UNL     1      -3.560   2.936  12.259  1.00  0.00    -0.206 F 
ATOM     71  C   UNL     1      -6.397   5.055  11.524  1.00  0.00     0.022 A 
BRANCH  68  72
ATOM     72  S   UNL     1      -8.873   4.626  10.316  1.00  0.00     0.124 S 
ATOM     73  O   UNL     1      -8.742   4.058   8.976  1.00  0.00    -0.237 OA
ATOM     74  O   UNL     1      -9.877   4.011  11.176  1.00  0.00    -0.237 OA
ATOM     75  O   UNL     1      -8.809   6.085  10.373  1.00  0.00    -0.744 OA
ENDBRANCH  68  72
ENDBRANCH  51  65
BRANCH  52  76
ATOM     76  C   UNL     1      -2.860  -7.267  10.754  1.00  0.00     0.023 A 
ATOM     77  C   UNL     1      -3.489  -8.305  11.459  1.00  0.00     0.031 A 
ATOM     78  C   UNL     1      -1.730  -7.589   9.979  1.00  0.00     0.131 A 
ATOM     79  C   UNL     1      -2.957  -9.603  11.418  1.00  0.00     0.055 A 
ATOM     80  C   UNL     1      -1.241  -8.893   9.892  1.00  0.00     0.041 A 
ATOM     81  F   UNL     1      -1.090  -6.636   9.282  1.00  0.00    -0.206 F 
ATOM     82  C   UNL     1      -1.847  -9.907  10.627  1.00  0.00     0.022 A 
BRANCH  79  83
ATOM     83  S   UNL     1      -3.679 -10.873  12.493  1.00  0.00     0.124 S 
ATOM     84  O   UNL     1      -3.518 -10.270  13.811  1.00  0.00    -0.237 OA
ATOM     85  O   UNL     1      -5.045 -10.957  11.987  1.00  0.00    -0.237 OA
ATOM     86  O   UNL     1      -2.848 -12.047  12.237  1.00  0.00    -0.744 OA
ENDBRANCH  79  83
ENDBRANCH  52  76
BRANCH  64  87
ATOM     87  C   UNL     1      -3.381  -2.799  16.091  1.00  0.00     0.023 A 
ATOM     88  C   UNL     1      -2.093  -3.043  16.599  1.00  0.00     0.031 A 
ATOM     89  C   UNL     1      -4.444  -2.706  17.008  1.00  0.00     0.131 A 
ATOM     90  C   UNL     1      -1.911  -3.246  17.976  1.00  0.00     0.055 A 
ATOM     91  C   UNL     1      -4.246  -2.840  18.382  1.00  0.00     0.041 A 
ATOM     92  F   UNL     1      -5.697  -2.479  16.581  1.00  0.00    -0.206 F 
ATOM     93  C   UNL     1      -2.975  -3.126  18.873  1.00  0.00     0.022 A 
BRANCH  90  94
ATOM     94  S   UNL     1      -0.280  -3.773  18.571  1.00  0.00     0.124 S 
ATOM     95  O   UNL     1      -0.068  -5.006  17.820  1.00  0.00    -0.237 OA
ATOM     96  O   UNL     1       0.568  -2.646  18.198  1.00  0.00    -0.237 OA
ATOM     97  O   UNL     1      -0.480  -3.949  20.009  1.00  0.00    -0.744 OA
ENDBRANCH  90  94
ENDBRANCH  64  87
ENDBRANCH  38  39
ENDBRANCH  30  33
ENDBRANCH  28  29
ENDBRANCH   1  28
TORSDOF 16
