REMARK SMILES O=C(NCCCNC(=O)c1ccc(NC(=O)[C@@H]2COCCO2)cc1O)c1ccc(-c2c3nc(c(-c4cc(S(=O)(=O)[O-])ccc4F)c4ccc([nH]4)c(-c4cc(S(=O)(=O)[O-])ccc4F)c4nc(c(-c5cc(S(=O)(=O)[O-])ccc5F)c5ccc2[nH]5)C=C4)C=C3)cc1
REMARK SMILES IDX 4 1 3 2 1 3 2 4 26 6 27 7 88 8 28 9 87 10 29 11 30 12 31 13
REMARK SMILES IDX 81 14 32 15 86 16 80 17 82 18 33 19 85 20 79 21 78 22 34 24
REMARK SMILES IDX 66 25 46 26 65 27 47 28 50 29 64 30 83 31 48 32 49 33 63 35
REMARK SMILES IDX 84 36 51 37 35 38 36 39 44 40 37 41 43 42 45 43 42 44 38 45
REMARK SMILES IDX 39 46 40 47 41 48 67 49 68 50 76 51 69 52 75 53 77 54 74 55
REMARK SMILES IDX 70 56 71 57 72 58 73 59 52 60 53 61 61 62 54 63 60 64 62 65
REMARK SMILES IDX 59 66 55 67 56 68 57 69 58 70 5 71 6 72 7 73 8 74 9 76 10 77
REMARK SMILES IDX 11 78 24 79 12 80 23 81 13 82 25 83 14 85 15 86 16 88 17 89
REMARK SMILES IDX 18 90 22 91 19 92 21 93 20 94
REMARK H PARENT 3 5 82 23 50 34 7 75 25 84 14 87
REMARK Flexibility Score: inf
ROOT
ATOM      1  C   UNL     1       4.476  -0.273  -1.292  1.00  0.00     0.118 C 
ENDROOT
BRANCH   1   2
ATOM      2  N   UNL     1       3.059  -0.009  -1.065  1.00  0.00    -0.352 N 
ATOM      3  O   UNL     1       1.125   0.043   0.083  1.00  0.00    -0.269 OA
ATOM      4  C   UNL     1       2.353   0.077   0.108  1.00  0.00     0.251 C 
ATOM      5  H   UNL     1       2.526   0.128  -1.881  1.00  0.00     0.163 HD
BRANCH   4   6
ATOM      6  C   UNL     1       3.070   0.207   1.393  1.00  0.00     0.039 A 
ATOM      7  C   UNL     1       4.195   1.027   1.488  1.00  0.00     0.014 A 
ATOM      8  C   UNL     1       2.599  -0.471   2.520  1.00  0.00     0.014 A 
ATOM      9  C   UNL     1       4.942   1.041   2.655  1.00  0.00     0.010 A 
ATOM     10  C   UNL     1       3.290  -0.364   3.730  1.00  0.00     0.010 A 
ATOM     11  C   UNL     1       4.483   0.371   3.800  1.00  0.00    -0.014 A 
BRANCH  11  12
ATOM     12  C   UNL     1       5.239   0.527   5.068  1.00  0.00     0.031 A 
ATOM     13  C   UNL     1       5.884  -0.652   5.739  1.00  0.00     0.074 A 
ATOM     14  C   UNL     1       5.368   1.765   5.586  1.00  0.00     0.049 A 
ATOM     15  N   UNL     1       6.588  -0.687   6.841  1.00  0.00    -0.248 NA
ATOM     16  C   UNL     1       5.708  -1.963   5.097  1.00  0.00     0.031 C 
ATOM     17  C   UNL     1       4.774   2.979   5.016  1.00  0.00     0.029 A 
ATOM     18  N   UNL     1       6.050   2.218   6.684  1.00  0.00    -0.354 N 
ATOM     19  C   UNL     1       6.924  -2.022   7.039  1.00  0.00     0.074 A 
ATOM     20  C   UNL     1       6.318  -2.768   5.956  1.00  0.00     0.031 C 
ATOM     21  C   UNL     1       5.163   4.040   5.734  1.00  0.00     0.029 A 
ATOM     22  C   UNL     1       5.962   3.579   6.862  1.00  0.00     0.049 A 
ATOM     23  H   UNL     1       6.555   1.626   7.287  1.00  0.00     0.167 HD
ATOM     24  C   UNL     1       7.673  -2.566   8.031  1.00  0.00     0.034 A 
ATOM     25  C   UNL     1       6.444   4.369   7.840  1.00  0.00     0.034 A 
ATOM     26  C   UNL     1       8.271  -1.796   9.098  1.00  0.00     0.049 A 
ATOM     27  C   UNL     1       7.244   3.734   8.943  1.00  0.00     0.074 A 
ATOM     28  C   UNL     1       9.073  -2.240  10.136  1.00  0.00     0.029 A 
ATOM     29  N   UNL     1       8.125  -0.424   9.271  1.00  0.00    -0.354 N 
ATOM     30  N   UNL     1       7.562   2.471   9.108  1.00  0.00    -0.248 NA
ATOM     31  C   UNL     1       7.750   4.630   9.988  1.00  0.00     0.031 C 
ATOM     32  C   UNL     1       9.352  -1.152  10.972  1.00  0.00     0.029 A 
ATOM     33  C   UNL     1       8.794  -0.013  10.415  1.00  0.00     0.049 A 
ATOM     34  H   UNL     1       7.621   0.169   8.669  1.00  0.00     0.167 HD
ATOM     35  C   UNL     1       8.321   2.423  10.272  1.00  0.00     0.074 A 
ATOM     36  C   UNL     1       8.433   3.787  10.749  1.00  0.00     0.031 C 
ATOM     37  C   UNL     1       8.876   1.349  10.890  1.00  0.00     0.034 A 
BRANCH  24  38
ATOM     38  C   UNL     1       7.844  -4.067   8.034  1.00  0.00     0.023 A 
ATOM     39  C   UNL     1       8.525  -4.742   7.005  1.00  0.00     0.031 A 
ATOM     40  C   UNL     1       7.305  -4.838   9.080  1.00  0.00     0.131 A 
ATOM     41  C   UNL     1       8.593  -6.144   7.011  1.00  0.00     0.055 A 
ATOM     42  C   UNL     1       7.443  -6.227   9.120  1.00  0.00     0.041 A 
ATOM     43  F   UNL     1       6.626  -4.253  10.079  1.00  0.00    -0.206 F 
ATOM     44  C   UNL     1       8.078  -6.890   8.075  1.00  0.00     0.022 A 
BRANCH  41  45
ATOM     45  S   UNL     1       9.247  -6.989   5.545  1.00  0.00     0.124 S 
ATOM     46  O   UNL     1       8.352  -6.502   4.498  1.00  0.00    -0.237 OA
ATOM     47  O   UNL     1      10.621  -6.503   5.487  1.00  0.00    -0.237 OA
ATOM     48  O   UNL     1       9.099  -8.406   5.870  1.00  0.00    -0.744 OA
ENDBRANCH  41  45
ENDBRANCH  24  38
BRANCH  25  49
ATOM     49  C   UNL     1       6.145   5.828   7.837  1.00  0.00     0.023 A 
ATOM     50  C   UNL     1       7.167   6.780   7.709  1.00  0.00     0.031 A 
ATOM     51  C   UNL     1       4.824   6.292   7.977  1.00  0.00     0.131 A 
ATOM     52  C   UNL     1       6.856   8.148   7.760  1.00  0.00     0.055 A 
ATOM     53  C   UNL     1       4.513   7.651   7.970  1.00  0.00     0.041 A 
ATOM     54  F   UNL     1       3.808   5.422   8.097  1.00  0.00    -0.206 F 
ATOM     55  C   UNL     1       5.535   8.589   7.874  1.00  0.00     0.022 A 
BRANCH  52  56
ATOM     56  S   UNL     1       8.215   9.348   7.753  1.00  0.00     0.124 S 
ATOM     57  O   UNL     1       8.991   8.925   8.914  1.00  0.00    -0.237 OA
ATOM     58  O   UNL     1       8.826   9.106   6.450  1.00  0.00    -0.237 OA
ATOM     59  O   UNL     1       7.535  10.633   7.892  1.00  0.00    -0.744 OA
ENDBRANCH  52  56
ENDBRANCH  25  49
BRANCH  37  60
ATOM     60  C   UNL     1       9.679   1.629  12.136  1.00  0.00     0.023 A 
ATOM     61  C   UNL     1       9.075   2.108  13.311  1.00  0.00     0.031 A 
ATOM     62  C   UNL     1      11.073   1.442  12.135  1.00  0.00     0.131 A 
ATOM     63  C   UNL     1       9.870   2.444  14.417  1.00  0.00     0.055 A 
ATOM     64  C   UNL     1      11.851   1.718  13.260  1.00  0.00     0.041 A 
ATOM     65  F   UNL     1      11.701   0.991  11.038  1.00  0.00    -0.206 F 
ATOM     66  C   UNL     1      11.252   2.236  14.404  1.00  0.00     0.022 A 
BRANCH  63  67
ATOM     67  S   UNL     1       9.085   3.253  15.838  1.00  0.00     0.124 S 
ATOM     68  O   UNL     1       8.510   4.447  15.228  1.00  0.00    -0.237 OA
ATOM     69  O   UNL     1       8.132   2.243  16.286  1.00  0.00    -0.237 OA
ATOM     70  O   UNL     1      10.201   3.499  16.751  1.00  0.00    -0.744 OA
ENDBRANCH  63  67
ENDBRANCH  37  60
ENDBRANCH  11  12
ENDBRANCH   4   6
ENDBRANCH   1   2
BRANCH   1  71
ATOM     71  C   UNL     1       4.721  -1.680  -1.819  1.00  0.00     0.042 C 
BRANCH  71  72
ATOM     72  C   UNL     1       3.991  -1.954  -3.125  1.00  0.00     0.118 C 
BRANCH  72  73
ATOM     73  N   UNL     1       4.425  -1.044  -4.170  1.00  0.00    -0.352 N 
ATOM     74  C   UNL     1       5.351  -1.284  -5.145  1.00  0.00     0.255 C 
ATOM     75  H   UNL     1       4.005  -0.154  -4.176  1.00  0.00     0.163 HD
ATOM     76  O   UNL     1       5.755  -0.387  -5.880  1.00  0.00    -0.269 OA
BRANCH  74  77
ATOM     77  C   UNL     1       5.895  -2.640  -5.283  1.00  0.00     0.081 A 
ATOM     78  C   UNL     1       7.213  -2.870  -4.888  1.00  0.00     0.020 A 
ATOM     79  C   UNL     1       5.126  -3.674  -5.821  1.00  0.00     0.130 A 
ATOM     80  C   UNL     1       7.790  -4.120  -5.115  1.00  0.00     0.027 A 
ATOM     81  C   UNL     1       5.708  -4.915  -6.059  1.00  0.00     0.073 A 
ATOM     82  C   UNL     1       7.070  -5.106  -5.792  1.00  0.00     0.044 A 
BRANCH  79  83
ATOM     83  O   UNL     1       3.813  -3.465  -6.137  1.00  0.00    -0.507 OA
ATOM     84  H   UNL     1       3.420  -2.629  -5.977  1.00  0.00     0.293 HD
ENDBRANCH  79  83
BRANCH  82  85
ATOM     85  N   UNL     1       7.640  -6.276  -6.303  1.00  0.00    -0.324 N 
ATOM     86  C   UNL     1       8.876  -6.538  -6.828  1.00  0.00     0.255 C 
ATOM     87  H   UNL     1       7.041  -7.057  -6.280  1.00  0.00     0.170 HD
ATOM     88  O   UNL     1       9.042  -7.698  -7.230  1.00  0.00    -0.272 OA
BRANCH  86  89
ATOM     89  C   UNL     1       9.978  -5.467  -6.971  1.00  0.00     0.233 C 
ATOM     90  C   UNL     1       9.548  -4.251  -7.806  1.00  0.00     0.202 C 
ATOM     91  O   UNL     1      11.124  -6.060  -7.631  1.00  0.00    -0.364 OA
ATOM     92  O   UNL     1      10.612  -3.284  -7.862  1.00  0.00    -0.376 OA
ATOM     93  C   UNL     1      12.200  -5.123  -7.743  1.00  0.00     0.189 C 
ATOM     94  C   UNL     1      11.761  -3.864  -8.487  1.00  0.00     0.188 C 
ENDBRANCH  86  89
ENDBRANCH  82  85
ENDBRANCH  74  77
ENDBRANCH  72  73
ENDBRANCH  71  72
ENDBRANCH   1  71
TORSDOF 16
