REMARK SMILES O=C(Cc1ccccc1Nc1c(Cl)cccc1Cl)NCCCNC(=O)c1ccc(-c2c3nc(c(-c4cc(S(=O)(=O)[O-])ccc4F)c4ccc([nH]4)c(-c4cc(S(=O)(=O)[O-])ccc4F)c4nc(c(-c5cc(S(=O)(=O)[O-])ccc5F)c5ccc2[nH]5)C=C4)C=C3)cc1
REMARK SMILES IDX 21 1 20 2 19 3 1 4 2 5 3 7 4 8 5 9 9 10 6 11 8 12 7 13 10 14
REMARK SMILES IDX 11 16 12 17 17 18 13 19 14 20 16 21 18 22 15 23 22 24 23 25
REMARK SMILES IDX 24 26 25 28 26 29 27 30 88 31 28 32 87 33 29 34 30 35 31 36
REMARK SMILES IDX 81 37 32 38 86 39 80 40 82 41 33 42 85 43 79 44 78 45 34 47
REMARK SMILES IDX 66 48 46 49 65 50 47 51 50 52 64 53 83 54 48 55 49 56 63 58
REMARK SMILES IDX 84 59 51 60 35 61 36 62 44 63 37 64 43 65 45 66 42 67 38 68
REMARK SMILES IDX 39 69 40 70 41 71 67 72 68 73 76 74 69 75 75 76 77 77 74 78
REMARK SMILES IDX 70 79 71 80 72 81 73 82 52 83 53 84 61 85 54 86 60 87 62 88
REMARK SMILES IDX 59 89 55 90 56 91 57 92 58 93
REMARK H PARENT 19 6 10 15 23 27 82 46 50 57
REMARK Flexibility Score: inf
ROOT
ATOM      1  C   UNL     1       2.507  -2.928   2.004  1.00  0.00     0.042 C 
ENDROOT
BRANCH   1   2
ATOM      2  C   UNL     1       2.185  -1.437   1.934  1.00  0.00     0.117 C 
BRANCH   2   3
ATOM      3  N   UNL     1       2.927  -0.767   0.885  1.00  0.00    -0.356 N 
ATOM      4  O   UNL     1       1.158   0.253  -0.183  1.00  0.00    -0.275 OA
ATOM      5  C   UNL     1       2.363   0.049  -0.074  1.00  0.00     0.224 C 
ATOM      6  H   UNL     1       3.902  -0.904   0.855  1.00  0.00     0.163 HD
BRANCH   5   7
ATOM      7  C   UNL     1       3.387   0.693  -1.006  1.00  0.00     0.137 C 
BRANCH   7   8
ATOM      8  C   UNL     1       4.089   1.860  -0.341  1.00  0.00    -0.015 A 
ATOM      9  C   UNL     1       5.165   1.575   0.529  1.00  0.00     0.006 A 
ATOM     10  C   UNL     1       3.672   3.198  -0.505  1.00  0.00     0.042 A 
ATOM     11  C   UNL     1       5.776   2.576   1.278  1.00  0.00     0.000 A 
ATOM     12  C   UNL     1       4.309   4.190   0.262  1.00  0.00     0.026 A 
ATOM     13  C   UNL     1       5.338   3.885   1.154  1.00  0.00     0.002 A 
BRANCH  10  14
ATOM     14  N   UNL     1       2.686   3.544  -1.455  1.00  0.00    -0.353 N 
ATOM     15  H   UNL     1       2.130   2.795  -1.773  1.00  0.00     0.167 HD
BRANCH  14  16
ATOM     16  C   UNL     1       2.375   4.808  -2.022  1.00  0.00     0.076 A 
ATOM     17  C   UNL     1       1.040   5.264  -1.986  1.00  0.00     0.066 A 
ATOM     18  C   UNL     1       3.340   5.699  -2.541  1.00  0.00     0.066 A 
ATOM     19  Cl  UNL     1      -0.232   4.235  -1.418  1.00  0.00    -0.082 Cl
ATOM     20  C   UNL     1       0.691   6.558  -2.393  1.00  0.00     0.023 A 
ATOM     21  C   UNL     1       2.990   6.998  -2.939  1.00  0.00     0.023 A 
ATOM     22  Cl  UNL     1       4.987   5.234  -2.819  1.00  0.00    -0.082 Cl
ATOM     23  C   UNL     1       1.671   7.432  -2.853  1.00  0.00     0.003 A 
ENDBRANCH  14  16
ENDBRANCH  10  14
ENDBRANCH   7   8
ENDBRANCH   5   7
ENDBRANCH   2   3
ENDBRANCH   1   2
BRANCH   1  24
ATOM     24  C   UNL     1       3.985  -3.273   2.191  1.00  0.00     0.118 C 
BRANCH  24  25
ATOM     25  N   UNL     1       4.537  -2.821   3.460  1.00  0.00    -0.352 N 
ATOM     26  C   UNL     1       5.237  -3.524   4.414  1.00  0.00     0.251 C 
ATOM     27  H   UNL     1       4.386  -1.870   3.666  1.00  0.00     0.163 HD
ATOM     28  O   UNL     1       5.513  -2.976   5.479  1.00  0.00    -0.269 OA
BRANCH  26  29
ATOM     29  C   UNL     1       5.622  -4.937   4.186  1.00  0.00     0.039 A 
ATOM     30  C   UNL     1       5.413  -5.862   5.213  1.00  0.00     0.014 A 
ATOM     31  C   UNL     1       6.179  -5.359   2.975  1.00  0.00     0.014 A 
ATOM     32  C   UNL     1       5.676  -7.218   4.995  1.00  0.00     0.010 A 
ATOM     33  C   UNL     1       6.377  -6.720   2.736  1.00  0.00     0.010 A 
ATOM     34  C   UNL     1       6.111  -7.668   3.737  1.00  0.00    -0.014 A 
BRANCH  34  35
ATOM     35  C   UNL     1       6.242  -9.122   3.441  1.00  0.00     0.031 A 
ATOM     36  C   UNL     1       7.579  -9.718   3.092  1.00  0.00     0.074 A 
ATOM     37  C   UNL     1       5.138  -9.896   3.424  1.00  0.00     0.049 A 
ATOM     38  N   UNL     1       7.870 -10.941   2.727  1.00  0.00    -0.248 NA
ATOM     39  C   UNL     1       8.736  -8.813   3.139  1.00  0.00     0.031 C 
ATOM     40  C   UNL     1       3.779  -9.433   3.715  1.00  0.00     0.029 A 
ATOM     41  N   UNL     1       4.976 -11.230   3.140  1.00  0.00    -0.354 N 
ATOM     42  C   UNL     1       9.241 -10.954   2.493  1.00  0.00     0.074 A 
ATOM     43  C   UNL     1       9.710  -9.599   2.705  1.00  0.00     0.031 C 
ATOM     44  C   UNL     1       2.929 -10.468   3.618  1.00  0.00     0.029 A 
ATOM     45  C   UNL     1       3.667 -11.656   3.201  1.00  0.00     0.049 A 
ATOM     46  H   UNL     1       5.725 -11.827   2.914  1.00  0.00     0.167 HD
ATOM     47  C   UNL     1      10.035 -12.000   2.152  1.00  0.00     0.034 A 
ATOM     48  C   UNL     1       3.117 -12.857   2.931  1.00  0.00     0.034 A 
ATOM     49  C   UNL     1       9.551 -13.345   1.943  1.00  0.00     0.049 A 
ATOM     50  C   UNL     1       4.013 -13.989   2.496  1.00  0.00     0.074 A 
ATOM     51  C   UNL     1      10.279 -14.485   1.648  1.00  0.00     0.029 A 
ATOM     52  N   UNL     1       8.217 -13.731   1.989  1.00  0.00    -0.354 N 
ATOM     53  N   UNL     1       5.316 -13.995   2.330  1.00  0.00    -0.248 NA
ATOM     54  C   UNL     1       3.365 -15.277   2.218  1.00  0.00     0.031 C 
ATOM     55  C   UNL     1       9.383 -15.537   1.434  1.00  0.00     0.029 A 
ATOM     56  C   UNL     1       8.100 -15.080   1.683  1.00  0.00     0.049 A 
ATOM     57  H   UNL     1       7.465 -13.135   2.207  1.00  0.00     0.167 HD
ATOM     58  C   UNL     1       5.644 -15.295   1.954  1.00  0.00     0.074 A 
ATOM     59  C   UNL     1       4.406 -16.047   1.940  1.00  0.00     0.031 C 
ATOM     60  C   UNL     1       6.859 -15.820   1.651  1.00  0.00     0.034 A 
BRANCH  47  61
ATOM     61  C   UNL     1      11.508 -11.723   1.953  1.00  0.00     0.023 A 
ATOM     62  C   UNL     1      12.323 -11.259   3.001  1.00  0.00     0.031 A 
ATOM     63  C   UNL     1      12.105 -11.913   0.694  1.00  0.00     0.131 A 
ATOM     64  C   UNL     1      13.665 -10.934   2.755  1.00  0.00     0.055 A 
ATOM     65  C   UNL     1      13.463 -11.669   0.476  1.00  0.00     0.041 A 
ATOM     66  F   UNL     1      11.376 -12.334  -0.352  1.00  0.00    -0.206 F 
ATOM     67  C   UNL     1      14.248 -11.161   1.506  1.00  0.00     0.022 A 
BRANCH  64  68
ATOM     68  S   UNL     1      14.597 -10.070   4.049  1.00  0.00     0.124 S 
ATOM     69  O   UNL     1      13.776  -8.880   4.260  1.00  0.00    -0.237 OA
ATOM     70  O   UNL     1      14.605 -11.043   5.135  1.00  0.00    -0.237 OA
ATOM     71  O   UNL     1      15.895  -9.818   3.426  1.00  0.00    -0.744 OA
ENDBRANCH  64  68
ENDBRANCH  47  61
BRANCH  48  72
ATOM     72  C   UNL     1       1.641 -13.053   3.032  1.00  0.00     0.023 A 
ATOM     73  C   UNL     1       1.092 -13.963   3.950  1.00  0.00     0.031 A 
ATOM     74  C   UNL     1       0.758 -12.370   2.175  1.00  0.00     0.131 A 
ATOM     75  C   UNL     1      -0.291 -14.202   3.958  1.00  0.00     0.055 A 
ATOM     76  C   UNL     1      -0.623 -12.566   2.229  1.00  0.00     0.041 A 
ATOM     77  F   UNL     1       1.228 -11.490   1.277  1.00  0.00    -0.206 F 
ATOM     78  C   UNL     1      -1.154 -13.498   3.115  1.00  0.00     0.022 A 
BRANCH  75  79
ATOM     79  S   UNL     1      -0.938 -15.522   5.020  1.00  0.00     0.124 S 
ATOM     80  O   UNL     1      -0.198 -16.682   4.535  1.00  0.00    -0.237 OA
ATOM     81  O   UNL     1      -0.580 -15.043   6.351  1.00  0.00    -0.237 OA
ATOM     82  O   UNL     1      -2.369 -15.525   4.725  1.00  0.00    -0.744 OA
ENDBRANCH  75  79
ENDBRANCH  48  72
BRANCH  60  83
ATOM     83  C   UNL     1       6.907 -17.291   1.310  1.00  0.00     0.023 A 
ATOM     84  C   UNL     1       6.281 -17.806   0.161  1.00  0.00     0.031 A 
ATOM     85  C   UNL     1       7.574 -18.194   2.158  1.00  0.00     0.131 A 
ATOM     86  C   UNL     1       6.284 -19.189  -0.078  1.00  0.00     0.055 A 
ATOM     87  C   UNL     1       7.632 -19.561   1.878  1.00  0.00     0.041 A 
ATOM     88  F   UNL     1       8.184 -17.762   3.273  1.00  0.00    -0.206 F 
ATOM     89  C   UNL     1       6.973 -20.067   0.762  1.00  0.00     0.022 A 
BRANCH  86  90
ATOM     90  S   UNL     1       5.289 -19.838  -1.449  1.00  0.00     0.124 S 
ATOM     91  O   UNL     1       3.951 -19.375  -1.097  1.00  0.00    -0.237 OA
ATOM     92  O   UNL     1       5.901 -19.199  -2.610  1.00  0.00    -0.237 OA
ATOM     93  O   UNL     1       5.488 -21.284  -1.363  1.00  0.00    -0.744 OA
ENDBRANCH  86  90
ENDBRANCH  60  83
ENDBRANCH  34  35
ENDBRANCH  26  29
ENDBRANCH  24  25
ENDBRANCH   1  24
TORSDOF 16
