REMARK SMILES CC(C)N(CC(F)(F)F)C(=O)N(CC(=O)NCCCNC(=O)c1ccc(-c2c3nc(c(-c4cc(S(=O)(=O)[O-])ccc4F)c4ccc([nH]4)c(-c4cc(S(=O)(=O)[O-])ccc4F)c4nc(c(-c5cc(S(=O)(=O)[O-])ccc5F)c5ccc2[nH]5)C=C4)C=C3)cc1)C(C)(C)C
REMARK SMILES IDX 17 1 16 2 14 3 15 4 13 6 12 7 10 8 11 9 4 10 2 11 1 12 3 13
REMARK SMILES IDX 5 14 6 15 7 16 8 17 9 18 86 19 87 20 88 21 89 22 18 23 19 24
REMARK SMILES IDX 20 25 21 26 22 28 23 29 24 30 85 31 25 32 84 33 26 34 27 35
REMARK SMILES IDX 28 36 78 37 29 38 83 39 77 40 79 41 30 42 82 43 76 44 75 45
REMARK SMILES IDX 31 47 63 48 43 49 62 50 44 51 47 52 61 53 80 54 45 55 46 56
REMARK SMILES IDX 60 58 81 59 48 60 32 61 33 62 41 63 34 64 40 65 42 66 39 67
REMARK SMILES IDX 35 68 36 69 37 70 38 71 64 72 65 73 73 74 66 75 72 76 74 77
REMARK SMILES IDX 71 78 67 79 68 80 69 81 70 82 49 83 50 84 58 85 51 86 57 87
REMARK SMILES IDX 59 88 56 89 52 90 53 91 54 92 55 93
REMARK H PARENT 16 5 20 27 79 46 47 57
REMARK Flexibility Score: inf
ROOT
ATOM      1  C   UNL     1      -2.829  -4.037   1.275  1.00  0.00     0.117 C 
ENDROOT
BRANCH   1   2
ATOM      2  N   UNL     1      -4.246  -3.744   1.217  1.00  0.00    -0.354 N 
ATOM      3  C   UNL     1      -4.890  -2.716   0.602  1.00  0.00     0.239 C 
ATOM      4  O   UNL     1      -6.093  -2.863   0.359  1.00  0.00    -0.273 OA
ATOM      5  H   UNL     1      -4.827  -4.382   1.691  1.00  0.00     0.163 HD
BRANCH   3   6
ATOM      6  C   UNL     1      -4.141  -1.487   0.066  1.00  0.00     0.221 C 
BRANCH   6   7
ATOM      7  N   UNL     1      -3.195  -0.786   0.945  1.00  0.00    -0.311 N 
BRANCH   7   8
ATOM      8  C   UNL     1      -1.803  -0.790   0.864  1.00  0.00     0.321 C 
ATOM      9  O   UNL     1      -1.158  -0.323   1.809  1.00  0.00    -0.248 OA
BRANCH   8  10
ATOM     10  N   UNL     1      -1.075  -1.310  -0.201  1.00  0.00    -0.313 N 
BRANCH  10  11
ATOM     11  C   UNL     1       0.410  -1.410  -0.022  1.00  0.00     0.081 C 
ATOM     12  C   UNL     1       1.092  -0.037  -0.020  1.00  0.00     0.031 C 
ATOM     13  C   UNL     1       0.856  -2.283   1.156  1.00  0.00     0.031 C 
ENDBRANCH  10  11
BRANCH  10  14
ATOM     14  C   UNL     1      -1.492  -1.638  -1.590  1.00  0.00     0.237 C 
BRANCH  14  15
ATOM     15  C   UNL     1      -1.646  -3.138  -1.925  1.00  0.00     0.406 C 
ATOM     16  F   UNL     1      -2.853  -3.631  -1.578  1.00  0.00    -0.169 F 
ATOM     17  F   UNL     1      -1.515  -3.337  -3.259  1.00  0.00    -0.169 F 
ATOM     18  F   UNL     1      -0.709  -3.897  -1.314  1.00  0.00    -0.169 F 
ENDBRANCH  14  15
ENDBRANCH  10  14
ENDBRANCH   8  10
ENDBRANCH   7   8
BRANCH   7  19
ATOM     19  C   UNL     1      -3.824  -0.077   2.160  1.00  0.00     0.037 C 
ATOM     20  C   UNL     1      -3.494  -0.809   3.482  1.00  0.00     0.034 C 
ATOM     21  C   UNL     1      -3.362   1.399   2.248  1.00  0.00     0.034 C 
ATOM     22  C   UNL     1      -5.379   0.006   2.125  1.00  0.00     0.034 C 
ENDBRANCH   7  19
ENDBRANCH   6   7
ENDBRANCH   3   6
ENDBRANCH   1   2
BRANCH   1  23
ATOM     23  C   UNL     1      -2.299  -4.233   2.681  1.00  0.00     0.042 C 
BRANCH  23  24
ATOM     24  C   UNL     1      -2.936  -5.411   3.393  1.00  0.00     0.118 C 
BRANCH  24  25
ATOM     25  N   UNL     1      -2.530  -6.681   2.808  1.00  0.00    -0.352 N 
ATOM     26  C   UNL     1      -1.832  -7.712   3.387  1.00  0.00     0.251 C 
ATOM     27  H   UNL     1      -2.791  -6.820   1.869  1.00  0.00     0.163 HD
ATOM     28  O   UNL     1      -1.357  -8.599   2.681  1.00  0.00    -0.269 OA
BRANCH  26  29
ATOM     29  C   UNL     1      -1.637  -7.728   4.852  1.00  0.00     0.039 A 
ATOM     30  C   UNL     1      -0.394  -8.088   5.373  1.00  0.00     0.014 A 
ATOM     31  C   UNL     1      -2.679  -7.361   5.708  1.00  0.00     0.014 A 
ATOM     32  C   UNL     1      -0.181  -8.018   6.751  1.00  0.00     0.010 A 
ATOM     33  C   UNL     1      -2.430  -7.182   7.063  1.00  0.00     0.010 A 
ATOM     34  C   UNL     1      -1.183  -7.527   7.604  1.00  0.00    -0.014 A 
BRANCH  34  35
ATOM     35  C   UNL     1      -0.962  -7.396   9.068  1.00  0.00     0.031 A 
ATOM     36  C   UNL     1      -1.835  -8.161  10.028  1.00  0.00     0.074 A 
ATOM     37  C   UNL     1      -0.019  -6.551   9.531  1.00  0.00     0.049 A 
ATOM     38  N   UNL     1      -1.851  -8.133  11.336  1.00  0.00    -0.248 NA
ATOM     39  C   UNL     1      -2.849  -9.048   9.437  1.00  0.00     0.031 C 
ATOM     40  C   UNL     1       0.855  -5.720   8.698  1.00  0.00     0.029 A 
ATOM     41  N   UNL     1       0.363  -6.247  10.814  1.00  0.00    -0.354 N 
ATOM     42  C   UNL     1      -2.884  -8.982  11.720  1.00  0.00     0.074 A 
ATOM     43  C   UNL     1      -3.518  -9.447  10.506  1.00  0.00     0.031 C 
ATOM     44  C   UNL     1       1.694  -5.033   9.490  1.00  0.00     0.029 A 
ATOM     45  C   UNL     1       1.385  -5.328  10.885  1.00  0.00     0.049 A 
ATOM     46  H   UNL     1      -0.055  -6.649  11.609  1.00  0.00     0.167 HD
ATOM     47  C   UNL     1      -3.250  -9.363  12.968  1.00  0.00     0.034 A 
ATOM     48  C   UNL     1       1.996  -4.777  11.953  1.00  0.00     0.034 A 
ATOM     49  C   UNL     1      -2.593  -8.901  14.166  1.00  0.00     0.049 A 
ATOM     50  C   UNL     1       1.555  -5.197  13.334  1.00  0.00     0.074 A 
ATOM     51  C   UNL     1      -2.841  -9.262  15.478  1.00  0.00     0.029 A 
ATOM     52  N   UNL     1      -1.563  -7.968  14.199  1.00  0.00    -0.354 N 
ATOM     53  N   UNL     1       0.613  -6.045  13.679  1.00  0.00    -0.248 NA
ATOM     54  C   UNL     1       2.267  -4.595  14.467  1.00  0.00     0.031 C 
ATOM     55  C   UNL     1      -2.018  -8.493  16.307  1.00  0.00     0.029 A 
ATOM     56  C   UNL     1      -1.191  -7.717  15.510  1.00  0.00     0.049 A 
ATOM     57  H   UNL     1      -1.157  -7.548  13.407  1.00  0.00     0.167 HD
ATOM     58  C   UNL     1       0.644  -6.102  15.070  1.00  0.00     0.074 A 
ATOM     59  C   UNL     1       1.709  -5.216  15.495  1.00  0.00     0.031 C 
ATOM     60  C   UNL     1      -0.132  -6.823  15.919  1.00  0.00     0.034 A 
BRANCH  47  61
ATOM     61  C   UNL     1      -4.425 -10.306  13.094  1.00  0.00     0.023 A 
ATOM     62  C   UNL     1      -4.406 -11.593  12.527  1.00  0.00     0.031 A 
ATOM     63  C   UNL     1      -5.594  -9.903  13.764  1.00  0.00     0.131 A 
ATOM     64  C   UNL     1      -5.556 -12.396  12.570  1.00  0.00     0.055 A 
ATOM     65  C   UNL     1      -6.703 -10.742  13.882  1.00  0.00     0.041 A 
ATOM     66  F   UNL     1      -5.684  -8.677  14.305  1.00  0.00    -0.206 F 
ATOM     67  C   UNL     1      -6.695 -11.991  13.268  1.00  0.00     0.022 A 
BRANCH  64  68
ATOM     68  S   UNL     1      -5.594 -13.907  11.567  1.00  0.00     0.124 S 
ATOM     69  O   UNL     1      -5.363 -13.376  10.225  1.00  0.00    -0.237 OA
ATOM     70  O   UNL     1      -4.508 -14.693  12.139  1.00  0.00    -0.237 OA
ATOM     71  O   UNL     1      -6.937 -14.437  11.796  1.00  0.00    -0.744 OA
ENDBRANCH  64  68
ENDBRANCH  47  61
BRANCH  48  72
ATOM     72  C   UNL     1       3.079  -3.767  11.771  1.00  0.00     0.023 A 
ATOM     73  C   UNL     1       4.386  -4.018  12.217  1.00  0.00     0.031 A 
ATOM     74  C   UNL     1       2.812  -2.515  11.188  1.00  0.00     0.131 A 
ATOM     75  C   UNL     1       5.364  -3.014  12.122  1.00  0.00     0.055 A 
ATOM     76  C   UNL     1       3.802  -1.543  11.040  1.00  0.00     0.041 A 
ATOM     77  F   UNL     1       1.580  -2.222  10.743  1.00  0.00    -0.206 F 
ATOM     78  C   UNL     1       5.085  -1.784  11.522  1.00  0.00     0.022 A 
BRANCH  75  79
ATOM     79  S   UNL     1       6.984  -3.304  12.886  1.00  0.00     0.124 S 
ATOM     80  O   UNL     1       6.615  -3.570  14.271  1.00  0.00    -0.237 OA
ATOM     81  O   UNL     1       7.479  -4.444  12.122  1.00  0.00    -0.237 OA
ATOM     82  O   UNL     1       7.696  -2.048  12.659  1.00  0.00    -0.744 OA
ENDBRANCH  75  79
ENDBRANCH  48  72
BRANCH  60  83
ATOM     83  C   UNL     1       0.180  -6.718  17.393  1.00  0.00     0.023 A 
ATOM     84  C   UNL     1       0.016  -5.517  18.104  1.00  0.00     0.031 A 
ATOM     85  C   UNL     1       0.658  -7.841  18.094  1.00  0.00     0.131 A 
ATOM     86  C   UNL     1       0.386  -5.449  19.456  1.00  0.00     0.055 A 
ATOM     87  C   UNL     1       0.956  -7.786  19.456  1.00  0.00     0.041 A 
ATOM     88  F   UNL     1       0.838  -9.014  17.466  1.00  0.00    -0.206 F 
ATOM     89  C   UNL     1       0.835  -6.581  20.141  1.00  0.00     0.022 A 
BRANCH  86  90
ATOM     90  S   UNL     1       0.372  -3.835  20.282  1.00  0.00     0.124 S 
ATOM     91  O   UNL     1       1.277  -3.057  19.442  1.00  0.00    -0.237 OA
ATOM     92  O   UNL     1      -1.037  -3.462  20.216  1.00  0.00    -0.237 OA
ATOM     93  O   UNL     1       0.872  -4.132  21.623  1.00  0.00    -0.744 OA
ENDBRANCH  86  90
ENDBRANCH  60  83
ENDBRANCH  34  35
ENDBRANCH  26  29
ENDBRANCH  24  25
ENDBRANCH  23  24
ENDBRANCH   1  23
TORSDOF 20
