REMARK SMILES Cc1c(-c2nn(-c3ccccc3)cc2/C=N/O)nnn1-c1ccc(C(=O)NCCCNC(=O)c2ccc(-c3c4nc(c(-c5cc(S(=O)(=O)[O-])ccc5F)c5ccc([nH]5)c(-c5cc(S(=O)(=O)[O-])ccc5F)c5nc(c(-c6cc(S(=O)(=O)[O-])ccc6F)c6ccc3[nH]6)C=C5)C=C4)cc2)cc1
REMARK SMILES IDX 28 1 27 2 25 3 26 4 24 6 21 7 22 8 98 9 23 10 97 11 20 12
REMARK SMILES IDX 1 13 2 14 3 15 18 16 19 17 4 18 5 19 14 20 6 21 13 22 15 23
REMARK SMILES IDX 16 24 17 25 7 27 8 28 12 29 9 30 11 31 10 32 29 33 30 34
REMARK SMILES IDX 31 35 32 36 33 38 34 39 35 40 96 41 36 42 95 43 37 44 38 45
REMARK SMILES IDX 39 46 89 47 40 48 94 49 88 50 90 51 41 52 93 53 87 54 86 55
REMARK SMILES IDX 42 57 74 58 54 59 73 60 55 61 58 62 72 63 91 64 56 65 57 66
REMARK SMILES IDX 71 68 92 69 59 70 43 71 44 72 52 73 45 74 51 75 53 76 50 77
REMARK SMILES IDX 46 78 47 79 48 80 49 81 75 82 76 83 84 84 77 85 83 86 85 87
REMARK SMILES IDX 82 88 78 89 79 90 80 91 81 92 60 93 61 94 69 95 62 96 68 97
REMARK SMILES IDX 70 98 67 99 63 100 64 101 65 102 66 103
REMARK H PARENT 27 5 17 26 31 37 90 56 58 67
REMARK Flexibility Score: inf
ROOT
ATOM      1  C   UNL     1      -0.847   4.544  -4.296  1.00  0.00     0.118 C 
ENDROOT
BRANCH   1   2
ATOM      2  N   UNL     1      -2.165   4.026  -4.623  1.00  0.00    -0.352 N 
ATOM      3  C   UNL     1      -2.767   2.808  -4.436  1.00  0.00     0.251 C 
ATOM      4  O   UNL     1      -3.942   2.700  -4.786  1.00  0.00    -0.269 OA
ATOM      5  H   UNL     1      -2.744   4.685  -5.070  1.00  0.00     0.163 HD
BRANCH   3   6
ATOM      6  C   UNL     1      -2.104   1.639  -3.786  1.00  0.00     0.039 A 
ATOM      7  C   UNL     1      -1.049  -0.552  -2.382  1.00  0.00     0.067 A 
ATOM      8  C   UNL     1      -2.426  -0.467  -2.591  1.00  0.00     0.029 A 
ATOM      9  C   UNL     1      -0.192   0.395  -2.943  1.00  0.00     0.029 A 
ATOM     10  C   UNL     1      -2.948   0.642  -3.261  1.00  0.00     0.016 A 
ATOM     11  C   UNL     1      -0.723   1.459  -3.679  1.00  0.00     0.016 A 
BRANCH   7  12
ATOM     12  N   UNL     1      -0.532  -1.611  -1.609  1.00  0.00    -0.217 N 
ATOM     13  C   UNL     1       0.988  -0.355   0.017  1.00  0.00     0.069 C 
ATOM     14  C   UNL     1       0.437  -1.574  -0.622  1.00  0.00     0.071 A 
ATOM     15  C   UNL     1       0.617  -2.909  -0.317  1.00  0.00     0.137 A 
ATOM     16  N   UNL     1      -0.257  -3.682  -1.021  1.00  0.00    -0.128 NA
ATOM     17  N   UNL     1      -1.007  -2.871  -1.755  1.00  0.00    -0.061 NA
BRANCH  15  18
ATOM     18  C   UNL     1       1.490  -3.498   0.688  1.00  0.00     0.124 A 
ATOM     19  N   UNL     1       1.165  -3.506   1.986  1.00  0.00    -0.165 NA
ATOM     20  C   UNL     1       2.739  -4.110   0.438  1.00  0.00     0.044 A 
ATOM     21  N   UNL     1       2.240  -4.040   2.599  1.00  0.00    -0.240 N 
ATOM     22  C   UNL     1       3.218  -4.403   1.701  1.00  0.00     0.125 A 
BRANCH  20  23
ATOM     23  C   UNL     1       3.423  -4.408  -0.795  1.00  0.00     0.166 C 
ATOM     24  N   UNL     1       2.971  -3.948  -1.914  1.00  0.00    -0.097 NA
BRANCH  24  25
ATOM     25  O   UNL     1       3.780  -4.403  -2.962  1.00  0.00    -0.411 OA
ATOM     26  H   UNL     1       3.585  -4.156  -3.845  1.00  0.00     0.330 HD
ENDBRANCH  24  25
ENDBRANCH  20  23
BRANCH  21  27
ATOM     27  C   UNL     1       2.281  -4.164   4.007  1.00  0.00     0.065 A 
ATOM     28  C   UNL     1       1.094  -4.420   4.705  1.00  0.00     0.028 A 
ATOM     29  C   UNL     1       3.490  -4.018   4.697  1.00  0.00     0.028 A 
ATOM     30  C   UNL     1       1.124  -4.563   6.092  1.00  0.00     0.002 A 
ATOM     31  C   UNL     1       3.500  -4.108   6.090  1.00  0.00     0.002 A 
ATOM     32  C   UNL     1       2.323  -4.394   6.784  1.00  0.00     0.000 A 
ENDBRANCH  21  27
ENDBRANCH  15  18
ENDBRANCH   7  12
ENDBRANCH   3   6
ENDBRANCH   1   2
BRANCH   1  33
ATOM     33  C   UNL     1       0.125   4.405  -5.475  1.00  0.00     0.042 C 
BRANCH  33  34
ATOM     34  C   UNL     1      -0.046   5.522  -6.495  1.00  0.00     0.118 C 
BRANCH  34  35
ATOM     35  N   UNL     1       0.442   6.805  -5.989  1.00  0.00    -0.352 N 
ATOM     36  C   UNL     1       0.372   8.051  -6.583  1.00  0.00     0.251 C 
ATOM     37  H   UNL     1       0.880   6.777  -5.108  1.00  0.00     0.163 HD
ATOM     38  O   UNL     1       1.139   8.937  -6.232  1.00  0.00    -0.269 OA
BRANCH  36  39
ATOM     39  C   UNL     1      -0.621   8.284  -7.650  1.00  0.00     0.039 A 
ATOM     40  C   UNL     1      -0.307   9.062  -8.766  1.00  0.00     0.014 A 
ATOM     41  C   UNL     1      -1.873   7.684  -7.537  1.00  0.00     0.014 A 
ATOM     42  C   UNL     1      -1.231   9.144  -9.807  1.00  0.00     0.010 A 
ATOM     43  C   UNL     1      -2.712   7.636  -8.624  1.00  0.00     0.010 A 
ATOM     44  C   UNL     1      -2.422   8.396  -9.749  1.00  0.00    -0.014 A 
BRANCH  44  45
ATOM     45  C   UNL     1      -3.286   8.278 -10.925  1.00  0.00     0.031 A 
ATOM     46  C   UNL     1      -2.552   7.925 -12.168  1.00  0.00     0.074 A 
ATOM     47  C   UNL     1      -4.638   8.284 -10.896  1.00  0.00     0.049 A 
ATOM     48  N   UNL     1      -2.297   8.699 -13.168  1.00  0.00    -0.248 NA
ATOM     49  C   UNL     1      -1.862   6.625 -12.236  1.00  0.00     0.031 C 
ATOM     50  C   UNL     1      -5.521   8.344  -9.727  1.00  0.00     0.029 A 
ATOM     51  N   UNL     1      -5.524   8.137 -11.924  1.00  0.00    -0.354 N 
ATOM     52  C   UNL     1      -1.664   7.901 -14.111  1.00  0.00     0.074 A 
ATOM     53  C   UNL     1      -1.220   6.730 -13.402  1.00  0.00     0.031 C 
ATOM     54  C   UNL     1      -6.781   8.009 -10.085  1.00  0.00     0.029 A 
ATOM     55  C   UNL     1      -6.838   7.883 -11.530  1.00  0.00     0.049 A 
ATOM     56  H   UNL     1      -5.256   8.205 -12.869  1.00  0.00     0.167 HD
ATOM     57  C   UNL     1      -1.814   8.146 -15.442  1.00  0.00     0.034 A 
ATOM     58  C   UNL     1      -7.906   7.594 -12.324  1.00  0.00     0.034 A 
ATOM     59  C   UNL     1      -2.313   9.487 -15.671  1.00  0.00     0.049 A 
ATOM     60  C   UNL     1      -7.591   8.133 -13.668  1.00  0.00     0.074 A 
ATOM     61  C   UNL     1      -1.893  10.749 -15.289  1.00  0.00     0.029 A 
ATOM     62  N   UNL     1      -3.638   9.637 -16.018  1.00  0.00    -0.354 N 
ATOM     63  N   UNL     1      -7.460   9.408 -13.910  1.00  0.00    -0.248 NA
ATOM     64  C   UNL     1      -6.939   7.252 -14.623  1.00  0.00     0.031 C 
ATOM     65  C   UNL     1      -3.089  11.435 -14.919  1.00  0.00     0.029 A 
ATOM     66  C   UNL     1      -4.174  10.601 -15.195  1.00  0.00     0.049 A 
ATOM     67  H   UNL     1      -4.114   9.146 -16.726  1.00  0.00     0.167 HD
ATOM     68  C   UNL     1      -6.356   9.499 -14.741  1.00  0.00     0.074 A 
ATOM     69  C   UNL     1      -6.144   8.138 -15.232  1.00  0.00     0.031 C 
ATOM     70  C   UNL     1      -5.550  10.604 -14.730  1.00  0.00     0.034 A 
BRANCH  57  71
ATOM     71  C   UNL     1      -1.880   7.066 -16.500  1.00  0.00     0.023 A 
ATOM     72  C   UNL     1      -1.969   7.471 -17.844  1.00  0.00     0.031 A 
ATOM     73  C   UNL     1      -2.142   5.697 -16.253  1.00  0.00     0.131 A 
ATOM     74  C   UNL     1      -2.380   6.571 -18.843  1.00  0.00     0.055 A 
ATOM     75  C   UNL     1      -2.478   4.790 -17.261  1.00  0.00     0.041 A 
ATOM     76  F   UNL     1      -2.188   5.176 -15.022  1.00  0.00    -0.206 F 
ATOM     77  C   UNL     1      -2.629   5.230 -18.562  1.00  0.00     0.022 A 
BRANCH  74  78
ATOM     78  S   UNL     1      -2.756   7.224 -20.490  1.00  0.00     0.124 S 
ATOM     79  O   UNL     1      -3.747   8.248 -20.178  1.00  0.00    -0.237 OA
ATOM     80  O   UNL     1      -1.449   7.704 -20.927  1.00  0.00    -0.237 OA
ATOM     81  O   UNL     1      -3.264   6.059 -21.209  1.00  0.00    -0.744 OA
ENDBRANCH  74  78
ENDBRANCH  57  71
BRANCH  58  82
ATOM     82  C   UNL     1      -9.022   6.639 -12.066  1.00  0.00     0.023 A 
ATOM     83  C   UNL     1     -10.233   6.652 -12.796  1.00  0.00     0.031 A 
ATOM     84  C   UNL     1      -8.788   5.508 -11.253  1.00  0.00     0.131 A 
ATOM     85  C   UNL     1     -11.137   5.565 -12.701  1.00  0.00     0.055 A 
ATOM     86  C   UNL     1      -9.682   4.438 -11.166  1.00  0.00     0.041 A 
ATOM     87  F   UNL     1      -7.634   5.363 -10.583  1.00  0.00    -0.206 F 
ATOM     88  C   UNL     1     -10.857   4.457 -11.900  1.00  0.00     0.022 A 
BRANCH  85  89
ATOM     89  S   UNL     1     -12.662   5.528 -13.705  1.00  0.00     0.124 S 
ATOM     90  O   UNL     1     -13.461   6.585 -13.097  1.00  0.00    -0.237 OA
ATOM     91  O   UNL     1     -12.161   5.785 -15.050  1.00  0.00    -0.237 OA
ATOM     92  O   UNL     1     -13.177   4.174 -13.495  1.00  0.00    -0.744 OA
ENDBRANCH  85  89
ENDBRANCH  58  82
BRANCH  70  93
ATOM     93  C   UNL     1      -6.048  11.854 -14.020  1.00  0.00     0.023 A 
ATOM     94  C   UNL     1      -6.469  11.920 -12.669  1.00  0.00     0.031 A 
ATOM     95  C   UNL     1      -6.005  13.061 -14.741  1.00  0.00     0.131 A 
ATOM     96  C   UNL     1      -6.846  13.157 -12.103  1.00  0.00     0.055 A 
ATOM     97  C   UNL     1      -6.354  14.285 -14.171  1.00  0.00     0.041 A 
ATOM     98  F   UNL     1      -5.595  13.075 -16.020  1.00  0.00    -0.206 F 
ATOM     99  C   UNL     1      -6.785  14.337 -12.852  1.00  0.00     0.022 A 
BRANCH  96 100
ATOM    100  S   UNL     1      -7.457  13.258 -10.387  1.00  0.00     0.124 S 
ATOM    101  O   UNL     1      -8.420  12.168 -10.300  1.00  0.00    -0.237 OA
ATOM    102  O   UNL     1      -6.234  13.096  -9.605  1.00  0.00    -0.237 OA
ATOM    103  O   UNL     1      -8.047  14.598 -10.315  1.00  0.00    -0.744 OA
ENDBRANCH  96 100
ENDBRANCH  70  93
ENDBRANCH  44  45
ENDBRANCH  36  39
ENDBRANCH  34  35
ENDBRANCH  33  34
ENDBRANCH   1  33
TORSDOF 18
