REMARK SMILES COc1ccc(OC)c(NC(=O)[C@@H]2[C@@H](C(=O)NCCCNC(=O)c3ccc(-c4c5nc(c(-c6cc(S(=O)(=O)[O-])ccc6F)c6ccc([nH]6)c(-c6cc(S(=O)(=O)[O-])ccc6F)c6nc(c(-c7cc(S(=O)(=O)[O-])ccc7F)c7ccc4[nH]7)C=C6)C=C5)cc3)[C@H]3C=C[C@@H]2C3)c1
REMARK SMILES IDX 19 1 18 2 17 3 15 4 16 5 14 7 13 8 90 9 87 10 89 11 91 12
REMARK SMILES IDX 88 13 11 14 10 15 12 17 9 18 3 19 4 20 92 21 5 22 6 23 2 24
REMARK SMILES IDX 1 25 7 26 8 27 20 28 21 29 22 30 23 32 24 33 25 34 86 35
REMARK SMILES IDX 26 36 85 37 27 38 28 39 29 40 79 41 30 42 84 43 78 44 80 45
REMARK SMILES IDX 31 46 83 47 77 48 76 49 32 51 64 52 44 53 63 54 45 55 48 56
REMARK SMILES IDX 62 57 81 58 46 59 47 60 61 62 82 63 49 64 33 65 34 66 42 67
REMARK SMILES IDX 35 68 41 69 43 70 40 71 36 72 37 73 38 74 39 75 65 76 66 77
REMARK SMILES IDX 74 78 67 79 73 80 75 81 72 82 68 83 69 84 70 85 71 86 50 87
REMARK SMILES IDX 51 88 59 89 52 90 58 91 60 92 57 93 53 94 54 95 55 96 56 97
REMARK H PARENT 17 6 10 16 21 31 80 50 48 61
REMARK Flexibility Score: inf
ROOT
ATOM      1  C   UNL     1       1.823  11.355  -0.426  1.00  0.00     0.042 C 
ENDROOT
BRANCH   1   2
ATOM      2  C   UNL     1       1.682   9.931  -0.958  1.00  0.00     0.117 C 
BRANCH   2   3
ATOM      3  N   UNL     1       2.853   9.508  -1.691  1.00  0.00    -0.356 N 
ATOM      4  C   UNL     1       3.964   8.835  -1.331  1.00  0.00     0.224 C 
ATOM      5  O   UNL     1       4.732   8.563  -2.265  1.00  0.00    -0.275 OA
ATOM      6  H   UNL     1       2.836   9.762  -2.642  1.00  0.00     0.163 HD
BRANCH   4   7
ATOM      7  C   UNL     1       4.320   8.340   0.065  1.00  0.00     0.098 C 
ATOM      8  C   UNL     1       3.632   7.007   0.516  1.00  0.00     0.099 C 
ATOM      9  C   UNL     1       3.562   7.234   2.055  1.00  0.00     0.025 C 
ATOM     10  C   UNL     1       4.250   9.240   1.330  1.00  0.00     0.025 C 
ATOM     11  C   UNL     1       2.438   8.198   2.324  1.00  0.00    -0.027 C 
ATOM     12  C   UNL     1       4.728   8.197   2.349  1.00  0.00     0.017 C 
ATOM     13  C   UNL     1       2.867   9.401   1.923  1.00  0.00    -0.027 C 
BRANCH   8  14
ATOM     14  C   UNL     1       4.484   5.773   0.242  1.00  0.00     0.229 C 
ATOM     15  N   UNL     1       3.968   4.564  -0.128  1.00  0.00    -0.323 N 
ATOM     16  H   UNL     1       4.667   3.917  -0.377  1.00  0.00     0.170 HD
ATOM     17  O   UNL     1       5.717   5.818   0.339  1.00  0.00    -0.274 OA
BRANCH  15  18
ATOM     18  C   UNL     1       2.671   4.023  -0.238  1.00  0.00     0.087 A 
ATOM     19  C   UNL     1       1.293   2.232  -1.116  1.00  0.00     0.121 A 
ATOM     20  C   UNL     1       0.130   2.854  -0.674  1.00  0.00     0.050 A 
ATOM     21  C   UNL     1       2.543   2.842  -0.977  1.00  0.00     0.076 A 
ATOM     22  C   UNL     1       0.248   3.987   0.115  1.00  0.00     0.052 A 
ATOM     23  C   UNL     1       1.524   4.478   0.421  1.00  0.00     0.142 A 
BRANCH  19  24
ATOM     24  O   UNL     1       1.207   0.964  -1.626  1.00  0.00    -0.497 OA
ATOM     25  C   UNL     1       1.316   0.032  -0.539  1.00  0.00     0.278 C 
ENDBRANCH  19  24
BRANCH  23  26
ATOM     26  O   UNL     1       1.595   5.201   1.585  1.00  0.00    -0.495 OA
ATOM     27  C   UNL     1       2.003   4.311   2.641  1.00  0.00     0.278 C 
ENDBRANCH  23  26
ENDBRANCH  15  18
ENDBRANCH   8  14
ENDBRANCH   4   7
ENDBRANCH   2   3
ENDBRANCH   1   2
BRANCH   1  28
ATOM     28  C   UNL     1       1.326  12.423  -1.393  1.00  0.00     0.118 C 
BRANCH  28  29
ATOM     29  N   UNL     1      -0.129  12.422  -1.491  1.00  0.00    -0.352 N 
ATOM     30  C   UNL     1      -1.030  13.442  -1.293  1.00  0.00     0.251 C 
ATOM     31  H   UNL     1      -0.529  11.556  -1.737  1.00  0.00     0.163 HD
ATOM     32  O   UNL     1      -2.224  13.176  -1.207  1.00  0.00    -0.269 OA
BRANCH  30  33
ATOM     33  C   UNL     1      -0.564  14.842  -1.161  1.00  0.00     0.039 A 
ATOM     34  C   UNL     1      -1.196  15.684  -0.239  1.00  0.00     0.014 A 
ATOM     35  C   UNL     1       0.475  15.335  -1.953  1.00  0.00     0.014 A 
ATOM     36  C   UNL     1      -0.743  16.995  -0.069  1.00  0.00     0.010 A 
ATOM     37  C   UNL     1       0.981  16.610  -1.721  1.00  0.00     0.010 A 
ATOM     38  C   UNL     1       0.374  17.458  -0.782  1.00  0.00    -0.014 A 
BRANCH  38  39
ATOM     39  C   UNL     1       0.914  18.829  -0.586  1.00  0.00     0.031 A 
ATOM     40  C   UNL     1       0.938  19.796  -1.741  1.00  0.00     0.074 A 
ATOM     41  C   UNL     1       1.457  19.173   0.599  1.00  0.00     0.049 A 
ATOM     42  N   UNL     1       1.482  20.983  -1.820  1.00  0.00    -0.248 NA
ATOM     43  C   UNL     1       0.300  19.343  -2.987  1.00  0.00     0.031 C 
ATOM     44  C   UNL     1       1.535  18.305   1.777  1.00  0.00     0.029 A 
ATOM     45  N   UNL     1       2.060  20.336   1.006  1.00  0.00    -0.354 N 
ATOM     46  C   UNL     1       1.281  21.405  -3.131  1.00  0.00     0.074 A 
ATOM     47  C   UNL     1       0.620  20.319  -3.823  1.00  0.00     0.031 C 
ATOM     48  C   UNL     1       2.128  18.975   2.779  1.00  0.00     0.029 A 
ATOM     49  C   UNL     1       2.515  20.299   2.304  1.00  0.00     0.049 A 
ATOM     50  H   UNL     1       2.158  21.124   0.424  1.00  0.00     0.167 HD
ATOM     51  C   UNL     1       1.596  22.596  -3.697  1.00  0.00     0.034 A 
ATOM     52  C   UNL     1       3.179  21.224   3.026  1.00  0.00     0.034 A 
ATOM     53  C   UNL     1       2.225  23.678  -2.979  1.00  0.00     0.049 A 
ATOM     54  C   UNL     1       3.505  22.548   2.383  1.00  0.00     0.074 A 
ATOM     55  C   UNL     1       2.537  24.949  -3.430  1.00  0.00     0.029 A 
ATOM     56  N   UNL     1       2.637  23.616  -1.654  1.00  0.00    -0.354 N 
ATOM     57  N   UNL     1       3.270  22.948   1.154  1.00  0.00    -0.248 NA
ATOM     58  C   UNL     1       4.171  23.548   3.225  1.00  0.00     0.031 C 
ATOM     59  C   UNL     1       3.184  25.635  -2.397  1.00  0.00     0.029 A 
ATOM     60  C   UNL     1       3.215  24.818  -1.278  1.00  0.00     0.049 A 
ATOM     61  H   UNL     1       2.533  22.832  -1.067  1.00  0.00     0.167 HD
ATOM     62  C   UNL     1       3.731  24.259   1.088  1.00  0.00     0.074 A 
ATOM     63  C   UNL     1       4.247  24.584   2.403  1.00  0.00     0.031 C 
ATOM     64  C   UNL     1       3.724  25.121   0.039  1.00  0.00     0.034 A 
BRANCH  51  65
ATOM     65  C   UNL     1       1.281  22.773  -5.165  1.00  0.00     0.023 A 
ATOM     66  C   UNL     1      -0.037  22.710  -5.650  1.00  0.00     0.031 A 
ATOM     67  C   UNL     1       2.314  22.966  -6.099  1.00  0.00     0.131 A 
ATOM     68  C   UNL     1      -0.280  22.747  -7.031  1.00  0.00     0.055 A 
ATOM     69  C   UNL     1       2.058  23.091  -7.467  1.00  0.00     0.041 A 
ATOM     70  F   UNL     1       3.596  23.016  -5.702  1.00  0.00    -0.206 F 
ATOM     71  C   UNL     1       0.756  22.963  -7.942  1.00  0.00     0.022 A 
BRANCH  68  72
ATOM     72  S   UNL     1      -1.947  22.352  -7.626  1.00  0.00     0.124 S 
ATOM     73  O   UNL     1      -2.128  20.996  -7.112  1.00  0.00    -0.237 OA
ATOM     74  O   UNL     1      -2.760  23.387  -6.999  1.00  0.00    -0.237 OA
ATOM     75  O   UNL     1      -1.825  22.449  -9.079  1.00  0.00    -0.744 OA
ENDBRANCH  68  72
ENDBRANCH  51  65
BRANCH  52  76
ATOM     76  C   UNL     1       3.579  20.940   4.433  1.00  0.00     0.023 A 
ATOM     77  C   UNL     1       3.019  21.658   5.502  1.00  0.00     0.031 A 
ATOM     78  C   UNL     1       4.550  19.967   4.730  1.00  0.00     0.131 A 
ATOM     79  C   UNL     1       3.465  21.425   6.812  1.00  0.00     0.055 A 
ATOM     80  C   UNL     1       4.955  19.704   6.040  1.00  0.00     0.041 A 
ATOM     81  F   UNL     1       5.111  19.245   3.747  1.00  0.00    -0.206 F 
ATOM     82  C   UNL     1       4.421  20.446   7.090  1.00  0.00     0.022 A 
BRANCH  79  83
ATOM     83  S   UNL     1       2.831  22.480   8.145  1.00  0.00     0.124 S 
ATOM     84  O   UNL     1       3.209  23.809   7.677  1.00  0.00    -0.237 OA
ATOM     85  O   UNL     1       1.405  22.173   8.121  1.00  0.00    -0.237 OA
ATOM     86  O   UNL     1       3.550  22.006   9.325  1.00  0.00    -0.744 OA
ENDBRANCH  79  83
ENDBRANCH  52  76
BRANCH  64  87
ATOM     87  C   UNL     1       4.241  26.514   0.295  1.00  0.00     0.023 A 
ATOM     88  C   UNL     1       5.599  26.766   0.552  1.00  0.00     0.031 A 
ATOM     89  C   UNL     1       3.353  27.604   0.285  1.00  0.00     0.131 A 
ATOM     90  C   UNL     1       6.024  28.072   0.837  1.00  0.00     0.055 A 
ATOM     91  C   UNL     1       3.790  28.909   0.514  1.00  0.00     0.041 A 
ATOM     92  F   UNL     1       2.045  27.418   0.046  1.00  0.00    -0.206 F 
ATOM     93  C   UNL     1       5.130  29.147   0.804  1.00  0.00     0.022 A 
BRANCH  90  94
ATOM     94  S   UNL     1       7.748  28.340   1.329  1.00  0.00     0.124 S 
ATOM     95  O   UNL     1       7.856  27.507   2.522  1.00  0.00    -0.237 OA
ATOM     96  O   UNL     1       8.484  27.875   0.158  1.00  0.00    -0.237 OA
ATOM     97  O   UNL     1       7.817  29.780   1.571  1.00  0.00    -0.744 OA
ENDBRANCH  90  94
ENDBRANCH  64  87
ENDBRANCH  38  39
ENDBRANCH  30  33
ENDBRANCH  28  29
ENDBRANCH   1  28
TORSDOF 17
