REMARK SMILES O=C(NCCCNC(=O)[C@H](Cc1ccc([N+](=O)[O-])cc1)N1C(=O)c2ccccc2C1=O)c1ccc(-c2c3nc(c(-c4cc(S(=O)(=O)[O-])ccc4F)c4ccc([nH]4)c(-c4cc(S(=O)(=O)[O-])ccc4F)c4nc(c(-c5cc(S(=O)(=O)[O-])ccc5F)c5ccc2[nH]5)C=C4)C=C3)cc1
REMARK SMILES IDX 5 1 4 2 3 3 1 4 2 5 32 7 33 8 94 9 34 10 93 11 35 12 36 13
REMARK SMILES IDX 37 14 87 15 38 16 92 17 86 18 88 19 39 20 91 21 85 22 84 23
REMARK SMILES IDX 40 25 72 26 52 27 71 28 53 29 56 30 70 31 89 32 54 33 55 34
REMARK SMILES IDX 69 36 90 37 57 38 41 39 42 40 50 41 43 42 49 43 51 44 48 45
REMARK SMILES IDX 44 46 45 47 46 48 47 49 73 50 74 51 82 52 75 53 81 54 83 55
REMARK SMILES IDX 80 56 76 57 77 58 78 59 79 60 58 61 59 62 67 63 60 64 66 65
REMARK SMILES IDX 68 66 65 67 61 68 62 69 63 70 64 71 6 72 7 73 8 74 9 76
REMARK SMILES IDX 10 77 21 78 22 79 30 80 23 81 24 82 29 83 31 84 25 85 28 86
REMARK SMILES IDX 26 87 27 88 11 89 12 90 13 91 20 92 14 93 19 94 15 95 16 96
REMARK SMILES IDX 17 97 18 98
REMARK H PARENT 3 6 88 24 56 35 7 75
REMARK Flexibility Score: inf
ROOT
ATOM      1  C   UNL     1       9.253  -2.044   3.423  1.00  0.00     0.042 C 
ENDROOT
BRANCH   1   2
ATOM      2  C   UNL     1      10.575  -1.661   2.778  1.00  0.00     0.118 C 
BRANCH   2   3
ATOM      3  N   UNL     1      11.716  -2.354   3.357  1.00  0.00    -0.352 N 
ATOM      4  O   UNL     1      13.453  -3.747   3.556  1.00  0.00    -0.269 OA
ATOM      5  C   UNL     1      12.623  -3.230   2.809  1.00  0.00     0.251 C 
ATOM      6  H   UNL     1      11.865  -2.161   4.311  1.00  0.00     0.163 HD
BRANCH   5   7
ATOM      7  C   UNL     1      12.621  -3.562   1.364  1.00  0.00     0.039 A 
ATOM      8  C   UNL     1      12.334  -2.605   0.389  1.00  0.00     0.014 A 
ATOM      9  C   UNL     1      12.998  -4.851   0.967  1.00  0.00     0.014 A 
ATOM     10  C   UNL     1      12.290  -2.959  -0.956  1.00  0.00     0.010 A 
ATOM     11  C   UNL     1      13.066  -5.176  -0.393  1.00  0.00     0.010 A 
ATOM     12  C   UNL     1      12.705  -4.232  -1.366  1.00  0.00    -0.014 A 
BRANCH  12  13
ATOM     13  C   UNL     1      12.882  -4.513  -2.814  1.00  0.00     0.031 A 
ATOM     14  C   UNL     1      12.082  -5.576  -3.504  1.00  0.00     0.074 A 
ATOM     15  C   UNL     1      13.803  -3.803  -3.497  1.00  0.00     0.049 A 
ATOM     16  N   UNL     1      12.155  -5.987  -4.744  1.00  0.00    -0.248 NA
ATOM     17  C   UNL     1      11.076  -6.274  -2.693  1.00  0.00     0.031 C 
ATOM     18  C   UNL     1      14.642  -2.747  -2.921  1.00  0.00     0.029 A 
ATOM     19  N   UNL     1      14.198  -3.857  -4.809  1.00  0.00    -0.354 N 
ATOM     20  C   UNL     1      11.217  -7.006  -4.864  1.00  0.00     0.074 A 
ATOM     21  C   UNL     1      10.615  -7.169  -3.555  1.00  0.00     0.031 C 
ATOM     22  C   UNL     1      15.436  -2.244  -3.874  1.00  0.00     0.029 A 
ATOM     23  C   UNL     1      15.230  -2.997  -5.105  1.00  0.00     0.049 A 
ATOM     24  H   UNL     1      13.784  -4.454  -5.473  1.00  0.00     0.167 HD
ATOM     25  C   UNL     1      10.896  -7.733  -5.965  1.00  0.00     0.034 A 
ATOM     26  C   UNL     1      15.971  -2.859  -6.222  1.00  0.00     0.034 A 
ATOM     27  C   UNL     1      11.544  -7.569  -7.247  1.00  0.00     0.049 A 
ATOM     28  C   UNL     1      15.657  -3.728  -7.406  1.00  0.00     0.074 A 
ATOM     29  C   UNL     1      11.280  -8.225  -8.438  1.00  0.00     0.029 A 
ATOM     30  N   UNL     1      12.609  -6.709  -7.500  1.00  0.00    -0.354 N 
ATOM     31  N   UNL     1      14.746  -4.667  -7.517  1.00  0.00    -0.248 NA
ATOM     32  C   UNL     1      16.462  -3.522  -8.615  1.00  0.00     0.031 C 
ATOM     33  C   UNL     1      12.242  -7.836  -9.376  1.00  0.00     0.029 A 
ATOM     34  C   UNL     1      13.042  -6.854  -8.811  1.00  0.00     0.049 A 
ATOM     35  H   UNL     1      12.999  -6.087  -6.844  1.00  0.00     0.167 HD
ATOM     36  C   UNL     1      14.847  -5.144  -8.819  1.00  0.00     0.074 A 
ATOM     37  C   UNL     1      15.911  -4.390  -9.453  1.00  0.00     0.031 C 
ATOM     38  C   UNL     1      14.113  -6.106  -9.433  1.00  0.00     0.034 A 
BRANCH  25  39
ATOM     39  C   UNL     1       9.849  -8.814  -5.800  1.00  0.00     0.023 A 
ATOM     40  C   UNL     1       8.540  -8.522  -5.376  1.00  0.00     0.031 A 
ATOM     41  C   UNL     1      10.181 -10.165  -6.010  1.00  0.00     0.131 A 
ATOM     42  C   UNL     1       7.650  -9.565  -5.074  1.00  0.00     0.055 A 
ATOM     43  C   UNL     1       9.259 -11.193  -5.804  1.00  0.00     0.041 A 
ATOM     44  F   UNL     1      11.418 -10.514  -6.398  1.00  0.00    -0.206 F 
ATOM     45  C   UNL     1       7.992 -10.898  -5.310  1.00  0.00     0.022 A 
BRANCH  42  46
ATOM     46  S   UNL     1       6.118  -9.165  -4.187  1.00  0.00     0.124 S 
ATOM     47  O   UNL     1       6.624  -8.440  -3.024  1.00  0.00    -0.237 OA
ATOM     48  O   UNL     1       5.386  -8.369  -5.165  1.00  0.00    -0.237 OA
ATOM     49  O   UNL     1       5.540 -10.474  -3.889  1.00  0.00    -0.744 OA
ENDBRANCH  42  46
ENDBRANCH  25  39
BRANCH  26  50
ATOM     50  C   UNL     1      17.111  -1.900  -6.228  1.00  0.00     0.023 A 
ATOM     51  C   UNL     1      17.102  -0.754  -7.035  1.00  0.00     0.031 A 
ATOM     52  C   UNL     1      18.220  -2.107  -5.385  1.00  0.00     0.131 A 
ATOM     53  C   UNL     1      18.189   0.134  -6.995  1.00  0.00     0.055 A 
ATOM     54  C   UNL     1      19.272  -1.194  -5.309  1.00  0.00     0.041 A 
ATOM     55  F   UNL     1      18.274  -3.186  -4.587  1.00  0.00    -0.206 F 
ATOM     56  C   UNL     1      19.264  -0.068  -6.124  1.00  0.00     0.022 A 
BRANCH  53  57
ATOM     57  S   UNL     1      18.208   1.541  -8.139  1.00  0.00     0.124 S 
ATOM     58  O   UNL     1      18.162   0.871  -9.434  1.00  0.00    -0.237 OA
ATOM     59  O   UNL     1      17.004   2.267  -7.748  1.00  0.00    -0.237 OA
ATOM     60  O   UNL     1      19.467   2.215  -7.830  1.00  0.00    -0.744 OA
ENDBRANCH  53  57
ENDBRANCH  26  50
BRANCH  38  61
ATOM     61  C   UNL     1      14.387  -6.359 -10.896  1.00  0.00     0.023 A 
ATOM     62  C   UNL     1      15.581  -6.946 -11.348  1.00  0.00     0.031 A 
ATOM     63  C   UNL     1      13.404  -6.038 -11.851  1.00  0.00     0.131 A 
ATOM     64  C   UNL     1      15.771  -7.169 -12.722  1.00  0.00     0.055 A 
ATOM     65  C   UNL     1      13.574  -6.317 -13.206  1.00  0.00     0.041 A 
ATOM     66  F   UNL     1      12.249  -5.465 -11.475  1.00  0.00    -0.206 F 
ATOM     67  C   UNL     1      14.766  -6.881 -13.649  1.00  0.00     0.022 A 
BRANCH  64  68
ATOM     68  S   UNL     1      17.377  -7.788 -13.297  1.00  0.00     0.124 S 
ATOM     69  O   UNL     1      18.282  -6.730 -12.862  1.00  0.00    -0.237 OA
ATOM     70  O   UNL     1      17.494  -9.060 -12.592  1.00  0.00    -0.237 OA
ATOM     71  O   UNL     1      17.203  -7.898 -14.745  1.00  0.00    -0.744 OA
ENDBRANCH  64  68
ENDBRANCH  38  61
ENDBRANCH  12  13
ENDBRANCH   5   7
ENDBRANCH   2   3
ENDBRANCH   1   2
BRANCH   1  72
ATOM     72  C   UNL     1       9.136  -1.645   4.889  1.00  0.00     0.117 C 
BRANCH  72  73
ATOM     73  N   UNL     1       8.032  -0.732   5.089  1.00  0.00    -0.354 N 
ATOM     74  C   UNL     1       6.708  -0.888   5.331  1.00  0.00     0.243 C 
ATOM     75  H   UNL     1       8.303   0.213   5.038  1.00  0.00     0.163 HD
ATOM     76  O   UNL     1       6.091   0.188   5.386  1.00  0.00    -0.273 OA
BRANCH  74  77
ATOM     77  C   UNL     1       5.999  -2.253   5.619  1.00  0.00     0.187 C 
BRANCH  77  78
ATOM     78  N   UNL     1       4.646  -1.818   6.050  1.00  0.00    -0.261 N 
ATOM     79  C   UNL     1       3.658  -1.425   5.177  1.00  0.00     0.262 C 
ATOM     80  C   UNL     1       4.315  -1.513   7.341  1.00  0.00     0.262 C 
ATOM     81  O   UNL     1       3.627  -1.473   3.966  1.00  0.00    -0.269 OA
ATOM     82  C   UNL     1       2.573  -0.883   5.985  1.00  0.00     0.053 A 
ATOM     83  C   UNL     1       2.974  -0.924   7.306  1.00  0.00     0.053 A 
ATOM     84  O   UNL     1       4.970  -1.669   8.357  1.00  0.00    -0.269 OA
ATOM     85  C   UNL     1       1.345  -0.383   5.596  1.00  0.00     0.015 A 
ATOM     86  C   UNL     1       2.164  -0.451   8.319  1.00  0.00     0.015 A 
ATOM     87  C   UNL     1       0.502   0.087   6.606  1.00  0.00     0.001 A 
ATOM     88  C   UNL     1       0.910   0.058   7.956  1.00  0.00     0.001 A 
ENDBRANCH  77  78
BRANCH  77  89
ATOM     89  C   UNL     1       5.854  -3.260   4.454  1.00  0.00     0.071 C 
BRANCH  89  90
ATOM     90  C   UNL     1       6.851  -4.375   4.211  1.00  0.00    -0.045 A 
ATOM     91  C   UNL     1       6.749  -5.065   2.984  1.00  0.00     0.011 A 
ATOM     92  C   UNL     1       7.880  -4.729   5.086  1.00  0.00     0.011 A 
ATOM     93  C   UNL     1       7.758  -5.928   2.553  1.00  0.00     0.086 A 
ATOM     94  C   UNL     1       8.925  -5.551   4.645  1.00  0.00     0.086 A 
ATOM     95  C   UNL     1       8.884  -6.105   3.357  1.00  0.00     0.269 A 
BRANCH  95  96
ATOM     96  N   UNL     1      10.064  -6.794   2.822  1.00  0.00     0.062 N 
ATOM     97  O   UNL     1      10.018  -7.204   1.656  1.00  0.00    -0.258 OA
ATOM     98  O   UNL     1      11.053  -6.893   3.563  1.00  0.00    -0.258 OA
ENDBRANCH  95  96
ENDBRANCH  89  90
ENDBRANCH  77  89
ENDBRANCH  74  77
ENDBRANCH  72  73
ENDBRANCH   1  72
TORSDOF 17
