REMARK SMILES COc1cc(/C=N/[NH+]=C2\NC(=O)[C@@H](CC(=O)NCCCNC(=O)c3ccc(-c4c5nc(c(-c6cc(S(=O)(=O)[O-])ccc6F)c6ccc([nH]6)c(-c6cc(S(=O)(=O)[O-])ccc6F)c6nc(c(-c7cc(S(=O)(=O)[O-])ccc7F)c7ccc4[nH]7)C=C6)C=C5)cc3)S2)cc(I)c1OC
REMARK SMILES IDX 18 1 17 2 15 3 16 4 14 6 13 7 8 8 9 9 10 11 87 12 11 13
REMARK SMILES IDX 12 15 7 16 6 17 5 18 3 19 4 20 91 21 89 22 88 23 90 24 2 25
REMARK SMILES IDX 1 26 92 27 93 28 19 29 20 30 21 31 22 32 23 34 24 35 25 36
REMARK SMILES IDX 86 37 26 38 85 39 27 40 28 41 29 42 79 43 30 44 84 45 78 46
REMARK SMILES IDX 80 47 31 48 83 49 77 50 76 51 32 53 64 54 44 55 63 56 45 57
REMARK SMILES IDX 48 58 62 59 81 60 46 61 47 62 61 64 82 65 49 66 33 67 34 68
REMARK SMILES IDX 42 69 35 70 41 71 43 72 40 73 36 74 37 75 38 76 39 77 65 78
REMARK SMILES IDX 66 79 74 80 67 81 73 82 75 83 72 84 68 85 69 86 70 87 71 88
REMARK SMILES IDX 50 89 51 90 59 91 52 92 58 93 60 94 57 95 53 96 54 97 55 98
REMARK SMILES IDX 56 99
REMARK H PARENT 17 5 8 10 10 14 21 33 80 52 48 63
REMARK Flexibility Score: inf
ROOT
ATOM      1  C   UNL     1       8.144  -1.979   3.729  1.00  0.00     0.117 C 
ENDROOT
BRANCH   1   2
ATOM      2  N   UNL     1       9.069  -1.754   4.836  1.00  0.00    -0.356 N 
ATOM      3  C   UNL     1       8.920  -1.903   6.184  1.00  0.00     0.221 C 
ATOM      4  O   UNL     1       9.874  -1.635   6.916  1.00  0.00    -0.275 OA
ATOM      5  H   UNL     1       9.959  -1.438   4.561  1.00  0.00     0.163 HD
BRANCH   3   6
ATOM      6  C   UNL     1       7.629  -2.423   6.769  1.00  0.00     0.127 C 
BRANCH   6   7
ATOM      7  C   UNL     1       6.776  -1.416   7.554  1.00  0.00     0.183 C 
ATOM      8  N   UNL     1       5.379   1.333   5.295  1.00  0.00    -0.142 N 
ATOM      9  C   UNL     1       5.623   0.403   6.154  1.00  0.00     0.337 C 
ATOM     10  H   UNL     1       5.906   2.161   5.212  1.00  0.00     0.343 HD
ATOM     11  N   UNL     1       4.861  -0.700   6.332  1.00  0.00    -0.202 N 
ATOM     12  S   UNL     1       7.015   0.365   7.180  1.00  0.00    -0.020 SA
ATOM     13  C   UNL     1       5.329  -1.670   7.160  1.00  0.00     0.322 C 
ATOM     14  H   UNL     1       3.994  -0.797   5.877  1.00  0.00     0.316 HD
ATOM     15  O   UNL     1       4.693  -2.675   7.461  1.00  0.00    -0.246 OA
BRANCH   8  16
ATOM     16  N   UNL     1       4.269   1.023   4.493  1.00  0.00    -0.093 NA
ATOM     17  C   UNL     1       3.397   1.975   4.548  1.00  0.00     0.166 C 
BRANCH  17  18
ATOM     18  C   UNL     1       2.077   1.827   3.937  1.00  0.00     0.002 A 
ATOM     19  C   UNL     1       0.583   1.357   2.133  1.00  0.00     0.162 A 
ATOM     20  C   UNL     1       1.893   1.450   2.615  1.00  0.00     0.060 A 
ATOM     21  C   UNL     1      -0.550   1.576   2.968  1.00  0.00     0.174 A 
ATOM     22  C   UNL     1      -0.325   1.906   4.314  1.00  0.00     0.060 A 
ATOM     23  C   UNL     1       0.991   2.058   4.778  1.00  0.00     0.028 A 
ATOM     24  I   UNL     1      -1.736   2.132   5.865  1.00  0.00    -0.040 I 
BRANCH  19  25
ATOM     25  O   UNL     1       0.349   1.189   0.785  1.00  0.00    -0.493 OA
ATOM     26  C   UNL     1       0.938   0.024   0.224  1.00  0.00     0.278 C 
ENDBRANCH  19  25
BRANCH  21  27
ATOM     27  O   UNL     1      -1.724   1.357   2.302  1.00  0.00    -0.492 OA
ATOM     28  C   UNL     1      -2.968   1.799   2.806  1.00  0.00     0.278 C 
ENDBRANCH  21  27
ENDBRANCH  17  18
ENDBRANCH   8  16
ENDBRANCH   6   7
ENDBRANCH   3   6
ENDBRANCH   1   2
BRANCH   1  29
ATOM     29  C   UNL     1       7.344  -0.735   3.367  1.00  0.00     0.042 C 
BRANCH  29  30
ATOM     30  C   UNL     1       8.149   0.442   2.822  1.00  0.00     0.118 C 
BRANCH  30  31
ATOM     31  N   UNL     1       8.388   0.315   1.395  1.00  0.00    -0.352 N 
ATOM     32  C   UNL     1       7.874   1.007   0.325  1.00  0.00     0.251 C 
ATOM     33  H   UNL     1       9.032  -0.389   1.152  1.00  0.00     0.163 HD
ATOM     34  O   UNL     1       8.049   0.527  -0.796  1.00  0.00    -0.269 OA
BRANCH  32  35
ATOM     35  C   UNL     1       7.114   2.282   0.462  1.00  0.00     0.039 A 
ATOM     36  C   UNL     1       6.128   2.560  -0.494  1.00  0.00     0.014 A 
ATOM     37  C   UNL     1       7.406   3.254   1.423  1.00  0.00     0.014 A 
ATOM     38  C   UNL     1       5.426   3.773  -0.467  1.00  0.00     0.010 A 
ATOM     39  C   UNL     1       6.653   4.436   1.494  1.00  0.00     0.010 A 
ATOM     40  C   UNL     1       5.661   4.719   0.542  1.00  0.00    -0.014 A 
BRANCH  40  41
ATOM     41  C   UNL     1       4.894   6.002   0.581  1.00  0.00     0.031 A 
ATOM     42  C   UNL     1       5.598   7.329   0.413  1.00  0.00     0.074 A 
ATOM     43  C   UNL     1       3.558   5.986   0.766  1.00  0.00     0.049 A 
ATOM     44  N   UNL     1       5.103   8.542   0.454  1.00  0.00    -0.248 NA
ATOM     45  C   UNL     1       7.050   7.287   0.187  1.00  0.00     0.031 C 
ATOM     46  C   UNL     1       2.742   4.784   0.955  1.00  0.00     0.029 A 
ATOM     47  N   UNL     1       2.644   7.011   0.824  1.00  0.00    -0.354 N 
ATOM     48  C   UNL     1       6.178   9.405   0.258  1.00  0.00     0.074 A 
ATOM     49  C   UNL     1       7.361   8.575   0.160  1.00  0.00     0.031 C 
ATOM     50  C   UNL     1       1.453   5.137   1.084  1.00  0.00     0.029 A 
ATOM     51  C   UNL     1       1.350   6.592   1.032  1.00  0.00     0.049 A 
ATOM     52  H   UNL     1       2.893   7.959   0.727  1.00  0.00     0.167 HD
ATOM     53  C   UNL     1       6.182  10.759   0.148  1.00  0.00     0.034 A 
ATOM     54  C   UNL     1       0.210   7.296   1.182  1.00  0.00     0.034 A 
ATOM     55  C   UNL     1       5.002  11.586   0.241  1.00  0.00     0.049 A 
ATOM     56  C   UNL     1       0.253   8.803   1.122  1.00  0.00     0.074 A 
ATOM     57  C   UNL     1       4.903  12.963   0.111  1.00  0.00     0.029 A 
ATOM     58  N   UNL     1       3.718  11.123   0.493  1.00  0.00    -0.354 N 
ATOM     59  N   UNL     1       1.279   9.595   0.922  1.00  0.00    -0.248 NA
ATOM     60  C   UNL     1      -1.024   9.507   1.308  1.00  0.00     0.031 C 
ATOM     61  C   UNL     1       3.579  13.337   0.359  1.00  0.00     0.029 A 
ATOM     62  C   UNL     1       2.831  12.189   0.555  1.00  0.00     0.049 A 
ATOM     63  H   UNL     1       3.472  10.177   0.610  1.00  0.00     0.167 HD
ATOM     64  C   UNL     1       0.761  10.889   0.927  1.00  0.00     0.074 A 
ATOM     65  C   UNL     1      -0.665  10.769   1.131  1.00  0.00     0.031 C 
ATOM     66  C   UNL     1       1.410  12.070   0.772  1.00  0.00     0.034 A 
BRANCH  53  67
ATOM     67  C   UNL     1       7.513  11.442  -0.068  1.00  0.00     0.023 A 
ATOM     68  C   UNL     1       8.269  11.232  -1.234  1.00  0.00     0.031 A 
ATOM     69  C   UNL     1       8.024  12.331   0.895  1.00  0.00     0.131 A 
ATOM     70  C   UNL     1       9.518  11.854  -1.381  1.00  0.00     0.055 A 
ATOM     71  C   UNL     1       9.230  13.009   0.708  1.00  0.00     0.041 A 
ATOM     72  F   UNL     1       7.355  12.559   2.037  1.00  0.00    -0.206 F 
ATOM     73  C   UNL     1       9.991  12.762  -0.431  1.00  0.00     0.022 A 
BRANCH  70  74
ATOM     74  S   UNL     1      10.573  11.364  -2.772  1.00  0.00     0.124 S 
ATOM     75  O   UNL     1      10.735   9.933  -2.530  1.00  0.00    -0.237 OA
ATOM     76  O   UNL     1       9.761  11.729  -3.928  1.00  0.00    -0.237 OA
ATOM     77  O   UNL     1      11.783  12.161  -2.583  1.00  0.00    -0.744 OA
ENDBRANCH  70  74
ENDBRANCH  53  67
BRANCH  54  78
ATOM     78  C   UNL     1      -1.082   6.617   1.480  1.00  0.00     0.023 A 
ATOM     79  C   UNL     1      -2.167   6.699   0.591  1.00  0.00     0.031 A 
ATOM     80  C   UNL     1      -1.290   6.014   2.731  1.00  0.00     0.131 A 
ATOM     81  C   UNL     1      -3.435   6.261   1.002  1.00  0.00     0.055 A 
ATOM     82  C   UNL     1      -2.543   5.542   3.116  1.00  0.00     0.041 A 
ATOM     83  F   UNL     1      -0.282   5.904   3.612  1.00  0.00    -0.206 F 
ATOM     84  C   UNL     1      -3.628   5.673   2.254  1.00  0.00     0.022 A 
BRANCH  81  85
ATOM     85  S   UNL     1      -4.864   6.597  -0.065  1.00  0.00     0.124 S 
ATOM     86  O   UNL     1      -4.899   8.054  -0.055  1.00  0.00    -0.237 OA
ATOM     87  O   UNL     1      -4.464   5.972  -1.321  1.00  0.00    -0.237 OA
ATOM     88  O   UNL     1      -5.967   5.938   0.631  1.00  0.00    -0.744 OA
ENDBRANCH  81  85
ENDBRANCH  54  78
BRANCH  66  89
ATOM     89  C   UNL     1       0.567  13.323   0.765  1.00  0.00     0.023 A 
ATOM     90  C   UNL     1      -0.142  13.750   1.902  1.00  0.00     0.031 A 
ATOM     91  C   UNL     1       0.451  14.088  -0.410  1.00  0.00     0.131 A 
ATOM     92  C   UNL     1      -0.982  14.871   1.823  1.00  0.00     0.055 A 
ATOM     93  C   UNL     1      -0.333  15.241  -0.463  1.00  0.00     0.041 A 
ATOM     94  F   UNL     1       1.099  13.725  -1.529  1.00  0.00    -0.206 F 
ATOM     95  C   UNL     1      -1.067  15.630   0.653  1.00  0.00     0.022 A 
BRANCH  92  96
ATOM     96  S   UNL     1      -2.046  15.266   3.239  1.00  0.00     0.124 S 
ATOM     97  O   UNL     1      -2.823  14.040   3.386  1.00  0.00    -0.237 OA
ATOM     98  O   UNL     1      -1.074  15.535   4.294  1.00  0.00    -0.237 OA
ATOM     99  O   UNL     1      -2.804  16.431   2.784  1.00  0.00    -0.744 OA
ENDBRANCH  92  96
ENDBRANCH  66  89
ENDBRANCH  40  41
ENDBRANCH  32  35
ENDBRANCH  30  31
ENDBRANCH  29  30
ENDBRANCH   1  29
TORSDOF 18
