REMARK SMILES C[C@@H](CC(=O)NCCCNC(=O)c1ccc(-c2c3nc(c(-c4cc(S(=O)(=O)[O-])ccc4F)c4ccc([nH]4)c(-c4cc(S(=O)(=O)[O-])ccc4F)c4nc(c(-c5cc(S(=O)(=O)[O-])ccc5F)c5ccc2[nH]5)C=C4)C=C3)cc1)NC(=O)CN(C)c1ncccn1
REMARK SMILES IDX 7 1 6 2 4 3 5 4 3 6 2 7 1 8 76 9 77 10 78 12 79 13 80 14
REMARK SMILES IDX 81 15 82 16 83 17 87 18 84 19 86 20 85 21 8 22 9 23 10 24
REMARK SMILES IDX 11 25 12 27 13 28 14 29 75 30 15 31 74 32 16 33 17 34 18 35
REMARK SMILES IDX 68 36 19 37 73 38 67 39 69 40 20 41 72 42 66 43 65 44 21 46
REMARK SMILES IDX 53 47 33 48 52 49 34 50 37 51 51 52 70 53 35 54 36 55 50 57
REMARK SMILES IDX 71 58 38 59 22 60 23 61 31 62 24 63 30 64 32 65 29 66 25 67
REMARK SMILES IDX 26 68 27 69 28 70 54 71 55 72 63 73 56 74 62 75 64 76 61 77
REMARK SMILES IDX 57 78 58 79 59 80 60 81 39 82 40 83 48 84 41 85 47 86 49 87
REMARK SMILES IDX 46 88 42 89 43 90 44 91 45 92
REMARK H PARENT 6 5 76 11 10 26 69 45 37 56
REMARK Flexibility Score: inf
ROOT
ATOM      1  C   UNL     1       2.035   0.977   2.300  1.00  0.00     0.117 C 
ENDROOT
BRANCH   1   2
ATOM      2  N   UNL     1       0.963   0.150   2.833  1.00  0.00    -0.356 N 
ATOM      3  C   UNL     1       0.508  -1.078   2.469  1.00  0.00     0.222 C 
ATOM      4  O   UNL     1      -0.481  -1.521   3.058  1.00  0.00    -0.275 OA
ATOM      5  H   UNL     1       0.482   0.551   3.592  1.00  0.00     0.163 HD
BRANCH   3   6
ATOM      6  C   UNL     1       1.186  -1.897   1.389  1.00  0.00     0.124 C 
BRANCH   6   7
ATOM      7  C   UNL     1       0.585  -1.739  -0.018  1.00  0.00     0.088 C 
ATOM      8  C   UNL     1       0.883  -0.363  -0.594  1.00  0.00     0.031 C 
BRANCH   7   9
ATOM      9  N   UNL     1      -0.849  -2.007  -0.038  1.00  0.00    -0.352 N 
ATOM     10  C   UNL     1      -1.646  -2.459  -1.054  1.00  0.00     0.239 C 
ATOM     11  H   UNL     1      -1.315  -1.835   0.812  1.00  0.00     0.163 HD
ATOM     12  O   UNL     1      -2.856  -2.561  -0.824  1.00  0.00    -0.273 OA
BRANCH  10  13
ATOM     13  C   UNL     1      -1.043  -2.998  -2.358  1.00  0.00     0.219 C 
BRANCH  13  14
ATOM     14  N   UNL     1      -0.196  -2.080  -3.112  1.00  0.00    -0.335 N 
ATOM     15  C   UNL     1       1.097  -2.505  -3.598  1.00  0.00     0.147 C 
BRANCH  14  16
ATOM     16  C   UNL     1      -0.757  -0.952  -3.679  1.00  0.00     0.225 A 
ATOM     17  N   UNL     1      -0.115  -0.356  -4.700  1.00  0.00    -0.221 NA
ATOM     18  N   UNL     1      -1.874  -0.445  -3.139  1.00  0.00    -0.221 NA
ATOM     19  C   UNL     1      -0.631   0.793  -5.182  1.00  0.00     0.117 A 
ATOM     20  C   UNL     1      -2.337   0.723  -3.629  1.00  0.00     0.117 A 
ATOM     21  C   UNL     1      -1.749   1.395  -4.668  1.00  0.00     0.040 A 
ENDBRANCH  14  16
ENDBRANCH  13  14
ENDBRANCH  10  13
ENDBRANCH   7   9
ENDBRANCH   6   7
ENDBRANCH   3   6
ENDBRANCH   1   2
BRANCH   1  22
ATOM     22  C   UNL     1       1.499   2.221   1.592  1.00  0.00     0.042 C 
BRANCH  22  23
ATOM     23  C   UNL     1       0.860   3.241   2.524  1.00  0.00     0.118 C 
BRANCH  23  24
ATOM     24  N   UNL     1       1.856   4.058   3.196  1.00  0.00    -0.352 N 
ATOM     25  C   UNL     1       2.173   5.380   3.010  1.00  0.00     0.251 C 
ATOM     26  H   UNL     1       2.381   3.594   3.888  1.00  0.00     0.163 HD
ATOM     27  O   UNL     1       3.221   5.814   3.494  1.00  0.00    -0.269 OA
BRANCH  25  28
ATOM     28  C   UNL     1       1.295   6.276   2.219  1.00  0.00     0.039 A 
ATOM     29  C   UNL     1       1.881   7.218   1.369  1.00  0.00     0.014 A 
ATOM     30  C   UNL     1      -0.098   6.219   2.331  1.00  0.00     0.014 A 
ATOM     31  C   UNL     1       1.075   8.052   0.587  1.00  0.00     0.010 A 
ATOM     32  C   UNL     1      -0.899   6.991   1.490  1.00  0.00     0.010 A 
ATOM     33  C   UNL     1      -0.323   7.920   0.611  1.00  0.00    -0.014 A 
BRANCH  33  34
ATOM     34  C   UNL     1      -1.194   8.742  -0.272  1.00  0.00     0.031 A 
ATOM     35  C   UNL     1      -2.183   9.710   0.322  1.00  0.00     0.074 A 
ATOM     36  C   UNL     1      -1.139   8.574  -1.608  1.00  0.00     0.049 A 
ATOM     37  N   UNL     1      -3.072  10.461  -0.277  1.00  0.00    -0.248 NA
ATOM     38  C   UNL     1      -2.190   9.822   1.787  1.00  0.00     0.031 C 
ATOM     39  C   UNL     1      -0.247   7.646  -2.305  1.00  0.00     0.029 A 
ATOM     40  N   UNL     1      -1.850   9.172  -2.618  1.00  0.00    -0.354 N 
ATOM     41  C   UNL     1      -3.751  11.129   0.737  1.00  0.00     0.074 A 
ATOM     42  C   UNL     1      -3.216  10.635   1.989  1.00  0.00     0.031 C 
ATOM     43  C   UNL     1      -0.442   7.760  -3.628  1.00  0.00     0.029 A 
ATOM     44  C   UNL     1      -1.505   8.729  -3.874  1.00  0.00     0.049 A 
ATOM     45  H   UNL     1      -2.542   9.854  -2.459  1.00  0.00     0.167 HD
ATOM     46  C   UNL     1      -4.713  12.082   0.635  1.00  0.00     0.034 A 
ATOM     47  C   UNL     1      -1.997   9.054  -5.085  1.00  0.00     0.034 A 
ATOM     48  C   UNL     1      -5.234  12.563  -0.622  1.00  0.00     0.049 A 
ATOM     49  C   UNL     1      -3.107  10.068  -5.175  1.00  0.00     0.074 A 
ATOM     50  C   UNL     1      -6.159  13.569  -0.846  1.00  0.00     0.029 A 
ATOM     51  N   UNL     1      -4.892  12.058  -1.871  1.00  0.00    -0.354 N 
ATOM     52  N   UNL     1      -3.702  10.729  -4.210  1.00  0.00    -0.248 NA
ATOM     53  C   UNL     1      -3.612  10.377  -6.519  1.00  0.00     0.031 C 
ATOM     54  C   UNL     1      -6.430  13.620  -2.218  1.00  0.00     0.029 A 
ATOM     55  C   UNL     1      -5.620  12.699  -2.863  1.00  0.00     0.049 A 
ATOM     56  H   UNL     1      -4.228  11.349  -2.029  1.00  0.00     0.167 HD
ATOM     57  C   UNL     1      -4.640  11.548  -4.833  1.00  0.00     0.074 A 
ATOM     58  C   UNL     1      -4.519  11.307  -6.257  1.00  0.00     0.031 C 
ATOM     59  C   UNL     1      -5.516  12.425  -4.278  1.00  0.00     0.034 A 
BRANCH  46  60
ATOM     60  C   UNL     1      -5.275  12.634   1.926  1.00  0.00     0.023 A 
ATOM     61  C   UNL     1      -4.458  13.293   2.864  1.00  0.00     0.031 A 
ATOM     62  C   UNL     1      -6.630  12.452   2.254  1.00  0.00     0.131 A 
ATOM     63  C   UNL     1      -4.975  13.647   4.119  1.00  0.00     0.055 A 
ATOM     64  C   UNL     1      -7.161  12.894   3.469  1.00  0.00     0.041 A 
ATOM     65  F   UNL     1      -7.459  11.818   1.410  1.00  0.00    -0.206 F 
ATOM     66  C   UNL     1      -6.327  13.475   4.419  1.00  0.00     0.022 A 
BRANCH  63  67
ATOM     67  S   UNL     1      -3.814  14.162   5.415  1.00  0.00     0.124 S 
ATOM     68  O   UNL     1      -2.898  13.024   5.460  1.00  0.00    -0.237 OA
ATOM     69  O   UNL     1      -3.267  15.401   4.874  1.00  0.00    -0.237 OA
ATOM     70  O   UNL     1      -4.662  14.315   6.595  1.00  0.00    -0.744 OA
ENDBRANCH  63  67
ENDBRANCH  46  60
BRANCH  47  71
ATOM     71  C   UNL     1      -1.448   8.411  -6.312  1.00  0.00     0.023 A 
ATOM     72  C   UNL     1      -0.729   9.162  -7.255  1.00  0.00     0.031 A 
ATOM     73  C   UNL     1      -1.639   7.040  -6.563  1.00  0.00     0.131 A 
ATOM     74  C   UNL     1      -0.251   8.544  -8.421  1.00  0.00     0.055 A 
ATOM     75  C   UNL     1      -1.124   6.422  -7.703  1.00  0.00     0.041 A 
ATOM     76  F   UNL     1      -2.310   6.275  -5.687  1.00  0.00    -0.206 F 
ATOM     77  C   UNL     1      -0.432   7.177  -8.645  1.00  0.00     0.022 A 
BRANCH  74  78
ATOM     78  S   UNL     1       0.576   9.566  -9.670  1.00  0.00     0.124 S 
ATOM     79  O   UNL     1      -0.481  10.501 -10.036  1.00  0.00    -0.237 OA
ATOM     80  O   UNL     1       1.694  10.122  -8.915  1.00  0.00    -0.237 OA
ATOM     81  O   UNL     1       0.946   8.603 -10.705  1.00  0.00    -0.744 OA
ENDBRANCH  74  78
ENDBRANCH  47  71
BRANCH  59  82
ATOM     82  C   UNL     1      -6.401  13.197  -5.226  1.00  0.00     0.023 A 
ATOM     83  C   UNL     1      -7.407  12.563  -5.976  1.00  0.00     0.031 A 
ATOM     84  C   UNL     1      -6.230  14.583  -5.388  1.00  0.00     0.131 A 
ATOM     85  C   UNL     1      -8.170  13.305  -6.891  1.00  0.00     0.055 A 
ATOM     86  C   UNL     1      -7.031  15.326  -6.256  1.00  0.00     0.041 A 
ATOM     87  F   UNL     1      -5.281  15.240  -4.700  1.00  0.00    -0.206 F 
ATOM     88  C   UNL     1      -8.000  14.685  -7.022  1.00  0.00     0.022 A 
BRANCH  85  89
ATOM     89  S   UNL     1      -9.335  12.427  -7.968  1.00  0.00     0.124 S 
ATOM     90  O   UNL     1      -8.450  11.525  -8.700  1.00  0.00    -0.237 OA
ATOM     91  O   UNL     1     -10.236  11.796  -7.009  1.00  0.00    -0.237 OA
ATOM     92  O   UNL     1      -9.933  13.494  -8.769  1.00  0.00    -0.744 OA
ENDBRANCH  85  89
ENDBRANCH  59  82
ENDBRANCH  33  34
ENDBRANCH  25  28
ENDBRANCH  23  24
ENDBRANCH  22  23
ENDBRANCH   1  22
TORSDOF 18
