REMARK SMILES NS(=O)(=O)c1ccc(/N=C/c2ccc(O)c(C(=O)NCCCNC(=O)c3ccc(-c4c5nc(c(-c6cc(S(=O)(=O)[O-])ccc6F)c6ccc([nH]6)c(-c6cc(S(=O)(=O)[O-])ccc6F)c6nc(c(-c7cc(S(=O)(=O)[O-])ccc7F)c7ccc4[nH]7)C=C6)C=C5)cc3)c2)cc1
REMARK SMILES IDX 20 1 19 2 17 3 18 4 16 6 11 7 12 8 89 9 13 10 14 11 10 12
REMARK SMILES IDX 9 13 8 14 5 15 6 16 91 17 7 18 90 19 2 20 3 21 4 22 1 23
REMARK SMILES IDX 15 26 21 28 22 29 23 30 24 31 25 33 26 34 27 35 88 36 28 37
REMARK SMILES IDX 87 38 29 39 30 40 31 41 81 42 32 43 86 44 80 45 82 46 33 47
REMARK SMILES IDX 85 48 79 49 78 50 34 52 66 53 46 54 65 55 47 56 50 57 64 58
REMARK SMILES IDX 83 59 48 60 49 61 63 63 84 64 51 65 35 66 36 67 44 68 37 69
REMARK SMILES IDX 43 70 45 71 42 72 38 73 39 74 40 75 41 76 67 77 68 78 76 79
REMARK SMILES IDX 69 80 75 81 77 82 74 83 70 84 71 85 72 86 73 87 52 88 53 89
REMARK SMILES IDX 61 90 54 91 60 92 62 93 59 94 55 95 56 96 57 97 58 98
REMARK H PARENT 19 5 1 24 1 25 15 27 23 32 82 51 50 62
REMARK Flexibility Score: inf
ROOT
ATOM      1  C   UNL     1       5.663   8.321   1.099  1.00  0.00     0.118 C 
ENDROOT
BRANCH   1   2
ATOM      2  N   UNL     1       5.756   9.704   1.557  1.00  0.00    -0.352 N 
ATOM      3  C   UNL     1       4.838  10.722   1.669  1.00  0.00     0.255 C 
ATOM      4  O   UNL     1       5.232  11.825   2.060  1.00  0.00    -0.269 OA
ATOM      5  H   UNL     1       6.662   9.961   1.845  1.00  0.00     0.163 HD
BRANCH   3   6
ATOM      6  C   UNL     1       3.409  10.603   1.275  1.00  0.00     0.082 A 
ATOM      7  C   UNL     1       1.481   9.263   0.673  1.00  0.00    -0.006 A 
ATOM      8  C   UNL     1       0.812  10.386   0.194  1.00  0.00     0.013 A 
ATOM      9  C   UNL     1       2.724   9.393   1.303  1.00  0.00     0.027 A 
ATOM     10  C   UNL     1       1.417  11.638   0.316  1.00  0.00     0.047 A 
ATOM     11  C   UNL     1       2.712  11.741   0.832  1.00  0.00     0.128 A 
BRANCH   7  12
ATOM     12  C   UNL     1       0.969   7.904   0.387  1.00  0.00     0.119 C 
ATOM     13  N   UNL     1       1.741   6.881   0.566  1.00  0.00    -0.256 NA
BRANCH  13  14
ATOM     14  C   UNL     1       1.343   5.593   0.185  1.00  0.00     0.063 A 
ATOM     15  C   UNL     1       0.804   2.941  -0.562  1.00  0.00     0.082 A 
ATOM     16  C   UNL     1       1.529   3.196   0.601  1.00  0.00     0.024 A 
ATOM     17  C   UNL     1       0.359   3.997  -1.364  1.00  0.00     0.024 A 
ATOM     18  C   UNL     1       1.794   4.521   0.964  1.00  0.00     0.030 A 
ATOM     19  C   UNL     1       0.637   5.316  -0.993  1.00  0.00     0.030 A 
BRANCH  15  20
ATOM     20  S   UNL     1       0.447   1.293  -1.095  1.00  0.00     0.238 S 
ATOM     21  O   UNL     1       1.085   1.079  -2.369  1.00  0.00    -0.207 OA
ATOM     22  O   UNL     1      -0.961   1.052  -0.874  1.00  0.00    -0.207 OA
BRANCH  20  23
ATOM     23  N   UNL     1       1.252   0.296  -0.008  1.00  0.00    -0.225 NA
ATOM     24  H   UNL     1       1.088  -0.680  -0.257  1.00  0.00     0.137 HD
ATOM     25  H   UNL     1       0.903   0.469   0.935  1.00  0.00     0.137 HD
ENDBRANCH  20  23
ENDBRANCH  15  20
ENDBRANCH  13  14
ENDBRANCH   7  12
BRANCH  11  26
ATOM     26  O   UNL     1       3.244  13.005   0.868  1.00  0.00    -0.507 OA
ATOM     27  H   UNL     1       2.741  13.733   0.561  1.00  0.00     0.293 HD
ENDBRANCH  11  26
ENDBRANCH   3   6
ENDBRANCH   1   2
BRANCH   1  28
ATOM     28  C   UNL     1       6.582   7.979  -0.063  1.00  0.00     0.042 C 
BRANCH  28  29
ATOM     29  C   UNL     1       8.069   8.039   0.243  1.00  0.00     0.118 C 
BRANCH  29  30
ATOM     30  N   UNL     1       8.468   7.137   1.313  1.00  0.00    -0.352 N 
ATOM     31  C   UNL     1       9.183   5.964   1.303  1.00  0.00     0.251 C 
ATOM     32  H   UNL     1       8.170   7.419   2.208  1.00  0.00     0.163 HD
ATOM     33  O   UNL     1       9.202   5.286   2.330  1.00  0.00    -0.269 OA
BRANCH  31  34
ATOM     34  C   UNL     1       9.905   5.493   0.096  1.00  0.00     0.039 A 
ATOM     35  C   UNL     1      10.005   4.116  -0.130  1.00  0.00     0.014 A 
ATOM     36  C   UNL     1      10.532   6.375  -0.786  1.00  0.00     0.014 A 
ATOM     37  C   UNL     1      10.673   3.637  -1.261  1.00  0.00     0.010 A 
ATOM     38  C   UNL     1      11.102   5.903  -1.967  1.00  0.00     0.010 A 
ATOM     39  C   UNL     1      11.194   4.527  -2.214  1.00  0.00    -0.014 A 
BRANCH  39  40
ATOM     40  C   UNL     1      11.847   4.030  -3.455  1.00  0.00     0.031 A 
ATOM     41  C   UNL     1      13.293   4.351  -3.739  1.00  0.00     0.074 A 
ATOM     42  C   UNL     1      11.123   3.327  -4.349  1.00  0.00     0.049 A 
ATOM     43  N   UNL     1      14.025   4.030  -4.776  1.00  0.00    -0.248 NA
ATOM     44  C   UNL     1      13.999   5.168  -2.741  1.00  0.00     0.031 C 
ATOM     45  C   UNL     1       9.700   3.006  -4.216  1.00  0.00     0.029 A 
ATOM     46  N   UNL     1      11.479   2.754  -5.545  1.00  0.00    -0.354 N 
ATOM     47  C   UNL     1      15.269   4.616  -4.562  1.00  0.00     0.074 A 
ATOM     48  C   UNL     1      15.167   5.370  -3.331  1.00  0.00     0.031 C 
ATOM     49  C   UNL     1       9.316   2.261  -5.264  1.00  0.00     0.029 A 
ATOM     50  C   UNL     1      10.448   2.088  -6.168  1.00  0.00     0.049 A 
ATOM     51  H   UNL     1      12.386   2.814  -5.921  1.00  0.00     0.167 HD
ATOM     52  C   UNL     1      16.398   4.514  -5.307  1.00  0.00     0.034 A 
ATOM     53  C   UNL     1      10.416   1.417  -7.336  1.00  0.00     0.034 A 
ATOM     54  C   UNL     1      16.485   3.743  -6.524  1.00  0.00     0.049 A 
ATOM     55  C   UNL     1      11.685   1.312  -8.143  1.00  0.00     0.074 A 
ATOM     56  C   UNL     1      17.590   3.519  -7.327  1.00  0.00     0.029 A 
ATOM     57  N   UNL     1      15.423   3.074  -7.120  1.00  0.00    -0.354 N 
ATOM     58  N   UNL     1      12.870   1.819  -7.892  1.00  0.00    -0.248 NA
ATOM     59  C   UNL     1      11.614   0.528  -9.382  1.00  0.00     0.031 C 
ATOM     60  C   UNL     1      17.182   2.777  -8.441  1.00  0.00     0.029 A 
ATOM     61  C   UNL     1      15.840   2.465  -8.295  1.00  0.00     0.049 A 
ATOM     62  H   UNL     1      14.507   3.037  -6.761  1.00  0.00     0.167 HD
ATOM     63  C   UNL     1      13.693   1.391  -8.931  1.00  0.00     0.074 A 
ATOM     64  C   UNL     1      12.873   0.562  -9.791  1.00  0.00     0.031 C 
ATOM     65  C   UNL     1      15.006   1.658  -9.155  1.00  0.00     0.034 A 
BRANCH  52  66
ATOM     66  C   UNL     1      17.619   5.271  -4.832  1.00  0.00     0.023 A 
ATOM     67  C   UNL     1      18.224   5.000  -3.592  1.00  0.00     0.031 A 
ATOM     68  C   UNL     1      18.172   6.298  -5.619  1.00  0.00     0.131 A 
ATOM     69  C   UNL     1      19.291   5.793  -3.141  1.00  0.00     0.055 A 
ATOM     70  C   UNL     1      19.288   7.027  -5.202  1.00  0.00     0.041 A 
ATOM     71  F   UNL     1      17.628   6.620  -6.803  1.00  0.00    -0.206 F 
ATOM     72  C   UNL     1      19.845   6.787  -3.950  1.00  0.00     0.022 A 
BRANCH  69  73
ATOM     73  S   UNL     1      19.847   5.604  -1.425  1.00  0.00     0.124 S 
ATOM     74  O   UNL     1      18.622   5.899  -0.684  1.00  0.00    -0.237 OA
ATOM     75  O   UNL     1      20.297   4.217  -1.389  1.00  0.00    -0.237 OA
ATOM     76  O   UNL     1      20.902   6.606  -1.294  1.00  0.00    -0.744 OA
ENDBRANCH  69  73
ENDBRANCH  52  66
BRANCH  53  77
ATOM     77  C   UNL     1       9.151   0.788  -7.815  1.00  0.00     0.023 A 
ATOM     78  C   UNL     1       9.043  -0.604  -7.964  1.00  0.00     0.031 A 
ATOM     79  C   UNL     1       8.040   1.575  -8.170  1.00  0.00     0.131 A 
ATOM     80  C   UNL     1       7.873  -1.163  -8.501  1.00  0.00     0.055 A 
ATOM     81  C   UNL     1       6.858   1.009  -8.650  1.00  0.00     0.041 A 
ATOM     82  F   UNL     1       8.086   2.911  -8.042  1.00  0.00    -0.206 F 
ATOM     83  C   UNL     1       6.775  -0.367  -8.832  1.00  0.00     0.022 A 
BRANCH  80  84
ATOM     84  S   UNL     1       7.842  -2.944  -8.847  1.00  0.00     0.124 S 
ATOM     85  O   UNL     1       8.981  -3.093  -9.746  1.00  0.00    -0.237 OA
ATOM     86  O   UNL     1       7.998  -3.514  -7.513  1.00  0.00    -0.237 OA
ATOM     87  O   UNL     1       6.531  -3.149  -9.460  1.00  0.00    -0.744 OA
ENDBRANCH  80  84
ENDBRANCH  53  77
BRANCH  65  88
ATOM     88  C   UNL     1      15.632   1.011 -10.368  1.00  0.00     0.023 A 
ATOM     89  C   UNL     1      15.211   1.323 -11.672  1.00  0.00     0.031 A 
ATOM     90  C   UNL     1      16.636   0.037 -10.214  1.00  0.00     0.131 A 
ATOM     91  C   UNL     1      15.731   0.614 -12.764  1.00  0.00     0.055 A 
ATOM     92  C   UNL     1      17.203  -0.614 -11.311  1.00  0.00     0.041 A 
ATOM     93  F   UNL     1      17.077  -0.305  -8.993  1.00  0.00    -0.206 F 
ATOM     94  C   UNL     1      16.737  -0.341 -12.594  1.00  0.00     0.022 A 
BRANCH  91  95
ATOM     95  S   UNL     1      14.981   0.861 -14.398  1.00  0.00     0.124 S 
ATOM     96  O   UNL     1      13.579   0.552 -14.137  1.00  0.00    -0.237 OA
ATOM     97  O   UNL     1      15.285   2.262 -14.670  1.00  0.00    -0.237 OA
ATOM     98  O   UNL     1      15.681  -0.102 -15.246  1.00  0.00    -0.744 OA
ENDBRANCH  91  95
ENDBRANCH  65  88
ENDBRANCH  39  40
ENDBRANCH  31  34
ENDBRANCH  29  30
ENDBRANCH  28  29
ENDBRANCH   1  28
TORSDOF 18
