REMARK SMILES C=CC[N@@H+](CC(=O)NCCCNC(=O)c1ccc(-c2c3nc(c(-c4cc(S(=O)(=O)[O-])ccc4F)c4ccc([nH]4)c(-c4cc(S(=O)(=O)[O-])ccc4F)c4nc(c(-c5cc(S(=O)(=O)[O-])ccc5F)c5ccc2[nH]5)C=C4)C=C3)cc1)C[C@H]1CNC(=O)O1
REMARK SMILES IDX 10 1 9 2 8 3 6 4 7 5 5 7 4 8 3 10 2 11 1 12 78 13 79 14
REMARK SMILES IDX 80 15 84 16 81 17 82 18 83 20 11 21 12 22 13 23 14 25 15 26
REMARK SMILES IDX 16 27 77 28 17 29 76 30 18 31 19 32 20 33 70 34 21 35 75 36
REMARK SMILES IDX 69 37 71 38 22 39 74 40 68 41 67 42 23 44 55 45 35 46 54 47
REMARK SMILES IDX 36 48 39 49 53 50 72 51 37 52 38 53 52 55 73 56 40 57 24 58
REMARK SMILES IDX 25 59 33 60 26 61 32 62 34 63 31 64 27 65 28 66 29 67 30 68
REMARK SMILES IDX 56 69 57 70 65 71 58 72 64 73 66 74 63 75 59 76 60 77 61 78
REMARK SMILES IDX 62 79 41 80 42 81 50 82 43 83 49 84 51 85 48 86 44 87 45 88
REMARK SMILES IDX 46 89 47 90
REMARK H PARENT 8 6 4 9 81 19 12 24 71 43 39 54
REMARK Flexibility Score: inf
ROOT
ATOM      1  C   UNL     1      -3.707  -1.200  -2.406  1.00  0.00     0.042 C 
ENDROOT
BRANCH   1   2
ATOM      2  C   UNL     1      -2.243  -1.226  -2.861  1.00  0.00     0.118 C 
BRANCH   2   3
ATOM      3  N   UNL     1      -1.629   0.085  -3.020  1.00  0.00    -0.351 N 
ATOM      4  C   UNL     1      -0.507   0.634  -2.473  1.00  0.00     0.275 C 
ATOM      5  O   UNL     1      -0.025   1.603  -3.071  1.00  0.00    -0.269 OA
ATOM      6  H   UNL     1      -2.111   0.684  -3.635  1.00  0.00     0.163 HD
BRANCH   4   7
ATOM      7  C   UNL     1       0.150   0.124  -1.185  1.00  0.00     0.363 C 
BRANCH   7   8
ATOM      8  N   UNL     1      -0.548   0.427   0.092  1.00  0.00    -0.321 N 
ATOM      9  H   UNL     1       0.114   0.202   0.834  1.00  0.00     0.348 HD
BRANCH   8  10
ATOM     10  C   UNL     1      -1.679  -0.451   0.301  1.00  0.00     0.290 C 
BRANCH  10  11
ATOM     11  C   UNL     1      -2.288  -0.497   1.665  1.00  0.00     0.025 C 
ATOM     12  C   UNL     1      -3.612  -0.410   1.868  1.00  0.00     0.010 C 
ENDBRANCH  10  11
ENDBRANCH   8  10
BRANCH   8  13
ATOM     13  C   UNL     1      -0.773   1.859   0.380  1.00  0.00     0.310 C 
BRANCH  13  14
ATOM     14  C   UNL     1      -1.697   2.735  -0.491  1.00  0.00     0.252 C 
ATOM     15  C   UNL     1      -3.184   2.467  -0.416  1.00  0.00     0.170 C 
ATOM     16  O   UNL     1      -1.603   4.122  -0.094  1.00  0.00    -0.438 OA
ATOM     17  N   UNL     1      -3.713   3.753  -0.717  1.00  0.00    -0.318 N 
ATOM     18  C   UNL     1      -2.780   4.715  -0.456  1.00  0.00     0.407 C 
ATOM     19  H   UNL     1      -4.619   3.923  -1.063  1.00  0.00     0.167 HD
ATOM     20  O   UNL     1      -2.967   5.919  -0.513  1.00  0.00    -0.225 OA
ENDBRANCH  13  14
ENDBRANCH   8  13
ENDBRANCH   7   8
ENDBRANCH   4   7
ENDBRANCH   2   3
ENDBRANCH   1   2
BRANCH   1  21
ATOM     21  C   UNL     1      -4.643  -0.361  -3.265  1.00  0.00     0.118 C 
BRANCH  21  22
ATOM     22  N   UNL     1      -5.206  -1.151  -4.339  1.00  0.00    -0.352 N 
ATOM     23  C   UNL     1      -6.431  -1.772  -4.403  1.00  0.00     0.251 C 
ATOM     24  H   UNL     1      -4.633  -1.258  -5.133  1.00  0.00     0.163 HD
ATOM     25  O   UNL     1      -6.576  -2.700  -5.195  1.00  0.00    -0.269 OA
BRANCH  23  26
ATOM     26  C   UNL     1      -7.558  -1.353  -3.529  1.00  0.00     0.039 A 
ATOM     27  C   UNL     1      -8.465  -2.322  -3.090  1.00  0.00     0.014 A 
ATOM     28  C   UNL     1      -7.780  -0.011  -3.201  1.00  0.00     0.014 A 
ATOM     29  C   UNL     1      -9.568  -1.952  -2.313  1.00  0.00     0.010 A 
ATOM     30  C   UNL     1      -8.825   0.343  -2.347  1.00  0.00     0.010 A 
ATOM     31  C   UNL     1      -9.750  -0.618  -1.915  1.00  0.00    -0.014 A 
BRANCH  31  32
ATOM     32  C   UNL     1     -10.927  -0.213  -1.095  1.00  0.00     0.031 A 
ATOM     33  C   UNL     1     -11.941   0.757  -1.647  1.00  0.00     0.074 A 
ATOM     34  C   UNL     1     -11.078  -0.698   0.153  1.00  0.00     0.049 A 
ATOM     35  N   UNL     1     -13.014   1.250  -1.080  1.00  0.00    -0.248 NA
ATOM     36  C   UNL     1     -11.698   1.260  -3.006  1.00  0.00     0.031 C 
ATOM     37  C   UNL     1     -10.159  -1.627   0.812  1.00  0.00     0.029 A 
ATOM     38  N   UNL     1     -12.060  -0.484   1.088  1.00  0.00    -0.354 N 
ATOM     39  C   UNL     1     -13.570   2.124  -2.011  1.00  0.00     0.074 A 
ATOM     40  C   UNL     1     -12.665   2.153  -3.141  1.00  0.00     0.031 C 
ATOM     41  C   UNL     1     -10.645  -1.939   2.024  1.00  0.00     0.029 A 
ATOM     42  C   UNL     1     -11.878  -1.191   2.253  1.00  0.00     0.049 A 
ATOM     43  H   UNL     1     -12.823   0.120   0.938  1.00  0.00     0.167 HD
ATOM     44  C   UNL     1     -14.738   2.813  -1.946  1.00  0.00     0.034 A 
ATOM     45  C   UNL     1     -12.614  -1.232   3.382  1.00  0.00     0.034 A 
ATOM     46  C   UNL     1     -15.626   2.778  -0.808  1.00  0.00     0.049 A 
ATOM     47  C   UNL     1     -13.872  -0.404   3.464  1.00  0.00     0.074 A 
ATOM     48  C   UNL     1     -16.847   3.410  -0.647  1.00  0.00     0.029 A 
ATOM     49  N   UNL     1     -15.383   2.086   0.372  1.00  0.00    -0.354 N 
ATOM     50  N   UNL     1     -14.403   0.388   2.561  1.00  0.00    -0.248 NA
ATOM     51  C   UNL     1     -14.632  -0.483   4.717  1.00  0.00     0.031 C 
ATOM     52  C   UNL     1     -17.297   3.171   0.656  1.00  0.00     0.029 A 
ATOM     53  C   UNL     1     -16.409   2.309   1.279  1.00  0.00     0.049 A 
ATOM     54  H   UNL     1     -14.596   1.519   0.541  1.00  0.00     0.167 HD
ATOM     55  C   UNL     1     -15.582   0.870   3.125  1.00  0.00     0.074 A 
ATOM     56  C   UNL     1     -15.685   0.272   4.440  1.00  0.00     0.031 C 
ATOM     57  C   UNL     1     -16.499   1.723   2.598  1.00  0.00     0.034 A 
BRANCH  44  58
ATOM     58  C   UNL     1     -15.091   3.687  -3.131  1.00  0.00     0.023 A 
ATOM     59  C   UNL     1     -15.238   3.152  -4.424  1.00  0.00     0.031 A 
ATOM     60  C   UNL     1     -15.222   5.080  -2.983  1.00  0.00     0.131 A 
ATOM     61  C   UNL     1     -15.392   4.007  -5.525  1.00  0.00     0.055 A 
ATOM     62  C   UNL     1     -15.482   5.916  -4.071  1.00  0.00     0.041 A 
ATOM     63  F   UNL     1     -15.073   5.658  -1.781  1.00  0.00    -0.206 F 
ATOM     64  C   UNL     1     -15.545   5.384  -5.355  1.00  0.00     0.022 A 
BRANCH  61  65
ATOM     65  S   UNL     1     -15.181   3.313  -7.188  1.00  0.00     0.124 S 
ATOM     66  O   UNL     1     -13.849   2.719  -7.092  1.00  0.00    -0.237 OA
ATOM     67  O   UNL     1     -16.294   2.376  -7.283  1.00  0.00    -0.237 OA
ATOM     68  O   UNL     1     -15.270   4.482  -8.061  1.00  0.00    -0.744 OA
ENDBRANCH  61  65
ENDBRANCH  44  58
BRANCH  45  69
ATOM     69  C   UNL     1     -12.189  -2.090   4.525  1.00  0.00     0.023 A 
ATOM     70  C   UNL     1     -12.976  -3.174   4.944  1.00  0.00     0.031 A 
ATOM     71  C   UNL     1     -11.002  -1.826   5.230  1.00  0.00     0.131 A 
ATOM     72  C   UNL     1     -12.587  -3.931   6.060  1.00  0.00     0.055 A 
ATOM     73  C   UNL     1     -10.590  -2.616   6.304  1.00  0.00     0.041 A 
ATOM     74  F   UNL     1     -10.210  -0.803   4.869  1.00  0.00    -0.206 F 
ATOM     75  C   UNL     1     -11.391  -3.670   6.732  1.00  0.00     0.022 A 
BRANCH  72  76
ATOM     76  S   UNL     1     -13.707  -5.221   6.668  1.00  0.00     0.124 S 
ATOM     77  O   UNL     1     -14.904  -4.450   6.982  1.00  0.00    -0.237 OA
ATOM     78  O   UNL     1     -13.800  -6.111   5.515  1.00  0.00    -0.237 OA
ATOM     79  O   UNL     1     -12.997  -5.771   7.821  1.00  0.00    -0.744 OA
ENDBRANCH  72  76
ENDBRANCH  45  69
BRANCH  57  80
ATOM     80  C   UNL     1     -17.725   2.020   3.431  1.00  0.00     0.023 A 
ATOM     81  C   UNL     1     -17.644   2.692   4.664  1.00  0.00     0.031 A 
ATOM     82  C   UNL     1     -18.996   1.610   2.988  1.00  0.00     0.131 A 
ATOM     83  C   UNL     1     -18.800   2.876   5.438  1.00  0.00     0.055 A 
ATOM     84  C   UNL     1     -20.152   1.862   3.727  1.00  0.00     0.041 A 
ATOM     85  F   UNL     1     -19.136   0.958   1.822  1.00  0.00    -0.206 F 
ATOM     86  C   UNL     1     -20.056   2.485   4.968  1.00  0.00     0.022 A 
BRANCH  83  87
ATOM     87  S   UNL     1     -18.626   3.529   7.121  1.00  0.00     0.124 S 
ATOM     88  O   UNL     1     -17.715   2.564   7.727  1.00  0.00    -0.237 OA
ATOM     89  O   UNL     1     -18.079   4.861   6.885  1.00  0.00    -0.237 OA
ATOM     90  O   UNL     1     -19.992   3.503   7.642  1.00  0.00    -0.744 OA
ENDBRANCH  83  87
ENDBRANCH  57  80
ENDBRANCH  31  32
ENDBRANCH  23  26
ENDBRANCH  21  22
ENDBRANCH   1  21
TORSDOF 18
