REMARK SMILES C/C(=N/Nc1ccccc1C(=O)NCCCNC(=O)c1ccc(-c2c3nc(c(-c4cc(S(=O)(=O)[O-])ccc4F)c4ccc([nH]4)c(-c4cc(S(=O)(=O)[O-])ccc4F)c4nc(c(-c5cc(S(=O)(=O)[O-])ccc5F)c5ccc2[nH]5)C=C4)C=C3)cc1)c1ccc(S(C)(=O)=O)cc1
REMARK SMILES IDX 14 1 13 2 11 3 12 4 10 6 5 7 6 8 7 9 9 10 8 11 4 12 3 14
REMARK SMILES IDX 1 15 2 16 83 17 84 18 92 19 85 20 91 21 86 22 87 23 88 24
REMARK SMILES IDX 89 25 90 26 15 27 16 28 17 29 18 30 19 32 20 33 21 34 82 35
REMARK SMILES IDX 22 36 81 37 23 38 24 39 25 40 75 41 26 42 80 43 74 44 76 45
REMARK SMILES IDX 27 46 79 47 73 48 72 49 28 51 60 52 40 53 59 54 41 55 44 56
REMARK SMILES IDX 58 57 77 58 42 59 43 60 57 62 78 63 45 64 29 65 30 66 38 67
REMARK SMILES IDX 31 68 37 69 39 70 36 71 32 72 33 73 34 74 35 75 61 76 62 77
REMARK SMILES IDX 70 78 63 79 69 80 71 81 68 82 64 83 65 84 66 85 67 86 46 87
REMARK SMILES IDX 47 88 55 89 48 90 54 91 56 92 53 93 49 94 50 95 51 96 52 97
REMARK H PARENT 13 5 4 13 17 31 76 50 44 61
REMARK Flexibility Score: inf
ROOT
ATOM      1  C   UNL     1       0.202  -3.192  -1.226  1.00  0.00     0.118 C 
ENDROOT
BRANCH   1   2
ATOM      2  N   UNL     1       1.447  -2.582  -1.655  1.00  0.00    -0.352 N 
ATOM      3  C   UNL     1       1.734  -1.909  -2.809  1.00  0.00     0.253 C 
ATOM      4  O   UNL     1       2.875  -1.462  -2.950  1.00  0.00    -0.269 OA
ATOM      5  H   UNL     1       2.195  -2.664  -1.021  1.00  0.00     0.163 HD
BRANCH   3   6
ATOM      6  C   UNL     1       0.775  -1.809  -3.938  1.00  0.00     0.064 A 
ATOM      7  C   UNL     1      -0.583  -1.450  -3.873  1.00  0.00     0.069 A 
ATOM      8  C   UNL     1      -1.329  -1.529  -5.075  1.00  0.00     0.028 A 
ATOM      9  C   UNL     1      -0.750  -1.874  -6.298  1.00  0.00     0.002 A 
ATOM     10  C   UNL     1       1.357  -2.125  -5.189  1.00  0.00     0.016 A 
ATOM     11  C   UNL     1       0.605  -2.148  -6.360  1.00  0.00     0.001 A 
BRANCH   7  12
ATOM     12  N   UNL     1      -1.288  -0.865  -2.793  1.00  0.00    -0.277 N 
ATOM     13  H   UNL     1      -2.268  -0.836  -2.883  1.00  0.00     0.190 HD
BRANCH  12  14
ATOM     14  N   UNL     1      -0.784  -0.343  -1.656  1.00  0.00    -0.180 NA
ATOM     15  C   UNL     1       0.593   1.046  -0.278  1.00  0.00     0.069 C 
ATOM     16  C   UNL     1       0.083   0.627  -1.640  1.00  0.00     0.065 C 
BRANCH  16  17
ATOM     17  C   UNL     1       0.638   1.338  -2.816  1.00  0.00    -0.002 A 
ATOM     18  C   UNL     1      -0.207   1.762  -3.845  1.00  0.00     0.011 A 
ATOM     19  C   UNL     1       2.027   1.458  -2.944  1.00  0.00     0.011 A 
ATOM     20  C   UNL     1       0.338   2.204  -5.048  1.00  0.00     0.021 A 
ATOM     21  C   UNL     1       2.578   1.896  -4.147  1.00  0.00     0.021 A 
ATOM     22  C   UNL     1       1.728   2.228  -5.203  1.00  0.00     0.067 A 
BRANCH  22  23
ATOM     23  S   UNL     1       2.404   2.639  -6.790  1.00  0.00     0.175 S 
ATOM     24  C   UNL     1       2.083   1.187  -7.759  1.00  0.00     0.163 C 
ATOM     25  O   UNL     1       1.609   3.728  -7.324  1.00  0.00    -0.224 OA
ATOM     26  O   UNL     1       3.843   2.771  -6.649  1.00  0.00    -0.224 OA
ENDBRANCH  22  23
ENDBRANCH  16  17
ENDBRANCH  12  14
ENDBRANCH   7  12
ENDBRANCH   3   6
ENDBRANCH   1   2
BRANCH   1  27
ATOM     27  C   UNL     1       0.404  -4.286  -0.198  1.00  0.00     0.042 C 
BRANCH  27  28
ATOM     28  C   UNL     1       1.073  -3.802   1.083  1.00  0.00     0.118 C 
BRANCH  28  29
ATOM     29  N   UNL     1       0.299  -2.819   1.840  1.00  0.00    -0.352 N 
ATOM     30  C   UNL     1      -0.339  -2.921   3.058  1.00  0.00     0.251 C 
ATOM     31  H   UNL     1       0.220  -1.938   1.407  1.00  0.00     0.163 HD
ATOM     32  O   UNL     1      -1.005  -1.982   3.484  1.00  0.00    -0.269 OA
BRANCH  30  33
ATOM     33  C   UNL     1      -0.272  -4.190   3.813  1.00  0.00     0.039 A 
ATOM     34  C   UNL     1      -1.446  -4.746   4.324  1.00  0.00     0.014 A 
ATOM     35  C   UNL     1       0.933  -4.877   3.929  1.00  0.00     0.014 A 
ATOM     36  C   UNL     1      -1.430  -6.054   4.817  1.00  0.00     0.010 A 
ATOM     37  C   UNL     1       0.917  -6.220   4.276  1.00  0.00     0.010 A 
ATOM     38  C   UNL     1      -0.266  -6.831   4.720  1.00  0.00    -0.014 A 
BRANCH  38  39
ATOM     39  C   UNL     1      -0.241  -8.278   5.073  1.00  0.00     0.031 A 
ATOM     40  C   UNL     1       0.766  -8.779   6.076  1.00  0.00     0.074 A 
ATOM     41  C   UNL     1      -1.038  -9.150   4.420  1.00  0.00     0.049 A 
ATOM     42  N   UNL     1       1.091 -10.008   6.386  1.00  0.00    -0.248 NA
ATOM     43  C   UNL     1       1.559  -7.756   6.777  1.00  0.00     0.031 C 
ATOM     44  C   UNL     1      -2.006  -8.802   3.375  1.00  0.00     0.029 A 
ATOM     45  N   UNL     1      -1.151 -10.515   4.525  1.00  0.00    -0.354 N 
ATOM     46  C   UNL     1       2.146  -9.902   7.287  1.00  0.00     0.074 A 
ATOM     47  C   UNL     1       2.462  -8.495   7.400  1.00  0.00     0.031 C 
ATOM     48  C   UNL     1      -2.632  -9.916   2.962  1.00  0.00     0.029 A 
ATOM     49  C   UNL     1      -2.079 -11.065   3.669  1.00  0.00     0.049 A 
ATOM     50  H   UNL     1      -0.617 -11.051   5.155  1.00  0.00     0.167 HD
ATOM     51  C   UNL     1       2.769 -10.882   7.988  1.00  0.00     0.034 A 
ATOM     52  C   UNL     1      -2.433 -12.350   3.467  1.00  0.00     0.034 A 
ATOM     53  C   UNL     1       2.407 -12.274   7.900  1.00  0.00     0.049 A 
ATOM     54  C   UNL     1      -1.754 -13.421   4.285  1.00  0.00     0.074 A 
ATOM     55  C   UNL     1       2.931 -13.349   8.595  1.00  0.00     0.029 A 
ATOM     56  N   UNL     1       1.415 -12.781   7.071  1.00  0.00    -0.354 N 
ATOM     57  N   UNL     1      -0.782 -13.300   5.160  1.00  0.00    -0.248 NA
ATOM     58  C   UNL     1      -2.228 -14.799   4.099  1.00  0.00     0.031 C 
ATOM     59  C   UNL     1       2.286 -14.511   8.156  1.00  0.00     0.029 A 
ATOM     60  C   UNL     1       1.315 -14.153   7.233  1.00  0.00     0.049 A 
ATOM     61  H   UNL     1       0.863 -12.245   6.457  1.00  0.00     0.167 HD
ATOM     62  C   UNL     1      -0.551 -14.582   5.650  1.00  0.00     0.074 A 
ATOM     63  C   UNL     1      -1.497 -15.456   4.987  1.00  0.00     0.031 C 
ATOM     64  C   UNL     1       0.360 -15.003   6.563  1.00  0.00     0.034 A 
BRANCH  51  65
ATOM     65  C   UNL     1       3.893 -10.466   8.906  1.00  0.00     0.023 A 
ATOM     66  C   UNL     1       3.673  -9.588   9.983  1.00  0.00     0.031 A 
ATOM     67  C   UNL     1       5.209 -10.906   8.679  1.00  0.00     0.131 A 
ATOM     68  C   UNL     1       4.757  -9.102  10.727  1.00  0.00     0.055 A 
ATOM     69  C   UNL     1       6.273 -10.492   9.484  1.00  0.00     0.041 A 
ATOM     70  F   UNL     1       5.487 -11.730   7.656  1.00  0.00    -0.206 F 
ATOM     71  C   UNL     1       6.053  -9.569  10.503  1.00  0.00     0.022 A 
BRANCH  68  72
ATOM     72  S   UNL     1       4.466  -7.735  11.882  1.00  0.00     0.124 S 
ATOM     73  O   UNL     1       3.999  -6.685  10.980  1.00  0.00    -0.237 OA
ATOM     74  O   UNL     1       3.466  -8.291  12.786  1.00  0.00    -0.237 OA
ATOM     75  O   UNL     1       5.782  -7.500  12.474  1.00  0.00    -0.744 OA
ENDBRANCH  68  72
ENDBRANCH  51  65
BRANCH  52  76
ATOM     76  C   UNL     1      -3.471 -12.707   2.455  1.00  0.00     0.023 A 
ATOM     77  C   UNL     1      -4.689 -13.290   2.841  1.00  0.00     0.031 A 
ATOM     78  C   UNL     1      -3.240 -12.516   1.081  1.00  0.00     0.131 A 
ATOM     79  C   UNL     1      -5.605 -13.714   1.865  1.00  0.00     0.055 A 
ATOM     80  C   UNL     1      -4.179 -12.889   0.116  1.00  0.00     0.041 A 
ATOM     81  F   UNL     1      -2.098 -11.954   0.655  1.00  0.00    -0.206 F 
ATOM     82  C   UNL     1      -5.363 -13.507   0.506  1.00  0.00     0.022 A 
BRANCH  79  83
ATOM     83  S   UNL     1      -7.077 -14.632   2.396  1.00  0.00     0.124 S 
ATOM     84  O   UNL     1      -6.486 -15.736   3.143  1.00  0.00    -0.237 OA
ATOM     85  O   UNL     1      -7.789 -13.632   3.183  1.00  0.00    -0.237 OA
ATOM     86  O   UNL     1      -7.718 -15.003   1.136  1.00  0.00    -0.744 OA
ENDBRANCH  79  83
ENDBRANCH  52  76
BRANCH  64  87
ATOM     87  C   UNL     1       0.333 -16.463   6.933  1.00  0.00     0.023 A 
ATOM     88  C   UNL     1       0.707 -17.463   6.020  1.00  0.00     0.031 A 
ATOM     89  C   UNL     1      -0.077 -16.856   8.219  1.00  0.00     0.131 A 
ATOM     90  C   UNL     1       0.613 -18.813   6.388  1.00  0.00     0.055 A 
ATOM     91  C   UNL     1      -0.114 -18.198   8.599  1.00  0.00     0.041 A 
ATOM     92  F   UNL     1      -0.445 -15.939   9.129  1.00  0.00    -0.206 F 
ATOM     93  C   UNL     1       0.221 -19.186   7.677  1.00  0.00     0.022 A 
BRANCH  90  94
ATOM     94  S   UNL     1       0.934 -20.082   5.133  1.00  0.00     0.124 S 
ATOM     95  O   UNL     1      -0.063 -19.763   4.117  1.00  0.00    -0.237 OA
ATOM     96  O   UNL     1       2.323 -19.816   4.769  1.00  0.00    -0.237 OA
ATOM     97  O   UNL     1       0.712 -21.337   5.849  1.00  0.00    -0.744 OA
ENDBRANCH  90  94
ENDBRANCH  64  87
ENDBRANCH  38  39
ENDBRANCH  30  33
ENDBRANCH  28  29
ENDBRANCH  27  28
ENDBRANCH   1  27
TORSDOF 17
