REMARK SMILES C[NH2+][C@]1(C(=O)NCCCNC(=O)c2ccc(-c3c4nc(c(-c5cc(S(=O)(=O)[O-])ccc5F)c5ccc([nH]5)c(-c5cc(S(=O)(=O)[O-])ccc5F)c5nc(c(-c6cc(S(=O)(=O)[O-])ccc6F)c6ccc3[nH]6)C=C5)C=C4)cc2)CCC[C@H](Sc2n[nH]c(=O)n2C)C1
REMARK SMILES IDX 8 1 7 2 6 3 4 4 5 5 3 7 76 8 88 9 77 10 79 11 78 12 2 13
REMARK SMILES IDX 1 14 80 17 81 18 82 19 86 20 83 21 84 22 87 23 85 25 9 26
REMARK SMILES IDX 10 27 11 28 12 30 13 31 14 32 75 33 15 34 74 35 16 36 17 37
REMARK SMILES IDX 18 38 68 39 19 40 73 41 67 42 69 43 20 44 72 45 66 46 65 47
REMARK SMILES IDX 21 49 53 50 33 51 52 52 34 53 37 54 51 55 70 56 35 57 36 58
REMARK SMILES IDX 50 60 71 61 38 62 22 63 23 64 31 65 24 66 30 67 32 68 29 69
REMARK SMILES IDX 25 70 26 71 27 72 28 73 54 74 55 75 63 76 56 77 62 78 64 79
REMARK SMILES IDX 61 80 57 81 58 82 59 83 60 84 39 85 40 86 48 87 41 88 47 89
REMARK SMILES IDX 49 90 46 91 42 92 43 93 44 94 45 95
REMARK H PARENT 6 6 2 15 2 16 83 24 10 29 69 48 37 59
REMARK Flexibility Score: inf
ROOT
ATOM      1  C   UNL     1       0.931   0.349   4.929  1.00  0.00     0.042 C 
ENDROOT
BRANCH   1   2
ATOM      2  C   UNL     1       0.434   1.374   3.926  1.00  0.00     0.118 C 
BRANCH   2   3
ATOM      3  N   UNL     1       1.036   1.195   2.616  1.00  0.00    -0.351 N 
ATOM      4  C   UNL     1       0.521   0.922   1.385  1.00  0.00     0.281 C 
ATOM      5  O   UNL     1       1.371   0.701   0.517  1.00  0.00    -0.268 OA
ATOM      6  H   UNL     1       2.016   1.290   2.619  1.00  0.00     0.163 HD
BRANCH   4   7
ATOM      7  C   UNL     1      -1.026   0.883   1.122  1.00  0.00     0.176 C 
ATOM      8  C   UNL     1      -1.576  -0.387   1.827  1.00  0.00     0.079 C 
ATOM      9  C   UNL     1      -1.724   2.194   1.615  1.00  0.00     0.094 C 
ATOM     10  C   UNL     1      -3.095  -0.433   1.948  1.00  0.00     0.008 C 
ATOM     11  C   UNL     1      -3.253   2.115   1.812  1.00  0.00     0.061 C 
ATOM     12  C   UNL     1      -3.628   0.843   2.583  1.00  0.00     0.015 C 
BRANCH   7  13
ATOM     13  N   UNL     1      -1.335   0.660  -0.330  1.00  0.00    -0.336 N 
ATOM     14  C   UNL     1      -0.658   1.541  -1.275  1.00  0.00     0.331 C 
ATOM     15  H   UNL     1      -1.077  -0.300  -0.560  1.00  0.00     0.346 HD
ATOM     16  H   UNL     1      -2.330   0.863  -0.432  1.00  0.00     0.346 HD
ENDBRANCH   7  13
BRANCH  11  17
ATOM     17  S   UNL     1      -4.015   2.298   0.167  1.00  0.00    -0.082 SA
BRANCH  17  18
ATOM     18  C   UNL     1      -5.706   2.264   0.457  1.00  0.00     0.191 A 
ATOM     19  N   UNL     1      -6.287   2.340   1.617  1.00  0.00    -0.146 NA
ATOM     20  N   UNL     1      -6.545   2.150  -0.599  1.00  0.00    -0.273 N 
ATOM     21  N   UNL     1      -7.618   2.246   1.315  1.00  0.00    -0.226 N 
ATOM     22  C   UNL     1      -7.799   2.132  -0.056  1.00  0.00     0.343 A 
ATOM     23  C   UNL     1      -6.285   2.077  -2.020  1.00  0.00     0.157 C 
ATOM     24  H   UNL     1      -8.346   2.258   1.978  1.00  0.00     0.195 HD
ATOM     25  O   UNL     1      -8.867   2.041  -0.641  1.00  0.00    -0.246 OA
ENDBRANCH  17  18
ENDBRANCH  11  17
ENDBRANCH   4   7
ENDBRANCH   2   3
ENDBRANCH   1   2
BRANCH   1  26
ATOM     26  C   UNL     1       2.437   0.362   5.128  1.00  0.00     0.118 C 
BRANCH  26  27
ATOM     27  N   UNL     1       2.927   1.639   5.631  1.00  0.00    -0.352 N 
ATOM     28  C   UNL     1       3.504   1.943   6.840  1.00  0.00     0.251 C 
ATOM     29  H   UNL     1       2.830   2.397   5.011  1.00  0.00     0.163 HD
ATOM     30  O   UNL     1       3.660   3.119   7.158  1.00  0.00    -0.269 OA
BRANCH  28  31
ATOM     31  C   UNL     1       3.897   0.855   7.761  1.00  0.00     0.039 A 
ATOM     32  C   UNL     1       3.622   0.982   9.123  1.00  0.00     0.014 A 
ATOM     33  C   UNL     1       4.513  -0.301   7.276  1.00  0.00     0.014 A 
ATOM     34  C   UNL     1       3.888  -0.087   9.982  1.00  0.00     0.010 A 
ATOM     35  C   UNL     1       4.671  -1.401   8.109  1.00  0.00     0.010 A 
ATOM     36  C   UNL     1       4.368  -1.306   9.474  1.00  0.00    -0.014 A 
BRANCH  36  37
ATOM     37  C   UNL     1       4.573  -2.488  10.353  1.00  0.00     0.031 A 
ATOM     38  C   UNL     1       5.945  -3.095  10.485  1.00  0.00     0.074 A 
ATOM     39  C   UNL     1       3.519  -3.050  10.978  1.00  0.00     0.049 A 
ATOM     40  N   UNL     1       6.315  -4.170  11.131  1.00  0.00    -0.248 NA
ATOM     41  C   UNL     1       7.039  -2.422   9.767  1.00  0.00     0.031 C 
ATOM     42  C   UNL     1       2.134  -2.577  10.892  1.00  0.00     0.029 A 
ATOM     43  N   UNL     1       3.442  -4.143  11.804  1.00  0.00    -0.354 N 
ATOM     44  C   UNL     1       7.678  -4.309  10.887  1.00  0.00     0.074 A 
ATOM     45  C   UNL     1       8.051  -3.249   9.976  1.00  0.00     0.031 C 
ATOM     46  C   UNL     1       1.355  -3.353  11.662  1.00  0.00     0.029 A 
ATOM     47  C   UNL     1       2.167  -4.413  12.250  1.00  0.00     0.049 A 
ATOM     48  H   UNL     1       4.225  -4.685  12.054  1.00  0.00     0.167 HD
ATOM     49  C   UNL     1       8.543  -5.219  11.398  1.00  0.00     0.034 A 
ATOM     50  C   UNL     1       1.704  -5.409  13.032  1.00  0.00     0.034 A 
ATOM     51  C   UNL     1       8.156  -6.261  12.317  1.00  0.00     0.049 A 
ATOM     52  C   UNL     1       2.680  -6.432  13.559  1.00  0.00     0.074 A 
ATOM     53  C   UNL     1       8.957  -7.202  12.937  1.00  0.00     0.029 A 
ATOM     54  N   UNL     1       6.856  -6.505  12.742  1.00  0.00    -0.354 N 
ATOM     55  N   UNL     1       3.976  -6.517  13.359  1.00  0.00    -0.248 NA
ATOM     56  C   UNL     1       2.135  -7.484  14.425  1.00  0.00     0.031 C 
ATOM     57  C   UNL     1       8.135  -8.064  13.670  1.00  0.00     0.029 A 
ATOM     58  C   UNL     1       6.830  -7.605  13.586  1.00  0.00     0.049 A 
ATOM     59  H   UNL     1       6.068  -5.976  12.481  1.00  0.00     0.167 HD
ATOM     60  C   UNL     1       4.404  -7.611  14.107  1.00  0.00     0.074 A 
ATOM     61  C   UNL     1       3.232  -8.142  14.772  1.00  0.00     0.031 C 
ATOM     62  C   UNL     1       5.653  -8.127  14.239  1.00  0.00     0.034 A 
BRANCH  49  63
ATOM     63  C   UNL     1       9.985  -5.138  10.954  1.00  0.00     0.023 A 
ATOM     64  C   UNL     1      10.780  -4.008  11.220  1.00  0.00     0.031 A 
ATOM     65  C   UNL     1      10.571  -6.199  10.242  1.00  0.00     0.131 A 
ATOM     66  C   UNL     1      12.086  -3.935  10.714  1.00  0.00     0.055 A 
ATOM     67  C   UNL     1      11.901  -6.156   9.817  1.00  0.00     0.041 A 
ATOM     68  F   UNL     1       9.857  -7.294   9.936  1.00  0.00    -0.206 F 
ATOM     69  C   UNL     1      12.662  -5.013  10.040  1.00  0.00     0.022 A 
BRANCH  66  70
ATOM     70  S   UNL     1      12.969  -2.354  10.824  1.00  0.00     0.124 S 
ATOM     71  O   UNL     1      12.069  -1.463  10.096  1.00  0.00    -0.237 OA
ATOM     72  O   UNL     1      13.054  -2.139  12.264  1.00  0.00    -0.237 OA
ATOM     73  O   UNL     1      14.240  -2.624  10.156  1.00  0.00    -0.744 OA
ENDBRANCH  66  70
ENDBRANCH  49  63
BRANCH  50  74
ATOM     74  C   UNL     1       0.250  -5.507  13.357  1.00  0.00     0.023 A 
ATOM     75  C   UNL     1      -0.203  -5.416  14.683  1.00  0.00     0.031 A 
ATOM     76  C   UNL     1      -0.705  -5.750  12.352  1.00  0.00     0.131 A 
ATOM     77  C   UNL     1      -1.560  -5.624  14.976  1.00  0.00     0.055 A 
ATOM     78  C   UNL     1      -2.063  -5.891  12.642  1.00  0.00     0.041 A 
ATOM     79  F   UNL     1      -0.329  -5.845  11.067  1.00  0.00    -0.206 F 
ATOM     80  C   UNL     1      -2.495  -5.845  13.963  1.00  0.00     0.022 A 
BRANCH  77  81
ATOM     81  S   UNL     1      -2.069  -5.709  16.715  1.00  0.00     0.124 S 
ATOM     82  O   UNL     1      -1.226  -6.789  17.217  1.00  0.00    -0.237 OA
ATOM     83  O   UNL     1      -1.747  -4.368  17.191  1.00  0.00    -0.237 OA
ATOM     84  O   UNL     1      -3.496  -6.015  16.637  1.00  0.00    -0.744 OA
ENDBRANCH  77  81
ENDBRANCH  50  74
BRANCH  62  85
ATOM     85  C   UNL     1       5.822  -9.293  15.184  1.00  0.00     0.023 A 
ATOM     86  C   UNL     1       5.230 -10.543  14.937  1.00  0.00     0.031 A 
ATOM     87  C   UNL     1       6.589  -9.144  16.354  1.00  0.00     0.131 A 
ATOM     88  C   UNL     1       5.365 -11.577  15.877  1.00  0.00     0.055 A 
ATOM     89  C   UNL     1       6.778 -10.197  17.249  1.00  0.00     0.041 A 
ATOM     90  F   UNL     1       7.175  -7.971  16.643  1.00  0.00    -0.206 F 
ATOM     91  C   UNL     1       6.152 -11.419  17.020  1.00  0.00     0.022 A 
BRANCH  88  92
ATOM     92  S   UNL     1       4.412 -13.102  15.636  1.00  0.00     0.124 S 
ATOM     93  O   UNL     1       3.043 -12.600  15.592  1.00  0.00    -0.237 OA
ATOM     94  O   UNL     1       4.946 -13.608  14.375  1.00  0.00    -0.237 OA
ATOM     95  O   UNL     1       4.742 -13.902  16.814  1.00  0.00    -0.744 OA
ENDBRANCH  88  92
ENDBRANCH  62  85
ENDBRANCH  36  37
ENDBRANCH  28  31
ENDBRANCH  26  27
ENDBRANCH   1  26
TORSDOF 16
