REMARK SMILES Cc1ccc(Cl)c(Nc2ccccc2C(=O)N[C@@H](C)C(=O)NCCCNC(=O)c2ccc(-c3c4nc(c(-c5cc(S(=O)(=O)[O-])ccc5F)c5ccc([nH]5)c(-c5cc(S(=O)(=O)[O-])ccc5F)c5nc(c(-c6cc(S(=O)(=O)[O-])ccc6F)c6ccc3[nH]6)C=C5)C=C4)cc2)c1Cl
REMARK SMILES IDX 23 1 22 2 20 3 21 4 18 6 19 7 17 8 15 9 16 10 14 12 9 13
REMARK SMILES IDX 10 14 11 15 13 16 12 17 8 18 7 20 1 21 2 22 3 23 92 24 4 25
REMARK SMILES IDX 93 26 5 27 6 28 24 29 25 30 26 31 27 32 28 34 29 35 30 36
REMARK SMILES IDX 91 37 31 38 90 39 32 40 33 41 34 42 84 43 35 44 89 45 83 46
REMARK SMILES IDX 85 47 36 48 88 49 82 50 81 51 37 53 69 54 49 55 68 56 50 57
REMARK SMILES IDX 53 58 67 59 86 60 51 61 52 62 66 64 87 65 54 66 38 67 39 68
REMARK SMILES IDX 47 69 40 70 46 71 48 72 45 73 41 74 42 75 43 76 44 77 70 78
REMARK SMILES IDX 71 79 79 80 72 81 78 82 80 83 77 84 73 85 74 86 75 87 76 88
REMARK SMILES IDX 55 89 56 90 64 91 57 92 63 93 65 94 62 95 58 96 59 97 60 98
REMARK SMILES IDX 61 99
REMARK H PARENT 22 5 17 11 8 19 26 33 85 52 53 63
REMARK Flexibility Score: inf
ROOT
ATOM      1  C   UNL     1      -1.869   1.729   3.297  1.00  0.00     0.117 C 
ENDROOT
BRANCH   1   2
ATOM      2  N   UNL     1      -1.809   1.092   1.989  1.00  0.00    -0.354 N 
ATOM      3  C   UNL     1      -0.787   0.211   1.746  1.00  0.00     0.242 C 
ATOM      4  O   UNL     1       0.311   0.676   1.444  1.00  0.00    -0.273 OA
ATOM      5  H   UNL     1      -2.483   1.288   1.298  1.00  0.00     0.163 HD
BRANCH   3   6
ATOM      6  C   UNL     1      -1.075  -1.309   1.814  1.00  0.00     0.168 C 
ATOM      7  C   UNL     1      -2.343  -1.686   2.562  1.00  0.00     0.041 C 
BRANCH   6   8
ATOM      8  N   UNL     1       0.113  -1.878   2.435  1.00  0.00    -0.340 N 
ATOM      9  C   UNL     1       1.293  -2.250   1.832  1.00  0.00     0.254 C 
ATOM     10  O   UNL     1       2.327  -1.982   2.452  1.00  0.00    -0.269 OA
ATOM     11  H   UNL     1       0.066  -2.014   3.409  1.00  0.00     0.164 HD
BRANCH   9  12
ATOM     12  C   UNL     1       1.380  -3.211   0.689  1.00  0.00     0.063 A 
ATOM     13  C   UNL     1       0.758  -3.191  -0.575  1.00  0.00     0.051 A 
ATOM     14  C   UNL     1       0.974  -4.296  -1.438  1.00  0.00     0.027 A 
ATOM     15  C   UNL     1       1.826  -5.350  -1.109  1.00  0.00     0.002 A 
ATOM     16  C   UNL     1       2.254  -4.287   0.992  1.00  0.00     0.016 A 
ATOM     17  C   UNL     1       2.486  -5.335   0.105  1.00  0.00     0.001 A 
BRANCH  13  18
ATOM     18  N   UNL     1       0.019  -2.146  -1.160  1.00  0.00    -0.352 N 
ATOM     19  H   UNL     1      -0.858  -2.441  -1.497  1.00  0.00     0.167 HD
BRANCH  18  20
ATOM     20  C   UNL     1       0.253  -0.763  -1.373  1.00  0.00     0.077 A 
ATOM     21  C   UNL     1       2.848   2.034  -0.923  1.00  0.00     0.046 C 
ATOM     22  C   UNL     1       1.571   1.310  -1.258  1.00  0.00    -0.030 A 
ATOM     23  C   UNL     1       0.421   2.066  -1.535  1.00  0.00     0.006 A 
ATOM     24  C   UNL     1       1.493  -0.105  -1.228  1.00  0.00     0.069 A 
ATOM     25  C   UNL     1      -0.794   1.436  -1.764  1.00  0.00     0.023 A 
ATOM     26  Cl  UNL     1       2.982  -0.996  -1.128  1.00  0.00    -0.082 Cl
ATOM     27  C   UNL     1      -0.875   0.047  -1.669  1.00  0.00     0.066 A 
ATOM     28  Cl  UNL     1      -2.443  -0.671  -1.892  1.00  0.00    -0.082 Cl
ENDBRANCH  18  20
ENDBRANCH  13  18
ENDBRANCH   9  12
ENDBRANCH   6   8
ENDBRANCH   3   6
ENDBRANCH   1   2
BRANCH   1  29
ATOM     29  C   UNL     1      -0.650   2.599   3.631  1.00  0.00     0.042 C 
BRANCH  29  30
ATOM     30  C   UNL     1      -0.358   3.694   2.608  1.00  0.00     0.118 C 
BRANCH  30  31
ATOM     31  N   UNL     1      -1.464   4.635   2.494  1.00  0.00    -0.352 N 
ATOM     32  C   UNL     1      -1.659   5.830   3.137  1.00  0.00     0.251 C 
ATOM     33  H   UNL     1      -2.176   4.375   1.865  1.00  0.00     0.163 HD
ATOM     34  O   UNL     1      -2.790   6.321   3.160  1.00  0.00    -0.269 OA
BRANCH  32  35
ATOM     35  C   UNL     1      -0.533   6.517   3.803  1.00  0.00     0.039 A 
ATOM     36  C   UNL     1      -0.731   7.094   5.061  1.00  0.00     0.014 A 
ATOM     37  C   UNL     1       0.705   6.635   3.167  1.00  0.00     0.014 A 
ATOM     38  C   UNL     1       0.329   7.742   5.701  1.00  0.00     0.010 A 
ATOM     39  C   UNL     1       1.780   7.215   3.838  1.00  0.00     0.010 A 
ATOM     40  C   UNL     1       1.601   7.786   5.106  1.00  0.00    -0.014 A 
BRANCH  40  41
ATOM     41  C   UNL     1       2.749   8.448   5.781  1.00  0.00     0.031 A 
ATOM     42  C   UNL     1       3.391   9.659   5.156  1.00  0.00     0.074 A 
ATOM     43  C   UNL     1       3.251   7.926   6.918  1.00  0.00     0.049 A 
ATOM     44  N   UNL     1       4.446  10.331   5.541  1.00  0.00    -0.248 NA
ATOM     45  C   UNL     1       2.780  10.161   3.916  1.00  0.00     0.031 C 
ATOM     46  C   UNL     1       2.739   6.734   7.597  1.00  0.00     0.029 A 
ATOM     47  N   UNL     1       4.307   8.324   7.699  1.00  0.00    -0.354 N 
ATOM     48  C   UNL     1       4.638  11.320   4.581  1.00  0.00     0.074 A 
ATOM     49  C   UNL     1       3.625  11.119   3.567  1.00  0.00     0.031 C 
ATOM     50  C   UNL     1       3.465   6.514   8.705  1.00  0.00     0.029 A 
ATOM     51  C   UNL     1       4.521   7.517   8.793  1.00  0.00     0.049 A 
ATOM     52  H   UNL     1       4.860   9.112   7.495  1.00  0.00     0.167 HD
ATOM     53  C   UNL     1       5.560  12.315   4.558  1.00  0.00     0.034 A 
ATOM     54  C   UNL     1       5.467   7.575   9.751  1.00  0.00     0.034 A 
ATOM     55  C   UNL     1       6.552  12.510   5.588  1.00  0.00     0.049 A 
ATOM     56  C   UNL     1       6.490   8.683   9.699  1.00  0.00     0.074 A 
ATOM     57  C   UNL     1       7.497  13.516   5.697  1.00  0.00     0.029 A 
ATOM     58  N   UNL     1       6.732  11.679   6.687  1.00  0.00    -0.354 N 
ATOM     59  N   UNL     1       6.627   9.640   8.810  1.00  0.00    -0.248 NA
ATOM     60  C   UNL     1       7.476   8.724  10.786  1.00  0.00     0.031 C 
ATOM     61  C   UNL     1       8.288  13.257   6.821  1.00  0.00     0.029 A 
ATOM     62  C   UNL     1       7.788  12.134   7.462  1.00  0.00     0.049 A 
ATOM     63  H   UNL     1       6.189  10.882   6.887  1.00  0.00     0.167 HD
ATOM     64  C   UNL     1       7.691  10.420   9.256  1.00  0.00     0.074 A 
ATOM     65  C   UNL     1       8.149   9.827  10.495  1.00  0.00     0.031 C 
ATOM     66  C   UNL     1       8.236  11.530   8.695  1.00  0.00     0.034 A 
BRANCH  53  67
ATOM     67  C   UNL     1       5.550  13.247   3.368  1.00  0.00     0.023 A 
ATOM     68  C   UNL     1       4.441  14.061   3.075  1.00  0.00     0.031 A 
ATOM     69  C   UNL     1       6.652  13.303   2.497  1.00  0.00     0.131 A 
ATOM     70  C   UNL     1       4.425  14.830   1.901  1.00  0.00     0.055 A 
ATOM     71  C   UNL     1       6.665  14.136   1.376  1.00  0.00     0.041 A 
ATOM     72  F   UNL     1       7.732  12.536   2.711  1.00  0.00    -0.206 F 
ATOM     73  C   UNL     1       5.540  14.894   1.063  1.00  0.00     0.022 A 
BRANCH  70  74
ATOM     74  S   UNL     1       2.871  15.626   1.408  1.00  0.00     0.124 S 
ATOM     75  O   UNL     1       1.975  14.477   1.293  1.00  0.00    -0.237 OA
ATOM     76  O   UNL     1       2.611  16.529   2.522  1.00  0.00    -0.237 OA
ATOM     77  O   UNL     1       3.204  16.275   0.142  1.00  0.00    -0.744 OA
ENDBRANCH  70  74
ENDBRANCH  53  67
BRANCH  54  78
ATOM     78  C   UNL     1       5.501   6.562  10.846  1.00  0.00     0.023 A 
ATOM     79  C   UNL     1       5.290   6.937  12.182  1.00  0.00     0.031 A 
ATOM     80  C   UNL     1       5.792   5.212  10.579  1.00  0.00     0.131 A 
ATOM     81  C   UNL     1       5.423   5.987  13.206  1.00  0.00     0.055 A 
ATOM     82  C   UNL     1       5.869   4.259  11.596  1.00  0.00     0.041 A 
ATOM     83  F   UNL     1       5.997   4.798   9.318  1.00  0.00    -0.206 F 
ATOM     84  C   UNL     1       5.699   4.648  12.921  1.00  0.00     0.022 A 
BRANCH  81  85
ATOM     85  S   UNL     1       5.321   6.548  14.928  1.00  0.00     0.124 S 
ATOM     86  O   UNL     1       6.382   7.547  14.979  1.00  0.00    -0.237 OA
ATOM     87  O   UNL     1       3.955   7.057  14.999  1.00  0.00    -0.237 OA
ATOM     88  O   UNL     1       5.570   5.331  15.698  1.00  0.00    -0.744 OA
ENDBRANCH  81  85
ENDBRANCH  54  78
BRANCH  66  89
ATOM     89  C   UNL     1       9.350  12.207   9.457  1.00  0.00     0.023 A 
ATOM     90  C   UNL     1      10.600  11.593   9.651  1.00  0.00     0.031 A 
ATOM     91  C   UNL     1       9.148  13.484  10.011  1.00  0.00     0.131 A 
ATOM     92  C   UNL     1      11.578  12.230  10.430  1.00  0.00     0.055 A 
ATOM     93  C   UNL     1      10.146  14.140  10.732  1.00  0.00     0.041 A 
ATOM     94  F   UNL     1       7.973  14.117   9.860  1.00  0.00    -0.206 F 
ATOM     95  C   UNL     1      11.365  13.507  10.957  1.00  0.00     0.022 A 
BRANCH  92  96
ATOM     96  S   UNL     1      13.099  11.326  10.831  1.00  0.00     0.124 S 
ATOM     97  O   UNL     1      12.579  10.136  11.496  1.00  0.00    -0.237 OA
ATOM     98  O   UNL     1      13.691  11.113   9.514  1.00  0.00    -0.237 OA
ATOM     99  O   UNL     1      13.830  12.251  11.695  1.00  0.00    -0.744 OA
ENDBRANCH  92  96
ENDBRANCH  66  89
ENDBRANCH  40  41
ENDBRANCH  32  35
ENDBRANCH  30  31
ENDBRANCH  29  30
ENDBRANCH   1  29
TORSDOF 17
