REMARK SMILES O=C(NCCCNC(=O)[C@@H](NC(=O)c1cn(Cc2ccccc2)nn1)c1ccc(F)c(F)c1)c1ccc(-c2c3nc(c(-c4cc(S(=O)(=O)[O-])ccc4F)c4ccc([nH]4)c(-c4cc(S(=O)(=O)[O-])ccc4F)c4nc(c(-c5cc(S(=O)(=O)[O-])ccc5F)c5ccc2[nH]5)C=C4)C=C3)cc1
REMARK SMILES IDX 5 1 4 2 3 3 1 4 2 5 34 7 35 8 96 9 36 10 95 11 37 12 38 13
REMARK SMILES IDX 39 14 89 15 40 16 94 17 88 18 90 19 41 20 93 21 87 22 86 23
REMARK SMILES IDX 42 25 74 26 54 27 73 28 55 29 58 30 72 31 91 32 56 33 57 34
REMARK SMILES IDX 71 36 92 37 59 38 43 39 44 40 52 41 45 42 51 43 53 44 50 45
REMARK SMILES IDX 46 46 47 47 48 48 49 49 75 50 76 51 84 52 77 53 83 54 85 55
REMARK SMILES IDX 82 56 78 57 79 58 80 59 81 60 60 61 61 62 69 63 62 64 68 65
REMARK SMILES IDX 70 66 67 67 63 68 64 69 65 70 66 71 6 72 7 73 8 74 9 76
REMARK SMILES IDX 10 77 11 78 12 79 13 81 14 82 15 83 25 84 16 85 24 86 17 87
REMARK SMILES IDX 18 88 19 89 23 90 20 91 22 92 21 93 26 94 27 95 33 96 28 97
REMARK SMILES IDX 31 98 29 99 32 100 30 101
REMARK H PARENT 3 6 90 24 58 35 7 75 11 80
REMARK Flexibility Score: inf
ROOT
ATOM      1  C   UNL     1       5.342  -1.724  -0.083  1.00  0.00     0.042 C 
ENDROOT
BRANCH   1   2
ATOM      2  C   UNL     1       4.967  -0.314  -0.545  1.00  0.00     0.118 C 
BRANCH   2   3
ATOM      3  N   UNL     1       3.576  -0.124  -0.916  1.00  0.00    -0.352 N 
ATOM      4  O   UNL     1       1.419   0.330  -0.932  1.00  0.00    -0.269 OA
ATOM      5  C   UNL     1       2.406   0.082  -0.234  1.00  0.00     0.251 C 
ATOM      6  H   UNL     1       3.441  -0.150  -1.891  1.00  0.00     0.163 HD
BRANCH   5   7
ATOM      7  C   UNL     1       2.241  -0.010   1.244  1.00  0.00     0.039 A 
ATOM      8  C   UNL     1       3.275  -0.205   2.157  1.00  0.00     0.014 A 
ATOM      9  C   UNL     1       0.927   0.091   1.740  1.00  0.00     0.014 A 
ATOM     10  C   UNL     1       3.007  -0.384   3.511  1.00  0.00     0.010 A 
ATOM     11  C   UNL     1       0.655  -0.042   3.103  1.00  0.00     0.010 A 
ATOM     12  C   UNL     1       1.698  -0.306   3.988  1.00  0.00    -0.014 A 
BRANCH  12  13
ATOM     13  C   UNL     1       1.513  -0.342   5.439  1.00  0.00     0.031 A 
ATOM     14  C   UNL     1       2.143   0.779   6.196  1.00  0.00     0.074 A 
ATOM     15  C   UNL     1       0.709  -1.201   6.093  1.00  0.00     0.049 A 
ATOM     16  N   UNL     1       3.009   0.722   7.156  1.00  0.00    -0.248 NA
ATOM     17  C   UNL     1       1.817   2.147   5.769  1.00  0.00     0.031 C 
ATOM     18  C   UNL     1      -0.231  -2.156   5.508  1.00  0.00     0.029 A 
ATOM     19  N   UNL     1       0.479  -1.306   7.436  1.00  0.00    -0.354 N 
ATOM     20  C   UNL     1       3.189   2.033   7.596  1.00  0.00     0.074 A 
ATOM     21  C   UNL     1       2.548   2.870   6.618  1.00  0.00     0.031 C 
ATOM     22  C   UNL     1      -1.085  -2.571   6.469  1.00  0.00     0.029 A 
ATOM     23  C   UNL     1      -0.678  -2.007   7.747  1.00  0.00     0.049 A 
ATOM     24  H   UNL     1       1.076  -0.921   8.118  1.00  0.00     0.167 HD
ATOM     25  C   UNL     1       3.693   2.318   8.831  1.00  0.00     0.034 A 
ATOM     26  C   UNL     1      -1.313  -2.055   8.945  1.00  0.00     0.034 A 
ATOM     27  C   UNL     1       4.414   1.191   9.379  1.00  0.00     0.049 A 
ATOM     28  C   UNL     1      -0.336  -1.700  10.000  1.00  0.00     0.074 A 
ATOM     29  C   UNL     1       5.480   0.419   8.951  1.00  0.00     0.029 A 
ATOM     30  N   UNL     1       3.869   0.495  10.435  1.00  0.00    -0.354 N 
ATOM     31  N   UNL     1       0.692  -2.437  10.320  1.00  0.00    -0.248 NA
ATOM     32  C   UNL     1      -0.272  -0.321  10.462  1.00  0.00     0.031 C 
ATOM     33  C   UNL     1       5.204  -0.896   9.427  1.00  0.00     0.029 A 
ATOM     34  C   UNL     1       4.011  -0.838  10.147  1.00  0.00     0.049 A 
ATOM     35  H   UNL     1       3.458   0.880  11.241  1.00  0.00     0.167 HD
ATOM     36  C   UNL     1       1.693  -1.538  10.647  1.00  0.00     0.074 A 
ATOM     37  C   UNL     1       1.008  -0.265  10.839  1.00  0.00     0.031 C 
ATOM     38  C   UNL     1       3.012  -1.842  10.454  1.00  0.00     0.034 A 
BRANCH  25  39
ATOM     39  C   UNL     1       3.254   3.488   9.698  1.00  0.00     0.023 A 
ATOM     40  C   UNL     1       3.804   3.562  10.993  1.00  0.00     0.031 A 
ATOM     41  C   UNL     1       2.137   4.322   9.468  1.00  0.00     0.131 A 
ATOM     42  C   UNL     1       3.163   4.280  12.017  1.00  0.00     0.055 A 
ATOM     43  C   UNL     1       1.555   5.108  10.470  1.00  0.00     0.041 A 
ATOM     44  F   UNL     1       1.492   4.369   8.298  1.00  0.00    -0.206 F 
ATOM     45  C   UNL     1       2.037   5.054  11.765  1.00  0.00     0.022 A 
BRANCH  42  46
ATOM     46  S   UNL     1       3.690   3.975  13.724  1.00  0.00     0.124 S 
ATOM     47  O   UNL     1       3.696   2.516  13.766  1.00  0.00    -0.237 OA
ATOM     48  O   UNL     1       4.995   4.627  13.754  1.00  0.00    -0.237 OA
ATOM     49  O   UNL     1       2.648   4.620  14.519  1.00  0.00    -0.744 OA
ENDBRANCH  42  46
ENDBRANCH  25  39
BRANCH  26  50
ATOM     50  C   UNL     1      -2.781  -2.134   9.166  1.00  0.00     0.023 A 
ATOM     51  C   UNL     1      -3.343  -2.573  10.380  1.00  0.00     0.031 A 
ATOM     52  C   UNL     1      -3.669  -1.567   8.222  1.00  0.00     0.131 A 
ATOM     53  C   UNL     1      -4.734  -2.456  10.599  1.00  0.00     0.055 A 
ATOM     54  C   UNL     1      -5.044  -1.475   8.434  1.00  0.00     0.041 A 
ATOM     55  F   UNL     1      -3.217  -1.004   7.090  1.00  0.00    -0.206 F 
ATOM     56  C   UNL     1      -5.584  -1.916   9.630  1.00  0.00     0.022 A 
BRANCH  53  57
ATOM     57  S   UNL     1      -5.449  -2.907  12.211  1.00  0.00     0.124 S 
ATOM     58  O   UNL     1      -5.362  -4.362  12.193  1.00  0.00    -0.237 OA
ATOM     59  O   UNL     1      -4.573  -2.215  13.149  1.00  0.00    -0.237 OA
ATOM     60  O   UNL     1      -6.810  -2.372  12.141  1.00  0.00    -0.744 OA
ENDBRANCH  53  57
ENDBRANCH  26  50
BRANCH  38  61
ATOM     61  C   UNL     1       3.414  -3.286  10.266  1.00  0.00     0.023 A 
ATOM     62  C   UNL     1       2.894  -4.138   9.269  1.00  0.00     0.031 A 
ATOM     63  C   UNL     1       4.466  -3.777  11.062  1.00  0.00     0.131 A 
ATOM     64  C   UNL     1       3.417  -5.434   9.108  1.00  0.00     0.055 A 
ATOM     65  C   UNL     1       4.995  -5.055  10.886  1.00  0.00     0.041 A 
ATOM     66  F   UNL     1       5.027  -3.003  12.006  1.00  0.00    -0.206 F 
ATOM     67  C   UNL     1       4.467  -5.892   9.910  1.00  0.00     0.022 A 
BRANCH  64  68
ATOM     68  S   UNL     1       2.732  -6.552   7.846  1.00  0.00     0.124 S 
ATOM     69  O   UNL     1       1.291  -6.454   8.046  1.00  0.00    -0.237 OA
ATOM     70  O   UNL     1       3.249  -5.978   6.606  1.00  0.00    -0.237 OA
ATOM     71  O   UNL     1       3.306  -7.853   8.197  1.00  0.00    -0.744 OA
ENDBRANCH  64  68
ENDBRANCH  38  61
ENDBRANCH  12  13
ENDBRANCH   5   7
ENDBRANCH   2   3
ENDBRANCH   1   2
BRANCH   1  72
ATOM     72  C   UNL     1       4.854  -2.831  -0.999  1.00  0.00     0.117 C 
BRANCH  72  73
ATOM     73  N   UNL     1       5.513  -2.834  -2.294  1.00  0.00    -0.354 N 
ATOM     74  C   UNL     1       5.916  -3.896  -3.054  1.00  0.00     0.247 C 
ATOM     75  H   UNL     1       5.694  -1.946  -2.679  1.00  0.00     0.163 HD
ATOM     76  O   UNL     1       6.178  -3.670  -4.242  1.00  0.00    -0.272 OA
BRANCH  74  77
ATOM     77  C   UNL     1       5.979  -5.340  -2.488  1.00  0.00     0.202 C 
BRANCH  77  78
ATOM     78  N   UNL     1       6.724  -5.365  -1.222  1.00  0.00    -0.335 N 
ATOM     79  C   UNL     1       6.570  -5.944   0.007  1.00  0.00     0.274 C 
ATOM     80  H   UNL     1       7.546  -4.825  -1.271  1.00  0.00     0.165 HD
ATOM     81  O   UNL     1       7.505  -5.827   0.802  1.00  0.00    -0.267 OA
BRANCH  79  82
ATOM     82  C   UNL     1       5.378  -6.695   0.311  1.00  0.00     0.170 A 
ATOM     83  C   UNL     1       5.248  -8.067   0.361  1.00  0.00     0.145 A 
ATOM     84  N   UNL     1       4.158  -6.118   0.538  1.00  0.00    -0.125 NA
ATOM     85  N   UNL     1       3.901  -8.266   0.517  1.00  0.00    -0.247 N 
ATOM     86  N   UNL     1       3.258  -7.086   0.647  1.00  0.00    -0.066 NA
BRANCH  85  87
ATOM     87  C   UNL     1       3.162  -9.436   0.062  1.00  0.00     0.181 C 
BRANCH  87  88
ATOM     88  C   UNL     1       2.599 -10.338   1.122  1.00  0.00    -0.026 A 
ATOM     89  C   UNL     1       2.644 -11.729   0.915  1.00  0.00     0.005 A 
ATOM     90  C   UNL     1       1.874  -9.843   2.212  1.00  0.00     0.005 A 
ATOM     91  C   UNL     1       1.975 -12.601   1.773  1.00  0.00     0.000 A 
ATOM     92  C   UNL     1       1.206 -10.719   3.071  1.00  0.00     0.000 A 
ATOM     93  C   UNL     1       1.249 -12.094   2.847  1.00  0.00     0.000 A 
ENDBRANCH  87  88
ENDBRANCH  85  87
ENDBRANCH  79  82
ENDBRANCH  77  78
BRANCH  77  94
ATOM     94  C   UNL     1       4.691  -6.130  -2.649  1.00  0.00    -0.013 A 
ATOM     95  C   UNL     1       3.415  -5.553  -2.498  1.00  0.00     0.009 A 
ATOM     96  C   UNL     1       4.750  -7.494  -2.989  1.00  0.00     0.048 A 
ATOM     97  C   UNL     1       2.245  -6.305  -2.645  1.00  0.00     0.043 A 
ATOM     98  C   UNL     1       3.579  -8.235  -3.151  1.00  0.00     0.159 A 
ATOM     99  C   UNL     1       2.335  -7.645  -2.975  1.00  0.00     0.158 A 
ATOM    100  F   UNL     1       3.668  -9.543  -3.432  1.00  0.00    -0.204 F 
ATOM    101  F   UNL     1       1.218  -8.377  -3.089  1.00  0.00    -0.204 F 
ENDBRANCH  77  94
ENDBRANCH  74  77
ENDBRANCH  72  73
ENDBRANCH   1  72
TORSDOF 18
