REMARK SMILES CCc1cc([C@H]([NH3+])C(=O)NCCCNC(=O)c2ccc(-c3c4nc(c(-c5cc(S(=O)(=O)[O-])ccc5F)c5ccc([nH]5)c(-c5cc(S(=O)(=O)[O-])ccc5F)c5nc(c(-c6cc(S(=O)(=O)[O-])ccc6F)c6ccc3[nH]6)C=C5)C=C4)cc2)cc(CC)c1N
REMARK SMILES IDX 12 1 11 2 10 3 8 4 9 5 6 7 5 8 3 9 4 10 84 11 81 12 80 13
REMARK SMILES IDX 2 14 1 15 85 16 82 19 83 20 7 21 13 25 14 26 15 27 16 29
REMARK SMILES IDX 17 30 18 31 79 32 19 33 78 34 20 35 21 36 22 37 72 38 23 39
REMARK SMILES IDX 77 40 71 41 73 42 24 43 76 44 70 45 69 46 25 48 57 49 37 50
REMARK SMILES IDX 56 51 38 52 41 53 55 54 74 55 39 56 40 57 54 59 75 60 42 61
REMARK SMILES IDX 26 62 27 63 35 64 28 65 34 66 36 67 33 68 29 69 30 70 31 71
REMARK SMILES IDX 32 72 58 73 59 74 67 75 60 76 66 77 68 78 65 79 61 80 62 81
REMARK SMILES IDX 63 82 64 83 43 84 44 85 52 86 45 87 51 88 53 89 50 90 46 91
REMARK SMILES IDX 47 92 48 93 49 94
REMARK H PARENT 10 6 85 17 85 18 7 22 7 23 7 24 14 28 73 47 41 58
REMARK Flexibility Score: inf
ROOT
ATOM      1  C   UNL     1       0.318   1.050   1.695  1.00  0.00     0.042 C 
ENDROOT
BRANCH   1   2
ATOM      2  C   UNL     1       1.419   1.400   2.681  1.00  0.00     0.118 C 
BRANCH   2   3
ATOM      3  N   UNL     1       0.960   1.396   4.059  1.00  0.00    -0.351 N 
ATOM      4  C   UNL     1       1.327   0.573   5.087  1.00  0.00     0.283 C 
ATOM      5  O   UNL     1       0.811   0.764   6.194  1.00  0.00    -0.268 OA
ATOM      6  H   UNL     1       0.290   2.082   4.284  1.00  0.00     0.163 HD
BRANCH   4   7
ATOM      7  C   UNL     1       2.344  -0.584   4.875  1.00  0.00     0.302 C 
BRANCH   7   8
ATOM      8  C   UNL     1       3.716  -0.072   4.454  1.00  0.00     0.020 A 
ATOM      9  C   UNL     1       5.533   0.127   2.810  1.00  0.00    -0.024 A 
ATOM     10  C   UNL     1       4.356  -0.487   3.279  1.00  0.00     0.016 A 
ATOM     11  C   UNL     1       6.129   1.157   3.583  1.00  0.00     0.038 A 
ATOM     12  C   UNL     1       5.539   1.530   4.812  1.00  0.00    -0.024 A 
ATOM     13  C   UNL     1       4.343   0.912   5.224  1.00  0.00     0.016 A 
BRANCH   9  14
ATOM     14  C   UNL     1       6.138  -0.301   1.482  1.00  0.00     0.034 C 
ATOM     15  C   UNL     1       5.233  -1.058   0.511  1.00  0.00     0.009 C 
ENDBRANCH   9  14
BRANCH  11  16
ATOM     16  N   UNL     1       7.347   1.712   3.188  1.00  0.00    -0.398 N 
ATOM     17  H   UNL     1       7.753   1.448   2.330  1.00  0.00     0.156 HD
ATOM     18  H   UNL     1       7.800   2.368   3.766  1.00  0.00     0.156 HD
ENDBRANCH  11  16
BRANCH  12  19
ATOM     19  C   UNL     1       6.098   2.606   5.722  1.00  0.00     0.034 C 
ATOM     20  C   UNL     1       5.239   3.866   5.726  1.00  0.00     0.009 C 
ENDBRANCH  12  19
ENDBRANCH   7   8
BRANCH   7  21
ATOM     21  N   UNL     1       1.747  -1.589   3.968  1.00  0.00    -0.343 N 
ATOM     22  H   UNL     1       1.546  -1.156   3.066  1.00  0.00     0.345 HD
ATOM     23  H   UNL     1       0.882  -1.943   4.375  1.00  0.00     0.345 HD
ATOM     24  H   UNL     1       2.402  -2.360   3.836  1.00  0.00     0.345 HD
ENDBRANCH   7  21
ENDBRANCH   4   7
ENDBRANCH   2   3
ENDBRANCH   1   2
BRANCH   1  25
ATOM     25  C   UNL     1      -0.807   2.072   1.647  1.00  0.00     0.118 C 
BRANCH  25  26
ATOM     26  N   UNL     1      -0.359   3.383   1.194  1.00  0.00    -0.352 N 
ATOM     27  C   UNL     1      -0.748   4.118   0.101  1.00  0.00     0.251 C 
ATOM     28  H   UNL     1       0.328   3.807   1.758  1.00  0.00     0.163 HD
ATOM     29  O   UNL     1      -0.111   5.121  -0.212  1.00  0.00    -0.269 OA
BRANCH  27  30
ATOM     30  C   UNL     1      -1.908   3.686  -0.707  1.00  0.00     0.039 A 
ATOM     31  C   UNL     1      -1.827   3.744  -2.101  1.00  0.00     0.014 A 
ATOM     32  C   UNL     1      -3.072   3.216  -0.094  1.00  0.00     0.014 A 
ATOM     33  C   UNL     1      -2.882   3.257  -2.877  1.00  0.00     0.010 A 
ATOM     34  C   UNL     1      -4.079   2.646  -0.865  1.00  0.00     0.010 A 
ATOM     35  C   UNL     1      -3.998   2.664  -2.265  1.00  0.00    -0.014 A 
BRANCH  35  36
ATOM     36  C   UNL     1      -5.104   2.071  -3.062  1.00  0.00     0.031 A 
ATOM     37  C   UNL     1      -6.496   2.629  -2.939  1.00  0.00     0.074 A 
ATOM     38  C   UNL     1      -4.873   0.990  -3.834  1.00  0.00     0.049 A 
ATOM     39  N   UNL     1      -7.615   2.187  -3.451  1.00  0.00    -0.248 NA
ATOM     40  C   UNL     1      -6.649   3.826  -2.099  1.00  0.00     0.031 C 
ATOM     41  C   UNL     1      -3.572   0.343  -4.016  1.00  0.00     0.029 A 
ATOM     42  N   UNL     1      -5.726   0.240  -4.603  1.00  0.00    -0.354 N 
ATOM     43  C   UNL     1      -8.608   3.043  -2.986  1.00  0.00     0.074 A 
ATOM     44  C   UNL     1      -7.964   3.980  -2.090  1.00  0.00     0.031 C 
ATOM     45  C   UNL     1      -3.709  -0.686  -4.868  1.00  0.00     0.029 A 
ATOM     46  C   UNL     1      -5.112  -0.810  -5.247  1.00  0.00     0.049 A 
ATOM     47  H   UNL     1      -6.687   0.434  -4.687  1.00  0.00     0.167 HD
ATOM     48  C   UNL     1      -9.928   3.064  -3.298  1.00  0.00     0.034 A 
ATOM     49  C   UNL     1      -5.625  -1.772  -6.040  1.00  0.00     0.034 A 
ATOM     50  C   UNL     1     -10.552   2.123  -4.196  1.00  0.00     0.049 A 
ATOM     51  C   UNL     1      -7.107  -1.769  -6.324  1.00  0.00     0.074 A 
ATOM     52  C   UNL     1     -11.871   2.070  -4.609  1.00  0.00     0.029 A 
ATOM     53  N   UNL     1      -9.901   1.061  -4.813  1.00  0.00    -0.354 N 
ATOM     54  N   UNL     1      -8.029  -0.935  -5.900  1.00  0.00    -0.248 NA
ATOM     55  C   UNL     1      -7.616  -2.835  -7.197  1.00  0.00     0.031 C 
ATOM     56  C   UNL     1     -12.034   0.937  -5.415  1.00  0.00     0.029 A 
ATOM     57  C   UNL     1     -10.799   0.331  -5.577  1.00  0.00     0.049 A 
ATOM     58  H   UNL     1      -8.942   0.858  -4.721  1.00  0.00     0.167 HD
ATOM     59  C   UNL     1      -9.219  -1.353  -6.491  1.00  0.00     0.074 A 
ATOM     60  C   UNL     1      -8.896  -2.508  -7.302  1.00  0.00     0.031 C 
ATOM     61  C   UNL     1     -10.464  -0.823  -6.380  1.00  0.00     0.034 A 
BRANCH  48  62
ATOM     62  C   UNL     1     -10.777   4.127  -2.637  1.00  0.00     0.023 A 
ATOM     63  C   UNL     1     -10.519   5.497  -2.825  1.00  0.00     0.031 A 
ATOM     64  C   UNL     1     -11.824   3.771  -1.770  1.00  0.00     0.131 A 
ATOM     65  C   UNL     1     -11.230   6.453  -2.085  1.00  0.00     0.055 A 
ATOM     66  C   UNL     1     -12.593   4.732  -1.110  1.00  0.00     0.041 A 
ATOM     67  F   UNL     1     -12.107   2.480  -1.531  1.00  0.00    -0.206 F 
ATOM     68  C   UNL     1     -12.285   6.082  -1.249  1.00  0.00     0.022 A 
BRANCH  65  69
ATOM     69  S   UNL     1     -10.637   8.167  -2.096  1.00  0.00     0.124 S 
ATOM     70  O   UNL     1      -9.265   8.006  -1.618  1.00  0.00    -0.237 OA
ATOM     71  O   UNL     1     -10.785   8.543  -3.497  1.00  0.00    -0.237 OA
ATOM     72  O   UNL     1     -11.536   8.847  -1.166  1.00  0.00    -0.744 OA
ENDBRANCH  65  69
ENDBRANCH  48  62
BRANCH  49  73
ATOM     73  C   UNL     1      -4.742  -2.822  -6.624  1.00  0.00     0.023 A 
ATOM     74  C   UNL     1      -4.569  -2.923  -8.014  1.00  0.00     0.031 A 
ATOM     75  C   UNL     1      -4.091  -3.765  -5.809  1.00  0.00     0.131 A 
ATOM     76  C   UNL     1      -3.805  -3.970  -8.550  1.00  0.00     0.055 A 
ATOM     77  C   UNL     1      -3.285  -4.772  -6.345  1.00  0.00     0.041 A 
ATOM     78  F   UNL     1      -4.220  -3.714  -4.474  1.00  0.00    -0.206 F 
ATOM     79  C   UNL     1      -3.149  -4.887  -7.725  1.00  0.00     0.022 A 
BRANCH  76  80
ATOM     80  S   UNL     1      -3.753  -4.171 -10.352  1.00  0.00     0.124 S 
ATOM     81  O   UNL     1      -5.165  -4.342 -10.671  1.00  0.00    -0.237 OA
ATOM     82  O   UNL     1      -3.144  -2.916 -10.780  1.00  0.00    -0.237 OA
ATOM     83  O   UNL     1      -2.922  -5.359 -10.538  1.00  0.00    -0.744 OA
ENDBRANCH  76  80
ENDBRANCH  49  73
BRANCH  61  84
ATOM     84  C   UNL     1     -11.559  -1.454  -7.207  1.00  0.00     0.023 A 
ATOM     85  C   UNL     1     -12.018  -2.760  -6.966  1.00  0.00     0.031 A 
ATOM     86  C   UNL     1     -12.154  -0.726  -8.254  1.00  0.00     0.131 A 
ATOM     87  C   UNL     1     -13.006  -3.317  -7.794  1.00  0.00     0.055 A 
ATOM     88  C   UNL     1     -13.180  -1.262  -9.033  1.00  0.00     0.041 A 
ATOM     89  F   UNL     1     -11.752   0.525  -8.532  1.00  0.00    -0.206 F 
ATOM     90  C   UNL     1     -13.603  -2.569  -8.813  1.00  0.00     0.022 A 
BRANCH  87  91
ATOM     91  S   UNL     1     -13.443  -5.064  -7.578  1.00  0.00     0.124 S 
ATOM     92  O   UNL     1     -12.162  -5.727  -7.798  1.00  0.00    -0.237 OA
ATOM     93  O   UNL     1     -13.948  -5.093  -6.209  1.00  0.00    -0.237 OA
ATOM     94  O   UNL     1     -14.448  -5.297  -8.613  1.00  0.00    -0.744 OA
ENDBRANCH  87  91
ENDBRANCH  61  84
ENDBRANCH  35  36
ENDBRANCH  27  30
ENDBRANCH  25  26
ENDBRANCH   1  25
TORSDOF 18
