REMARK SMILES O=C(NCCCNC(=O)[C@H]1CC[C@@H](CNC(=O)[C@H]2CCSC2)CC1)c1ccc(-c2c3nc(c(-c4cc(S(=O)(=O)[O-])ccc4F)c4ccc([nH]4)c(-c4cc(S(=O)(=O)[O-])ccc4F)c4nc(c(-c5cc(S(=O)(=O)[O-])ccc5F)c5ccc2[nH]5)C=C4)C=C3)cc1
REMARK SMILES IDX 5 1 4 2 3 3 1 4 2 5 25 7 26 8 87 9 27 10 86 11 28 12 29 13
REMARK SMILES IDX 30 14 80 15 31 16 85 17 79 18 81 19 32 20 84 21 78 22 77 23
REMARK SMILES IDX 33 25 65 26 45 27 64 28 46 29 49 30 63 31 82 32 47 33 48 34
REMARK SMILES IDX 62 36 83 37 50 38 34 39 35 40 43 41 36 42 42 43 44 44 41 45
REMARK SMILES IDX 37 46 38 47 39 48 40 49 66 50 67 51 75 52 68 53 74 54 76 55
REMARK SMILES IDX 73 56 69 57 70 58 71 59 72 60 51 61 52 62 60 63 53 64 59 65
REMARK SMILES IDX 61 66 58 67 54 68 55 69 56 70 57 71 6 72 7 73 8 74 9 76
REMARK SMILES IDX 10 77 24 78 11 79 23 80 12 81 13 82 14 83 15 84 16 85 17 87
REMARK SMILES IDX 18 88 19 89 22 90 20 91 21 92
REMARK H PARENT 3 6 81 24 49 35 7 75 15 86
REMARK Flexibility Score: inf
ROOT
ATOM      1  C   UNL     1       5.305 -18.997  -0.264  1.00  0.00     0.042 C 
ENDROOT
BRANCH   1   2
ATOM      2  C   UNL     1       5.870 -20.230  -0.955  1.00  0.00     0.118 C 
BRANCH   2   3
ATOM      3  N   UNL     1       7.081 -19.926  -1.716  1.00  0.00    -0.352 N 
ATOM      4  O   UNL     1       9.279 -19.609  -2.073  1.00  0.00    -0.269 OA
ATOM      5  C   UNL     1       8.403 -20.176  -1.431  1.00  0.00     0.251 C 
ATOM      6  H   UNL     1       6.925 -19.467  -2.574  1.00  0.00     0.163 HD
BRANCH   5   7
ATOM      7  C   UNL     1       8.759 -21.122  -0.352  1.00  0.00     0.039 A 
ATOM      8  C   UNL     1       8.020 -22.289  -0.173  1.00  0.00     0.014 A 
ATOM      9  C   UNL     1       9.852 -20.855   0.478  1.00  0.00     0.014 A 
ATOM     10  C   UNL     1       8.236 -23.078   0.945  1.00  0.00     0.010 A 
ATOM     11  C   UNL     1      10.151 -21.725   1.532  1.00  0.00     0.010 A 
ATOM     12  C   UNL     1       9.317 -22.821   1.802  1.00  0.00    -0.014 A 
BRANCH  12  13
ATOM     13  C   UNL     1       9.552 -23.743   2.944  1.00  0.00     0.031 A 
ATOM     14  C   UNL     1       9.487 -23.252   4.365  1.00  0.00     0.074 A 
ATOM     15  C   UNL     1       9.755 -25.051   2.684  1.00  0.00     0.049 A 
ATOM     16  N   UNL     1       9.614 -23.930   5.478  1.00  0.00    -0.248 NA
ATOM     17  C   UNL     1       9.266 -21.812   4.564  1.00  0.00     0.031 C 
ATOM     18  C   UNL     1       9.839 -25.637   1.342  1.00  0.00     0.029 A 
ATOM     19  N   UNL     1       9.888 -26.128   3.521  1.00  0.00    -0.354 N 
ATOM     20  C   UNL     1       9.516 -22.999   6.507  1.00  0.00     0.074 A 
ATOM     21  C   UNL     1       9.353 -21.703   5.881  1.00  0.00     0.031 C 
ATOM     22  C   UNL     1       9.929 -26.970   1.447  1.00  0.00     0.029 A 
ATOM     23  C   UNL     1       9.998 -27.329   2.858  1.00  0.00     0.049 A 
ATOM     24  H   UNL     1       9.904 -26.050   4.502  1.00  0.00     0.167 HD
ATOM     25  C   UNL     1       9.552 -23.210   7.847  1.00  0.00     0.034 A 
ATOM     26  C   UNL     1      10.153 -28.581   3.329  1.00  0.00     0.034 A 
ATOM     27  C   UNL     1       9.702 -24.516   8.448  1.00  0.00     0.049 A 
ATOM     28  C   UNL     1      10.210 -28.783   4.818  1.00  0.00     0.074 A 
ATOM     29  C   UNL     1       9.725 -24.850   9.792  1.00  0.00     0.029 A 
ATOM     30  N   UNL     1       9.859 -25.705   7.745  1.00  0.00    -0.354 N 
ATOM     31  N   UNL     1      10.108 -27.892   5.777  1.00  0.00    -0.248 NA
ATOM     32  C   UNL     1      10.400 -30.159   5.287  1.00  0.00     0.031 C 
ATOM     33  C   UNL     1       9.965 -26.225   9.901  1.00  0.00     0.029 A 
ATOM     34  C   UNL     1      10.008 -26.767   8.626  1.00  0.00     0.049 A 
ATOM     35  H   UNL     1       9.863 -25.783   6.764  1.00  0.00     0.167 HD
ATOM     36  C   UNL     1      10.194 -28.607   6.967  1.00  0.00     0.074 A 
ATOM     37  C   UNL     1      10.334 -30.003   6.600  1.00  0.00     0.031 C 
ATOM     38  C   UNL     1      10.159 -28.153   8.246  1.00  0.00     0.034 A 
BRANCH  25  39
ATOM     39  C   UNL     1       9.485 -21.997   8.747  1.00  0.00     0.023 A 
ATOM     40  C   UNL     1       8.358 -21.155   8.783  1.00  0.00     0.031 A 
ATOM     41  C   UNL     1      10.581 -21.659   9.562  1.00  0.00     0.131 A 
ATOM     42  C   UNL     1       8.383 -19.981   9.554  1.00  0.00     0.055 A 
ATOM     43  C   UNL     1      10.567 -20.534  10.391  1.00  0.00     0.041 A 
ATOM     44  F   UNL     1      11.694 -22.409   9.556  1.00  0.00    -0.206 F 
ATOM     45  C   UNL     1       9.470 -19.679  10.378  1.00  0.00     0.022 A 
BRANCH  42  46
ATOM     46  S   UNL     1       7.040 -18.779   9.347  1.00  0.00     0.124 S 
ATOM     47  O   UNL     1       7.108 -18.502   7.914  1.00  0.00    -0.237 OA
ATOM     48  O   UNL     1       5.873 -19.529   9.797  1.00  0.00    -0.237 OA
ATOM     49  O   UNL     1       7.439 -17.667  10.207  1.00  0.00    -0.744 OA
ENDBRANCH  42  46
ENDBRANCH  25  39
BRANCH  26  50
ATOM     50  C   UNL     1      10.288 -29.728   2.388  1.00  0.00     0.023 A 
ATOM     51  C   UNL     1       9.342 -30.765   2.367  1.00  0.00     0.031 A 
ATOM     52  C   UNL     1      11.384 -29.819   1.510  1.00  0.00     0.131 A 
ATOM     53  C   UNL     1       9.532 -31.867   1.520  1.00  0.00     0.055 A 
ATOM     54  C   UNL     1      11.538 -30.888   0.627  1.00  0.00     0.041 A 
ATOM     55  F   UNL     1      12.316 -28.853   1.486  1.00  0.00    -0.206 F 
ATOM     56  C   UNL     1      10.615 -31.928   0.639  1.00  0.00     0.022 A 
BRANCH  53  57
ATOM     57  S   UNL     1       8.385 -33.266   1.645  1.00  0.00     0.124 S 
ATOM     58  O   UNL     1       8.518 -33.634   3.050  1.00  0.00    -0.237 OA
ATOM     59  O   UNL     1       7.118 -32.654   1.259  1.00  0.00    -0.237 OA
ATOM     60  O   UNL     1       8.924 -34.234   0.692  1.00  0.00    -0.744 OA
ENDBRANCH  53  57
ENDBRANCH  26  50
BRANCH  38  61
ATOM     61  C   UNL     1      10.221 -29.195   9.335  1.00  0.00     0.023 A 
ATOM     62  C   UNL     1      11.363 -29.992   9.536  1.00  0.00     0.031 A 
ATOM     63  C   UNL     1       9.104 -29.422  10.158  1.00  0.00     0.131 A 
ATOM     64  C   UNL     1      11.335 -31.025  10.485  1.00  0.00     0.055 A 
ATOM     65  C   UNL     1       9.107 -30.406  11.147  1.00  0.00     0.041 A 
ATOM     66  F   UNL     1       7.986 -28.693  10.009  1.00  0.00    -0.206 F 
ATOM     67  C   UNL     1      10.221 -31.226  11.303  1.00  0.00     0.022 A 
BRANCH  64  68
ATOM     68  S   UNL     1      12.732 -32.181  10.552  1.00  0.00     0.124 S 
ATOM     69  O   UNL     1      12.778 -32.681   9.182  1.00  0.00    -0.237 OA
ATOM     70  O   UNL     1      13.835 -31.313  10.952  1.00  0.00    -0.237 OA
ATOM     71  O   UNL     1      12.318 -33.160  11.556  1.00  0.00    -0.744 OA
ENDBRANCH  64  68
ENDBRANCH  38  61
ENDBRANCH  12  13
ENDBRANCH   5   7
ENDBRANCH   2   3
ENDBRANCH   1   2
BRANCH   1  72
ATOM     72  C   UNL     1       4.825 -17.957  -1.260  1.00  0.00     0.117 C 
BRANCH  72  73
ATOM     73  N   UNL     1       3.596 -18.369  -1.921  1.00  0.00    -0.356 N 
ATOM     74  C   UNL     1       2.281 -18.086  -1.775  1.00  0.00     0.223 C 
ATOM     75  H   UNL     1       3.761 -19.007  -2.652  1.00  0.00     0.163 HD
ATOM     76  O   UNL     1       1.529 -18.729  -2.521  1.00  0.00    -0.275 OA
BRANCH  74  77
ATOM     77  C   UNL     1       1.687 -17.087  -0.764  1.00  0.00     0.078 C 
ATOM     78  C   UNL     1       2.647 -16.019  -0.242  1.00  0.00     0.014 C 
ATOM     79  C   UNL     1       0.420 -16.488  -1.434  1.00  0.00     0.014 C 
ATOM     80  C   UNL     1       1.997 -14.801   0.389  1.00  0.00     0.006 C 
ATOM     81  C   UNL     1      -0.113 -15.195  -0.819  1.00  0.00     0.006 C 
ATOM     82  C   UNL     1       0.988 -14.162  -0.558  1.00  0.00     0.008 C 
BRANCH  82  83
ATOM     83  C   UNL     1       1.654 -13.659  -1.859  1.00  0.00     0.119 C 
BRANCH  83  84
ATOM     84  N   UNL     1       0.848 -12.631  -2.479  1.00  0.00    -0.356 N 
ATOM     85  C   UNL     1       0.958 -11.280  -2.475  1.00  0.00     0.223 C 
ATOM     86  H   UNL     1       0.084 -12.973  -2.996  1.00  0.00     0.163 HD
ATOM     87  O   UNL     1       0.055 -10.658  -3.043  1.00  0.00    -0.275 OA
BRANCH  85  88
ATOM     88  C   UNL     1       2.185 -10.557  -1.916  1.00  0.00     0.089 C 
ATOM     89  C   UNL     1       1.871  -9.055  -1.815  1.00  0.00     0.025 C 
ATOM     90  C   UNL     1       2.639 -10.965  -0.521  1.00  0.00     0.083 C 
ATOM     91  C   UNL     1       3.032  -8.384  -1.115  1.00  0.00     0.070 C 
ATOM     92  S   UNL     1       3.471  -9.524   0.212  1.00  0.00    -0.161 SA
ENDBRANCH  85  88
ENDBRANCH  83  84
ENDBRANCH  82  83
ENDBRANCH  74  77
ENDBRANCH  72  73
ENDBRANCH   1  72
TORSDOF 16
