REMARK SMILES Cc1c(Cl)cc2c(c1C)O[C@H](C(F)(F)F)C(C(=O)NCCCNC(=O)c1ccc(-c3c4nc(c(-c5cc(S(=O)(=O)[O-])ccc5F)c5ccc([nH]5)c(-c5cc(S(=O)(=O)[O-])ccc5F)c5nc(c(-c6cc(S(=O)(=O)[O-])ccc6F)c6ccc3[nH]6)C=C5)C=C4)cc1)=C2
REMARK SMILES IDX 22 1 21 2 20 3 19 4 17 5 18 6 16 8 1 9 2 10 3 11 8 12 4 13
REMARK SMILES IDX 5 14 7 15 9 16 6 17 10 18 89 19 11 20 12 21 13 22 14 23
REMARK SMILES IDX 15 24 23 25 24 26 25 28 26 29 27 30 88 31 28 32 87 33 29 34
REMARK SMILES IDX 30 35 31 36 81 37 32 38 86 39 80 40 82 41 33 42 85 43 79 44
REMARK SMILES IDX 78 45 34 47 66 48 46 49 65 50 47 51 50 52 64 53 83 54 48 55
REMARK SMILES IDX 49 56 63 58 84 59 51 60 35 61 36 62 44 63 37 64 43 65 45 66
REMARK SMILES IDX 42 67 38 68 39 69 40 70 41 71 67 72 68 73 76 74 69 75 75 76
REMARK SMILES IDX 77 77 74 78 70 79 71 80 72 81 73 82 52 83 53 84 61 85 54 86
REMARK SMILES IDX 60 87 62 88 59 89 55 90 56 91 57 92 58 93
REMARK H PARENT 19 7 23 27 82 46 50 57
REMARK Flexibility Score: inf
ROOT
ATOM      1  C   UNL     1       1.844 -10.181   4.070  1.00  0.00     0.118 C 
ENDROOT
BRANCH   1   2
ATOM      2  C   UNL     1       1.863  -8.982   3.131  1.00  0.00     0.042 C 
BRANCH   2   3
ATOM      3  C   UNL     1       0.463  -8.476   2.820  1.00  0.00     0.118 C 
BRANCH   3   4
ATOM      4  N   UNL     1      -0.077  -7.658   3.898  1.00  0.00    -0.352 N 
ATOM      5  C   UNL     1      -0.348  -6.350   4.110  1.00  0.00     0.251 C 
ATOM      6  O   UNL     1      -0.846  -6.083   5.208  1.00  0.00    -0.270 OA
ATOM      7  H   UNL     1      -0.306  -8.205   4.684  1.00  0.00     0.163 HD
BRANCH   5   8
ATOM      8  C   UNL     1      -0.091  -5.255   3.131  1.00  0.00     0.067 C 
ATOM      9  C   UNL     1       0.809   0.387  -0.050  1.00  0.00     0.046 C 
ATOM     10  C   UNL     1       0.471  -0.746   0.885  1.00  0.00    -0.026 A 
ATOM     11  C   UNL     1      -0.229  -0.536   2.092  1.00  0.00     0.045 A 
ATOM     12  C   UNL     1       0.874  -2.062   0.560  1.00  0.00    -0.004 A 
ATOM     13  Cl  UNL     1      -0.780   1.030   2.583  1.00  0.00    -0.084 Cl
ATOM     14  C   UNL     1      -0.509  -1.596   2.963  1.00  0.00     0.032 A 
ATOM     15  C   UNL     1       0.579  -3.111   1.451  1.00  0.00     0.131 A 
ATOM     16  C   UNL     1       1.610  -2.409  -0.712  1.00  0.00     0.049 C 
ATOM     17  C   UNL     1      -0.101  -2.889   2.648  1.00  0.00     0.019 A 
ATOM     18  O   UNL     1       1.043  -4.352   1.111  1.00  0.00    -0.475 OA
ATOM     19  C   UNL     1      -0.331  -4.002   3.563  1.00  0.00     0.025 C 
ATOM     20  C   UNL     1       0.384  -5.485   1.728  1.00  0.00     0.314 C 
BRANCH  20  21
ATOM     21  C   UNL     1      -0.739  -5.988   0.799  1.00  0.00     0.429 C 
ATOM     22  F   UNL     1      -0.216  -6.527  -0.330  1.00  0.00    -0.167 F 
ATOM     23  F   UNL     1      -1.497  -6.954   1.371  1.00  0.00    -0.167 F 
ATOM     24  F   UNL     1      -1.585  -5.003   0.423  1.00  0.00    -0.167 F 
ENDBRANCH  20  21
ENDBRANCH   5   8
ENDBRANCH   3   4
ENDBRANCH   2   3
ENDBRANCH   1   2
BRANCH   1  25
ATOM     25  N   UNL     1       1.171 -11.328   3.465  1.00  0.00    -0.352 N 
ATOM     26  C   UNL     1       1.692 -12.488   2.951  1.00  0.00     0.251 C 
ATOM     27  H   UNL     1       0.190 -11.257   3.419  1.00  0.00     0.163 HD
ATOM     28  O   UNL     1       0.998 -13.188   2.215  1.00  0.00    -0.269 OA
BRANCH  26  29
ATOM     29  C   UNL     1       3.075 -12.884   3.278  1.00  0.00     0.039 A 
ATOM     30  C   UNL     1       3.879 -13.459   2.292  1.00  0.00     0.014 A 
ATOM     31  C   UNL     1       3.568 -12.707   4.574  1.00  0.00     0.014 A 
ATOM     32  C   UNL     1       5.201 -13.792   2.592  1.00  0.00     0.010 A 
ATOM     33  C   UNL     1       4.908 -12.947   4.843  1.00  0.00     0.010 A 
ATOM     34  C   UNL     1       5.736 -13.503   3.859  1.00  0.00    -0.014 A 
BRANCH  34  35
ATOM     35  C   UNL     1       7.146 -13.814   4.196  1.00  0.00     0.031 A 
ATOM     36  C   UNL     1       7.444 -14.813   5.283  1.00  0.00     0.074 A 
ATOM     37  C   UNL     1       8.146 -13.176   3.556  1.00  0.00     0.049 A 
ATOM     38  N   UNL     1       8.597 -15.152   5.796  1.00  0.00    -0.248 NA
ATOM     39  C   UNL     1       6.293 -15.504   5.891  1.00  0.00     0.031 C 
ATOM     40  C   UNL     1       7.973 -12.180   2.495  1.00  0.00     0.029 A 
ATOM     41  N   UNL     1       9.507 -13.274   3.696  1.00  0.00    -0.354 N 
ATOM     42  C   UNL     1       8.312 -16.095   6.776  1.00  0.00     0.074 A 
ATOM     43  C   UNL     1       6.873 -16.222   6.840  1.00  0.00     0.031 C 
ATOM     44  C   UNL     1       9.181 -11.798   2.048  1.00  0.00     0.029 A 
ATOM     45  C   UNL     1      10.213 -12.478   2.822  1.00  0.00     0.049 A 
ATOM     46  H   UNL     1       9.939 -13.859   4.359  1.00  0.00     0.167 HD
ATOM     47  C   UNL     1       9.173 -16.819   7.527  1.00  0.00     0.034 A 
ATOM     48  C   UNL     1      11.543 -12.316   2.669  1.00  0.00     0.034 A 
ATOM     49  C   UNL     1      10.604 -16.712   7.433  1.00  0.00     0.049 A 
ATOM     50  C   UNL     1      12.475 -13.092   3.567  1.00  0.00     0.074 A 
ATOM     51  C   UNL     1      11.565 -17.409   8.142  1.00  0.00     0.029 A 
ATOM     52  N   UNL     1      11.278 -15.867   6.565  1.00  0.00    -0.354 N 
ATOM     53  N   UNL     1      12.181 -13.969   4.499  1.00  0.00    -0.248 NA
ATOM     54  C   UNL     1      13.915 -12.856   3.394  1.00  0.00     0.031 C 
ATOM     55  C   UNL     1      12.821 -16.955   7.734  1.00  0.00     0.029 A 
ATOM     56  C   UNL     1      12.644 -16.017   6.730  1.00  0.00     0.049 A 
ATOM     57  H   UNL     1      10.850 -15.252   5.926  1.00  0.00     0.167 HD
ATOM     58  C   UNL     1      13.402 -14.412   4.997  1.00  0.00     0.074 A 
ATOM     59  C   UNL     1      14.434 -13.713   4.260  1.00  0.00     0.031 C 
ATOM     60  C   UNL     1      13.651 -15.316   5.977  1.00  0.00     0.034 A 
BRANCH  47  61
ATOM     61  C   UNL     1       8.598 -17.814   8.495  1.00  0.00     0.023 A 
ATOM     62  C   UNL     1       7.975 -18.988   8.039  1.00  0.00     0.031 A 
ATOM     63  C   UNL     1       8.725 -17.623   9.881  1.00  0.00     0.131 A 
ATOM     64  C   UNL     1       7.481 -19.919   8.962  1.00  0.00     0.055 A 
ATOM     65  C   UNL     1       8.282 -18.580  10.795  1.00  0.00     0.041 A 
ATOM     66  F   UNL     1       9.298 -16.510  10.367  1.00  0.00    -0.206 F 
ATOM     67  C   UNL     1       7.654 -19.736  10.337  1.00  0.00     0.022 A 
BRANCH  64  68
ATOM     68  S   UNL     1       6.571 -21.358   8.342  1.00  0.00     0.124 S 
ATOM     69  O   UNL     1       5.365 -20.733   7.806  1.00  0.00    -0.237 OA
ATOM     70  O   UNL     1       7.491 -21.918   7.359  1.00  0.00    -0.237 OA
ATOM     71  O   UNL     1       6.366 -22.173   9.537  1.00  0.00    -0.744 OA
ENDBRANCH  64  68
ENDBRANCH  47  61
BRANCH  48  72
ATOM     72  C   UNL     1      12.088 -11.395   1.632  1.00  0.00     0.023 A 
ATOM     73  C   UNL     1      12.864 -11.894   0.574  1.00  0.00     0.031 A 
ATOM     74  C   UNL     1      11.892 -10.005   1.708  1.00  0.00     0.131 A 
ATOM     75  C   UNL     1      13.461 -11.008  -0.336  1.00  0.00     0.055 A 
ATOM     76  C   UNL     1      12.444  -9.131   0.770  1.00  0.00     0.041 A 
ATOM     77  F   UNL     1      11.154  -9.476   2.697  1.00  0.00    -0.206 F 
ATOM     78  C   UNL     1      13.246  -9.630  -0.252  1.00  0.00     0.022 A 
BRANCH  75  79
ATOM     79  S   UNL     1      14.594 -11.678  -1.582  1.00  0.00     0.124 S 
ATOM     80  O   UNL     1      15.616 -12.300  -0.748  1.00  0.00    -0.237 OA
ATOM     81  O   UNL     1      13.727 -12.588  -2.322  1.00  0.00    -0.237 OA
ATOM     82  O   UNL     1      15.026 -10.494  -2.321  1.00  0.00    -0.744 OA
ENDBRANCH  75  79
ENDBRANCH  48  72
BRANCH  60  83
ATOM     83  C   UNL     1      15.089 -15.631   6.282  1.00  0.00     0.023 A 
ATOM     84  C   UNL     1      15.916 -14.704   6.936  1.00  0.00     0.031 A 
ATOM     85  C   UNL     1      15.618 -16.894   5.964  1.00  0.00     0.131 A 
ATOM     86  C   UNL     1      17.244 -15.045   7.228  1.00  0.00     0.055 A 
ATOM     87  C   UNL     1      16.925 -17.244   6.301  1.00  0.00     0.041 A 
ATOM     88  F   UNL     1      14.863 -17.815   5.344  1.00  0.00    -0.206 F 
ATOM     89  C   UNL     1      17.748 -16.315   6.932  1.00  0.00     0.022 A 
BRANCH  86  90
ATOM     90  S   UNL     1      18.316 -13.790   7.977  1.00  0.00     0.124 S 
ATOM     91  O   UNL     1      18.380 -12.780   6.926  1.00  0.00    -0.237 OA
ATOM     92  O   UNL     1      17.573 -13.415   9.176  1.00  0.00    -0.237 OA
ATOM     93  O   UNL     1      19.564 -14.510   8.225  1.00  0.00    -0.744 OA
ENDBRANCH  86  90
ENDBRANCH  60  83
ENDBRANCH  34  35
ENDBRANCH  26  29
ENDBRANCH   1  25
TORSDOF 14
