REMARK SMILES O=C(NCCCNC(=O)c1cccc2c1cc(Br)c1ccccc12)c1ccc(-c2c3nc(c(-c4cc(S(=O)(=O)[O-])ccc4F)c4ccc([nH]4)c(-c4cc(S(=O)(=O)[O-])ccc4F)c4nc(c(-c5cc(S(=O)(=O)[O-])ccc5F)c5ccc2[nH]5)C=C4)C=C3)cc1
REMARK SMILES IDX 1 1 2 2 3 3 25 5 26 6 87 7 27 8 86 9 28 10 29 11 30 12 80 13
REMARK SMILES IDX 31 14 85 15 79 16 81 17 32 18 84 19 78 20 77 21 33 23 65 24
REMARK SMILES IDX 45 25 64 26 46 27 49 28 63 29 82 30 47 31 48 32 62 34 83 35
REMARK SMILES IDX 50 36 34 37 35 38 43 39 36 40 42 41 44 42 41 43 37 44 38 45
REMARK SMILES IDX 39 46 40 47 66 48 67 49 75 50 68 51 74 52 76 53 73 54 69 55
REMARK SMILES IDX 70 56 71 57 72 58 51 59 52 60 60 61 53 62 59 63 61 64 58 65
REMARK SMILES IDX 54 66 55 67 56 68 57 69 4 70 5 71 6 72 7 73 8 74 9 76 10 77
REMARK SMILES IDX 11 78 15 79 12 80 14 81 16 82 13 83 24 84 17 85 19 86 23 87
REMARK SMILES IDX 18 88 20 89 22 90 21 91
REMARK H PARENT 3 4 81 22 49 33 7 75
REMARK Flexibility Score: inf
ROOT
ATOM      1  O   UNL     1       1.113  -0.095  -0.055  1.00  0.00    -0.269 OA
ATOM      2  C   UNL     1       2.334  -0.011   0.063  1.00  0.00     0.251 C 
ATOM      3  N   UNL     1       3.097   0.133  -1.068  1.00  0.00    -0.352 N 
ATOM      4  H   UNL     1       2.584   0.327  -1.886  1.00  0.00     0.163 HD
ENDROOT
BRANCH   2   5
ATOM      5  C   UNL     1       2.951  -0.065   1.409  1.00  0.00     0.039 A 
ATOM      6  C   UNL     1       2.361  -0.872   2.387  1.00  0.00     0.014 A 
ATOM      7  C   UNL     1       4.053   0.725   1.741  1.00  0.00     0.014 A 
ATOM      8  C   UNL     1       2.888  -0.900   3.682  1.00  0.00     0.010 A 
ATOM      9  C   UNL     1       4.640   0.617   2.998  1.00  0.00     0.010 A 
ATOM     10  C   UNL     1       4.040  -0.163   3.996  1.00  0.00    -0.014 A 
BRANCH  10  11
ATOM     11  C   UNL     1       4.585  -0.124   5.378  1.00  0.00     0.031 A 
ATOM     12  C   UNL     1       4.629   1.183   6.127  1.00  0.00     0.074 A 
ATOM     13  C   UNL     1       5.078  -1.243   5.945  1.00  0.00     0.049 A 
ATOM     14  N   UNL     1       5.120   1.440   7.311  1.00  0.00    -0.248 NA
ATOM     15  C   UNL     1       4.073   2.364   5.443  1.00  0.00     0.031 C 
ATOM     16  C   UNL     1       5.123  -2.557   5.305  1.00  0.00     0.029 A 
ATOM     17  N   UNL     1       5.640  -1.454   7.181  1.00  0.00    -0.354 N 
ATOM     18  C   UNL     1       4.951   2.808   7.502  1.00  0.00     0.074 A 
ATOM     19  C   UNL     1       4.376   3.338   6.288  1.00  0.00     0.031 C 
ATOM     20  C   UNL     1       5.656  -3.442   6.160  1.00  0.00     0.029 A 
ATOM     21  C   UNL     1       6.039  -2.753   7.392  1.00  0.00     0.049 A 
ATOM     22  H   UNL     1       5.747  -0.742   7.852  1.00  0.00     0.167 HD
ATOM     23  C   UNL     1       5.219   3.547   8.603  1.00  0.00     0.034 A 
ATOM     24  C   UNL     1       6.650  -3.326   8.451  1.00  0.00     0.034 A 
ATOM     25  C   UNL     1       5.750   2.995   9.822  1.00  0.00     0.049 A 
ATOM     26  C   UNL     1       6.938  -2.483   9.670  1.00  0.00     0.074 A 
ATOM     27  C   UNL     1       5.989   3.648  11.018  1.00  0.00     0.029 A 
ATOM     28  N   UNL     1       6.118   1.671  10.008  1.00  0.00    -0.354 N 
ATOM     29  N   UNL     1       6.686  -1.210   9.870  1.00  0.00    -0.248 NA
ATOM     30  C   UNL     1       7.578  -3.149  10.814  1.00  0.00     0.031 C 
ATOM     31  C   UNL     1       6.572   2.739  11.899  1.00  0.00     0.029 A 
ATOM     32  C   UNL     1       6.614   1.495  11.289  1.00  0.00     0.049 A 
ATOM     33  H   UNL     1       6.039   0.961   9.329  1.00  0.00     0.167 HD
ATOM     34  C   UNL     1       7.109  -0.932  11.168  1.00  0.00     0.074 A 
ATOM     35  C   UNL     1       7.609  -2.175  11.715  1.00  0.00     0.031 C 
ATOM     36  C   UNL     1       7.088   0.247  11.840  1.00  0.00     0.034 A 
BRANCH  23  37
ATOM     37  C   UNL     1       4.921   5.027   8.578  1.00  0.00     0.023 A 
ATOM     38  C   UNL     1       5.958   5.955   8.789  1.00  0.00     0.031 A 
ATOM     39  C   UNL     1       3.604   5.514   8.487  1.00  0.00     0.131 A 
ATOM     40  C   UNL     1       5.658   7.313   8.947  1.00  0.00     0.055 A 
ATOM     41  C   UNL     1       3.316   6.876   8.591  1.00  0.00     0.041 A 
ATOM     42  F   UNL     1       2.576   4.672   8.291  1.00  0.00    -0.206 F 
ATOM     43  C   UNL     1       4.344   7.780   8.838  1.00  0.00     0.022 A 
BRANCH  40  44
ATOM     44  S   UNL     1       6.946   8.513   9.382  1.00  0.00     0.124 S 
ATOM     45  O   UNL     1       6.861   9.459   8.271  1.00  0.00    -0.237 OA
ATOM     46  O   UNL     1       6.470   9.016  10.668  1.00  0.00    -0.237 OA
ATOM     47  O   UNL     1       8.167   7.717   9.426  1.00  0.00    -0.744 OA
ENDBRANCH  40  44
ENDBRANCH  23  37
BRANCH  24  48
ATOM     48  C   UNL     1       6.963  -4.786   8.407  1.00  0.00     0.023 A 
ATOM     49  C   UNL     1       7.825  -5.313   7.427  1.00  0.00     0.031 A 
ATOM     50  C   UNL     1       6.318  -5.689   9.270  1.00  0.00     0.131 A 
ATOM     51  C   UNL     1       7.957  -6.701   7.286  1.00  0.00     0.055 A 
ATOM     52  C   UNL     1       6.516  -7.068   9.177  1.00  0.00     0.041 A 
ATOM     53  F   UNL     1       5.475  -5.239  10.212  1.00  0.00    -0.206 F 
ATOM     54  C   UNL     1       7.324  -7.581   8.167  1.00  0.00     0.022 A 
BRANCH  51  55
ATOM     55  S   UNL     1       8.837  -7.410   5.865  1.00  0.00     0.124 S 
ATOM     56  O   UNL     1       9.886  -8.189   6.513  1.00  0.00    -0.237 OA
ATOM     57  O   UNL     1       7.781  -8.187   5.220  1.00  0.00    -0.237 OA
ATOM     58  O   UNL     1       9.287  -6.240   5.119  1.00  0.00    -0.744 OA
ENDBRANCH  51  55
ENDBRANCH  24  48
BRANCH  36  59
ATOM     59  C   UNL     1       7.603   0.291  13.260  1.00  0.00     0.023 A 
ATOM     60  C   UNL     1       6.744   0.690  14.304  1.00  0.00     0.031 A 
ATOM     61  C   UNL     1       8.967   0.122  13.553  1.00  0.00     0.131 A 
ATOM     62  C   UNL     1       7.267   0.963  15.574  1.00  0.00     0.055 A 
ATOM     63  C   UNL     1       9.474   0.338  14.835  1.00  0.00     0.041 A 
ATOM     64  F   UNL     1       9.831  -0.243  12.591  1.00  0.00    -0.206 F 
ATOM     65  C   UNL     1       8.626   0.779  15.848  1.00  0.00     0.022 A 
BRANCH  62  66
ATOM     66  S   UNL     1       6.228   1.673  16.882  1.00  0.00     0.124 S 
ATOM     67  O   UNL     1       6.320   0.655  17.925  1.00  0.00    -0.237 OA
ATOM     68  O   UNL     1       6.917   2.928  17.173  1.00  0.00    -0.237 OA
ATOM     69  O   UNL     1       4.917   1.807  16.257  1.00  0.00    -0.744 OA
ENDBRANCH  62  66
ENDBRANCH  36  59
ENDBRANCH  10  11
ENDBRANCH   2   5
BRANCH   3  70
ATOM     70  C   UNL     1       4.538   0.049  -1.264  1.00  0.00     0.118 C 
BRANCH  70  71
ATOM     71  C   UNL     1       4.945  -1.131  -2.136  1.00  0.00     0.042 C 
BRANCH  71  72
ATOM     72  C   UNL     1       4.346  -1.115  -3.533  1.00  0.00     0.118 C 
BRANCH  72  73
ATOM     73  N   UNL     1       4.755   0.041  -4.320  1.00  0.00    -0.352 N 
ATOM     74  C   UNL     1       5.553   0.110  -5.436  1.00  0.00     0.251 C 
ATOM     75  H   UNL     1       4.405   0.906  -4.004  1.00  0.00     0.163 HD
ATOM     76  O   UNL     1       5.800   1.200  -5.947  1.00  0.00    -0.269 OA
BRANCH  74  77
ATOM     77  C   UNL     1       6.095  -1.136  -6.029  1.00  0.00     0.047 A 
ATOM     78  C   UNL     1       5.160  -2.096  -6.432  1.00  0.00     0.014 A 
ATOM     79  C   UNL     1       7.493  -1.340  -6.207  1.00  0.00    -0.004 A 
ATOM     80  C   UNL     1       5.595  -3.320  -6.897  1.00  0.00     0.002 A 
ATOM     81  C   UNL     1       7.952  -2.586  -6.711  1.00  0.00    -0.010 A 
ATOM     82  C   UNL     1       8.450  -0.353  -5.907  1.00  0.00     0.026 A 
ATOM     83  C   UNL     1       6.963  -3.561  -7.015  1.00  0.00     0.009 A 
ATOM     84  C   UNL     1       9.367  -2.815  -6.902  1.00  0.00    -0.009 A 
ATOM     85  C   UNL     1       9.815  -0.556  -6.125  1.00  0.00     0.026 A 
ATOM     86  C   UNL     1      10.302  -1.781  -6.624  1.00  0.00    -0.004 A 
ATOM     87  C   UNL     1       9.893  -4.047  -7.377  1.00  0.00     0.009 A 
ATOM     88  Br  UNL     1      10.953   0.923  -5.719  1.00  0.00    -0.050 Br
ATOM     89  C   UNL     1      11.681  -2.021  -6.860  1.00  0.00     0.010 A 
ATOM     90  C   UNL     1      11.255  -4.260  -7.591  1.00  0.00     0.001 A 
ATOM     91  C   UNL     1      12.152  -3.241  -7.339  1.00  0.00     0.001 A 
ENDBRANCH  74  77
ENDBRANCH  72  73
ENDBRANCH  71  72
ENDBRANCH  70  71
ENDBRANCH   3  70
TORSDOF 13
