REMARK SMILES CC[C@](C)(C(=O)NCCCNC(=O)c1ccc(-c2c3nc(c(-c4cc(S(=O)(=O)[O-])ccc4F)c4ccc([nH]4)c(-c4cc(S(=O)(=O)[O-])ccc4F)c4nc(c(-c5cc(S(=O)(=O)[O-])ccc5F)c5ccc2[nH]5)C=C4)C=C3)cc1)n1nnnc1Cc1cccc(Cl)c1
REMARK SMILES IDX 9 1 8 2 7 3 5 4 6 5 3 7 4 8 2 9 1 10 77 11 78 12 81 13 79 14
REMARK SMILES IDX 80 15 82 16 83 17 84 18 89 19 85 20 87 21 86 22 88 23 10 24
REMARK SMILES IDX 11 25 12 26 13 28 14 29 15 30 76 31 16 32 75 33 17 34 18 35
REMARK SMILES IDX 19 36 69 37 20 38 74 39 68 40 70 41 21 42 73 43 67 44 66 45
REMARK SMILES IDX 22 47 54 48 34 49 53 50 35 51 38 52 52 53 71 54 36 55 37 56
REMARK SMILES IDX 51 58 72 59 39 60 23 61 24 62 32 63 25 64 31 65 33 66 30 67
REMARK SMILES IDX 26 68 27 69 28 70 29 71 55 72 56 73 64 74 57 75 63 76 65 77
REMARK SMILES IDX 62 78 58 79 59 80 60 81 61 82 40 83 41 84 49 85 42 86 48 87
REMARK SMILES IDX 50 88 47 89 43 90 44 91 45 92 46 93
REMARK H PARENT 7 6 11 27 70 46 38 57
REMARK Flexibility Score: inf
ROOT
ATOM      1  C   UNL     1      -2.852   3.005  -0.915  1.00  0.00     0.042 C 
ENDROOT
BRANCH   1   2
ATOM      2  C   UNL     1      -1.966   2.554  -2.054  1.00  0.00     0.117 C 
BRANCH   2   3
ATOM      3  N   UNL     1      -0.802   3.389  -2.254  1.00  0.00    -0.354 N 
ATOM      4  C   UNL     1       0.522   3.051  -2.370  1.00  0.00     0.247 C 
ATOM      5  O   UNL     1       1.209   3.902  -2.941  1.00  0.00    -0.272 OA
ATOM      6  H   UNL     1      -0.990   4.354  -2.316  1.00  0.00     0.163 HD
BRANCH   4   7
ATOM      7  C   UNL     1       1.058   1.647  -1.910  1.00  0.00     0.142 C 
ATOM      8  C   UNL     1       0.680   1.418  -0.431  1.00  0.00     0.048 C 
BRANCH   7   9
ATOM      9  C   UNL     1       0.470   0.624  -2.945  1.00  0.00     0.037 C 
ATOM     10  C   UNL     1      -0.341  -0.567  -2.421  1.00  0.00     0.007 C 
ENDBRANCH   7   9
BRANCH   7  11
ATOM     11  N   UNL     1       2.552   1.619  -1.927  1.00  0.00    -0.214 N 
ATOM     12  N   UNL     1       3.249   2.748  -1.660  1.00  0.00    -0.044 NA
ATOM     13  C   UNL     1       3.450   0.559  -1.877  1.00  0.00     0.156 A 
ATOM     14  N   UNL     1       4.524   2.409  -1.638  1.00  0.00    -0.024 NA
ATOM     15  N   UNL     1       4.666   1.062  -1.750  1.00  0.00    -0.113 NA
BRANCH  13  16
ATOM     16  C   UNL     1       3.165  -0.903  -1.848  1.00  0.00     0.114 C 
BRANCH  16  17
ATOM     17  C   UNL     1       3.548  -1.626  -3.122  1.00  0.00    -0.039 A 
ATOM     18  C   UNL     1       2.580  -2.176  -3.974  1.00  0.00     0.004 A 
ATOM     19  C   UNL     1       4.900  -1.763  -3.471  1.00  0.00     0.024 A 
ATOM     20  C   UNL     1       2.943  -2.803  -5.167  1.00  0.00     0.002 A 
ATOM     21  C   UNL     1       5.262  -2.409  -4.653  1.00  0.00     0.041 A 
ATOM     22  C   UNL     1       4.288  -2.919  -5.507  1.00  0.00     0.020 A 
ATOM     23  Cl  UNL     1       6.926  -2.582  -5.057  1.00  0.00    -0.084 Cl
ENDBRANCH  16  17
ENDBRANCH  13  16
ENDBRANCH   7  11
ENDBRANCH   4   7
ENDBRANCH   2   3
ENDBRANCH   1   2
BRANCH   1  24
ATOM     24  C   UNL     1      -3.620   4.272  -1.228  1.00  0.00     0.118 C 
BRANCH  24  25
ATOM     25  N   UNL     1      -4.536   4.102  -2.349  1.00  0.00    -0.352 N 
ATOM     26  C   UNL     1      -5.909   4.161  -2.394  1.00  0.00     0.251 C 
ATOM     27  H   UNL     1      -4.102   3.914  -3.213  1.00  0.00     0.163 HD
ATOM     28  O   UNL     1      -6.490   3.760  -3.396  1.00  0.00    -0.269 OA
BRANCH  26  29
ATOM     29  C   UNL     1      -6.670   4.676  -1.235  1.00  0.00     0.039 A 
ATOM     30  C   UNL     1      -7.894   4.088  -0.913  1.00  0.00     0.014 A 
ATOM     31  C   UNL     1      -6.184   5.736  -0.467  1.00  0.00     0.014 A 
ATOM     32  C   UNL     1      -8.589   4.521   0.218  1.00  0.00     0.010 A 
ATOM     33  C   UNL     1      -6.809   6.076   0.725  1.00  0.00     0.010 A 
ATOM     34  C   UNL     1      -8.031   5.486   1.072  1.00  0.00    -0.014 A 
BRANCH  34  35
ATOM     35  C   UNL     1      -8.726   5.906   2.316  1.00  0.00     0.031 A 
ATOM     36  C   UNL     1      -9.135   7.343   2.506  1.00  0.00     0.074 A 
ATOM     37  C   UNL     1      -8.952   4.999   3.288  1.00  0.00     0.049 A 
ATOM     38  N   UNL     1      -9.726   7.906   3.528  1.00  0.00    -0.248 NA
ATOM     39  C   UNL     1      -8.804   8.278   1.418  1.00  0.00     0.031 C 
ATOM     40  C   UNL     1      -8.546   3.592   3.241  1.00  0.00     0.029 A 
ATOM     41  N   UNL     1      -9.580   5.120   4.501  1.00  0.00    -0.354 N 
ATOM     42  C   UNL     1      -9.836   9.255   3.207  1.00  0.00     0.074 A 
ATOM     43  C   UNL     1      -9.170   9.439   1.936  1.00  0.00     0.031 C 
ATOM     44  C   UNL     1      -8.975   2.972   4.351  1.00  0.00     0.029 A 
ATOM     45  C   UNL     1      -9.639   3.944   5.213  1.00  0.00     0.049 A 
ATOM     46  H   UNL     1      -9.954   5.968   4.831  1.00  0.00     0.167 HD
ATOM     47  C   UNL     1     -10.467  10.242   3.889  1.00  0.00     0.034 A 
ATOM     48  C   UNL     1     -10.163   3.680   6.426  1.00  0.00     0.034 A 
ATOM     49  C   UNL     1     -11.130  10.038   5.153  1.00  0.00     0.049 A 
ATOM     50  C   UNL     1     -10.839   4.799   7.178  1.00  0.00     0.074 A 
ATOM     51  C   UNL     1     -11.833  10.954   5.915  1.00  0.00     0.029 A 
ATOM     52  N   UNL     1     -11.168   8.834   5.846  1.00  0.00    -0.354 N 
ATOM     53  N   UNL     1     -10.985   6.058   6.831  1.00  0.00    -0.248 NA
ATOM     54  C   UNL     1     -11.436   4.457   8.473  1.00  0.00     0.031 C 
ATOM     55  C   UNL     1     -12.230  10.325   7.100  1.00  0.00     0.029 A 
ATOM     56  C   UNL     1     -11.854   8.992   7.040  1.00  0.00     0.049 A 
ATOM     57  H   UNL     1     -10.765   7.992   5.535  1.00  0.00     0.167 HD
ATOM     58  C   UNL     1     -11.717   6.650   7.857  1.00  0.00     0.074 A 
ATOM     59  C   UNL     1     -12.003   5.603   8.816  1.00  0.00     0.031 C 
ATOM     60  C   UNL     1     -12.118   7.941   7.995  1.00  0.00     0.034 A 
BRANCH  47  61
ATOM     61  C   UNL     1     -10.450  11.626   3.281  1.00  0.00     0.023 A 
ATOM     62  C   UNL     1     -11.030  11.887   2.026  1.00  0.00     0.031 A 
ATOM     63  C   UNL     1      -9.824  12.694   3.947  1.00  0.00     0.131 A 
ATOM     64  C   UNL     1     -10.901  13.156   1.442  1.00  0.00     0.055 A 
ATOM     65  C   UNL     1      -9.778  13.979   3.400  1.00  0.00     0.041 A 
ATOM     66  F   UNL     1      -9.231  12.505   5.136  1.00  0.00    -0.206 F 
ATOM     67  C   UNL     1     -10.305  14.212   2.133  1.00  0.00     0.022 A 
BRANCH  64  68
ATOM     68  S   UNL     1     -11.386  13.362  -0.294  1.00  0.00     0.124 S 
ATOM     69  O   UNL     1     -10.527  12.383  -0.957  1.00  0.00    -0.237 OA
ATOM     70  O   UNL     1     -12.809  13.046  -0.265  1.00  0.00    -0.237 OA
ATOM     71  O   UNL     1     -11.060  14.758  -0.577  1.00  0.00    -0.744 OA
ENDBRANCH  64  68
ENDBRANCH  47  61
BRANCH  48  72
ATOM     72  C   UNL     1     -10.067   2.311   7.011  1.00  0.00     0.023 A 
ATOM     73  C   UNL     1     -11.217   1.556   7.291  1.00  0.00     0.031 A 
ATOM     74  C   UNL     1      -8.818   1.753   7.340  1.00  0.00     0.131 A 
ATOM     75  C   UNL     1     -11.100   0.312   7.931  1.00  0.00     0.055 A 
ATOM     76  C   UNL     1      -8.703   0.488   7.920  1.00  0.00     0.041 A 
ATOM     77  F   UNL     1      -7.685   2.427   7.090  1.00  0.00    -0.206 F 
ATOM     78  C   UNL     1      -9.850  -0.234   8.234  1.00  0.00     0.022 A 
BRANCH  75  79
ATOM     79  S   UNL     1     -12.612  -0.542   8.456  1.00  0.00     0.124 S 
ATOM     80  O   UNL     1     -13.236   0.460   9.312  1.00  0.00    -0.237 OA
ATOM     81  O   UNL     1     -13.272  -0.798   7.180  1.00  0.00    -0.237 OA
ATOM     82  O   UNL     1     -12.110  -1.729   9.145  1.00  0.00    -0.744 OA
ENDBRANCH  75  79
ENDBRANCH  48  72
BRANCH  60  83
ATOM     83  C   UNL     1     -12.945   8.272   9.215  1.00  0.00     0.023 A 
ATOM     84  C   UNL     1     -12.424   8.159  10.515  1.00  0.00     0.031 A 
ATOM     85  C   UNL     1     -14.284   8.679   9.074  1.00  0.00     0.131 A 
ATOM     86  C   UNL     1     -13.257   8.374  11.623  1.00  0.00     0.055 A 
ATOM     87  C   UNL     1     -15.086   8.967  10.179  1.00  0.00     0.041 A 
ATOM     88  F   UNL     1     -14.837   8.802   7.856  1.00  0.00    -0.206 F 
ATOM     89  C   UNL     1     -14.579   8.796  11.463  1.00  0.00     0.022 A 
BRANCH  86  90
ATOM     90  S   UNL     1     -12.626   7.967  13.274  1.00  0.00     0.124 S 
ATOM     91  O   UNL     1     -12.254   6.565  13.119  1.00  0.00    -0.237 OA
ATOM     92  O   UNL     1     -11.520   8.907  13.425  1.00  0.00    -0.237 OA
ATOM     93  O   UNL     1     -13.772   8.212  14.149  1.00  0.00    -0.744 OA
ENDBRANCH  86  90
ENDBRANCH  60  83
ENDBRANCH  34  35
ENDBRANCH  26  29
ENDBRANCH  24  25
ENDBRANCH   1  24
TORSDOF 17
