REMARK SMILES O=C(NCCCNC(=O)[C@H]1O[C@@H](Oc2c(-c3cc(O)c(O)c(O)c3)oc3cc(O)cc(O)c3c2=O)[C@H](O)[C@@H](O)[C@@H]1O)c1ccc(-c2c3nc(c(-c4cc(S(=O)(=O)[O-])ccc4F)c4ccc([nH]4)c(-c4cc(S(=O)(=O)[O-])ccc4F)c4nc(c(-c5cc(S(=O)(=O)[O-])ccc5F)c5ccc2[nH]5)C=C4)C=C3)cc1
REMARK SMILES IDX 5 1 4 2 3 3 1 4 2 5 42 7 43 8 104 9 44 10 103 11 45 12 46 13
REMARK SMILES IDX 47 14 97 15 48 16 102 17 96 18 98 19 49 20 101 21 95 22
REMARK SMILES IDX 94 23 50 25 82 26 62 27 81 28 63 29 66 30 80 31 99 32 64 33
REMARK SMILES IDX 65 34 79 36 100 37 67 38 51 39 52 40 60 41 53 42 59 43 61 44
REMARK SMILES IDX 58 45 54 46 55 47 56 48 57 49 83 50 84 51 92 52 85 53 91 54
REMARK SMILES IDX 93 55 90 56 86 57 87 58 88 59 89 60 68 61 69 62 77 63 70 64
REMARK SMILES IDX 76 65 78 66 75 67 71 68 72 69 73 70 74 71 6 72 7 73 8 74
REMARK SMILES IDX 9 76 10 77 11 78 40 79 12 80 38 81 36 82 41 83 13 85 14 86
REMARK SMILES IDX 15 87 34 88 25 89 33 90 35 91 26 92 31 93 27 94 30 95 28 96
REMARK SMILES IDX 16 97 17 98 24 99 18 100 22 101 20 102 19 103 23 105 21 107
REMARK SMILES IDX 32 109 29 111 39 113 37 115
REMARK H PARENT 3 6 98 24 66 35 7 75 41 84 19 104 23 106 21 108 32 110 29 112
REMARK H PARENT 39 114 37 116
REMARK Flexibility Score: inf
ROOT
ATOM      1  C   UNL     1       8.024   0.657  -2.842  1.00  0.00     0.042 C 
ENDROOT
BRANCH   1   2
ATOM      2  C   UNL     1       9.508   0.739  -2.546  1.00  0.00     0.118 C 
BRANCH   2   3
ATOM      3  N   UNL     1       9.971   2.113  -2.436  1.00  0.00    -0.352 N 
ATOM      4  O   UNL     1      10.587   4.001  -1.377  1.00  0.00    -0.269 OA
ATOM      5  C   UNL     1      10.446   2.785  -1.333  1.00  0.00     0.251 C 
ATOM      6  H   UNL     1       9.941   2.637  -3.268  1.00  0.00     0.163 HD
BRANCH   5   7
ATOM      7  C   UNL     1      10.768   2.038  -0.094  1.00  0.00     0.039 A 
ATOM      8  C   UNL     1      11.419   0.805  -0.157  1.00  0.00     0.014 A 
ATOM      9  C   UNL     1      10.431   2.585   1.147  1.00  0.00     0.014 A 
ATOM     10  C   UNL     1      11.586   0.049   0.996  1.00  0.00     0.010 A 
ATOM     11  C   UNL     1      10.709   1.873   2.319  1.00  0.00     0.010 A 
ATOM     12  C   UNL     1      11.268   0.587   2.252  1.00  0.00    -0.014 A 
BRANCH  12  13
ATOM     13  C   UNL     1      11.615  -0.184   3.475  1.00  0.00     0.031 A 
ATOM     14  C   UNL     1      10.555  -0.645   4.437  1.00  0.00     0.074 A 
ATOM     15  C   UNL     1      12.909  -0.492   3.692  1.00  0.00     0.049 A 
ATOM     16  N   UNL     1      10.691  -1.317   5.551  1.00  0.00    -0.248 NA
ATOM     17  C   UNL     1       9.164  -0.299   4.111  1.00  0.00     0.031 C 
ATOM     18  C   UNL     1      14.024  -0.099   2.823  1.00  0.00     0.029 A 
ATOM     19  N   UNL     1      13.512  -1.218   4.687  1.00  0.00    -0.354 N 
ATOM     20  C   UNL     1       9.408  -1.471   6.067  1.00  0.00     0.074 A 
ATOM     21  C   UNL     1       8.513  -0.780   5.161  1.00  0.00     0.031 C 
ATOM     22  C   UNL     1      15.160  -0.631   3.292  1.00  0.00     0.029 A 
ATOM     23  C   UNL     1      14.876  -1.325   4.541  1.00  0.00     0.049 A 
ATOM     24  H   UNL     1      13.016  -1.624   5.434  1.00  0.00     0.167 HD
ATOM     25  C   UNL     1       9.018  -2.136   7.184  1.00  0.00     0.034 A 
ATOM     26  C   UNL     1      15.804  -1.887   5.338  1.00  0.00     0.034 A 
ATOM     27  C   UNL     1       9.932  -2.808   8.079  1.00  0.00     0.049 A 
ATOM     28  C   UNL     1      15.350  -2.552   6.609  1.00  0.00     0.074 A 
ATOM     29  C   UNL     1       9.645  -3.518   9.233  1.00  0.00     0.029 A 
ATOM     30  N   UNL     1      11.314  -2.848   7.929  1.00  0.00    -0.354 N 
ATOM     31  N   UNL     1      14.131  -2.694   7.077  1.00  0.00    -0.248 NA
ATOM     32  C   UNL     1      16.395  -3.134   7.458  1.00  0.00     0.031 C 
ATOM     33  C   UNL     1      10.851  -3.919   9.818  1.00  0.00     0.029 A 
ATOM     34  C   UNL     1      11.891  -3.540   8.985  1.00  0.00     0.049 A 
ATOM     35  H   UNL     1      11.811  -2.444   7.182  1.00  0.00     0.167 HD
ATOM     36  C   UNL     1      14.263  -3.409   8.263  1.00  0.00     0.074 A 
ATOM     37  C   UNL     1      15.676  -3.687   8.423  1.00  0.00     0.031 C 
ATOM     38  C   UNL     1      13.304  -3.800   9.140  1.00  0.00     0.034 A 
BRANCH  25  39
ATOM     39  C   UNL     1       7.544  -2.132   7.520  1.00  0.00     0.023 A 
ATOM     40  C   UNL     1       6.590  -2.724   6.673  1.00  0.00     0.031 A 
ATOM     41  C   UNL     1       7.082  -1.516   8.697  1.00  0.00     0.131 A 
ATOM     42  C   UNL     1       5.223  -2.627   6.977  1.00  0.00     0.055 A 
ATOM     43  C   UNL     1       5.727  -1.495   9.036  1.00  0.00     0.041 A 
ATOM     44  F   UNL     1       7.939  -0.914   9.536  1.00  0.00    -0.206 F 
ATOM     45  C   UNL     1       4.787  -2.040   8.167  1.00  0.00     0.022 A 
BRANCH  42  46
ATOM     46  S   UNL     1       4.018  -3.151   5.727  1.00  0.00     0.124 S 
ATOM     47  O   UNL     1       4.383  -2.309   4.590  1.00  0.00    -0.237 OA
ATOM     48  O   UNL     1       4.306  -4.573   5.585  1.00  0.00    -0.237 OA
ATOM     49  O   UNL     1       2.728  -2.833   6.338  1.00  0.00    -0.744 OA
ENDBRANCH  42  46
ENDBRANCH  25  39
BRANCH  26  50
ATOM     50  C   UNL     1      17.250  -1.808   4.984  1.00  0.00     0.023 A 
ATOM     51  C   UNL     1      18.008  -2.968   4.768  1.00  0.00     0.031 A 
ATOM     52  C   UNL     1      17.909  -0.567   4.903  1.00  0.00     0.131 A 
ATOM     53  C   UNL     1      19.388  -2.868   4.535  1.00  0.00     0.055 A 
ATOM     54  C   UNL     1      19.267  -0.469   4.602  1.00  0.00     0.041 A 
ATOM     55  F   UNL     1      17.233   0.577   5.101  1.00  0.00    -0.206 F 
ATOM     56  C   UNL     1      20.019  -1.626   4.434  1.00  0.00     0.022 A 
BRANCH  53  57
ATOM     57  S   UNL     1      20.368  -4.392   4.480  1.00  0.00     0.124 S 
ATOM     58  O   UNL     1      20.050  -4.995   5.769  1.00  0.00    -0.237 OA
ATOM     59  O   UNL     1      19.820  -5.062   3.305  1.00  0.00    -0.237 OA
ATOM     60  O   UNL     1      21.740  -3.909   4.338  1.00  0.00    -0.744 OA
ENDBRANCH  53  57
ENDBRANCH  26  50
BRANCH  38  61
ATOM     61  C   UNL     1      13.760  -4.615  10.326  1.00  0.00     0.023 A 
ATOM     62  C   UNL     1      14.600  -4.078  11.318  1.00  0.00     0.031 A 
ATOM     63  C   UNL     1      13.372  -5.962  10.448  1.00  0.00     0.131 A 
ATOM     64  C   UNL     1      15.077  -4.899  12.350  1.00  0.00     0.055 A 
ATOM     65  C   UNL     1      13.793  -6.755  11.516  1.00  0.00     0.041 A 
ATOM     66  F   UNL     1      12.576  -6.530   9.528  1.00  0.00    -0.206 F 
ATOM     67  C   UNL     1      14.663  -6.229  12.466  1.00  0.00     0.022 A 
BRANCH  64  68
ATOM     68  S   UNL     1      16.332  -4.237  13.480  1.00  0.00     0.124 S 
ATOM     69  O   UNL     1      17.405  -3.872  12.560  1.00  0.00    -0.237 OA
ATOM     70  O   UNL     1      15.629  -3.126  14.112  1.00  0.00    -0.237 OA
ATOM     71  O   UNL     1      16.628  -5.365  14.362  1.00  0.00    -0.744 OA
ENDBRANCH  64  68
ENDBRANCH  38  61
ENDBRANCH  12  13
ENDBRANCH   5   7
ENDBRANCH   2   3
ENDBRANCH   1   2
BRANCH   1  72
ATOM     72  C   UNL     1       7.639   1.085  -4.255  1.00  0.00     0.117 C 
BRANCH  72  73
ATOM     73  N   UNL     1       8.336   0.351  -5.311  1.00  0.00    -0.354 N 
ATOM     74  C   UNL     1       7.853  -0.546  -6.235  1.00  0.00     0.252 C 
ATOM     75  H   UNL     1       9.303   0.527  -5.370  1.00  0.00     0.163 HD
ATOM     76  O   UNL     1       8.641  -1.037  -7.044  1.00  0.00    -0.272 OA
BRANCH  74  77
ATOM     77  C   UNL     1       6.347  -0.848  -6.256  1.00  0.00     0.242 C 
ATOM     78  O   UNL     1       5.803  -1.310  -7.507  1.00  0.00    -0.324 OA
ATOM     79  C   UNL     1       5.977  -1.917  -5.225  1.00  0.00     0.184 C 
ATOM     80  C   UNL     1       4.382  -1.142  -7.519  1.00  0.00     0.340 C 
ATOM     81  C   UNL     1       4.481  -1.764  -4.969  1.00  0.00     0.181 C 
ATOM     82  C   UNL     1       3.689  -1.758  -6.274  1.00  0.00     0.214 C 
BRANCH  79  83
ATOM     83  O   UNL     1       6.638  -1.827  -3.974  1.00  0.00    -0.387 OA
ATOM     84  H   UNL     1       6.408  -0.988  -3.545  1.00  0.00     0.211 HD
ENDBRANCH  79  83
BRANCH  80  85
ATOM     85  O   UNL     1       3.684  -1.646  -8.689  1.00  0.00    -0.454 OA
BRANCH  85  86
ATOM     86  C   UNL     1       4.269  -2.656  -9.437  1.00  0.00     0.214 A 
ATOM     87  C   UNL     1       4.002  -3.972  -9.274  1.00  0.00     0.181 A 
ATOM     88  C   UNL     1       5.021  -2.255 -10.670  1.00  0.00     0.239 A 
ATOM     89  O   UNL     1       4.501  -4.986 -10.060  1.00  0.00    -0.452 OA
ATOM     90  C   UNL     1       5.385  -3.344 -11.619  1.00  0.00     0.111 A 
ATOM     91  O   UNL     1       5.260  -1.073 -10.891  1.00  0.00    -0.285 OA
ATOM     92  C   UNL     1       5.104  -4.657 -11.241  1.00  0.00     0.146 A 
ATOM     93  C   UNL     1       5.963  -3.126 -12.879  1.00  0.00     0.134 A 
ATOM     94  C   UNL     1       5.406  -5.734 -12.077  1.00  0.00     0.094 A 
ATOM     95  C   UNL     1       6.260  -4.202 -13.730  1.00  0.00     0.093 A 
ATOM     96  C   UNL     1       5.977  -5.499 -13.317  1.00  0.00     0.123 A 
BRANCH  87  97
ATOM     97  C   UNL     1       3.189  -4.495  -8.164  1.00  0.00     0.029 A 
ATOM     98  C   UNL     1       3.828  -5.264  -7.172  1.00  0.00     0.062 A 
ATOM     99  C   UNL     1       1.857  -4.083  -7.983  1.00  0.00     0.062 A 
ATOM    100  C   UNL     1       3.192  -5.470  -5.954  1.00  0.00     0.162 A 
ATOM    101  C   UNL     1       1.245  -4.292  -6.752  1.00  0.00     0.162 A 
ATOM    102  C   UNL     1       1.926  -4.942  -5.728  1.00  0.00     0.200 A 
BRANCH 100 103
ATOM    103  O   UNL     1       3.889  -6.064  -4.944  1.00  0.00    -0.504 OA
ATOM    104  H   UNL     1       4.742  -6.417  -5.107  1.00  0.00     0.293 HD
ENDBRANCH 100 103
BRANCH 101 105
ATOM    105  O   UNL     1       0.037  -3.703  -6.510  1.00  0.00    -0.504 OA
ATOM    106  H   UNL     1      -0.391  -3.832  -5.687  1.00  0.00     0.293 HD
ENDBRANCH 101 105
BRANCH 102 107
ATOM    107  O   UNL     1       1.418  -4.900  -4.459  1.00  0.00    -0.502 OA
ATOM    108  H   UNL     1       1.867  -5.333  -3.760  1.00  0.00     0.293 HD
ENDBRANCH 102 107
ENDBRANCH  87  97
BRANCH  93 109
ATOM    109  O   UNL     1       6.223  -1.860 -13.322  1.00  0.00    -0.507 OA
ATOM    110  H   UNL     1       6.609  -1.729 -14.166  1.00  0.00     0.293 HD
ENDBRANCH  93 109
BRANCH  96 111
ATOM    111  O   UNL     1       6.229  -6.578 -14.110  1.00  0.00    -0.508 OA
ATOM    112  H   UNL     1       6.027  -7.441 -13.805  1.00  0.00     0.293 HD
ENDBRANCH  96 111
ENDBRANCH  85  86
ENDBRANCH  80  85
BRANCH  81 113
ATOM    113  O   UNL     1       4.047  -2.850  -4.111  1.00  0.00    -0.387 OA
ATOM    114  H   UNL     1       4.215  -3.698  -4.553  1.00  0.00     0.211 HD
ENDBRANCH  81 113
BRANCH  82 115
ATOM    115  O   UNL     1       2.399  -1.171  -6.055  1.00  0.00    -0.384 OA
ATOM    116  H   UNL     1       2.505  -0.237  -5.817  1.00  0.00     0.211 HD
ENDBRANCH  82 115
ENDBRANCH  74  77
ENDBRANCH  72  73
ENDBRANCH   1  72
TORSDOF 24
