REMARK SMILES NS(=O)(=O)c1ccc(-c2cc(Cl)cc3c2O[C@H](C(F)(F)F)C(C(=O)NCCCNC(=O)c2ccc(-c4c5nc(c(-c6cc(S(=O)(=O)[O-])ccc6F)c6ccc([nH]6)c(-c6cc(S(=O)(=O)[O-])ccc6F)c6nc(c(-c7cc(S(=O)(=O)[O-])ccc7F)c7ccc4[nH]7)C=C6)C=C5)cc2)=C3)cc1
REMARK SMILES IDX 27 1 26 2 25 3 23 4 24 5 22 7 9 8 10 9 15 10 11 11 14 12
REMARK SMILES IDX 16 13 12 14 13 15 95 16 17 17 8 18 5 19 6 20 97 21 7 22
REMARK SMILES IDX 96 23 2 24 3 25 4 26 1 27 18 30 19 31 20 32 21 33 28 34
REMARK SMILES IDX 29 35 30 36 31 38 32 39 33 40 94 41 34 42 93 43 35 44 36 45
REMARK SMILES IDX 37 46 87 47 38 48 92 49 86 50 88 51 39 52 91 53 85 54 84 55
REMARK SMILES IDX 40 57 72 58 52 59 71 60 53 61 56 62 70 63 89 64 54 65 55 66
REMARK SMILES IDX 69 68 90 69 57 70 41 71 42 72 50 73 43 74 49 75 51 76 48 77
REMARK SMILES IDX 44 78 45 79 46 80 47 81 73 82 74 83 82 84 75 85 81 86 83 87
REMARK SMILES IDX 80 88 76 89 77 90 78 91 79 92 58 93 59 94 67 95 60 96 66 97
REMARK SMILES IDX 68 98 65 99 61 100 62 101 63 102 64 103
REMARK H PARENT 25 6 1 28 1 29 29 37 88 56 56 67
REMARK Flexibility Score: inf
ROOT
ATOM      1  C   UNL     1       5.684 -13.264  -5.969  1.00  0.00     0.042 C 
ENDROOT
BRANCH   1   2
ATOM      2  C   UNL     1       5.618 -11.789  -6.372  1.00  0.00     0.118 C 
BRANCH   2   3
ATOM      3  N   UNL     1       4.280 -11.271  -6.165  1.00  0.00    -0.352 N 
ATOM      4  C   UNL     1       3.917 -10.292  -5.300  1.00  0.00     0.251 C 
ATOM      5  O   UNL     1       2.888 -10.403  -4.644  1.00  0.00    -0.270 OA
ATOM      6  H   UNL     1       3.562 -11.672  -6.707  1.00  0.00     0.163 HD
BRANCH   4   7
ATOM      7  C   UNL     1       4.731  -9.040  -5.315  1.00  0.00     0.067 C 
ATOM      8  C   UNL     1       2.375  -6.702  -2.966  1.00  0.00     0.026 A 
ATOM      9  C   UNL     1       1.040  -6.944  -3.385  1.00  0.00     0.033 A 
ATOM     10  C   UNL     1       3.387  -7.177  -3.819  1.00  0.00     0.135 A 
ATOM     11  C   UNL     1       0.727  -7.432  -4.651  1.00  0.00     0.042 A 
ATOM     12  C   UNL     1       3.051  -7.554  -5.144  1.00  0.00     0.019 A 
ATOM     13  O   UNL     1       4.705  -7.365  -3.420  1.00  0.00    -0.475 OA
ATOM     14  Cl  UNL     1      -0.914  -7.703  -5.079  1.00  0.00    -0.084 Cl
ATOM     15  C   UNL     1       1.731  -7.661  -5.570  1.00  0.00     0.032 A 
ATOM     16  C   UNL     1       4.138  -8.053  -6.015  1.00  0.00     0.025 C 
ATOM     17  C   UNL     1       5.308  -8.626  -3.967  1.00  0.00     0.314 C 
BRANCH   8  18
ATOM     18  C   UNL     1       2.493  -5.748  -1.828  1.00  0.00    -0.015 A 
ATOM     19  C   UNL     1       1.681  -3.517  -0.280  1.00  0.00     0.082 A 
ATOM     20  C   UNL     1       1.267  -4.802   0.076  1.00  0.00     0.022 A 
ATOM     21  C   UNL     1       2.592  -3.345  -1.322  1.00  0.00     0.022 A 
ATOM     22  C   UNL     1       1.692  -5.908  -0.675  1.00  0.00     0.010 A 
ATOM     23  C   UNL     1       3.004  -4.457  -2.079  1.00  0.00     0.010 A 
BRANCH  19  24
ATOM     24  S   UNL     1       0.918  -2.146   0.545  1.00  0.00     0.238 S 
ATOM     25  O   UNL     1       1.417  -2.088   1.901  1.00  0.00    -0.207 OA
ATOM     26  O   UNL     1      -0.490  -2.151   0.234  1.00  0.00    -0.207 OA
BRANCH  24  27
ATOM     27  N   UNL     1       1.521  -0.766  -0.208  1.00  0.00    -0.225 NA
ATOM     28  H   UNL     1       1.115   0.063   0.227  1.00  0.00     0.137 HD
ATOM     29  H   UNL     1       1.277  -0.784  -1.198  1.00  0.00     0.137 HD
ENDBRANCH  24  27
ENDBRANCH  19  24
ENDBRANCH   8  18
BRANCH  17  30
ATOM     30  C   UNL     1       6.843  -8.519  -4.123  1.00  0.00     0.429 C 
ATOM     31  F   UNL     1       7.304  -7.266  -3.910  1.00  0.00    -0.167 F 
ATOM     32  F   UNL     1       7.483  -9.344  -3.260  1.00  0.00    -0.167 F 
ATOM     33  F   UNL     1       7.267  -8.874  -5.366  1.00  0.00    -0.167 F 
ENDBRANCH  17  30
ENDBRANCH   4   7
ENDBRANCH   2   3
ENDBRANCH   1   2
BRANCH   1  34
ATOM     34  C   UNL     1       4.755 -14.187  -6.758  1.00  0.00     0.118 C 
BRANCH  34  35
ATOM     35  N   UNL     1       5.030 -14.187  -8.184  1.00  0.00    -0.352 N 
ATOM     36  C   UNL     1       5.258 -15.245  -9.031  1.00  0.00     0.251 C 
ATOM     37  H   UNL     1       5.056 -13.298  -8.607  1.00  0.00     0.163 HD
ATOM     38  O   UNL     1       5.643 -15.025 -10.176  1.00  0.00    -0.269 OA
BRANCH  36  39
ATOM     39  C   UNL     1       5.074 -16.634  -8.555  1.00  0.00     0.039 A 
ATOM     40  C   UNL     1       6.024 -17.596  -8.906  1.00  0.00     0.014 A 
ATOM     41  C   UNL     1       3.973 -16.995  -7.773  1.00  0.00     0.014 A 
ATOM     42  C   UNL     1       5.900 -18.901  -8.426  1.00  0.00     0.010 A 
ATOM     43  C   UNL     1       3.900 -18.273  -7.222  1.00  0.00     0.010 A 
ATOM     44  C   UNL     1       4.856 -19.245  -7.550  1.00  0.00    -0.014 A 
BRANCH  44  45
ATOM     45  C   UNL     1       4.749 -20.621  -6.992  1.00  0.00     0.031 A 
ATOM     46  C   UNL     1       3.545 -21.472  -7.300  1.00  0.00     0.074 A 
ATOM     47  C   UNL     1       5.719 -21.091  -6.182  1.00  0.00     0.049 A 
ATOM     48  N   UNL     1       3.260 -22.683  -6.892  1.00  0.00    -0.248 NA
ATOM     49  C   UNL     1       2.509 -20.871  -8.153  1.00  0.00     0.031 C 
ATOM     50  C   UNL     1       6.911 -20.345  -5.770  1.00  0.00     0.029 A 
ATOM     51  N   UNL     1       5.864 -22.308  -5.562  1.00  0.00    -0.354 N 
ATOM     52  C   UNL     1       2.013 -22.983  -7.431  1.00  0.00     0.074 A 
ATOM     53  C   UNL     1       1.565 -21.798  -8.130  1.00  0.00     0.031 C 
ATOM     54  C   UNL     1       7.681 -21.132  -5.003  1.00  0.00     0.029 A 
ATOM     55  C   UNL     1       7.021 -22.421  -4.825  1.00  0.00     0.049 A 
ATOM     56  H   UNL     1       5.201 -23.032  -5.638  1.00  0.00     0.167 HD
ATOM     57  C   UNL     1       1.319 -24.148  -7.376  1.00  0.00     0.034 A 
ATOM     58  C   UNL     1       7.494 -23.445  -4.086  1.00  0.00     0.034 A 
ATOM     59  C   UNL     1       1.786 -25.324  -6.684  1.00  0.00     0.049 A 
ATOM     60  C   UNL     1       6.693 -24.721  -4.019  1.00  0.00     0.074 A 
ATOM     61  C   UNL     1       1.193 -26.572  -6.608  1.00  0.00     0.029 A 
ATOM     62  N   UNL     1       2.957 -25.398  -5.939  1.00  0.00    -0.354 N 
ATOM     63  N   UNL     1       5.545 -25.008  -4.588  1.00  0.00    -0.248 NA
ATOM     64  C   UNL     1       7.260 -25.815  -3.221  1.00  0.00     0.031 C 
ATOM     65  C   UNL     1       1.961 -27.373  -5.757  1.00  0.00     0.029 A 
ATOM     66  C   UNL     1       3.083 -26.658  -5.371  1.00  0.00     0.049 A 
ATOM     67  H   UNL     1       3.603 -24.663  -5.830  1.00  0.00     0.167 HD
ATOM     68  C   UNL     1       5.268 -26.328  -4.239  1.00  0.00     0.074 A 
ATOM     69  C   UNL     1       6.383 -26.784  -3.433  1.00  0.00     0.031 C 
ATOM     70  C   UNL     1       4.192 -27.095  -4.555  1.00  0.00     0.034 A 
BRANCH  57  71
ATOM     71  C   UNL     1      -0.026 -24.191  -8.065  1.00  0.00     0.023 A 
ATOM     72  C   UNL     1      -0.153 -23.992  -9.451  1.00  0.00     0.031 A 
ATOM     73  C   UNL     1      -1.201 -24.406  -7.324  1.00  0.00     0.131 A 
ATOM     74  C   UNL     1      -1.426 -23.931 -10.038  1.00  0.00     0.055 A 
ATOM     75  C   UNL     1      -2.460 -24.433  -7.928  1.00  0.00     0.041 A 
ATOM     76  F   UNL     1      -1.149 -24.580  -5.994  1.00  0.00    -0.206 F 
ATOM     77  C   UNL     1      -2.580 -24.178  -9.291  1.00  0.00     0.022 A 
BRANCH  74  78
ATOM     78  S   UNL     1      -1.560 -23.370 -11.758  1.00  0.00     0.124 S 
ATOM     79  O   UNL     1      -0.942 -22.048 -11.685  1.00  0.00    -0.237 OA
ATOM     80  O   UNL     1      -0.807 -24.388 -12.482  1.00  0.00    -0.237 OA
ATOM     81  O   UNL     1      -3.000 -23.363 -12.006  1.00  0.00    -0.744 OA
ENDBRANCH  74  78
ENDBRANCH  57  71
BRANCH  58  82
ATOM     82  C   UNL     1       8.783 -23.314  -3.343  1.00  0.00     0.023 A 
ATOM     83  C   UNL     1       9.879 -24.140  -3.641  1.00  0.00     0.031 A 
ATOM     84  C   UNL     1       8.920 -22.396  -2.287  1.00  0.00     0.131 A 
ATOM     85  C   UNL     1      11.043 -24.069  -2.859  1.00  0.00     0.055 A 
ATOM     86  C   UNL     1      10.101 -22.287  -1.550  1.00  0.00     0.041 A 
ATOM     87  F   UNL     1       7.905 -21.580  -1.959  1.00  0.00    -0.206 F 
ATOM     88  C   UNL     1      11.167 -23.138  -1.825  1.00  0.00     0.022 A 
BRANCH  85  89
ATOM     89  S   UNL     1      12.360 -25.283  -3.148  1.00  0.00     0.124 S 
ATOM     90  O   UNL     1      11.652 -26.542  -2.950  1.00  0.00    -0.237 OA
ATOM     91  O   UNL     1      12.756 -24.978  -4.519  1.00  0.00    -0.237 OA
ATOM     92  O   UNL     1      13.354 -24.956  -2.128  1.00  0.00    -0.744 OA
ENDBRANCH  85  89
ENDBRANCH  58  82
BRANCH  70  93
ATOM     93  C   UNL     1       4.196 -28.520  -4.053  1.00  0.00     0.023 A 
ATOM     94  C   UNL     1       4.162 -28.821  -2.680  1.00  0.00     0.031 A 
ATOM     95  C   UNL     1       4.261 -29.592  -4.962  1.00  0.00     0.131 A 
ATOM     96  C   UNL     1       4.264 -30.153  -2.253  1.00  0.00     0.055 A 
ATOM     97  C   UNL     1       4.288 -30.919  -4.533  1.00  0.00     0.041 A 
ATOM     98  F   UNL     1       4.301 -29.366  -6.285  1.00  0.00    -0.206 F 
ATOM     99  C   UNL     1       4.307 -31.206  -3.171  1.00  0.00     0.022 A 
BRANCH  96 100
ATOM    100  S   UNL     1       4.463 -30.485  -0.481  1.00  0.00     0.124 S 
ATOM    101  O   UNL     1       5.660 -29.714  -0.161  1.00  0.00    -0.237 OA
ATOM    102  O   UNL     1       3.211 -29.978   0.073  1.00  0.00    -0.237 OA
ATOM    103  O   UNL     1       4.625 -31.936  -0.420  1.00  0.00    -0.744 OA
ENDBRANCH  96 100
ENDBRANCH  70  93
ENDBRANCH  44  45
ENDBRANCH  36  39
ENDBRANCH  34  35
ENDBRANCH   1  34
TORSDOF 17
