REMARK SMILES Cc1ccc(NC(=O)C[C@@H](C(=O)NCCCNC(=O)c2ccc(-c3c4nc(c(-c5cc(S(=O)(=O)[O-])ccc5F)c5ccc([nH]5)c(-c5cc(S(=O)(=O)[O-])ccc5F)c5nc(c(-c6cc(S(=O)(=O)[O-])ccc6F)c6ccc3[nH]6)C=C5)C=C4)cc2)[NH+]2CCOCC2)cc1
REMARK SMILES IDX 15 1 14 2 13 3 11 4 12 5 10 7 9 8 7 9 6 10 8 12 5 13 1 14
REMARK SMILES IDX 2 15 3 16 90 17 4 18 89 19 83 20 84 21 88 22 85 24 87 25
REMARK SMILES IDX 86 26 16 27 17 28 18 29 19 31 20 32 21 33 82 34 22 35 81 36
REMARK SMILES IDX 23 37 24 38 25 39 75 40 26 41 80 42 74 43 76 44 27 45 79 46
REMARK SMILES IDX 73 47 72 48 28 50 60 51 40 52 59 53 41 54 44 55 58 56 77 57
REMARK SMILES IDX 42 58 43 59 57 61 78 62 45 63 29 64 30 65 38 66 31 67 37 68
REMARK SMILES IDX 39 69 36 70 32 71 33 72 34 73 35 74 61 75 62 76 70 77 63 78
REMARK SMILES IDX 69 79 71 80 68 81 64 82 65 83 66 84 67 85 46 86 47 87 55 88
REMARK SMILES IDX 48 89 54 90 56 91 53 92 49 93 50 94 51 95 52 96
REMARK H PARENT 13 6 6 11 83 23 17 30 76 49 44 60
REMARK Flexibility Score: inf
ROOT
ATOM      1  C   UNL     1      -4.750   0.844  -1.449  1.00  0.00     0.042 C 
ENDROOT
BRANCH   1   2
ATOM      2  C   UNL     1      -3.989  -0.106  -2.378  1.00  0.00     0.118 C 
BRANCH   2   3
ATOM      3  N   UNL     1      -2.574  -0.220  -2.095  1.00  0.00    -0.351 N 
ATOM      4  C   UNL     1      -1.774  -1.281  -1.795  1.00  0.00     0.278 C 
ATOM      5  O   UNL     1      -0.557  -1.071  -1.826  1.00  0.00    -0.268 OA
ATOM      6  H   UNL     1      -2.095   0.640  -2.125  1.00  0.00     0.163 HD
BRANCH   4   7
ATOM      7  C   UNL     1      -2.346  -2.715  -1.499  1.00  0.00     0.283 C 
BRANCH   7   8
ATOM      8  C   UNL     1      -2.882  -2.918  -0.066  1.00  0.00     0.175 C 
BRANCH   8   9
ATOM      9  C   UNL     1      -3.422  -1.750   0.719  1.00  0.00     0.230 C 
ATOM     10  N   UNL     1      -2.626  -0.782   1.252  1.00  0.00    -0.326 N 
ATOM     11  H   UNL     1      -3.115  -0.074   1.731  1.00  0.00     0.169 HD
ATOM     12  O   UNL     1      -4.643  -1.665   0.901  1.00  0.00    -0.274 OA
BRANCH  10  13
ATOM     13  C   UNL     1      -1.231  -0.612   1.240  1.00  0.00     0.041 A 
ATOM     14  C   UNL     1       2.888   0.169   0.292  1.00  0.00     0.044 C 
ATOM     15  C   UNL     1       1.489  -0.084   0.769  1.00  0.00    -0.051 A 
ATOM     16  C   UNL     1       1.049  -1.390   0.992  1.00  0.00     0.005 A 
ATOM     17  C   UNL     1       0.575   0.964   0.892  1.00  0.00     0.005 A 
ATOM     18  C   UNL     1      -0.301  -1.650   1.244  1.00  0.00     0.026 A 
ATOM     19  C   UNL     1      -0.772   0.703   1.147  1.00  0.00     0.026 A 
ENDBRANCH  10  13
ENDBRANCH   8   9
ENDBRANCH   7   8
BRANCH   7  20
ATOM     20  N   UNL     1      -1.282  -3.733  -1.817  1.00  0.00    -0.320 N 
ATOM     21  C   UNL     1      -0.844  -3.725  -3.230  1.00  0.00     0.291 C 
ATOM     22  C   UNL     1      -1.438  -5.121  -1.363  1.00  0.00     0.291 C 
ATOM     23  H   UNL     1      -0.555  -3.362  -1.205  1.00  0.00     0.348 HD
ATOM     24  C   UNL     1      -1.653  -4.664  -4.138  1.00  0.00     0.221 C 
ATOM     25  C   UNL     1      -2.224  -6.028  -2.316  1.00  0.00     0.221 C 
ATOM     26  O   UNL     1      -1.672  -6.007  -3.635  1.00  0.00    -0.370 OA
ENDBRANCH   7  20
ENDBRANCH   4   7
ENDBRANCH   2   3
ENDBRANCH   1   2
BRANCH   1  27
ATOM     27  C   UNL     1      -4.134   2.233  -1.264  1.00  0.00     0.118 C 
BRANCH  27  28
ATOM     28  N   UNL     1      -5.148   3.291  -1.359  1.00  0.00    -0.352 N 
ATOM     29  C   UNL     1      -5.137   4.586  -0.890  1.00  0.00     0.251 C 
ATOM     30  H   UNL     1      -5.970   3.032  -1.836  1.00  0.00     0.163 HD
ATOM     31  O   UNL     1      -6.039   5.375  -1.168  1.00  0.00    -0.269 OA
BRANCH  29  32
ATOM     32  C   UNL     1      -3.967   5.062  -0.132  1.00  0.00     0.039 A 
ATOM     33  C   UNL     1      -3.257   6.151  -0.649  1.00  0.00     0.014 A 
ATOM     34  C   UNL     1      -3.474   4.335   0.948  1.00  0.00     0.014 A 
ATOM     35  C   UNL     1      -1.942   6.358  -0.244  1.00  0.00     0.010 A 
ATOM     36  C   UNL     1      -2.151   4.509   1.315  1.00  0.00     0.010 A 
ATOM     37  C   UNL     1      -1.364   5.464   0.660  1.00  0.00    -0.014 A 
BRANCH  37  38
ATOM     38  C   UNL     1       0.084   5.354   0.816  1.00  0.00     0.031 A 
ATOM     39  C   UNL     1       0.782   5.914   1.985  1.00  0.00     0.074 A 
ATOM     40  C   UNL     1       0.811   4.730  -0.137  1.00  0.00     0.049 A 
ATOM     41  N   UNL     1       2.003   6.334   1.966  1.00  0.00    -0.248 NA
ATOM     42  C   UNL     1       0.136   6.069   3.280  1.00  0.00     0.031 C 
ATOM     43  C   UNL     1       2.226   4.372  -0.087  1.00  0.00     0.029 A 
ATOM     44  N   UNL     1       0.444   4.511  -1.463  1.00  0.00    -0.354 N 
ATOM     45  C   UNL     1       2.397   6.531   3.267  1.00  0.00     0.074 A 
ATOM     46  C   UNL     1       1.177   6.425   4.040  1.00  0.00     0.031 C 
ATOM     47  C   UNL     1       2.683   4.253  -1.343  1.00  0.00     0.029 A 
ATOM     48  C   UNL     1       1.613   4.657  -2.236  1.00  0.00     0.049 A 
ATOM     49  H   UNL     1      -0.457   4.295  -1.796  1.00  0.00     0.167 HD
ATOM     50  C   UNL     1       3.725   6.624   3.568  1.00  0.00     0.034 A 
ATOM     51  C   UNL     1       1.689   5.626  -3.195  1.00  0.00     0.034 A 
ATOM     52  C   UNL     1       4.572   6.555   2.376  1.00  0.00     0.049 A 
ATOM     53  C   UNL     1       2.771   6.663  -2.937  1.00  0.00     0.074 A 
ATOM     54  C   UNL     1       5.357   5.568   1.801  1.00  0.00     0.029 A 
ATOM     55  N   UNL     1       4.495   7.569   1.437  1.00  0.00    -0.354 N 
ATOM     56  N   UNL     1       3.549   6.673  -1.889  1.00  0.00    -0.248 NA
ATOM     57  C   UNL     1       2.998   7.824  -3.800  1.00  0.00     0.031 C 
ATOM     58  C   UNL     1       5.719   5.994   0.490  1.00  0.00     0.029 A 
ATOM     59  C   UNL     1       5.170   7.245   0.276  1.00  0.00     0.049 A 
ATOM     60  H   UNL     1       4.018   8.418   1.580  1.00  0.00     0.167 HD
ATOM     61  C   UNL     1       4.292   7.825  -1.880  1.00  0.00     0.074 A 
ATOM     62  C   UNL     1       3.920   8.511  -3.103  1.00  0.00     0.031 C 
ATOM     63  C   UNL     1       5.122   8.165  -0.850  1.00  0.00     0.034 A 
BRANCH  50  64
ATOM     64  C   UNL     1       4.270   6.508   4.973  1.00  0.00     0.023 A 
ATOM     65  C   UNL     1       5.547   5.945   5.174  1.00  0.00     0.031 A 
ATOM     66  C   UNL     1       3.590   6.893   6.143  1.00  0.00     0.131 A 
ATOM     67  C   UNL     1       6.038   5.679   6.465  1.00  0.00     0.055 A 
ATOM     68  C   UNL     1       4.044   6.566   7.428  1.00  0.00     0.041 A 
ATOM     69  F   UNL     1       2.486   7.651   6.096  1.00  0.00    -0.206 F 
ATOM     70  C   UNL     1       5.269   5.939   7.594  1.00  0.00     0.022 A 
BRANCH  67  71
ATOM     71  S   UNL     1       7.708   4.997   6.646  1.00  0.00     0.124 S 
ATOM     72  O   UNL     1       7.633   3.772   5.858  1.00  0.00    -0.237 OA
ATOM     73  O   UNL     1       8.536   6.067   6.100  1.00  0.00    -0.237 OA
ATOM     74  O   UNL     1       7.836   4.795   8.089  1.00  0.00    -0.744 OA
ENDBRANCH  67  71
ENDBRANCH  50  64
BRANCH  51  75
ATOM     75  C   UNL     1       0.371   5.869  -3.861  1.00  0.00     0.023 A 
ATOM     76  C   UNL     1      -0.289   4.747  -4.421  1.00  0.00     0.031 A 
ATOM     77  C   UNL     1      -0.390   7.020  -3.627  1.00  0.00     0.131 A 
ATOM     78  C   UNL     1      -1.684   4.740  -4.562  1.00  0.00     0.055 A 
ATOM     79  C   UNL     1      -1.772   7.038  -3.856  1.00  0.00     0.041 A 
ATOM     80  F   UNL     1       0.158   8.104  -3.058  1.00  0.00    -0.206 F 
ATOM     81  C   UNL     1      -2.432   5.882  -4.280  1.00  0.00     0.022 A 
BRANCH  78  82
ATOM     82  S   UNL     1      -2.517   3.147  -4.849  1.00  0.00     0.124 S 
ATOM     83  O   UNL     1      -2.326   2.949  -6.280  1.00  0.00    -0.237 OA
ATOM     84  O   UNL     1      -1.786   2.233  -3.971  1.00  0.00    -0.237 OA
ATOM     85  O   UNL     1      -3.897   3.387  -4.430  1.00  0.00    -0.744 OA
ENDBRANCH  78  82
ENDBRANCH  51  75
BRANCH  63  86
ATOM     86  C   UNL     1       5.948   9.424  -0.837  1.00  0.00     0.023 A 
ATOM     87  C   UNL     1       6.627   9.876  -1.980  1.00  0.00     0.031 A 
ATOM     88  C   UNL     1       6.146  10.169   0.347  1.00  0.00     0.131 A 
ATOM     89  C   UNL     1       7.404  11.048  -1.936  1.00  0.00     0.055 A 
ATOM     90  C   UNL     1       6.988  11.282   0.408  1.00  0.00     0.041 A 
ATOM     91  F   UNL     1       5.495   9.871   1.482  1.00  0.00    -0.206 F 
ATOM     92  C   UNL     1       7.616  11.736  -0.742  1.00  0.00     0.022 A 
BRANCH  89  93
ATOM     93  S   UNL     1       8.069  11.707  -3.486  1.00  0.00     0.124 S 
ATOM     94  O   UNL     1       8.794  10.566  -4.035  1.00  0.00    -0.237 OA
ATOM     95  O   UNL     1       6.847  12.082  -4.194  1.00  0.00    -0.237 OA
ATOM     96  O   UNL     1       8.903  12.827  -3.057  1.00  0.00    -0.744 OA
ENDBRANCH  89  93
ENDBRANCH  63  86
ENDBRANCH  37  38
ENDBRANCH  29  32
ENDBRANCH  27  28
ENDBRANCH   1  27
TORSDOF 17
