REMARK SMILES O=C(NCCCNC(=O)[C@@]1([NH2+]C2CC2)CCC[C@@H](n2cncn2)C1)c1ccc(-c2c3nc(c(-c4cc(S(=O)(=O)[O-])ccc4F)c4ccc([nH]4)c(-c4cc(S(=O)(=O)[O-])ccc4F)c4nc(c(-c5cc(S(=O)(=O)[O-])ccc5F)c5ccc2[nH]5)C=C4)C=C3)cc1
REMARK SMILES IDX 4 1 3 2 1 3 2 4 25 6 26 7 87 8 27 9 86 10 28 11 29 12 30 13
REMARK SMILES IDX 80 14 31 15 85 16 79 17 81 18 32 19 84 20 78 21 77 22 33 24
REMARK SMILES IDX 65 25 45 26 64 27 46 28 49 29 63 30 82 31 47 32 48 33 62 35
REMARK SMILES IDX 83 36 50 37 34 38 35 39 43 40 36 41 42 42 44 43 41 44 37 45
REMARK SMILES IDX 38 46 39 47 40 48 66 49 67 50 75 51 68 52 74 53 76 54 73 55
REMARK SMILES IDX 69 56 70 57 71 58 72 59 51 60 52 61 60 62 53 63 59 64 61 65
REMARK SMILES IDX 58 66 54 67 55 68 56 69 57 70 5 71 6 72 7 73 8 74 9 76 10 77
REMARK SMILES IDX 15 78 24 79 16 80 18 81 17 82 11 83 12 86 13 87 14 88 19 89
REMARK SMILES IDX 20 90 23 91 21 92 22 93
REMARK H PARENT 3 5 81 23 49 34 7 75 11 84 11 85
REMARK Flexibility Score: inf
ROOT
ATOM      1  C   UNL     1       4.633  -0.744   0.846  1.00  0.00     0.118 C 
ENDROOT
BRANCH   1   2
ATOM      2  N   UNL     1       3.338  -0.984   0.238  1.00  0.00    -0.352 N 
ATOM      3  O   UNL     1       1.328  -0.753  -0.654  1.00  0.00    -0.269 OA
ATOM      4  C   UNL     1       2.312  -0.179  -0.180  1.00  0.00     0.251 C 
ATOM      5  H   UNL     1       3.155  -1.940   0.093  1.00  0.00     0.163 HD
BRANCH   4   6
ATOM      6  C   UNL     1       2.288   1.302  -0.051  1.00  0.00     0.039 A 
ATOM      7  C   UNL     1       3.414   2.125  -0.002  1.00  0.00     0.014 A 
ATOM      8  C   UNL     1       1.013   1.901  -0.043  1.00  0.00     0.014 A 
ATOM      9  C   UNL     1       3.269   3.510   0.111  1.00  0.00     0.010 A 
ATOM     10  C   UNL     1       0.865   3.282   0.053  1.00  0.00     0.010 A 
ATOM     11  C   UNL     1       1.995   4.090   0.143  1.00  0.00    -0.014 A 
BRANCH  11  12
ATOM     12  C   UNL     1       1.887   5.549   0.047  1.00  0.00     0.031 A 
ATOM     13  C   UNL     1       2.354   6.118  -1.252  1.00  0.00     0.074 A 
ATOM     14  C   UNL     1       1.263   6.343   0.943  1.00  0.00     0.049 A 
ATOM     15  N   UNL     1       3.343   6.923  -1.463  1.00  0.00    -0.248 NA
ATOM     16  C   UNL     1       1.708   5.641  -2.485  1.00  0.00     0.031 C 
ATOM     17  C   UNL     1       0.490   5.934   2.115  1.00  0.00     0.029 A 
ATOM     18  N   UNL     1       1.103   7.702   0.927  1.00  0.00    -0.354 N 
ATOM     19  C   UNL     1       3.321   7.223  -2.824  1.00  0.00     0.074 A 
ATOM     20  C   UNL     1       2.408   6.284  -3.421  1.00  0.00     0.031 C 
ATOM     21  C   UNL     1      -0.227   6.989   2.567  1.00  0.00     0.029 A 
ATOM     22  C   UNL     1       0.125   8.174   1.799  1.00  0.00     0.049 A 
ATOM     23  H   UNL     1       1.634   8.295   0.348  1.00  0.00     0.167 HD
ATOM     24  C   UNL     1       3.906   8.349  -3.321  1.00  0.00     0.034 A 
ATOM     25  C   UNL     1      -0.404   9.428   1.852  1.00  0.00     0.034 A 
ATOM     26  C   UNL     1       4.824   8.925  -2.368  1.00  0.00     0.049 A 
ATOM     27  C   UNL     1       0.572  10.345   1.216  1.00  0.00     0.074 A 
ATOM     28  C   UNL     1       5.959   8.479  -1.719  1.00  0.00     0.029 A 
ATOM     29  N   UNL     1       4.426  10.049  -1.680  1.00  0.00    -0.354 N 
ATOM     30  N   UNL     1       1.748  10.605   1.718  1.00  0.00    -0.248 NA
ATOM     31  C   UNL     1       0.433  10.621  -0.206  1.00  0.00     0.031 C 
ATOM     32  C   UNL     1       5.868   9.029  -0.407  1.00  0.00     0.029 A 
ATOM     33  C   UNL     1       4.727   9.834  -0.359  1.00  0.00     0.049 A 
ATOM     34  H   UNL     1       4.006  10.853  -2.062  1.00  0.00     0.167 HD
ATOM     35  C   UNL     1       2.601  10.646   0.627  1.00  0.00     0.074 A 
ATOM     36  C   UNL     1       1.722  10.752  -0.536  1.00  0.00     0.031 C 
ATOM     37  C   UNL     1       3.920  10.311   0.746  1.00  0.00     0.034 A 
BRANCH  24  38
ATOM     38  C   UNL     1       3.420   9.136  -4.521  1.00  0.00     0.023 A 
ATOM     39  C   UNL     1       4.167  10.272  -4.896  1.00  0.00     0.031 A 
ATOM     40  C   UNL     1       2.141   9.023  -5.109  1.00  0.00     0.131 A 
ATOM     41  C   UNL     1       3.606  11.274  -5.708  1.00  0.00     0.055 A 
ATOM     42  C   UNL     1       1.616   9.986  -5.977  1.00  0.00     0.041 A 
ATOM     43  F   UNL     1       1.291   8.036  -4.806  1.00  0.00    -0.206 F 
ATOM     44  C   UNL     1       2.333  11.138  -6.253  1.00  0.00     0.022 A 
BRANCH  41  45
ATOM     45  S   UNL     1       4.495  12.845  -5.872  1.00  0.00     0.124 S 
ATOM     46  O   UNL     1       4.670  13.229  -4.476  1.00  0.00    -0.237 OA
ATOM     47  O   UNL     1       5.700  12.435  -6.585  1.00  0.00    -0.237 OA
ATOM     48  O   UNL     1       3.571  13.678  -6.639  1.00  0.00    -0.744 OA
ENDBRANCH  41  45
ENDBRANCH  24  38
BRANCH  25  49
ATOM     49  C   UNL     1      -1.816   9.813   2.144  1.00  0.00     0.023 A 
ATOM     50  C   UNL     1      -2.203  11.121   2.516  1.00  0.00     0.031 A 
ATOM     51  C   UNL     1      -2.860   8.920   1.811  1.00  0.00     0.131 A 
ATOM     52  C   UNL     1      -3.574  11.479   2.548  1.00  0.00     0.055 A 
ATOM     53  C   UNL     1      -4.209   9.277   1.849  1.00  0.00     0.041 A 
ATOM     54  F   UNL     1      -2.598   7.687   1.348  1.00  0.00    -0.206 F 
ATOM     55  C   UNL     1      -4.572  10.563   2.210  1.00  0.00     0.022 A 
BRANCH  52  56
ATOM     56  S   UNL     1      -4.084  13.188   2.935  1.00  0.00     0.124 S 
ATOM     57  O   UNL     1      -3.759  13.294   4.356  1.00  0.00    -0.237 OA
ATOM     58  O   UNL     1      -3.271  13.976   2.023  1.00  0.00    -0.237 OA
ATOM     59  O   UNL     1      -5.518  13.193   2.636  1.00  0.00    -0.744 OA
ENDBRANCH  52  56
ENDBRANCH  25  49
BRANCH  37  60
ATOM     60  C   UNL     1       4.525  10.206   2.129  1.00  0.00     0.023 A 
ATOM     61  C   UNL     1       4.054   9.358   3.157  1.00  0.00     0.031 A 
ATOM     62  C   UNL     1       5.718  10.914   2.362  1.00  0.00     0.131 A 
ATOM     63  C   UNL     1       4.771   9.254   4.365  1.00  0.00     0.055 A 
ATOM     64  C   UNL     1       6.435  10.791   3.550  1.00  0.00     0.041 A 
ATOM     65  F   UNL     1       6.233  11.713   1.412  1.00  0.00    -0.206 F 
ATOM     66  C   UNL     1       5.960   9.964   4.560  1.00  0.00     0.022 A 
BRANCH  63  67
ATOM     67  S   UNL     1       4.165   8.191   5.716  1.00  0.00     0.124 S 
ATOM     68  O   UNL     1       2.758   8.554   5.832  1.00  0.00    -0.237 OA
ATOM     69  O   UNL     1       4.442   6.849   5.210  1.00  0.00    -0.237 OA
ATOM     70  O   UNL     1       4.992   8.589   6.857  1.00  0.00    -0.744 OA
ENDBRANCH  63  67
ENDBRANCH  37  60
ENDBRANCH  11  12
ENDBRANCH   4   6
ENDBRANCH   1   2
BRANCH   1  71
ATOM     71  C   UNL     1       4.570  -0.302   2.307  1.00  0.00     0.042 C 
BRANCH  71  72
ATOM     72  C   UNL     1       3.938  -1.349   3.224  1.00  0.00     0.118 C 
BRANCH  72  73
ATOM     73  N   UNL     1       4.790  -2.510   3.398  1.00  0.00    -0.351 N 
ATOM     74  C   UNL     1       5.737  -2.853   4.310  1.00  0.00     0.281 C 
ATOM     75  H   UNL     1       4.654  -3.197   2.707  1.00  0.00     0.163 HD
ATOM     76  O   UNL     1       6.181  -4.002   4.160  1.00  0.00    -0.268 OA
BRANCH  74  77
ATOM     77  C   UNL     1       6.160  -1.961   5.544  1.00  0.00     0.177 C 
ATOM     78  C   UNL     1       6.161  -0.426   5.392  1.00  0.00     0.079 C 
ATOM     79  C   UNL     1       5.131  -2.348   6.643  1.00  0.00     0.106 C 
ATOM     80  C   UNL     1       6.417   0.312   6.710  1.00  0.00     0.009 C 
ATOM     81  C   UNL     1       5.250  -1.575   7.967  1.00  0.00     0.116 C 
ATOM     82  C   UNL     1       5.354  -0.056   7.737  1.00  0.00     0.028 C 
BRANCH  77  83
ATOM     83  N   UNL     1       7.514  -2.396   6.003  1.00  0.00    -0.331 N 
ATOM     84  H   UNL     1       7.399  -3.320   6.419  1.00  0.00     0.347 HD
ATOM     85  H   UNL     1       7.805  -1.632   6.614  1.00  0.00     0.347 HD
BRANCH  83  86
ATOM     86  C   UNL     1       8.631  -2.499   5.048  1.00  0.00     0.183 C 
ATOM     87  C   UNL     1       8.641  -2.009   3.628  1.00  0.00     0.071 C 
ATOM     88  C   UNL     1       9.418  -1.269   4.673  1.00  0.00     0.071 C 
ENDBRANCH  83  86
ENDBRANCH  77  83
BRANCH  81  89
ATOM     89  N   UNL     1       4.148  -1.937   8.861  1.00  0.00    -0.250 N 
ATOM     90  C   UNL     1       3.916  -3.149   9.442  1.00  0.00     0.220 A 
ATOM     91  N   UNL     1       3.180  -1.065   9.195  1.00  0.00    -0.160 NA
ATOM     92  N   UNL     1       2.821  -3.095  10.165  1.00  0.00    -0.224 NA
ATOM     93  C   UNL     1       2.406  -1.805   9.988  1.00  0.00     0.246 A 
ENDBRANCH  81  89
ENDBRANCH  74  77
ENDBRANCH  72  73
ENDBRANCH  71  72
ENDBRANCH   1  71
TORSDOF 16
