REMARK SMILES Cc1cc(NC(=O)[C@H]2[C@@H](C(=O)NCCCNC(=O)c3ccc(-c4c5nc(c(-c6cc(S(=O)(=O)[O-])ccc6F)c6ccc([nH]6)c(-c6cc(S(=O)(=O)[O-])ccc6F)c6nc(c(-c7cc(S(=O)(=O)[O-])ccc7F)c7ccc4[nH]7)C=C6)C=C5)cc3)C2(C)C)n(-c2ccc(F)cc2)n1
REMARK SMILES IDX 14 1 13 2 12 3 10 4 11 5 9 7 8 8 82 9 83 10 84 11 6 12 5 13
REMARK SMILES IDX 7 15 4 16 1 17 2 18 3 19 93 20 85 21 86 22 87 23 92 24 88 25
REMARK SMILES IDX 91 26 89 27 90 28 15 29 16 30 17 31 18 33 19 34 20 35 81 36
REMARK SMILES IDX 21 37 80 38 22 39 23 40 24 41 74 42 25 43 79 44 73 45 75 46
REMARK SMILES IDX 26 47 78 48 72 49 71 50 27 52 59 53 39 54 58 55 40 56 43 57
REMARK SMILES IDX 57 58 76 59 41 60 42 61 56 63 77 64 44 65 28 66 29 67 37 68
REMARK SMILES IDX 30 69 36 70 38 71 35 72 31 73 32 74 33 75 34 76 60 77 61 78
REMARK SMILES IDX 69 79 62 80 68 81 70 82 67 83 63 84 64 85 65 86 66 87 45 88
REMARK SMILES IDX 46 89 54 90 47 91 53 92 55 93 52 94 48 95 49 96 50 97 51 98
REMARK H PARENT 12 6 5 14 16 32 75 51 43 62
REMARK Flexibility Score: inf
ROOT
ATOM      1  C   UNL     1       0.578   1.778   3.305  1.00  0.00     0.042 C 
ENDROOT
BRANCH   1   2
ATOM      2  C   UNL     1       0.274   3.200   3.762  1.00  0.00     0.117 C 
BRANCH   2   3
ATOM      3  N   UNL     1       1.396   4.001   4.176  1.00  0.00    -0.356 N 
ATOM      4  C   UNL     1       1.909   5.204   3.765  1.00  0.00     0.224 C 
ATOM      5  O   UNL     1       2.780   5.693   4.482  1.00  0.00    -0.275 OA
ATOM      6  H   UNL     1       1.906   3.597   4.915  1.00  0.00     0.163 HD
BRANCH   4   7
ATOM      7  C   UNL     1       1.573   5.975   2.528  1.00  0.00     0.098 C 
ATOM      8  C   UNL     1       0.456   5.950   1.508  1.00  0.00     0.098 C 
ATOM      9  C   UNL     1       1.821   5.376   1.148  1.00  0.00    -0.011 C 
ATOM     10  C   UNL     1       2.155   3.915   1.046  1.00  0.00     0.013 C 
ATOM     11  C   UNL     1       2.673   6.209   0.204  1.00  0.00     0.013 C 
BRANCH   8  12
ATOM     12  C   UNL     1      -0.872   5.448   1.900  1.00  0.00     0.230 C 
ATOM     13  N   UNL     1      -1.601   4.383   1.269  1.00  0.00    -0.310 N 
ATOM     14  H   UNL     1      -2.499   4.199   1.628  1.00  0.00     0.171 HD
ATOM     15  O   UNL     1      -1.470   5.965   2.826  1.00  0.00    -0.274 OA
BRANCH  13  16
ATOM     16  C   UNL     1      -1.189   3.587   0.217  1.00  0.00     0.136 A 
ATOM     17  C   UNL     1       0.251   0.424  -0.841  1.00  0.00     0.069 C 
ATOM     18  C   UNL     1      -0.365   1.772  -0.710  1.00  0.00     0.062 A 
ATOM     19  C   UNL     1      -1.282   2.213   0.268  1.00  0.00     0.072 A 
ATOM     20  N   UNL     1       0.024   2.776  -1.503  1.00  0.00    -0.171 NA
ATOM     21  N   UNL     1      -0.579   3.884  -0.994  1.00  0.00    -0.217 N 
BRANCH  21  22
ATOM     22  C   UNL     1      -0.496   5.135  -1.661  1.00  0.00     0.067 A 
ATOM     23  C   UNL     1      -1.213   6.252  -1.206  1.00  0.00     0.031 A 
ATOM     24  C   UNL     1       0.358   5.264  -2.766  1.00  0.00     0.031 A 
ATOM     25  C   UNL     1      -0.941   7.514  -1.734  1.00  0.00     0.041 A 
ATOM     26  C   UNL     1       0.594   6.524  -3.317  1.00  0.00     0.041 A 
ATOM     27  C   UNL     1      -0.026   7.641  -2.770  1.00  0.00     0.123 A 
ATOM     28  F   UNL     1       0.262   8.858  -3.244  1.00  0.00    -0.207 F 
ENDBRANCH  21  22
ENDBRANCH  13  16
ENDBRANCH   8  12
ENDBRANCH   4   7
ENDBRANCH   2   3
ENDBRANCH   1   2
BRANCH   1  29
ATOM     29  C   UNL     1       0.741   0.796   4.433  1.00  0.00     0.118 C 
BRANCH  29  30
ATOM     30  N   UNL     1      -0.486   0.611   5.202  1.00  0.00    -0.352 N 
ATOM     31  C   UNL     1      -0.604  -0.076   6.402  1.00  0.00     0.251 C 
ATOM     32  H   UNL     1      -1.307   1.011   4.834  1.00  0.00     0.163 HD
ATOM     33  O   UNL     1      -1.683  -0.439   6.814  1.00  0.00    -0.269 OA
BRANCH  31  34
ATOM     34  C   UNL     1       0.660  -0.373   7.103  1.00  0.00     0.039 A 
ATOM     35  C   UNL     1       1.071  -1.694   7.260  1.00  0.00     0.014 A 
ATOM     36  C   UNL     1       1.532   0.692   7.312  1.00  0.00     0.014 A 
ATOM     37  C   UNL     1       2.419  -1.945   7.507  1.00  0.00     0.010 A 
ATOM     38  C   UNL     1       2.882   0.427   7.402  1.00  0.00     0.010 A 
ATOM     39  C   UNL     1       3.344  -0.886   7.520  1.00  0.00    -0.014 A 
BRANCH  39  40
ATOM     40  C   UNL     1       4.786  -1.168   7.540  1.00  0.00     0.031 A 
ATOM     41  C   UNL     1       5.276  -2.285   6.680  1.00  0.00     0.074 A 
ATOM     42  C   UNL     1       5.715  -0.401   8.149  1.00  0.00     0.049 A 
ATOM     43  N   UNL     1       5.707  -3.439   7.074  1.00  0.00    -0.248 NA
ATOM     44  C   UNL     1       5.206  -2.155   5.219  1.00  0.00     0.031 C 
ATOM     45  C   UNL     1       5.535   0.878   8.842  1.00  0.00     0.029 A 
ATOM     46  N   UNL     1       7.068  -0.576   8.182  1.00  0.00    -0.354 N 
ATOM     47  C   UNL     1       6.178  -4.100   5.942  1.00  0.00     0.074 A 
ATOM     48  C   UNL     1       5.687  -3.337   4.823  1.00  0.00     0.031 C 
ATOM     49  C   UNL     1       6.732   1.478   9.002  1.00  0.00     0.029 A 
ATOM     50  C   UNL     1       7.767   0.541   8.612  1.00  0.00     0.049 A 
ATOM     51  H   UNL     1       7.507  -1.418   7.925  1.00  0.00     0.167 HD
ATOM     52  C   UNL     1       7.095  -5.108   6.041  1.00  0.00     0.034 A 
ATOM     53  C   UNL     1       9.109   0.704   8.686  1.00  0.00     0.034 A 
ATOM     54  C   UNL     1       7.224  -5.556   7.413  1.00  0.00     0.049 A 
ATOM     55  C   UNL     1       9.693  -0.645   8.863  1.00  0.00     0.074 A 
ATOM     56  C   UNL     1       6.351  -6.050   8.364  1.00  0.00     0.029 A 
ATOM     57  N   UNL     1       8.349  -5.183   8.116  1.00  0.00    -0.354 N 
ATOM     58  N   UNL     1       9.466  -1.386   9.914  1.00  0.00    -0.248 NA
ATOM     59  C   UNL     1      10.184  -1.365   7.700  1.00  0.00     0.031 C 
ATOM     60  C   UNL     1       6.779  -5.463   9.593  1.00  0.00     0.029 A 
ATOM     61  C   UNL     1       7.926  -4.709   9.332  1.00  0.00     0.049 A 
ATOM     62  H   UNL     1       9.281  -5.244   7.804  1.00  0.00     0.167 HD
ATOM     63  C   UNL     1       9.349  -2.676   9.425  1.00  0.00     0.074 A 
ATOM     64  C   UNL     1       9.937  -2.620   8.089  1.00  0.00     0.031 C 
ATOM     65  C   UNL     1       8.537  -3.594  10.032  1.00  0.00     0.034 A 
BRANCH  52  66
ATOM     66  C   UNL     1       8.126  -5.496   4.995  1.00  0.00     0.023 A 
ATOM     67  C   UNL     1       9.002  -6.556   5.316  1.00  0.00     0.031 A 
ATOM     68  C   UNL     1       8.484  -4.738   3.861  1.00  0.00     0.131 A 
ATOM     69  C   UNL     1      10.210  -6.742   4.621  1.00  0.00     0.055 A 
ATOM     70  C   UNL     1       9.651  -4.977   3.123  1.00  0.00     0.041 A 
ATOM     71  F   UNL     1       7.784  -3.676   3.450  1.00  0.00    -0.206 F 
ATOM     72  C   UNL     1      10.542  -5.958   3.523  1.00  0.00     0.022 A 
BRANCH  69  73
ATOM     73  S   UNL     1      11.431  -7.889   5.316  1.00  0.00     0.124 S 
ATOM     74  O   UNL     1      11.525  -7.414   6.692  1.00  0.00    -0.237 OA
ATOM     75  O   UNL     1      10.775  -9.177   5.120  1.00  0.00    -0.237 OA
ATOM     76  O   UNL     1      12.616  -7.659   4.493  1.00  0.00    -0.744 OA
ENDBRANCH  69  73
ENDBRANCH  52  66
BRANCH  53  77
ATOM     77  C   UNL     1       9.868   1.948   8.428  1.00  0.00     0.023 A 
ATOM     78  C   UNL     1      11.199   2.116   8.847  1.00  0.00     0.031 A 
ATOM     79  C   UNL     1       9.348   2.927   7.547  1.00  0.00     0.131 A 
ATOM     80  C   UNL     1      11.953   3.218   8.389  1.00  0.00     0.055 A 
ATOM     81  C   UNL     1      10.091   4.025   7.111  1.00  0.00     0.041 A 
ATOM     82  F   UNL     1       8.124   2.802   7.011  1.00  0.00    -0.206 F 
ATOM     83  C   UNL     1      11.405   4.169   7.523  1.00  0.00     0.022 A 
BRANCH  80  84
ATOM     84  S   UNL     1      13.717   3.353   8.809  1.00  0.00     0.124 S 
ATOM     85  O   UNL     1      13.668   3.857  10.176  1.00  0.00    -0.237 OA
ATOM     86  O   UNL     1      14.188   1.983   8.638  1.00  0.00    -0.237 OA
ATOM     87  O   UNL     1      14.226   4.301   7.817  1.00  0.00    -0.744 OA
ENDBRANCH  80  84
ENDBRANCH  53  77
BRANCH  65  88
ATOM     88  C   UNL     1       8.037  -3.309  11.435  1.00  0.00     0.023 A 
ATOM     89  C   UNL     1       7.306  -2.160  11.809  1.00  0.00     0.031 A 
ATOM     90  C   UNL     1       8.207  -4.314  12.405  1.00  0.00     0.131 A 
ATOM     91  C   UNL     1       6.792  -2.042  13.115  1.00  0.00     0.055 A 
ATOM     92  C   UNL     1       7.680  -4.203  13.691  1.00  0.00     0.041 A 
ATOM     93  F   UNL     1       8.864  -5.447  12.104  1.00  0.00    -0.206 F 
ATOM     94  C   UNL     1       6.975  -3.062  14.054  1.00  0.00     0.022 A 
BRANCH  91  95
ATOM     95  S   UNL     1       5.880  -0.546  13.616  1.00  0.00     0.124 S 
ATOM     96  O   UNL     1       6.724   0.546  13.145  1.00  0.00    -0.237 OA
ATOM     97  O   UNL     1       4.603  -0.707  12.925  1.00  0.00    -0.237 OA
ATOM     98  O   UNL     1       5.801  -0.669  15.073  1.00  0.00    -0.744 OA
ENDBRANCH  91  95
ENDBRANCH  65  88
ENDBRANCH  39  40
ENDBRANCH  31  34
ENDBRANCH  29  30
ENDBRANCH   1  29
TORSDOF 16
