REMARK SMILES C[C@@H](C(=O)[C@H](C)[C@@H](C)C(=O)NCCCNC(=O)c1ccc(-c2c3nc(c(-c4cc(S(=O)(=O)[O-])ccc4F)c4ccc([nH]4)c(-c4cc(S(=O)(=O)[O-])ccc4F)c4nc(c(-c5cc(S(=O)(=O)[O-])ccc5F)c5ccc2[nH]5)C=C4)C=C3)cc1)c1ccccc1
REMARK SMILES IDX 12 1 11 2 9 3 10 4 7 6 8 7 5 8 6 9 3 10 4 11 2 12 1 13 81 14
REMARK SMILES IDX 82 15 86 16 83 17 85 18 84 19 13 20 14 21 15 22 16 23 17 25
REMARK SMILES IDX 18 26 19 27 80 28 20 29 79 30 21 31 22 32 23 33 73 34 24 35
REMARK SMILES IDX 78 36 72 37 74 38 25 39 77 40 71 41 70 42 26 44 58 45 38 46
REMARK SMILES IDX 57 47 39 48 42 49 56 50 75 51 40 52 41 53 55 55 76 56 43 57
REMARK SMILES IDX 27 58 28 59 36 60 29 61 35 62 37 63 34 64 30 65 31 66 32 67
REMARK SMILES IDX 33 68 59 69 60 70 68 71 61 72 67 73 69 74 66 75 62 76 63 77
REMARK SMILES IDX 64 78 65 79 44 80 45 81 53 82 46 83 52 84 54 85 51 86 47 87
REMARK SMILES IDX 48 88 49 89 50 90
REMARK H PARENT 11 5 15 24 74 43 42 54
REMARK Flexibility Score: inf
ROOT
ATOM      1  C   UNL     1       4.227   2.575  -3.885  1.00  0.00     0.117 C 
ENDROOT
BRANCH   1   2
ATOM      2  N   UNL     1       4.965   1.862  -2.860  1.00  0.00    -0.356 N 
ATOM      3  C   UNL     1       4.556   1.158  -1.773  1.00  0.00     0.223 C 
ATOM      4  O   UNL     1       5.418   0.550  -1.130  1.00  0.00    -0.275 OA
ATOM      5  H   UNL     1       5.942   1.895  -2.973  1.00  0.00     0.163 HD
BRANCH   3   6
ATOM      6  C   UNL     1       3.078   0.989  -1.415  1.00  0.00     0.085 C 
ATOM      7  C   UNL     1       2.468   0.045  -2.466  1.00  0.00     0.019 C 
BRANCH   6   8
ATOM      8  C   UNL     1       2.280   2.300  -1.138  1.00  0.00     0.066 C 
ATOM      9  C   UNL     1       0.799   1.998  -0.860  1.00  0.00     0.017 C 
BRANCH   8  10
ATOM     10  C   UNL     1       2.968   3.157  -0.031  1.00  0.00     0.143 C 
ATOM     11  O   UNL     1       4.201   3.202   0.016  1.00  0.00    -0.299 OA
BRANCH  10  12
ATOM     12  C   UNL     1       2.114   4.043   0.908  1.00  0.00     0.083 C 
ATOM     13  C   UNL     1       1.459   5.149   0.073  1.00  0.00     0.021 C 
BRANCH  12  14
ATOM     14  C   UNL     1       2.867   4.569   2.143  1.00  0.00    -0.038 A 
ATOM     15  C   UNL     1       3.603   3.682   2.951  1.00  0.00     0.004 A 
ATOM     16  C   UNL     1       2.796   5.912   2.559  1.00  0.00     0.004 A 
ATOM     17  C   UNL     1       4.259   4.125   4.106  1.00  0.00     0.000 A 
ATOM     18  C   UNL     1       3.445   6.352   3.717  1.00  0.00     0.000 A 
ATOM     19  C   UNL     1       4.178   5.459   4.491  1.00  0.00     0.000 A 
ENDBRANCH  12  14
ENDBRANCH  10  12
ENDBRANCH   8  10
ENDBRANCH   6   8
ENDBRANCH   3   6
ENDBRANCH   1   2
BRANCH   1  20
ATOM     20  C   UNL     1       4.424   4.083  -3.800  1.00  0.00     0.042 C 
BRANCH  20  21
ATOM     21  C   UNL     1       5.847   4.535  -4.108  1.00  0.00     0.118 C 
BRANCH  21  22
ATOM     22  N   UNL     1       6.254   4.198  -5.467  1.00  0.00    -0.352 N 
ATOM     23  C   UNL     1       6.574   5.006  -6.527  1.00  0.00     0.251 C 
ATOM     24  H   UNL     1       6.309   3.233  -5.654  1.00  0.00     0.163 HD
ATOM     25  O   UNL     1       6.659   4.505  -7.652  1.00  0.00    -0.269 OA
BRANCH  23  26
ATOM     26  C   UNL     1       6.797   6.456  -6.343  1.00  0.00     0.039 A 
ATOM     27  C   UNL     1       6.364   7.340  -7.336  1.00  0.00     0.014 A 
ATOM     28  C   UNL     1       7.468   6.949  -5.222  1.00  0.00     0.014 A 
ATOM     29  C   UNL     1       6.552   8.715  -7.175  1.00  0.00     0.010 A 
ATOM     30  C   UNL     1       7.572   8.323  -5.018  1.00  0.00     0.010 A 
ATOM     31  C   UNL     1       7.128   9.222  -5.999  1.00  0.00    -0.014 A 
BRANCH  31  32
ATOM     32  C   UNL     1       7.302  10.684  -5.793  1.00  0.00     0.031 A 
ATOM     33  C   UNL     1       8.684  11.264  -5.638  1.00  0.00     0.074 A 
ATOM     34  C   UNL     1       6.219  11.480  -5.694  1.00  0.00     0.049 A 
ATOM     35  N   UNL     1       9.042  12.498  -5.390  1.00  0.00    -0.248 NA
ATOM     36  C   UNL     1       9.811  10.325  -5.747  1.00  0.00     0.031 C 
ATOM     37  C   UNL     1       4.828  11.028  -5.787  1.00  0.00     0.029 A 
ATOM     38  N   UNL     1       6.112  12.833  -5.491  1.00  0.00    -0.354 N 
ATOM     39  C   UNL     1      10.430  12.480  -5.299  1.00  0.00     0.074 A 
ATOM     40  C   UNL     1      10.841  11.101  -5.449  1.00  0.00     0.031 C 
ATOM     41  C   UNL     1       4.013  12.088  -5.672  1.00  0.00     0.029 A 
ATOM     42  C   UNL     1       4.814  13.287  -5.448  1.00  0.00     0.049 A 
ATOM     43  H   UNL     1       6.893  13.424  -5.385  1.00  0.00     0.167 HD
ATOM     44  C   UNL     1      11.285  13.520  -5.132  1.00  0.00     0.034 A 
ATOM     45  C   UNL     1       4.324  14.525  -5.240  1.00  0.00     0.034 A 
ATOM     46  C   UNL     1      10.857  14.892  -4.997  1.00  0.00     0.049 A 
ATOM     47  C   UNL     1       5.293  15.663  -5.031  1.00  0.00     0.074 A 
ATOM     48  C   UNL     1      11.636  16.029  -4.877  1.00  0.00     0.029 A 
ATOM     49  N   UNL     1       9.534  15.312  -4.955  1.00  0.00    -0.354 N 
ATOM     50  N   UNL     1       6.606  15.636  -5.000  1.00  0.00    -0.248 NA
ATOM     51  C   UNL     1       4.713  16.998  -4.840  1.00  0.00     0.031 C 
ATOM     52  C   UNL     1      10.787  17.125  -4.689  1.00  0.00     0.029 A 
ATOM     53  C   UNL     1       9.476  16.687  -4.778  1.00  0.00     0.049 A 
ATOM     54  H   UNL     1       8.751  14.721  -5.039  1.00  0.00     0.167 HD
ATOM     55  C   UNL     1       7.008  16.958  -4.822  1.00  0.00     0.074 A 
ATOM     56  C   UNL     1       5.799  17.754  -4.768  1.00  0.00     0.031 C 
ATOM     57  C   UNL     1       8.262  17.468  -4.717  1.00  0.00     0.034 A 
BRANCH  44  58
ATOM     58  C   UNL     1      12.761  13.204  -5.064  1.00  0.00     0.023 A 
ATOM     59  C   UNL     1      13.442  12.612  -6.143  1.00  0.00     0.031 A 
ATOM     60  C   UNL     1      13.495  13.473  -3.895  1.00  0.00     0.131 A 
ATOM     61  C   UNL     1      14.786  12.234  -6.004  1.00  0.00     0.055 A 
ATOM     62  C   UNL     1      14.856  13.174  -3.793  1.00  0.00     0.041 A 
ATOM     63  F   UNL     1      12.899  14.018  -2.823  1.00  0.00    -0.206 F 
ATOM     64  C   UNL     1      15.505  12.535  -4.846  1.00  0.00     0.022 A 
BRANCH  61  65
ATOM     65  S   UNL     1      15.534  11.207  -7.298  1.00  0.00     0.124 S 
ATOM     66  O   UNL     1      14.652  10.042  -7.298  1.00  0.00    -0.237 OA
ATOM     67  O   UNL     1      15.454  12.069  -8.471  1.00  0.00    -0.237 OA
ATOM     68  O   UNL     1      16.885  10.956  -6.799  1.00  0.00    -0.744 OA
ENDBRANCH  61  65
ENDBRANCH  44  58
BRANCH  45  69
ATOM     69  C   UNL     1       2.852  14.763  -5.210  1.00  0.00     0.023 A 
ATOM     70  C   UNL     1       2.231  15.584  -6.165  1.00  0.00     0.031 A 
ATOM     71  C   UNL     1       2.048  14.207  -4.198  1.00  0.00     0.131 A 
ATOM     72  C   UNL     1       0.861  15.869  -6.059  1.00  0.00     0.055 A 
ATOM     73  C   UNL     1       0.674  14.447  -4.131  1.00  0.00     0.041 A 
ATOM     74  F   UNL     1       2.588  13.410  -3.262  1.00  0.00    -0.206 F 
ATOM     75  C   UNL     1       0.075  15.294  -5.057  1.00  0.00     0.022 A 
BRANCH  72  76
ATOM     76  S   UNL     1       0.135  17.080  -7.198  1.00  0.00     0.124 S 
ATOM     77  O   UNL     1       0.950  18.260  -6.936  1.00  0.00    -0.237 OA
ATOM     78  O   UNL     1       0.334  16.435  -8.492  1.00  0.00    -0.237 OA
ATOM     79  O   UNL     1      -1.256  17.170  -6.756  1.00  0.00    -0.744 OA
ENDBRANCH  72  76
ENDBRANCH  45  69
BRANCH  57  80
ATOM     80  C   UNL     1       8.385  18.967  -4.583  1.00  0.00     0.023 A 
ATOM     81  C   UNL     1       7.912  19.653  -3.451  1.00  0.00     0.031 A 
ATOM     82  C   UNL     1       8.978  19.720  -5.612  1.00  0.00     0.131 A 
ATOM     83  C   UNL     1       7.985  21.054  -3.402  1.00  0.00     0.055 A 
ATOM     84  C   UNL     1       9.109  21.107  -5.528  1.00  0.00     0.041 A 
ATOM     85  F   UNL     1       9.444  19.119  -6.719  1.00  0.00    -0.206 F 
ATOM     86  C   UNL     1       8.598  21.783  -4.424  1.00  0.00     0.022 A 
BRANCH  83  87
ATOM     87  S   UNL     1       7.178  21.920  -2.028  1.00  0.00     0.124 S 
ATOM     88  O   UNL     1       5.796  21.467  -2.154  1.00  0.00    -0.237 OA
ATOM     89  O   UNL     1       7.910  21.419  -0.869  1.00  0.00    -0.237 OA
ATOM     90  O   UNL     1       7.398  23.332  -2.336  1.00  0.00    -0.744 OA
ENDBRANCH  83  87
ENDBRANCH  57  80
ENDBRANCH  31  32
ENDBRANCH  23  26
ENDBRANCH  21  22
ENDBRANCH  20  21
ENDBRANCH   1  20
TORSDOF 17
