REMARK SMILES COC(=O)C[C@@H](NC(=O)c1ccccc1C(=O)NCCCNC(=O)c1ccc(-c2c3nc(c(-c4cc(S(=O)(=O)[O-])ccc4F)c4ccc([nH]4)c(-c4cc(S(=O)(=O)[O-])ccc4F)c4nc(c(-c5cc(S(=O)(=O)[O-])ccc5F)c5ccc2[nH]5)C=C4)C=C3)cc1)c1cccc(C)c1C
REMARK SMILES IDX 19 1 18 2 16 3 17 4 15 6 10 7 11 8 12 9 14 10 13 11 8 12
REMARK SMILES IDX 7 13 9 15 6 16 5 17 3 18 4 19 2 20 1 21 88 22 89 23 94 24
REMARK SMILES IDX 90 25 92 26 95 27 91 28 93 29 20 30 21 31 22 32 23 33 24 35
REMARK SMILES IDX 25 36 26 37 87 38 27 39 86 40 28 41 29 42 30 43 80 44 31 45
REMARK SMILES IDX 85 46 79 47 81 48 32 49 84 50 78 51 77 52 33 54 65 55 45 56
REMARK SMILES IDX 64 57 46 58 49 59 63 60 82 61 47 62 48 63 62 65 83 66 50 67
REMARK SMILES IDX 34 68 35 69 43 70 36 71 42 72 44 73 41 74 37 75 38 76 39 77
REMARK SMILES IDX 40 78 66 79 67 80 75 81 68 82 74 83 76 84 73 85 69 86 70 87
REMARK SMILES IDX 71 88 72 89 51 90 52 91 60 92 53 93 59 94 61 95 58 96 54 97
REMARK SMILES IDX 55 98 56 99 57 100
REMARK H PARENT 18 5 7 14 22 34 81 53 49 64
REMARK Flexibility Score: inf
ROOT
ATOM      1  C   UNL     1       1.299   3.804  -3.050  1.00  0.00     0.118 C 
ENDROOT
BRANCH   1   2
ATOM      2  N   UNL     1       1.974   4.966  -2.499  1.00  0.00    -0.352 N 
ATOM      3  C   UNL     1       1.541   6.197  -2.116  1.00  0.00     0.252 C 
ATOM      4  O   UNL     1       2.397   6.965  -1.667  1.00  0.00    -0.269 OA
ATOM      5  H   UNL     1       2.942   4.836  -2.378  1.00  0.00     0.163 HD
BRANCH   3   6
ATOM      6  C   UNL     1       0.151   6.686  -2.250  1.00  0.00     0.052 A 
ATOM      7  C   UNL     1      -1.031   5.983  -2.008  1.00  0.00     0.052 A 
ATOM      8  C   UNL     1      -2.272   6.627  -2.205  1.00  0.00     0.014 A 
ATOM      9  C   UNL     1      -2.344   7.972  -2.563  1.00  0.00     0.001 A 
ATOM     10  C   UNL     1       0.058   8.054  -2.599  1.00  0.00     0.014 A 
ATOM     11  C   UNL     1      -1.174   8.692  -2.747  1.00  0.00     0.001 A 
BRANCH   7  12
ATOM     12  C   UNL     1      -1.160   4.580  -1.580  1.00  0.00     0.252 C 
ATOM     13  N   UNL     1      -0.696   4.102  -0.384  1.00  0.00    -0.345 N 
ATOM     14  H   UNL     1      -0.992   3.185  -0.183  1.00  0.00     0.164 HD
ATOM     15  O   UNL     1      -1.799   3.814  -2.303  1.00  0.00    -0.269 OA
BRANCH  13  16
ATOM     16  C   UNL     1       0.156   4.686   0.656  1.00  0.00     0.124 C 
BRANCH  16  17
ATOM     17  C   UNL     1       0.263   3.793   1.896  1.00  0.00     0.152 C 
BRANCH  17  18
ATOM     18  C   UNL     1       0.911   2.479   1.548  1.00  0.00     0.307 C 
ATOM     19  O   UNL     1       2.107   2.277   1.598  1.00  0.00    -0.252 OA
BRANCH  18  20
ATOM     20  O   UNL     1      -0.047   1.598   1.141  1.00  0.00    -0.469 OA
ATOM     21  C   UNL     1       0.394   0.274   0.812  1.00  0.00     0.282 C 
ENDBRANCH  18  20
ENDBRANCH  17  18
ENDBRANCH  16  17
BRANCH  16  22
ATOM     22  C   UNL     1      -0.280   6.085   1.067  1.00  0.00    -0.022 A 
ATOM     23  C   UNL     1       0.735   7.063   1.111  1.00  0.00     0.006 A 
ATOM     24  C   UNL     1      -1.619   6.465   1.340  1.00  0.00    -0.043 A 
ATOM     25  C   UNL     1       0.439   8.403   1.314  1.00  0.00     0.001 A 
ATOM     26  C   UNL     1      -1.913   7.838   1.533  1.00  0.00    -0.048 A 
ATOM     27  C   UNL     1      -2.752   5.468   1.392  1.00  0.00     0.045 C 
ATOM     28  C   UNL     1      -0.880   8.790   1.498  1.00  0.00     0.004 A 
ATOM     29  C   UNL     1      -3.323   8.353   1.658  1.00  0.00     0.044 C 
ENDBRANCH  16  22
ENDBRANCH  13  16
ENDBRANCH   7  12
ENDBRANCH   3   6
ENDBRANCH   1   2
BRANCH   1  30
ATOM     30  C   UNL     1       2.237   2.883  -3.813  1.00  0.00     0.042 C 
BRANCH  30  31
ATOM     31  C   UNL     1       3.417   2.389  -2.979  1.00  0.00     0.118 C 
BRANCH  31  32
ATOM     32  N   UNL     1       3.074   1.417  -1.944  1.00  0.00    -0.352 N 
ATOM     33  C   UNL     1       3.072   0.039  -1.980  1.00  0.00     0.251 C 
ATOM     34  H   UNL     1       2.799   1.808  -1.084  1.00  0.00     0.163 HD
ATOM     35  O   UNL     1       2.677  -0.613  -1.022  1.00  0.00    -0.269 OA
BRANCH  33  36
ATOM     36  C   UNL     1       3.491  -0.658  -3.210  1.00  0.00     0.039 A 
ATOM     37  C   UNL     1       2.676  -1.663  -3.736  1.00  0.00     0.014 A 
ATOM     38  C   UNL     1       4.655  -0.278  -3.869  1.00  0.00     0.014 A 
ATOM     39  C   UNL     1       2.966  -2.191  -4.995  1.00  0.00     0.010 A 
ATOM     40  C   UNL     1       4.859  -0.695  -5.173  1.00  0.00     0.010 A 
ATOM     41  C   UNL     1       4.016  -1.654  -5.755  1.00  0.00    -0.014 A 
BRANCH  41  42
ATOM     42  C   UNL     1       4.288  -2.070  -7.155  1.00  0.00     0.031 A 
ATOM     43  C   UNL     1       5.663  -2.566  -7.510  1.00  0.00     0.074 A 
ATOM     44  C   UNL     1       3.360  -1.868  -8.111  1.00  0.00     0.049 A 
ATOM     45  N   UNL     1       6.218  -2.713  -8.683  1.00  0.00    -0.248 NA
ATOM     46  C   UNL     1       6.559  -2.862  -6.379  1.00  0.00     0.031 C 
ATOM     47  C   UNL     1       2.008  -1.345  -7.891  1.00  0.00     0.029 A 
ATOM     48  N   UNL     1       3.420  -2.057  -9.468  1.00  0.00    -0.354 N 
ATOM     49  C   UNL     1       7.543  -3.054  -8.430  1.00  0.00     0.074 A 
ATOM     50  C   UNL     1       7.718  -3.024  -6.994  1.00  0.00     0.031 C 
ATOM     51  C   UNL     1       1.361  -1.284  -9.066  1.00  0.00     0.029 A 
ATOM     52  C   UNL     1       2.267  -1.700 -10.129  1.00  0.00     0.049 A 
ATOM     53  H   UNL     1       4.214  -2.415  -9.927  1.00  0.00     0.167 HD
ATOM     54  C   UNL     1       8.516  -3.383  -9.316  1.00  0.00     0.034 A 
ATOM     55  C   UNL     1       1.984  -1.690 -11.446  1.00  0.00     0.034 A 
ATOM     56  C   UNL     1       8.288  -3.468 -10.737  1.00  0.00     0.049 A 
ATOM     57  C   UNL     1       3.062  -2.111 -12.411  1.00  0.00     0.074 A 
ATOM     58  C   UNL     1       9.162  -3.865 -11.732  1.00  0.00     0.029 A 
ATOM     59  N   UNL     1       7.083  -3.164 -11.362  1.00  0.00    -0.354 N 
ATOM     60  N   UNL     1       4.306  -2.452 -12.160  1.00  0.00    -0.248 NA
ATOM     61  C   UNL     1       2.700  -2.149 -13.833  1.00  0.00     0.031 C 
ATOM     62  C   UNL     1       8.500  -3.761 -12.961  1.00  0.00     0.029 A 
ATOM     63  C   UNL     1       7.195  -3.355 -12.729  1.00  0.00     0.049 A 
ATOM     64  H   UNL     1       6.270  -2.857 -10.900  1.00  0.00     0.167 HD
ATOM     65  C   UNL     1       4.868  -2.767 -13.393  1.00  0.00     0.074 A 
ATOM     66  C   UNL     1       3.823  -2.590 -14.382  1.00  0.00     0.031 C 
ATOM     67  C   UNL     1       6.131  -3.167 -13.686  1.00  0.00     0.034 A 
BRANCH  54  68
ATOM     68  C   UNL     1       9.896  -3.653  -8.763  1.00  0.00     0.023 A 
ATOM     69  C   UNL     1      10.132  -4.685  -7.837  1.00  0.00     0.031 A 
ATOM     70  C   UNL     1      10.979  -2.827  -9.111  1.00  0.00     0.131 A 
ATOM     71  C   UNL     1      11.382  -4.793  -7.210  1.00  0.00     0.055 A 
ATOM     72  C   UNL     1      12.249  -3.003  -8.556  1.00  0.00     0.041 A 
ATOM     73  F   UNL     1      10.817  -1.814  -9.977  1.00  0.00    -0.206 F 
ATOM     74  C   UNL     1      12.451  -3.977  -7.582  1.00  0.00     0.022 A 
BRANCH  71  75
ATOM     75  S   UNL     1      11.534  -5.900  -5.780  1.00  0.00     0.124 S 
ATOM     76  O   UNL     1      10.568  -5.314  -4.854  1.00  0.00    -0.237 OA
ATOM     77  O   UNL     1      11.174  -7.196  -6.343  1.00  0.00    -0.237 OA
ATOM     78  O   UNL     1      12.934  -5.758  -5.384  1.00  0.00    -0.744 OA
ENDBRANCH  71  75
ENDBRANCH  54  68
BRANCH  55  79
ATOM     79  C   UNL     1       0.639  -1.267 -11.931  1.00  0.00     0.023 A 
ATOM     80  C   UNL     1      -0.222  -2.188 -12.550  1.00  0.00     0.031 A 
ATOM     81  C   UNL     1       0.201   0.063 -11.806  1.00  0.00     0.131 A 
ATOM     82  C   UNL     1      -1.459  -1.760 -13.056  1.00  0.00     0.055 A 
ATOM     83  C   UNL     1      -1.051   0.474 -12.270  1.00  0.00     0.041 A 
ATOM     84  F   UNL     1       0.980   0.982 -11.213  1.00  0.00    -0.206 F 
ATOM     85  C   UNL     1      -1.884  -0.438 -12.910  1.00  0.00     0.022 A 
BRANCH  82  86
ATOM     86  S   UNL     1      -2.477  -2.947 -13.976  1.00  0.00     0.124 S 
ATOM     87  O   UNL     1      -1.571  -3.352 -15.045  1.00  0.00    -0.237 OA
ATOM     88  O   UNL     1      -2.761  -3.954 -12.959  1.00  0.00    -0.237 OA
ATOM     89  O   UNL     1      -3.628  -2.152 -14.400  1.00  0.00    -0.744 OA
ENDBRANCH  82  86
ENDBRANCH  55  79
BRANCH  67  90
ATOM     90  C   UNL     1       6.424  -3.481 -15.129  1.00  0.00     0.023 A 
ATOM     91  C   UNL     1       6.494  -2.470 -16.102  1.00  0.00     0.031 A 
ATOM     92  C   UNL     1       6.638  -4.811 -15.530  1.00  0.00     0.131 A 
ATOM     93  C   UNL     1       6.728  -2.810 -17.441  1.00  0.00     0.055 A 
ATOM     94  C   UNL     1       6.922  -5.138 -16.856  1.00  0.00     0.041 A 
ATOM     95  F   UNL     1       6.581  -5.811 -14.637  1.00  0.00    -0.206 F 
ATOM     96  C   UNL     1       6.959  -4.136 -17.822  1.00  0.00     0.022 A 
BRANCH  93  97
ATOM     97  S   UNL     1       6.663  -1.502 -18.695  1.00  0.00     0.124 S 
ATOM     98  O   UNL     1       5.288  -1.029 -18.567  1.00  0.00    -0.237 OA
ATOM     99  O   UNL     1       7.699  -0.581 -18.241  1.00  0.00    -0.237 OA
ATOM    100  O   UNL     1       6.964  -2.206 -19.940  1.00  0.00    -0.744 OA
ENDBRANCH  93  97
ENDBRANCH  67  90
ENDBRANCH  41  42
ENDBRANCH  33  36
ENDBRANCH  31  32
ENDBRANCH  30  31
ENDBRANCH   1  30
TORSDOF 19
