REMARK SMILES COc1cc(/C=C2/N=C(c3ccccc3)OC2=O)ccc1OCC(=O)NCCCNC(=O)c1ccc(-c2c3nc(c(-c4cc(S(=O)(=O)[O-])ccc4F)c4ccc([nH]4)c(-c4cc(S(=O)(=O)[O-])ccc4F)c4nc(c(-c5cc(S(=O)(=O)[O-])ccc5F)c5ccc2[nH]5)C=C4)C=C3)cc1
REMARK SMILES IDX 27 1 26 2 24 3 25 4 23 6 22 7 21 8 3 9 4 10 5 11 20 12 19 13
REMARK SMILES IDX 2 14 1 15 6 16 7 17 8 18 17 19 9 20 16 21 18 22 10 23 11 24
REMARK SMILES IDX 15 25 12 26 14 27 13 28 28 29 29 30 30 31 31 32 32 34 33 35
REMARK SMILES IDX 34 36 95 37 35 38 94 39 36 40 37 41 38 42 88 43 39 44 93 45
REMARK SMILES IDX 87 46 89 47 40 48 92 49 86 50 85 51 41 53 73 54 53 55 72 56
REMARK SMILES IDX 54 57 57 58 71 59 90 60 55 61 56 62 70 64 91 65 58 66 42 67
REMARK SMILES IDX 43 68 51 69 44 70 50 71 52 72 49 73 45 74 46 75 47 76 48 77
REMARK SMILES IDX 74 78 75 79 83 80 76 81 82 82 84 83 81 84 77 85 78 86 79 87
REMARK SMILES IDX 80 88 59 89 60 90 68 91 61 92 67 93 69 94 66 95 62 96 63 97
REMARK SMILES IDX 64 98 65 99
REMARK H PARENT 26 5 30 33 89 52 57 63
REMARK Flexibility Score: inf
ROOT
ATOM      1  C   UNL     1       3.385  -3.293  -0.405  1.00  0.00     0.117 C 
ENDROOT
BRANCH   1   2
ATOM      2  N   UNL     1       2.278  -2.522  -0.933  1.00  0.00    -0.353 N 
ATOM      3  C   UNL     1       2.082  -1.172  -0.873  1.00  0.00     0.257 C 
ATOM      4  O   UNL     1       1.232  -0.683  -1.621  1.00  0.00    -0.271 OA
ATOM      5  H   UNL     1       1.577  -3.037  -1.394  1.00  0.00     0.163 HD
BRANCH   3   6
ATOM      6  C   UNL     1       2.962  -0.307   0.037  1.00  0.00     0.329 C 
BRANCH   6   7
ATOM      7  O   UNL     1       3.196  -0.779   1.349  1.00  0.00    -0.480 OA
BRANCH   7   8
ATOM      8  C   UNL     1       2.217  -0.748   2.300  1.00  0.00     0.161 A 
ATOM      9  C   UNL     1       1.019  -0.025   2.312  1.00  0.00     0.161 A 
ATOM     10  C   UNL     1       0.171  -0.084   3.434  1.00  0.00     0.058 A 
ATOM     11  C   UNL     1       0.521  -0.855   4.551  1.00  0.00    -0.019 A 
ATOM     12  C   UNL     1       2.538  -1.535   3.415  1.00  0.00     0.051 A 
ATOM     13  C   UNL     1       1.701  -1.596   4.529  1.00  0.00     0.012 A 
BRANCH   9  14
ATOM     14  O   UNL     1       0.746   0.895   1.335  1.00  0.00    -0.493 OA
ATOM     15  C   UNL     1      -0.398   0.557   0.553  1.00  0.00     0.278 C 
ENDBRANCH   9  14
BRANCH  11  16
ATOM     16  C   UNL     1      -0.271  -0.808   5.782  1.00  0.00     0.044 C 
ATOM     17  C   UNL     1       0.018  -0.029   6.835  1.00  0.00     0.153 C 
ATOM     18  N   UNL     1      -0.743   0.022   7.978  1.00  0.00    -0.205 NA
ATOM     19  C   UNL     1       1.145   0.951   6.930  1.00  0.00     0.363 C 
ATOM     20  C   UNL     1      -0.184   0.979   8.645  1.00  0.00     0.231 C 
ATOM     21  O   UNL     1       0.908   1.573   8.118  1.00  0.00    -0.402 OA
ATOM     22  O   UNL     1       2.059   1.193   6.166  1.00  0.00    -0.244 OA
BRANCH  20  23
ATOM     23  C   UNL     1      -0.591   1.518   9.941  1.00  0.00     0.037 A 
ATOM     24  C   UNL     1      -0.995   0.648  10.956  1.00  0.00     0.014 A 
ATOM     25  C   UNL     1      -0.624   2.904  10.139  1.00  0.00     0.014 A 
ATOM     26  C   UNL     1      -1.431   1.168  12.175  1.00  0.00     0.001 A 
ATOM     27  C   UNL     1      -1.080   3.417  11.353  1.00  0.00     0.001 A 
ATOM     28  C   UNL     1      -1.482   2.550  12.369  1.00  0.00     0.000 A 
ENDBRANCH  20  23
ENDBRANCH  11  16
ENDBRANCH   7   8
ENDBRANCH   6   7
ENDBRANCH   3   6
ENDBRANCH   1   2
BRANCH   1  29
ATOM     29  C   UNL     1       2.971  -4.290   0.669  1.00  0.00     0.042 C 
BRANCH  29  30
ATOM     30  C   UNL     1       1.888  -5.276   0.244  1.00  0.00     0.118 C 
BRANCH  30  31
ATOM     31  N   UNL     1       2.235  -6.016  -0.960  1.00  0.00    -0.352 N 
ATOM     32  C   UNL     1       2.511  -7.345  -1.155  1.00  0.00     0.251 C 
ATOM     33  H   UNL     1       2.279  -5.467  -1.776  1.00  0.00     0.163 HD
ATOM     34  O   UNL     1       2.995  -7.694  -2.229  1.00  0.00    -0.269 OA
BRANCH  32  35
ATOM     35  C   UNL     1       2.256  -8.348  -0.096  1.00  0.00     0.039 A 
ATOM     36  C   UNL     1       3.146  -9.418   0.039  1.00  0.00     0.014 A 
ATOM     37  C   UNL     1       1.129  -8.281   0.725  1.00  0.00     0.014 A 
ATOM     38  C   UNL     1       2.927 -10.386   1.023  1.00  0.00     0.010 A 
ATOM     39  C   UNL     1       0.967  -9.188   1.771  1.00  0.00     0.010 A 
ATOM     40  C   UNL     1       1.852 -10.265   1.919  1.00  0.00    -0.014 A 
BRANCH  40  41
ATOM     41  C   UNL     1       1.634 -11.279   2.986  1.00  0.00     0.031 A 
ATOM     42  C   UNL     1       0.373 -12.106   3.004  1.00  0.00     0.074 A 
ATOM     43  C   UNL     1       2.566 -11.447   3.946  1.00  0.00     0.049 A 
ATOM     44  N   UNL     1       0.009 -13.042   3.843  1.00  0.00    -0.248 NA
ATOM     45  C   UNL     1      -0.622 -11.823   1.958  1.00  0.00     0.031 C 
ATOM     46  C   UNL     1       3.805 -10.673   4.062  1.00  0.00     0.029 A 
ATOM     47  N   UNL     1       2.625 -12.323   5.000  1.00  0.00    -0.354 N 
ATOM     48  C   UNL     1      -1.254 -13.454   3.430  1.00  0.00     0.074 A 
ATOM     49  C   UNL     1      -1.624 -12.611   2.314  1.00  0.00     0.031 C 
ATOM     50  C   UNL     1       4.521 -11.142   5.097  1.00  0.00     0.029 A 
ATOM     51  C   UNL     1       3.775 -12.212   5.749  1.00  0.00     0.049 A 
ATOM     52  H   UNL     1       1.912 -12.971   5.202  1.00  0.00     0.167 HD
ATOM     53  C   UNL     1      -2.022 -14.462   3.916  1.00  0.00     0.034 A 
ATOM     54  C   UNL     1       4.181 -12.894   6.839  1.00  0.00     0.034 A 
ATOM     55  C   UNL     1      -1.634 -15.298   5.026  1.00  0.00     0.049 A 
ATOM     56  C   UNL     1       3.298 -13.993   7.374  1.00  0.00     0.074 A 
ATOM     57  C   UNL     1      -2.311 -16.376   5.570  1.00  0.00     0.029 A 
ATOM     58  N   UNL     1      -0.471 -15.146   5.770  1.00  0.00    -0.354 N 
ATOM     59  N   UNL     1       2.133 -14.411   6.932  1.00  0.00    -0.248 NA
ATOM     60  C   UNL     1       3.795 -14.725   8.545  1.00  0.00     0.031 C 
ATOM     61  C   UNL     1      -1.600 -16.820   6.690  1.00  0.00     0.029 A 
ATOM     62  C   UNL     1      -0.430 -16.085   6.791  1.00  0.00     0.049 A 
ATOM     63  H   UNL     1       0.224 -14.470   5.599  1.00  0.00     0.167 HD
ATOM     64  C   UNL     1       1.775 -15.476   7.755  1.00  0.00     0.074 A 
ATOM     65  C   UNL     1       2.862 -15.652   8.696  1.00  0.00     0.031 C 
ATOM     66  C   UNL     1       0.651 -16.239   7.737  1.00  0.00     0.034 A 
BRANCH  53  67
ATOM     67  C   UNL     1      -3.366 -14.692   3.262  1.00  0.00     0.023 A 
ATOM     68  C   UNL     1      -3.480 -15.043   1.904  1.00  0.00     0.031 A 
ATOM     69  C   UNL     1      -4.554 -14.537   3.999  1.00  0.00     0.131 A 
ATOM     70  C   UNL     1      -4.747 -15.151   1.310  1.00  0.00     0.055 A 
ATOM     71  C   UNL     1      -5.811 -14.734   3.424  1.00  0.00     0.041 A 
ATOM     72  F   UNL     1      -4.514 -14.179   5.293  1.00  0.00    -0.206 F 
ATOM     73  C   UNL     1      -5.914 -15.027   2.067  1.00  0.00     0.022 A 
BRANCH  70  74
ATOM     74  S   UNL     1      -4.848 -15.300  -0.495  1.00  0.00     0.124 S 
ATOM     75  O   UNL     1      -4.153 -14.090  -0.929  1.00  0.00    -0.237 OA
ATOM     76  O   UNL     1      -4.157 -16.559  -0.747  1.00  0.00    -0.237 OA
ATOM     77  O   UNL     1      -6.285 -15.312  -0.758  1.00  0.00    -0.744 OA
ENDBRANCH  70  74
ENDBRANCH  53  67
BRANCH  54  78
ATOM     78  C   UNL     1       5.476 -12.563   7.505  1.00  0.00     0.023 A 
ATOM     79  C   UNL     1       6.510 -13.508   7.595  1.00  0.00     0.031 A 
ATOM     80  C   UNL     1       5.676 -11.311   8.114  1.00  0.00     0.131 A 
ATOM     81  C   UNL     1       7.671 -13.210   8.326  1.00  0.00     0.055 A 
ATOM     82  C   UNL     1       6.859 -10.995   8.784  1.00  0.00     0.041 A 
ATOM     83  F   UNL     1       4.721 -10.368   8.059  1.00  0.00    -0.206 F 
ATOM     84  C   UNL     1       7.859 -11.954   8.908  1.00  0.00     0.022 A 
BRANCH  81  85
ATOM     85  S   UNL     1       8.889 -14.527   8.600  1.00  0.00     0.124 S 
ATOM     86  O   UNL     1       8.079 -15.548   9.255  1.00  0.00    -0.237 OA
ATOM     87  O   UNL     1       9.323 -14.825   7.240  1.00  0.00    -0.237 OA
ATOM     88  O   UNL     1       9.894 -13.888   9.447  1.00  0.00    -0.744 OA
ENDBRANCH  81  85
ENDBRANCH  54  78
BRANCH  66  89
ATOM     89  C   UNL     1       0.571 -17.359   8.749  1.00  0.00     0.023 A 
ATOM     90  C   UNL     1       0.567 -17.108  10.132  1.00  0.00     0.031 A 
ATOM     91  C   UNL     1       0.545 -18.700   8.325  1.00  0.00     0.131 A 
ATOM     92  C   UNL     1       0.631 -18.176  11.039  1.00  0.00     0.055 A 
ATOM     93  C   UNL     1       0.522 -19.760   9.233  1.00  0.00     0.041 A 
ATOM     94  F   UNL     1       0.550 -19.005   7.017  1.00  0.00    -0.206 F 
ATOM     95  C   UNL     1       0.587 -19.501  10.599  1.00  0.00     0.022 A 
BRANCH  92  96
ATOM     96  S   UNL     1       0.924 -17.809  12.791  1.00  0.00     0.124 S 
ATOM     97  O   UNL     1       2.154 -17.025  12.733  1.00  0.00    -0.237 OA
ATOM     98  O   UNL     1      -0.282 -17.077  13.162  1.00  0.00    -0.237 OA
ATOM     99  O   UNL     1       1.060 -19.131  13.400  1.00  0.00    -0.744 OA
ENDBRANCH  92  96
ENDBRANCH  66  89
ENDBRANCH  40  41
ENDBRANCH  32  35
ENDBRANCH  30  31
ENDBRANCH  29  30
ENDBRANCH   1  29
TORSDOF 18
