REMARK SMILES CC(=O)Nc1cccc(NC(=O)N[C@H](C(=O)NCCCNC(=O)c2ccc(-c3c4nc(c(-c5cc(S(=O)(=O)[O-])ccc5F)c5ccc([nH]5)c(-c5cc(S(=O)(=O)[O-])ccc5F)c5nc(c(-c6cc(S(=O)(=O)[O-])ccc6F)c6ccc3[nH]6)C=C5)C=C4)cc2)C(C)C)c1
REMARK SMILES IDX 19 1 18 2 17 3 15 4 16 5 14 7 13 8 10 9 11 10 12 12 9 14
REMARK SMILES IDX 5 15 6 16 90 17 7 18 8 19 4 20 1 21 2 22 3 23 87 25 88 26
REMARK SMILES IDX 89 27 20 28 21 29 22 30 23 32 24 33 25 34 86 35 26 36 85 37
REMARK SMILES IDX 27 38 28 39 29 40 79 41 30 42 84 43 78 44 80 45 31 46 83 47
REMARK SMILES IDX 77 48 76 49 32 51 64 52 44 53 63 54 45 55 48 56 62 57 81 58
REMARK SMILES IDX 46 59 47 60 61 62 82 63 49 64 33 65 34 66 42 67 35 68 41 69
REMARK SMILES IDX 43 70 40 71 36 72 37 73 38 74 39 75 65 76 66 77 74 78 67 79
REMARK SMILES IDX 73 80 75 81 72 82 68 83 69 84 70 85 71 86 50 87 51 88 59 89
REMARK SMILES IDX 52 90 58 91 60 92 57 93 53 94 54 95 55 96 56 97
REMARK H PARENT 17 6 10 11 13 13 4 24 21 31 80 50 48 61
REMARK Flexibility Score: inf
ROOT
ATOM      1  C   UNL     1       5.105   1.782  -1.551  1.00  0.00     0.042 C 
ENDROOT
BRANCH   1   2
ATOM      2  C   UNL     1       4.970   3.026  -2.428  1.00  0.00     0.117 C 
BRANCH   2   3
ATOM      3  N   UNL     1       5.951   3.121  -3.498  1.00  0.00    -0.354 N 
ATOM      4  C   UNL     1       5.869   2.707  -4.803  1.00  0.00     0.242 C 
ATOM      5  O   UNL     1       6.765   3.064  -5.571  1.00  0.00    -0.273 OA
ATOM      6  H   UNL     1       6.802   3.548  -3.247  1.00  0.00     0.163 HD
BRANCH   4   7
ATOM      7  C   UNL     1       4.726   1.751  -5.247  1.00  0.00     0.175 C 
BRANCH   7   8
ATOM      8  N   UNL     1       3.434   2.424  -5.224  1.00  0.00    -0.326 N 
ATOM      9  N   UNL     1       1.878   1.204  -3.867  1.00  0.00    -0.308 N 
ATOM     10  C   UNL     1       2.225   2.171  -4.726  1.00  0.00     0.319 C 
ATOM     11  H   UNL     1       0.951   1.338  -3.565  1.00  0.00     0.171 HD
ATOM     12  O   UNL     1       1.344   2.992  -5.012  1.00  0.00    -0.248 OA
ATOM     13  H   UNL     1       3.462   3.285  -5.700  1.00  0.00     0.166 HD
BRANCH   9  14
ATOM     14  C   UNL     1       2.419   0.059  -3.263  1.00  0.00     0.044 A 
ATOM     15  C   UNL     1       2.382  -1.375  -1.287  1.00  0.00     0.043 A 
ATOM     16  C   UNL     1       3.532  -2.023  -1.722  1.00  0.00     0.026 A 
ATOM     17  C   UNL     1       1.862  -0.310  -2.033  1.00  0.00     0.052 A 
ATOM     18  C   UNL     1       4.016  -1.748  -2.997  1.00  0.00     0.004 A 
ATOM     19  C   UNL     1       3.412  -0.758  -3.781  1.00  0.00     0.026 A 
BRANCH  15  20
ATOM     20  N   UNL     1       1.783  -1.812  -0.100  1.00  0.00    -0.326 N 
ATOM     21  C   UNL     1      -0.550  -1.834  -0.956  1.00  0.00     0.114 C 
ATOM     22  C   UNL     1       0.446  -1.931   0.175  1.00  0.00     0.221 C 
ATOM     23  O   UNL     1       0.076  -2.185   1.321  1.00  0.00    -0.275 OA
ATOM     24  H   UNL     1       2.398  -2.065   0.627  1.00  0.00     0.169 HD
ENDBRANCH  15  20
ENDBRANCH   9  14
ENDBRANCH   7   8
BRANCH   7  25
ATOM     25  C   UNL     1       4.978   1.164  -6.673  1.00  0.00     0.015 C 
ATOM     26  C   UNL     1       6.006   0.029  -6.632  1.00  0.00     0.010 C 
ATOM     27  C   UNL     1       3.710   0.665  -7.392  1.00  0.00     0.010 C 
ENDBRANCH   7  25
ENDBRANCH   4   7
ENDBRANCH   2   3
ENDBRANCH   1   2
BRANCH   1  28
ATOM     28  C   UNL     1       6.113   1.895  -0.407  1.00  0.00     0.118 C 
BRANCH  28  29
ATOM     29  N   UNL     1       5.701   2.847   0.616  1.00  0.00    -0.352 N 
ATOM     30  C   UNL     1       5.519   2.724   1.972  1.00  0.00     0.251 C 
ATOM     31  H   UNL     1       5.517   3.750   0.269  1.00  0.00     0.163 HD
ATOM     32  O   UNL     1       5.005   3.673   2.564  1.00  0.00    -0.269 OA
BRANCH  30  33
ATOM     33  C   UNL     1       5.898   1.506   2.738  1.00  0.00     0.039 A 
ATOM     34  C   UNL     1       5.152   1.187   3.882  1.00  0.00     0.014 A 
ATOM     35  C   UNL     1       7.009   0.722   2.421  1.00  0.00     0.014 A 
ATOM     36  C   UNL     1       5.487   0.077   4.669  1.00  0.00     0.010 A 
ATOM     37  C   UNL     1       7.302  -0.427   3.167  1.00  0.00     0.010 A 
ATOM     38  C   UNL     1       6.550  -0.761   4.305  1.00  0.00    -0.014 A 
BRANCH  38  39
ATOM     39  C   UNL     1       6.907  -1.962   5.116  1.00  0.00     0.031 A 
ATOM     40  C   UNL     1       8.248  -2.044   5.804  1.00  0.00     0.074 A 
ATOM     41  C   UNL     1       6.049  -2.998   5.209  1.00  0.00     0.049 A 
ATOM     42  N   UNL     1       8.784  -3.040   6.465  1.00  0.00    -0.248 NA
ATOM     43  C   UNL     1       9.105  -0.853   5.718  1.00  0.00     0.031 C 
ATOM     44  C   UNL     1       4.720  -3.054   4.596  1.00  0.00     0.029 A 
ATOM     45  N   UNL     1       6.166  -4.209   5.849  1.00  0.00    -0.354 N 
ATOM     46  C   UNL     1      10.043  -2.601   6.865  1.00  0.00     0.074 A 
ATOM     47  C   UNL     1      10.210  -1.269   6.319  1.00  0.00     0.031 C 
ATOM     48  C   UNL     1       4.140  -4.224   4.908  1.00  0.00     0.029 A 
ATOM     49  C   UNL     1       5.069  -5.027   5.698  1.00  0.00     0.049 A 
ATOM     50  H   UNL     1       6.962  -4.467   6.369  1.00  0.00     0.167 HD
ATOM     51  C   UNL     1      10.965  -3.234   7.634  1.00  0.00     0.034 A 
ATOM     52  C   UNL     1       4.840  -6.283   6.133  1.00  0.00     0.034 A 
ATOM     53  C   UNL     1      10.788  -4.555   8.188  1.00  0.00     0.049 A 
ATOM     54  C   UNL     1       5.904  -6.987   6.941  1.00  0.00     0.074 A 
ATOM     55  C   UNL     1      11.654  -5.278   8.992  1.00  0.00     0.029 A 
ATOM     56  N   UNL     1       9.668  -5.354   8.000  1.00  0.00    -0.354 N 
ATOM     57  N   UNL     1       7.085  -6.551   7.313  1.00  0.00    -0.248 NA
ATOM     58  C   UNL     1       5.598  -8.351   7.394  1.00  0.00     0.031 C 
ATOM     59  C   UNL     1      11.083  -6.531   9.243  1.00  0.00     0.029 A 
ATOM     60  C   UNL     1       9.830  -6.566   8.656  1.00  0.00     0.049 A 
ATOM     61  H   UNL     1       8.873  -5.097   7.478  1.00  0.00     0.167 HD
ATOM     62  C   UNL     1       7.641  -7.573   8.080  1.00  0.00     0.074 A 
ATOM     63  C   UNL     1       6.664  -8.639   8.125  1.00  0.00     0.031 C 
ATOM     64  C   UNL     1       8.848  -7.622   8.697  1.00  0.00     0.034 A 
BRANCH  51  65
ATOM     65  C   UNL     1      12.262  -2.507   7.904  1.00  0.00     0.023 A 
ATOM     66  C   UNL     1      12.293  -1.306   8.634  1.00  0.00     0.031 A 
ATOM     67  C   UNL     1      13.480  -3.009   7.414  1.00  0.00     0.131 A 
ATOM     68  C   UNL     1      13.502  -0.612   8.791  1.00  0.00     0.055 A 
ATOM     69  C   UNL     1      14.693  -2.355   7.644  1.00  0.00     0.041 A 
ATOM     70  F   UNL     1      13.513  -4.142   6.694  1.00  0.00    -0.206 F 
ATOM     71  C   UNL     1      14.706  -1.141   8.324  1.00  0.00     0.022 A 
BRANCH  68  72
ATOM     72  S   UNL     1      13.455   1.059   9.496  1.00  0.00     0.124 S 
ATOM     73  O   UNL     1      12.601   1.757   8.538  1.00  0.00    -0.237 OA
ATOM     74  O   UNL     1      12.880   0.830  10.816  1.00  0.00    -0.237 OA
ATOM     75  O   UNL     1      14.856   1.473   9.488  1.00  0.00    -0.744 OA
ENDBRANCH  68  72
ENDBRANCH  51  65
BRANCH  52  76
ATOM     76  C   UNL     1       3.561  -6.981   5.809  1.00  0.00     0.023 A 
ATOM     77  C   UNL     1       2.684  -7.385   6.829  1.00  0.00     0.031 A 
ATOM     78  C   UNL     1       3.233  -7.322   4.485  1.00  0.00     0.131 A 
ATOM     79  C   UNL     1       1.557  -8.161   6.517  1.00  0.00     0.055 A 
ATOM     80  C   UNL     1       2.077  -8.041   4.174  1.00  0.00     0.041 A 
ATOM     81  F   UNL     1       4.035  -6.962   3.471  1.00  0.00    -0.206 F 
ATOM     82  C   UNL     1       1.240  -8.480   5.195  1.00  0.00     0.022 A 
BRANCH  79  83
ATOM     83  S   UNL     1       0.576  -8.850   7.879  1.00  0.00     0.124 S 
ATOM     84  O   UNL     1       1.587  -9.584   8.631  1.00  0.00    -0.237 OA
ATOM     85  O   UNL     1       0.053  -7.645   8.514  1.00  0.00    -0.237 OA
ATOM     86  O   UNL     1      -0.418  -9.676   7.198  1.00  0.00    -0.744 OA
ENDBRANCH  79  83
ENDBRANCH  52  76
BRANCH  64  87
ATOM     87  C   UNL     1       9.148  -8.848   9.526  1.00  0.00     0.023 A 
ATOM     88  C   UNL     1       9.324 -10.115   8.942  1.00  0.00     0.031 A 
ATOM     89  C   UNL     1       9.240  -8.746  10.925  1.00  0.00     0.131 A 
ATOM     90  C   UNL     1       9.528 -11.238   9.758  1.00  0.00     0.055 A 
ATOM     91  C   UNL     1       9.500  -9.858  11.728  1.00  0.00     0.041 A 
ATOM     92  F   UNL     1       9.080  -7.561  11.536  1.00  0.00    -0.206 F 
ATOM     93  C   UNL     1       9.632 -11.115  11.146  1.00  0.00     0.022 A 
BRANCH  90  94
ATOM     94  S   UNL     1       9.573 -12.880   8.987  1.00  0.00     0.124 S 
ATOM     95  O   UNL     1       8.267 -12.948   8.339  1.00  0.00    -0.237 OA
ATOM     96  O   UNL     1      10.722 -12.774   8.094  1.00  0.00    -0.237 OA
ATOM     97  O   UNL     1       9.752 -13.787  10.120  1.00  0.00    -0.744 OA
ENDBRANCH  90  94
ENDBRANCH  64  87
ENDBRANCH  38  39
ENDBRANCH  30  33
ENDBRANCH  28  29
ENDBRANCH   1  28
TORSDOF 17
