REMARK SMILES Cc1cc(C)cc(CSc2cc(C(=O)NCCCNC(=O)c3ccc(-c4c5nc(c(-c6cc(S(=O)(=O)[O-])ccc6F)c6ccc([nH]6)c(-c6cc(S(=O)(=O)[O-])ccc6F)c6nc(c(-c7cc(S(=O)(=O)[O-])ccc7F)c7ccc4[nH]7)C=C6)C=C5)cc3)cc(Cl)n2)c1
REMARK SMILES IDX 17 1 16 2 15 3 13 4 14 5 12 7 10 8 11 9 88 10 86 11 85 12
REMARK SMILES IDX 87 13 9 14 8 15 7 16 1 17 2 18 3 19 89 20 4 21 5 22 6 23
REMARK SMILES IDX 18 24 19 25 20 26 21 28 22 29 23 30 84 31 24 32 83 33 25 34
REMARK SMILES IDX 26 35 27 36 77 37 28 38 82 39 76 40 78 41 29 42 81 43 75 44
REMARK SMILES IDX 74 45 30 47 62 48 42 49 61 50 43 51 46 52 60 53 79 54 44 55
REMARK SMILES IDX 45 56 59 58 80 59 47 60 31 61 32 62 40 63 33 64 39 65 41 66
REMARK SMILES IDX 38 67 34 68 35 69 36 70 37 71 63 72 64 73 72 74 65 75 71 76
REMARK SMILES IDX 73 77 70 78 66 79 67 80 68 81 69 82 48 83 49 84 57 85 50 86
REMARK SMILES IDX 56 87 58 88 55 89 51 90 52 91 53 92 54 93
REMARK H PARENT 15 6 19 27 78 46 46 57
REMARK Flexibility Score: inf
ROOT
ATOM      1  C   UNL     1       2.112  -2.332   8.489  1.00  0.00     0.042 C 
ENDROOT
BRANCH   1   2
ATOM      2  C   UNL     1       2.918  -2.752   7.260  1.00  0.00     0.118 C 
BRANCH   2   3
ATOM      3  N   UNL     1       2.500  -4.054   6.770  1.00  0.00    -0.352 N 
ATOM      4  C   UNL     1       1.691  -4.470   5.748  1.00  0.00     0.251 C 
ATOM      5  O   UNL     1       1.606  -5.686   5.567  1.00  0.00    -0.269 OA
ATOM      6  H   UNL     1       2.882  -4.800   7.287  1.00  0.00     0.163 HD
BRANCH   4   7
ATOM      7  C   UNL     1       0.945  -3.566   4.830  1.00  0.00     0.045 A 
ATOM      8  C   UNL     1      -0.232  -3.360   2.738  1.00  0.00     0.099 A 
ATOM      9  C   UNL     1       0.490  -4.136   3.629  1.00  0.00     0.049 A 
ATOM     10  N   UNL     1      -0.517  -2.070   2.975  1.00  0.00    -0.230 NA
ATOM     11  C   UNL     1      -0.077  -1.545   4.128  1.00  0.00     0.131 A 
ATOM     12  C   UNL     1       0.621  -2.242   5.096  1.00  0.00     0.055 A 
ATOM     13  Cl  UNL     1      -0.446   0.117   4.337  1.00  0.00    -0.062 Cl
BRANCH   8  14
ATOM     14  S   UNL     1      -0.943  -4.091   1.280  1.00  0.00    -0.102 SA
BRANCH  14  15
ATOM     15  C   UNL     1       0.044  -3.289  -0.023  1.00  0.00     0.112 C 
BRANCH  15  16
ATOM     16  C   UNL     1       0.011  -1.781  -0.056  1.00  0.00    -0.037 A 
ATOM     17  C   UNL     1       2.502   1.110   0.003  1.00  0.00     0.044 C 
ATOM     18  C   UNL     1       1.216   0.341  -0.043  1.00  0.00    -0.051 A 
ATOM     19  C   UNL     1      -0.006   1.024  -0.062  1.00  0.00     0.006 A 
ATOM     20  C   UNL     1       1.215  -1.059  -0.041  1.00  0.00     0.008 A 
ATOM     21  C   UNL     1      -1.219   0.325  -0.089  1.00  0.00    -0.051 A 
ATOM     22  C   UNL     1      -2.515   1.078  -0.065  1.00  0.00     0.044 C 
ATOM     23  C   UNL     1      -1.201  -1.075  -0.106  1.00  0.00     0.008 A 
ENDBRANCH  15  16
ENDBRANCH  14  15
ENDBRANCH   8  14
ENDBRANCH   4   7
ENDBRANCH   2   3
ENDBRANCH   1   2
BRANCH   1  24
ATOM     24  C   UNL     1       2.506  -3.086   9.760  1.00  0.00     0.118 C 
BRANCH  24  25
ATOM     25  N   UNL     1       3.853  -2.745  10.198  1.00  0.00    -0.352 N 
ATOM     26  C   UNL     1       4.289  -2.173  11.368  1.00  0.00     0.251 C 
ATOM     27  H   UNL     1       4.564  -2.960   9.553  1.00  0.00     0.163 HD
ATOM     28  O   UNL     1       5.436  -1.738  11.422  1.00  0.00    -0.269 OA
BRANCH  26  29
ATOM     29  C   UNL     1       3.397  -2.071  12.545  1.00  0.00     0.039 A 
ATOM     30  C   UNL     1       3.456  -0.921  13.338  1.00  0.00     0.014 A 
ATOM     31  C   UNL     1       2.547  -3.121  12.904  1.00  0.00     0.014 A 
ATOM     32  C   UNL     1       2.626  -0.802  14.457  1.00  0.00     0.010 A 
ATOM     33  C   UNL     1       1.671  -2.972  13.978  1.00  0.00     0.010 A 
ATOM     34  C   UNL     1       1.705  -1.814  14.769  1.00  0.00    -0.014 A 
BRANCH  34  35
ATOM     35  C   UNL     1       0.777  -1.685  15.924  1.00  0.00     0.031 A 
ATOM     36  C   UNL     1       0.876  -2.636  17.085  1.00  0.00     0.074 A 
ATOM     37  C   UNL     1      -0.191  -0.749  15.899  1.00  0.00     0.049 A 
ATOM     38  N   UNL     1       0.114  -2.738  18.144  1.00  0.00    -0.248 NA
ATOM     39  C   UNL     1       1.962  -3.625  17.029  1.00  0.00     0.031 C 
ATOM     40  C   UNL     1      -0.405   0.215  14.818  1.00  0.00     0.029 A 
ATOM     41  N   UNL     1      -1.179  -0.456  16.804  1.00  0.00    -0.354 N 
ATOM     42  C   UNL     1       0.622  -3.807  18.876  1.00  0.00     0.074 A 
ATOM     43  C   UNL     1       1.710  -4.362  18.098  1.00  0.00     0.031 C 
ATOM     44  C   UNL     1      -1.436   1.013  15.139  1.00  0.00     0.029 A 
ATOM     45  C   UNL     1      -1.988   0.589  16.421  1.00  0.00     0.049 A 
ATOM     46  H   UNL     1      -1.299  -0.948  17.649  1.00  0.00     0.167 HD
ATOM     47  C   UNL     1       0.235  -4.264  20.095  1.00  0.00     0.034 A 
ATOM     48  C   UNL     1      -3.057   1.137  17.031  1.00  0.00     0.034 A 
ATOM     49  C   UNL     1      -0.855  -3.699  20.854  1.00  0.00     0.049 A 
ATOM     50  C   UNL     1      -3.507   0.577  18.355  1.00  0.00     0.074 A 
ATOM     51  C   UNL     1      -1.314  -4.057  22.110  1.00  0.00     0.029 A 
ATOM     52  N   UNL     1      -1.669  -2.658  20.421  1.00  0.00    -0.354 N 
ATOM     53  N   UNL     1      -2.996  -0.412  19.052  1.00  0.00    -0.248 NA
ATOM     54  C   UNL     1      -4.675   1.213  18.976  1.00  0.00     0.031 C 
ATOM     55  C   UNL     1      -2.441  -3.282  22.406  1.00  0.00     0.029 A 
ATOM     56  C   UNL     1      -2.643  -2.384  21.370  1.00  0.00     0.049 A 
ATOM     57  H   UNL     1      -1.569  -2.183  19.564  1.00  0.00     0.167 HD
ATOM     58  C   UNL     1      -3.762  -0.492  20.212  1.00  0.00     0.074 A 
ATOM     59  C   UNL     1      -4.761   0.554  20.122  1.00  0.00     0.031 C 
ATOM     60  C   UNL     1      -3.645  -1.348  21.261  1.00  0.00     0.034 A 
BRANCH  47  61
ATOM     61  C   UNL     1       0.988  -5.452  20.653  1.00  0.00     0.023 A 
ATOM     62  C   UNL     1       2.373  -5.397  20.894  1.00  0.00     0.031 A 
ATOM     63  C   UNL     1       0.333  -6.674  20.887  1.00  0.00     0.131 A 
ATOM     64  C   UNL     1       3.072  -6.561  21.247  1.00  0.00     0.055 A 
ATOM     65  C   UNL     1       1.020  -7.806  21.335  1.00  0.00     0.041 A 
ATOM     66  F   UNL     1      -0.984  -6.800  20.660  1.00  0.00    -0.206 F 
ATOM     67  C   UNL     1       2.402  -7.759  21.495  1.00  0.00     0.022 A 
BRANCH  64  68
ATOM     68  S   UNL     1       4.886  -6.527  21.189  1.00  0.00     0.124 S 
ATOM     69  O   UNL     1       5.128  -6.117  19.807  1.00  0.00    -0.237 OA
ATOM     70  O   UNL     1       5.216  -5.545  22.215  1.00  0.00    -0.237 OA
ATOM     71  O   UNL     1       5.264  -7.905  21.496  1.00  0.00    -0.744 OA
ENDBRANCH  64  68
ENDBRANCH  47  61
BRANCH  48  72
ATOM     72  C   UNL     1      -3.772   2.285  16.406  1.00  0.00     0.023 A 
ATOM     73  C   UNL     1      -3.768   3.548  17.018  1.00  0.00     0.031 A 
ATOM     74  C   UNL     1      -4.491   2.133  15.208  1.00  0.00     0.131 A 
ATOM     75  C   UNL     1      -4.499   4.602  16.450  1.00  0.00     0.055 A 
ATOM     76  C   UNL     1      -5.177   3.197  14.621  1.00  0.00     0.041 A 
ATOM     77  F   UNL     1      -4.521   0.947  14.579  1.00  0.00    -0.206 F 
ATOM     78  C   UNL     1      -5.193   4.439  15.249  1.00  0.00     0.022 A 
BRANCH  75  79
ATOM     79  S   UNL     1      -4.585   6.178  17.345  1.00  0.00     0.124 S 
ATOM     80  O   UNL     1      -5.193   5.770  18.606  1.00  0.00    -0.237 OA
ATOM     81  O   UNL     1      -3.181   6.569  17.405  1.00  0.00    -0.237 OA
ATOM     82  O   UNL     1      -5.425   7.010  16.486  1.00  0.00    -0.744 OA
ENDBRANCH  75  79
ENDBRANCH  48  72
BRANCH  60  83
ATOM     83  C   UNL     1      -4.599  -1.148  22.413  1.00  0.00     0.023 A 
ATOM     84  C   UNL     1      -5.981  -1.373  22.281  1.00  0.00     0.031 A 
ATOM     85  C   UNL     1      -4.118  -0.705  23.659  1.00  0.00     0.131 A 
ATOM     86  C   UNL     1      -6.840  -1.099  23.356  1.00  0.00     0.055 A 
ATOM     87  C   UNL     1      -4.970  -0.493  24.743  1.00  0.00     0.041 A 
ATOM     88  F   UNL     1      -2.809  -0.471  23.841  1.00  0.00    -0.206 F 
ATOM     89  C   UNL     1      -6.341  -0.677  24.591  1.00  0.00     0.022 A 
BRANCH  86  90
ATOM     90  S   UNL     1      -8.631  -1.211  23.091  1.00  0.00     0.124 S 
ATOM     91  O   UNL     1      -8.838  -0.253  22.009  1.00  0.00    -0.237 OA
ATOM     92  O   UNL     1      -8.808  -2.616  22.741  1.00  0.00    -0.237 OA
ATOM     93  O   UNL     1      -9.194  -0.819  24.382  1.00  0.00    -0.744 OA
ENDBRANCH  86  90
ENDBRANCH  60  83
ENDBRANCH  34  35
ENDBRANCH  26  29
ENDBRANCH  24  25
ENDBRANCH   1  24
TORSDOF 16
