REMARK SMILES O=C(NCCCNC(=O)[C@H]1CC[C@@H]2CCCC[C@H]2[NH2+]1)c1ccc(-c2c3nc(c(-c4cc(S(=O)(=O)[O-])ccc4F)c4ccc([nH]4)c(-c4cc(S(=O)(=O)[O-])ccc4F)c4nc(c(-c5cc(S(=O)(=O)[O-])ccc5F)c5ccc2[nH]5)C=C4)C=C3)cc1
REMARK SMILES IDX 1 1 2 2 3 3 20 5 21 6 82 7 22 8 81 9 23 10 24 11 25 12 75 13
REMARK SMILES IDX 26 14 80 15 74 16 76 17 27 18 79 19 73 20 72 21 28 23 60 24
REMARK SMILES IDX 40 25 59 26 41 27 44 28 58 29 77 30 42 31 43 32 57 34 78 35
REMARK SMILES IDX 45 36 29 37 30 38 38 39 31 40 37 41 39 42 36 43 32 44 33 45
REMARK SMILES IDX 34 46 35 47 61 48 62 49 70 50 63 51 69 52 71 53 68 54 64 55
REMARK SMILES IDX 65 56 66 57 67 58 46 59 47 60 55 61 48 62 54 63 56 64 53 65
REMARK SMILES IDX 49 66 50 67 51 68 52 69 4 70 5 71 6 72 7 73 8 74 9 76 10 77
REMARK SMILES IDX 11 78 19 79 12 80 18 81 13 84 17 85 14 86 16 87 15 88
REMARK H PARENT 3 4 76 22 44 33 7 75 19 82 19 83
REMARK Flexibility Score: inf
ROOT
ATOM      1  O   UNL     1       6.751 -12.350   0.645  1.00  0.00    -0.269 OA
ATOM      2  C   UNL     1       6.534 -11.228   1.099  1.00  0.00     0.251 C 
ATOM      3  N   UNL     1       6.208 -10.204   0.241  1.00  0.00    -0.352 N 
ATOM      4  H   UNL     1       6.045 -10.478  -0.691  1.00  0.00     0.163 HD
ENDROOT
BRANCH   2   5
ATOM      5  C   UNL     1       6.649 -10.984   2.556  1.00  0.00     0.039 A 
ATOM      6  C   UNL     1       5.720 -10.190   3.229  1.00  0.00     0.014 A 
ATOM      7  C   UNL     1       7.702 -11.571   3.264  1.00  0.00     0.014 A 
ATOM      8  C   UNL     1       5.938  -9.845   4.559  1.00  0.00     0.010 A 
ATOM      9  C   UNL     1       7.865 -11.300   4.628  1.00  0.00     0.010 A 
ATOM     10  C   UNL     1       7.011 -10.397   5.278  1.00  0.00    -0.014 A 
BRANCH  10  11
ATOM     11  C   UNL     1       7.199 -10.021   6.706  1.00  0.00     0.031 A 
ATOM     12  C   UNL     1       8.428  -9.276   7.157  1.00  0.00     0.074 A 
ATOM     13  C   UNL     1       6.226 -10.313   7.592  1.00  0.00     0.049 A 
ATOM     14  N   UNL     1       8.729  -8.823   8.349  1.00  0.00    -0.248 NA
ATOM     15  C   UNL     1       9.459  -9.016   6.142  1.00  0.00     0.031 C 
ATOM     16  C   UNL     1       4.994 -11.041   7.277  1.00  0.00     0.029 A 
ATOM     17  N   UNL     1       6.099 -10.013   8.925  1.00  0.00    -0.354 N 
ATOM     18  C   UNL     1       9.990  -8.244   8.233  1.00  0.00     0.074 A 
ATOM     19  C   UNL     1      10.410  -8.439   6.861  1.00  0.00     0.031 C 
ATOM     20  C   UNL     1       4.213 -11.079   8.367  1.00  0.00     0.029 A 
ATOM     21  C   UNL     1       4.912 -10.437   9.474  1.00  0.00     0.049 A 
ATOM     22  H   UNL     1       6.793  -9.540   9.439  1.00  0.00     0.167 HD
ATOM     23  C   UNL     1      10.722  -7.603   9.180  1.00  0.00     0.034 A 
ATOM     24  C   UNL     1       4.437 -10.330  10.730  1.00  0.00     0.034 A 
ATOM     25  C   UNL     1      10.282  -7.407  10.542  1.00  0.00     0.049 A 
ATOM     26  C   UNL     1       5.275  -9.627  11.765  1.00  0.00     0.074 A 
ATOM     27  C   UNL     1      10.928  -6.741  11.571  1.00  0.00     0.029 A 
ATOM     28  N   UNL     1       9.088  -7.882  11.072  1.00  0.00    -0.354 N 
ATOM     29  N   UNL     1       6.454  -9.064  11.630  1.00  0.00    -0.248 NA
ATOM     30  C   UNL     1       4.713  -9.539  13.117  1.00  0.00     0.031 C 
ATOM     31  C   UNL     1      10.159  -6.869  12.733  1.00  0.00     0.029 A 
ATOM     32  C   UNL     1       8.993  -7.548  12.416  1.00  0.00     0.049 A 
ATOM     33  H   UNL     1       8.408  -8.382  10.566  1.00  0.00     0.167 HD
ATOM     34  C   UNL     1       6.761  -8.531  12.878  1.00  0.00     0.074 A 
ATOM     35  C   UNL     1       5.636  -8.823  13.742  1.00  0.00     0.031 C 
ATOM     36  C   UNL     1       7.872  -7.857  13.272  1.00  0.00     0.034 A 
BRANCH  23  37
ATOM     37  C   UNL     1      12.095  -7.109   8.783  1.00  0.00     0.023 A 
ATOM     38  C   UNL     1      12.275  -6.117   7.802  1.00  0.00     0.031 A 
ATOM     39  C   UNL     1      13.245  -7.658   9.379  1.00  0.00     0.131 A 
ATOM     40  C   UNL     1      13.571  -5.759   7.396  1.00  0.00     0.055 A 
ATOM     41  C   UNL     1      14.530  -7.240   9.027  1.00  0.00     0.041 A 
ATOM     42  F   UNL     1      13.140  -8.621  10.307  1.00  0.00    -0.206 F 
ATOM     43  C   UNL     1      14.699  -6.296   8.018  1.00  0.00     0.022 A 
BRANCH  40  44
ATOM     44  S   UNL     1      13.760  -4.689   5.942  1.00  0.00     0.124 S 
ATOM     45  O   UNL     1      13.052  -5.453   4.917  1.00  0.00    -0.237 OA
ATOM     46  O   UNL     1      13.118  -3.453   6.374  1.00  0.00    -0.237 OA
ATOM     47  O   UNL     1      15.208  -4.610   5.760  1.00  0.00    -0.744 OA
ENDBRANCH  40  44
ENDBRANCH  23  37
BRANCH  24  48
ATOM     48  C   UNL     1       3.111 -10.911  11.085  1.00  0.00     0.023 A 
ATOM     49  C   UNL     1       2.048 -10.092  11.496  1.00  0.00     0.031 A 
ATOM     50  C   UNL     1       2.899 -12.301  11.047  1.00  0.00     0.131 A 
ATOM     51  C   UNL     1       0.833 -10.673  11.892  1.00  0.00     0.055 A 
ATOM     52  C   UNL     1       1.672 -12.869  11.390  1.00  0.00     0.041 A 
ATOM     53  F   UNL     1       3.882 -13.127  10.656  1.00  0.00    -0.206 F 
ATOM     54  C   UNL     1       0.633 -12.054  11.828  1.00  0.00     0.022 A 
BRANCH  51  55
ATOM     55  S   UNL     1      -0.462  -9.599  12.569  1.00  0.00     0.124 S 
ATOM     56  O   UNL     1       0.224  -8.979  13.697  1.00  0.00    -0.237 OA
ATOM     57  O   UNL     1      -0.754  -8.726  11.437  1.00  0.00    -0.237 OA
ATOM     58  O   UNL     1      -1.528 -10.534  12.923  1.00  0.00    -0.744 OA
ENDBRANCH  51  55
ENDBRANCH  24  48
BRANCH  36  59
ATOM     59  C   UNL     1       7.891  -7.354  14.695  1.00  0.00     0.023 A 
ATOM     60  C   UNL     1       7.918  -8.232  15.793  1.00  0.00     0.031 A 
ATOM     61  C   UNL     1       7.840  -5.973  14.955  1.00  0.00     0.131 A 
ATOM     62  C   UNL     1       7.827  -7.724  17.097  1.00  0.00     0.055 A 
ATOM     63  C   UNL     1       7.812  -5.470  16.257  1.00  0.00     0.041 A 
ATOM     64  F   UNL     1       7.809  -5.088  13.946  1.00  0.00    -0.206 F 
ATOM     65  C   UNL     1       7.789  -6.348  17.337  1.00  0.00     0.022 A 
BRANCH  62  66
ATOM     66  S   UNL     1       7.644  -8.890  18.475  1.00  0.00     0.124 S 
ATOM     67  O   UNL     1       6.452  -9.638  18.085  1.00  0.00    -0.237 OA
ATOM     68  O   UNL     1       8.902  -9.627  18.429  1.00  0.00    -0.237 OA
ATOM     69  O   UNL     1       7.477  -8.022  19.640  1.00  0.00    -0.744 OA
ENDBRANCH  62  66
ENDBRANCH  36  59
ENDBRANCH  10  11
ENDBRANCH   2   5
BRANCH   3  70
ATOM     70  C   UNL     1       6.066  -8.777   0.496  1.00  0.00     0.118 C 
BRANCH  70  71
ATOM     71  C   UNL     1       7.045  -7.926  -0.301  1.00  0.00     0.042 C 
BRANCH  71  72
ATOM     72  C   UNL     1       6.786  -7.913  -1.804  1.00  0.00     0.118 C 
BRANCH  72  73
ATOM     73  N   UNL     1       5.489  -7.345  -2.131  1.00  0.00    -0.351 N 
ATOM     74  C   UNL     1       5.164  -6.145  -2.688  1.00  0.00     0.278 C 
ATOM     75  H   UNL     1       4.720  -7.921  -1.915  1.00  0.00     0.163 HD
ATOM     76  O   UNL     1       3.966  -5.917  -2.890  1.00  0.00    -0.268 OA
BRANCH  74  77
ATOM     77  C   UNL     1       6.233  -5.110  -3.094  1.00  0.00     0.272 C 
ATOM     78  C   UNL     1       6.982  -4.521  -1.897  1.00  0.00     0.076 C 
ATOM     79  N   UNL     1       7.138  -5.698  -4.107  1.00  0.00    -0.333 N 
ATOM     80  C   UNL     1       8.054  -3.531  -2.346  1.00  0.00     0.016 C 
ATOM     81  C   UNL     1       8.121  -4.717  -4.574  1.00  0.00     0.186 C 
ATOM     82  H   UNL     1       6.584  -6.018  -4.902  1.00  0.00     0.347 HD
ATOM     83  H   UNL     1       7.637  -6.477  -3.679  1.00  0.00     0.347 HD
ATOM     84  C   UNL     1       8.962  -4.178  -3.400  1.00  0.00     0.048 C 
ATOM     85  C   UNL     1       9.022  -5.367  -5.630  1.00  0.00     0.065 C 
ATOM     86  C   UNL     1      10.020  -3.187  -3.901  1.00  0.00     0.010 C 
ATOM     87  C   UNL     1      10.084  -4.388  -6.126  1.00  0.00     0.006 C 
ATOM     88  C   UNL     1      10.906  -3.816  -4.975  1.00  0.00     0.001 C 
ENDBRANCH  74  77
ENDBRANCH  72  73
ENDBRANCH  71  72
ENDBRANCH  70  71
ENDBRANCH   3  70
TORSDOF 13
