REMARK SMILES CCN(CC(=O)NC)C(=O)c1ccncc1/C=C/C(=O)NCCCNC(=O)c1ccc(-c2c3nc(c(-c4cc(S(=O)(=O)[O-])ccc4F)c4ccc([nH]4)c(-c4cc(S(=O)(=O)[O-])ccc4F)c4nc(c(-c5cc(S(=O)(=O)[O-])ccc5F)c5ccc2[nH]5)C=C4)C=C3)cc1
REMARK SMILES IDX 22 1 21 2 19 3 20 4 18 6 17 7 16 8 11 9 12 10 13 11 15 12
REMARK SMILES IDX 14 13 9 14 10 15 3 16 2 17 1 18 4 19 5 20 6 21 7 22 8 23
REMARK SMILES IDX 23 25 24 26 25 27 26 28 27 30 28 31 29 32 90 33 30 34 89 35
REMARK SMILES IDX 31 36 32 37 33 38 83 39 34 40 88 41 82 42 84 43 35 44 87 45
REMARK SMILES IDX 81 46 80 47 36 49 68 50 48 51 67 52 49 53 52 54 66 55 85 56
REMARK SMILES IDX 50 57 51 58 65 60 86 61 53 62 37 63 38 64 46 65 39 66 45 67
REMARK SMILES IDX 47 68 44 69 40 70 41 71 42 72 43 73 69 74 70 75 78 76 71 77
REMARK SMILES IDX 77 78 79 79 76 80 72 81 73 82 74 83 75 84 54 85 55 86 63 87
REMARK SMILES IDX 56 88 62 89 64 90 61 91 57 92 58 93 59 94 60 95
REMARK H PARENT 21 5 7 24 25 29 84 48 52 59
REMARK Flexibility Score: inf
ROOT
ATOM      1  C   UNL     1       5.496   0.835   1.469  1.00  0.00     0.118 C 
ENDROOT
BRANCH   1   2
ATOM      2  N   UNL     1       6.062   1.088   2.781  1.00  0.00    -0.352 N 
ATOM      3  C   UNL     1       6.066   0.314   3.896  1.00  0.00     0.244 C 
ATOM      4  O   UNL     1       6.676   0.682   4.897  1.00  0.00    -0.270 OA
ATOM      5  H   UNL     1       6.515   1.957   2.878  1.00  0.00     0.163 HD
BRANCH   3   6
ATOM      6  C   UNL     1       5.450  -1.030   3.883  1.00  0.00     0.072 C 
ATOM      7  C   UNL     1       4.199  -1.332   3.496  1.00  0.00     0.016 C 
BRANCH   7   8
ATOM      8  C   UNL     1       3.710  -2.723   3.513  1.00  0.00     0.006 A 
ATOM      9  C   UNL     1       2.971  -3.313   2.475  1.00  0.00     0.050 A 
ATOM     10  C   UNL     1       2.695  -4.683   2.505  1.00  0.00     0.034 A 
ATOM     11  C   UNL     1       3.045  -5.403   3.631  1.00  0.00     0.112 A 
ATOM     12  C   UNL     1       3.989  -3.548   4.605  1.00  0.00     0.119 A 
ATOM     13  N   UNL     1       3.671  -4.861   4.691  1.00  0.00    -0.264 NA
BRANCH   9  14
ATOM     14  C   UNL     1       2.541  -2.552   1.276  1.00  0.00     0.255 C 
ATOM     15  O   UNL     1       3.423  -2.101   0.549  1.00  0.00    -0.269 OA
BRANCH  14  16
ATOM     16  N   UNL     1       1.171  -2.382   1.019  1.00  0.00    -0.330 N 
BRANCH  16  17
ATOM     17  C   UNL     1       0.778  -1.561  -0.131  1.00  0.00     0.117 C 
ATOM     18  C   UNL     1       1.067  -0.084   0.058  1.00  0.00     0.027 C 
ENDBRANCH  16  17
BRANCH  16  19
ATOM     19  C   UNL     1       0.096  -2.825   1.924  1.00  0.00     0.219 C 
BRANCH  19  20
ATOM     20  C   UNL     1      -0.321  -4.308   1.876  1.00  0.00     0.239 C 
ATOM     21  O   UNL     1      -0.609  -4.911   2.915  1.00  0.00    -0.273 OA
ATOM     22  N   UNL     1      -0.496  -4.986   0.708  1.00  0.00    -0.358 N 
ATOM     23  C   UNL     1      -0.426  -4.513  -0.650  1.00  0.00     0.142 C 
ATOM     24  H   UNL     1      -0.702  -5.944   0.807  1.00  0.00     0.163 HD
ENDBRANCH  19  20
ENDBRANCH  16  19
ENDBRANCH  14  16
ENDBRANCH   9  14
ENDBRANCH   7   8
ENDBRANCH   3   6
ENDBRANCH   1   2
BRANCH   1  25
ATOM     25  C   UNL     1       4.255   1.687   1.241  1.00  0.00     0.042 C 
BRANCH  25  26
ATOM     26  C   UNL     1       4.558   3.161   0.996  1.00  0.00     0.118 C 
BRANCH  26  27
ATOM     27  N   UNL     1       5.174   3.367  -0.308  1.00  0.00    -0.352 N 
ATOM     28  C   UNL     1       4.698   4.013  -1.423  1.00  0.00     0.251 C 
ATOM     29  H   UNL     1       6.075   2.982  -0.405  1.00  0.00     0.163 HD
ATOM     30  O   UNL     1       5.252   3.821  -2.502  1.00  0.00    -0.269 OA
BRANCH  28  31
ATOM     31  C   UNL     1       3.530   4.921  -1.338  1.00  0.00     0.039 A 
ATOM     32  C   UNL     1       2.630   4.964  -2.408  1.00  0.00     0.014 A 
ATOM     33  C   UNL     1       3.346   5.771  -0.245  1.00  0.00     0.014 A 
ATOM     34  C   UNL     1       1.524   5.818  -2.357  1.00  0.00     0.010 A 
ATOM     35  C   UNL     1       2.202   6.561  -0.159  1.00  0.00     0.010 A 
ATOM     36  C   UNL     1       1.283   6.602  -1.218  1.00  0.00    -0.014 A 
BRANCH  36  37
ATOM     37  C   UNL     1       0.089   7.482  -1.121  1.00  0.00     0.031 A 
ATOM     38  C   UNL     1       0.259   8.974  -1.004  1.00  0.00     0.074 A 
ATOM     39  C   UNL     1      -1.142   6.935  -1.072  1.00  0.00     0.049 A 
ATOM     40  N   UNL     1      -0.646   9.899  -0.810  1.00  0.00    -0.248 NA
ATOM     41  C   UNL     1       1.635   9.487  -1.085  1.00  0.00     0.031 C 
ATOM     42  C   UNL     1      -1.431   5.501  -1.142  1.00  0.00     0.029 A 
ATOM     43  N   UNL     1      -2.378   7.515  -0.940  1.00  0.00    -0.354 N 
ATOM     44  C   UNL     1       0.051  11.101  -0.728  1.00  0.00     0.074 A 
ATOM     45  C   UNL     1       1.458  10.775  -0.833  1.00  0.00     0.031 C 
ATOM     46  C   UNL     1      -2.759   5.316  -1.075  1.00  0.00     0.029 A 
ATOM     47  C   UNL     1      -3.414   6.610  -0.907  1.00  0.00     0.049 A 
ATOM     48  H   UNL     1      -2.512   8.488  -0.875  1.00  0.00     0.167 HD
ATOM     49  C   UNL     1      -0.439  12.360  -0.600  1.00  0.00     0.034 A 
ATOM     50  C   UNL     1      -4.739   6.798  -0.745  1.00  0.00     0.034 A 
ATOM     51  C   UNL     1      -1.846  12.667  -0.511  1.00  0.00     0.049 A 
ATOM     52  C   UNL     1      -5.258   8.204  -0.581  1.00  0.00     0.074 A 
ATOM     53  C   UNL     1      -2.456  13.907  -0.430  1.00  0.00     0.029 A 
ATOM     54  N   UNL     1      -2.866  11.723  -0.486  1.00  0.00    -0.354 N 
ATOM     55  N   UNL     1      -4.589   9.333  -0.547  1.00  0.00    -0.248 NA
ATOM     56  C   UNL     1      -6.712   8.360  -0.445  1.00  0.00     0.031 C 
ATOM     57  C   UNL     1      -3.834  13.711  -0.290  1.00  0.00     0.029 A 
ATOM     58  C   UNL     1      -4.096  12.352  -0.362  1.00  0.00     0.049 A 
ATOM     59  H   UNL     1      -2.734  10.749  -0.548  1.00  0.00     0.167 HD
ATOM     60  C   UNL     1      -5.545  10.336  -0.417  1.00  0.00     0.074 A 
ATOM     61  C   UNL     1      -6.836   9.678  -0.394  1.00  0.00     0.031 C 
ATOM     62  C   UNL     1      -5.374  11.681  -0.330  1.00  0.00     0.034 A 
BRANCH  49  63
ATOM     63  C   UNL     1       0.562  13.491  -0.523  1.00  0.00     0.023 A 
ATOM     64  C   UNL     1       1.437  13.776  -1.586  1.00  0.00     0.031 A 
ATOM     65  C   UNL     1       0.663  14.277   0.638  1.00  0.00     0.131 A 
ATOM     66  C   UNL     1       2.426  14.761  -1.437  1.00  0.00     0.055 A 
ATOM     67  C   UNL     1       1.593  15.313   0.749  1.00  0.00     0.041 A 
ATOM     68  F   UNL     1      -0.130  14.042   1.695  1.00  0.00    -0.206 F 
ATOM     69  C   UNL     1       2.493  15.550  -0.287  1.00  0.00     0.022 A 
BRANCH  66  70
ATOM     70  S   UNL     1       3.714  14.893  -2.707  1.00  0.00     0.124 S 
ATOM     71  O   UNL     1       4.298  13.553  -2.673  1.00  0.00    -0.237 OA
ATOM     72  O   UNL     1       2.947  15.226  -3.901  1.00  0.00    -0.237 OA
ATOM     73  O   UNL     1       4.583  15.955  -2.205  1.00  0.00    -0.744 OA
ENDBRANCH  66  70
ENDBRANCH  49  63
BRANCH  50  74
ATOM     74  C   UNL     1      -5.669   5.634  -0.718  1.00  0.00     0.023 A 
ATOM     75  C   UNL     1      -6.641   5.463  -1.716  1.00  0.00     0.031 A 
ATOM     76  C   UNL     1      -5.625   4.693   0.326  1.00  0.00     0.131 A 
ATOM     77  C   UNL     1      -7.560   4.406  -1.626  1.00  0.00     0.055 A 
ATOM     78  C   UNL     1      -6.508   3.613   0.384  1.00  0.00     0.041 A 
ATOM     79  F   UNL     1      -4.710   4.803   1.302  1.00  0.00    -0.206 F 
ATOM     80  C   UNL     1      -7.492   3.473  -0.589  1.00  0.00     0.022 A 
BRANCH  77  81
ATOM     81  S   UNL     1      -8.900   4.314  -2.844  1.00  0.00     0.124 S 
ATOM     82  O   UNL     1      -9.556   5.604  -2.662  1.00  0.00    -0.237 OA
ATOM     83  O   UNL     1      -8.163   4.138  -4.091  1.00  0.00    -0.237 OA
ATOM     84  O   UNL     1      -9.673   3.152  -2.411  1.00  0.00    -0.744 OA
ENDBRANCH  77  81
ENDBRANCH  50  74
BRANCH  62  85
ATOM     85  C   UNL     1      -6.622  12.525  -0.250  1.00  0.00     0.023 A 
ATOM     86  C   UNL     1      -7.474  12.485   0.867  1.00  0.00     0.031 A 
ATOM     87  C   UNL     1      -6.968  13.374  -1.317  1.00  0.00     0.131 A 
ATOM     88  C   UNL     1      -8.661  13.235   0.867  1.00  0.00     0.055 A 
ATOM     89  C   UNL     1      -8.118  14.165  -1.284  1.00  0.00     0.041 A 
ATOM     90  F   UNL     1      -6.192  13.450  -2.410  1.00  0.00    -0.206 F 
ATOM     91  C   UNL     1      -8.979  14.087  -0.193  1.00  0.00     0.022 A 
BRANCH  88  92
ATOM     92  S   UNL     1      -9.832  13.010   2.234  1.00  0.00     0.124 S 
ATOM     93  O   UNL     1     -10.122  11.582   2.153  1.00  0.00    -0.237 OA
ATOM     94  O   UNL     1      -9.050  13.437   3.389  1.00  0.00    -0.237 OA
ATOM     95  O   UNL     1     -10.944  13.890   1.880  1.00  0.00    -0.744 OA
ENDBRANCH  88  92
ENDBRANCH  62  85
ENDBRANCH  36  37
ENDBRANCH  28  31
ENDBRANCH  26  27
ENDBRANCH  25  26
ENDBRANCH   1  25
TORSDOF 19
