REMARK SMILES C[C@H]1C[NH+](CC[C@@H]2CCC[C@]2([NH3+])C(=O)NCCCNC(=O)c2ccc(-c3c4nc(c(-c5cc(S(=O)(=O)[O-])ccc5F)c5ccc([nH]5)c(-c5cc(S(=O)(=O)[O-])ccc5F)c5nc(c(-c6cc(S(=O)(=O)[O-])ccc6F)c6ccc3[nH]6)C=C5)C=C4)cc2)C[C@H](C)O1
REMARK SMILES IDX 17 1 16 2 15 3 13 4 14 5 11 7 7 8 8 9 9 10 10 11 6 12 5 13
REMARK SMILES IDX 4 14 1 15 2 16 3 17 88 18 86 19 85 20 87 22 12 23 18 27
REMARK SMILES IDX 19 28 20 29 21 31 22 32 23 33 84 34 24 35 83 36 25 37 26 38
REMARK SMILES IDX 27 39 77 40 28 41 82 42 76 43 78 44 29 45 81 46 75 47 74 48
REMARK SMILES IDX 30 50 62 51 42 52 61 53 43 54 46 55 60 56 79 57 44 58 45 59
REMARK SMILES IDX 59 61 80 62 47 63 31 64 32 65 40 66 33 67 39 68 41 69 38 70
REMARK SMILES IDX 34 71 35 72 36 73 37 74 63 75 64 76 72 77 65 78 71 79 73 80
REMARK SMILES IDX 70 81 66 82 67 83 68 84 69 85 48 86 49 87 57 88 50 89 56 90
REMARK SMILES IDX 58 91 55 92 51 93 52 94 53 95 54 96
REMARK H PARENT 15 6 4 21 12 24 12 25 12 26 19 30 78 49 46 60
REMARK Flexibility Score: inf
ROOT
ATOM      1  C   UNL     1       3.966   3.504   0.154  1.00  0.00     0.042 C 
ENDROOT
BRANCH   1   2
ATOM      2  C   UNL     1       3.179   3.071   1.405  1.00  0.00     0.118 C 
BRANCH   2   3
ATOM      3  N   UNL     1       2.837   4.176   2.321  1.00  0.00    -0.351 N 
ATOM      4  C   UNL     1       1.850   4.990   2.764  1.00  0.00     0.281 C 
ATOM      5  O   UNL     1       2.262   5.595   3.777  1.00  0.00    -0.268 OA
ATOM      6  H   UNL     1       3.658   4.420   2.806  1.00  0.00     0.163 HD
BRANCH   4   7
ATOM      7  C   UNL     1       0.318   5.249   2.303  1.00  0.00     0.177 C 
ATOM      8  C   UNL     1      -0.088   5.902   0.929  1.00  0.00     0.066 C 
ATOM      9  C   UNL     1       0.470   7.337   1.058  1.00  0.00     0.011 C 
ATOM     10  C   UNL     1       0.283   7.720   2.520  1.00  0.00     0.008 C 
ATOM     11  C   UNL     1      -0.186   6.447   3.206  1.00  0.00     0.079 C 
BRANCH   8  12
ATOM     12  C   UNL     1       0.063   5.379  -0.523  1.00  0.00     0.072 C 
BRANCH  12  13
ATOM     13  C   UNL     1       1.085   4.308  -0.838  1.00  0.00     0.262 C 
BRANCH  13  14
ATOM     14  N   UNL     1       0.773   2.884  -0.691  1.00  0.00    -0.331 N 
ATOM     15  C   UNL     1      -0.030  -0.100  -2.910  1.00  0.00     0.045 C 
ATOM     16  C   UNL     1       0.315   0.663  -1.644  1.00  0.00     0.170 C 
ATOM     17  C   UNL     1       0.455   2.179  -1.932  1.00  0.00     0.294 C 
ATOM     18  O   UNL     1      -0.736   0.396  -0.697  1.00  0.00    -0.364 OA
ATOM     19  C   UNL     1      -0.525   1.065   0.547  1.00  0.00     0.170 C 
ATOM     20  C   UNL     1      -0.207   2.554   0.330  1.00  0.00     0.294 C 
ATOM     21  H   UNL     1       1.674   2.535  -0.364  1.00  0.00     0.348 HD
ATOM     22  C   UNL     1       0.499   0.343   1.426  1.00  0.00     0.045 C 
ENDBRANCH  13  14
ENDBRANCH  12  13
ENDBRANCH   8  12
BRANCH   7  23
ATOM     23  N   UNL     1      -0.584   4.204   2.837  1.00  0.00    -0.345 N 
ATOM     24  H   UNL     1      -1.540   4.392   2.532  1.00  0.00     0.345 HD
ATOM     25  H   UNL     1      -0.545   4.209   3.856  1.00  0.00     0.345 HD
ATOM     26  H   UNL     1      -0.290   3.291   2.490  1.00  0.00     0.345 HD
ENDBRANCH   7  23
ENDBRANCH   4   7
ENDBRANCH   2   3
ENDBRANCH   1   2
BRANCH   1  27
ATOM     27  C   UNL     1       5.441   3.127   0.100  1.00  0.00     0.118 C 
BRANCH  27  28
ATOM     28  N   UNL     1       5.678   1.738  -0.277  1.00  0.00    -0.352 N 
ATOM     29  C   UNL     1       6.345   1.199  -1.362  1.00  0.00     0.251 C 
ATOM     30  H   UNL     1       5.300   1.074   0.344  1.00  0.00     0.163 HD
ATOM     31  O   UNL     1       6.281  -0.009  -1.558  1.00  0.00    -0.269 OA
BRANCH  29  32
ATOM     32  C   UNL     1       7.109   2.062  -2.304  1.00  0.00     0.039 A 
ATOM     33  C   UNL     1       7.131   1.752  -3.671  1.00  0.00     0.014 A 
ATOM     34  C   UNL     1       7.828   3.164  -1.848  1.00  0.00     0.014 A 
ATOM     35  C   UNL     1       7.801   2.590  -4.575  1.00  0.00     0.010 A 
ATOM     36  C   UNL     1       8.387   4.058  -2.755  1.00  0.00     0.010 A 
ATOM     37  C   UNL     1       8.403   3.775  -4.130  1.00  0.00    -0.014 A 
BRANCH  37  38
ATOM     38  C   UNL     1       9.127   4.717  -5.032  1.00  0.00     0.031 A 
ATOM     39  C   UNL     1      10.571   5.039  -4.737  1.00  0.00     0.074 A 
ATOM     40  C   UNL     1       8.482   5.364  -6.024  1.00  0.00     0.049 A 
ATOM     41  N   UNL     1      11.326   5.998  -5.206  1.00  0.00    -0.248 NA
ATOM     42  C   UNL     1      11.232   4.199  -3.725  1.00  0.00     0.031 C 
ATOM     43  C   UNL     1       7.083   5.157  -6.404  1.00  0.00     0.029 A 
ATOM     44  N   UNL     1       8.912   6.350  -6.879  1.00  0.00    -0.354 N 
ATOM     45  C   UNL     1      12.529   5.905  -4.511  1.00  0.00     0.074 A 
ATOM     46  C   UNL     1      12.371   4.845  -3.540  1.00  0.00     0.031 C 
ATOM     47  C   UNL     1       6.778   5.976  -7.425  1.00  0.00     0.029 A 
ATOM     48  C   UNL     1       7.935   6.812  -7.732  1.00  0.00     0.049 A 
ATOM     49  H   UNL     1       9.835   6.694  -6.882  1.00  0.00     0.167 HD
ATOM     50  C   UNL     1      13.670   6.619  -4.684  1.00  0.00     0.034 A 
ATOM     51  C   UNL     1       7.960   7.812  -8.638  1.00  0.00     0.034 A 
ATOM     52  C   UNL     1      13.818   7.641  -5.689  1.00  0.00     0.049 A 
ATOM     53  C   UNL     1       9.234   8.607  -8.808  1.00  0.00     0.074 A 
ATOM     54  C   UNL     1      14.940   8.389  -5.999  1.00  0.00     0.029 A 
ATOM     55  N   UNL     1      12.812   8.055  -6.553  1.00  0.00    -0.354 N 
ATOM     56  N   UNL     1      10.369   8.498  -8.155  1.00  0.00    -0.248 NA
ATOM     57  C   UNL     1       9.234   9.655  -9.839  1.00  0.00     0.031 C 
ATOM     58  C   UNL     1      14.593   9.303  -6.998  1.00  0.00     0.029 A 
ATOM     59  C   UNL     1      13.282   9.063  -7.379  1.00  0.00     0.049 A 
ATOM     60  H   UNL     1      11.900   7.686  -6.575  1.00  0.00     0.167 HD
ATOM     61  C   UNL     1      11.230   9.429  -8.732  1.00  0.00     0.074 A 
ATOM     62  C   UNL     1      10.484  10.092  -9.780  1.00  0.00     0.031 C 
ATOM     63  C   UNL     1      12.525   9.701  -8.431  1.00  0.00     0.034 A 
BRANCH  50  64
ATOM     64  C   UNL     1      14.826   6.328  -3.754  1.00  0.00     0.023 A 
ATOM     65  C   UNL     1      15.416   5.054  -3.682  1.00  0.00     0.031 A 
ATOM     66  C   UNL     1      15.322   7.327  -2.896  1.00  0.00     0.131 A 
ATOM     67  C   UNL     1      16.391   4.785  -2.710  1.00  0.00     0.055 A 
ATOM     68  C   UNL     1      16.364   7.079  -2.000  1.00  0.00     0.041 A 
ATOM     69  F   UNL     1      14.789   8.559  -2.900  1.00  0.00    -0.206 F 
ATOM     70  C   UNL     1      16.891   5.797  -1.888  1.00  0.00     0.022 A 
BRANCH  67  71
ATOM     71  S   UNL     1      16.866   3.059  -2.421  1.00  0.00     0.124 S 
ATOM     72  O   UNL     1      15.582   2.457  -2.066  1.00  0.00    -0.237 OA
ATOM     73  O   UNL     1      17.422   2.664  -3.709  1.00  0.00    -0.237 OA
ATOM     74  O   UNL     1      17.828   3.147  -1.324  1.00  0.00    -0.744 OA
ENDBRANCH  67  71
ENDBRANCH  50  64
BRANCH  51  75
ATOM     75  C   UNL     1       6.750   8.131  -9.453  1.00  0.00     0.023 A 
ATOM     76  C   UNL     1       6.762   7.985 -10.850  1.00  0.00     0.031 A 
ATOM     77  C   UNL     1       5.575   8.625  -8.856  1.00  0.00     0.131 A 
ATOM     78  C   UNL     1       5.645   8.375 -11.607  1.00  0.00     0.055 A 
ATOM     79  C   UNL     1       4.445   8.954  -9.608  1.00  0.00     0.041 A 
ATOM     80  F   UNL     1       5.505   8.784  -7.524  1.00  0.00    -0.206 F 
ATOM     81  C   UNL     1       4.481   8.843 -10.994  1.00  0.00     0.022 A 
BRANCH  78  82
ATOM     82  S   UNL     1       5.772   8.352 -13.416  1.00  0.00     0.124 S 
ATOM     83  O   UNL     1       6.910   9.235 -13.643  1.00  0.00    -0.237 OA
ATOM     84  O   UNL     1       5.993   6.935 -13.686  1.00  0.00    -0.237 OA
ATOM     85  O   UNL     1       4.479   8.874 -13.854  1.00  0.00    -0.744 OA
ENDBRANCH  78  82
ENDBRANCH  51  75
BRANCH  63  86
ATOM     86  C   UNL     1      13.251  10.698  -9.300  1.00  0.00     0.023 A 
ATOM     87  C   UNL     1      12.934  12.066  -9.298  1.00  0.00     0.031 A 
ATOM     88  C   UNL     1      14.311  10.263 -10.117  1.00  0.00     0.131 A 
ATOM     89  C   UNL     1      13.649  12.947 -10.125  1.00  0.00     0.055 A 
ATOM     90  C   UNL     1      15.057  11.152 -10.890  1.00  0.00     0.041 A 
ATOM     91  F   UNL     1      14.653   8.965 -10.159  1.00  0.00    -0.206 F 
ATOM     92  C   UNL     1      14.722  12.502 -10.903  1.00  0.00     0.022 A 
BRANCH  89  93
ATOM     93  S   UNL     1      13.117  14.678 -10.223  1.00  0.00     0.124 S 
ATOM     94  O   UNL     1      11.746  14.547 -10.706  1.00  0.00    -0.237 OA
ATOM     95  O   UNL     1      13.267  15.131  -8.844  1.00  0.00    -0.237 OA
ATOM     96  O   UNL     1      14.056  15.272 -11.174  1.00  0.00    -0.744 OA
ENDBRANCH  89  93
ENDBRANCH  63  86
ENDBRANCH  37  38
ENDBRANCH  29  32
ENDBRANCH  27  28
ENDBRANCH   1  27
TORSDOF 17
