REMARK SMILES Cc1csc(C[N@H+]2CCC[C@@H](CC(=O)NCCCNC(=O)c3ccc(-c4c5nc(c(-c6cc(S(=O)(=O)[O-])ccc6F)c6ccc([nH]6)c(-c6cc(S(=O)(=O)[O-])ccc6F)c6nc(c(-c7cc(S(=O)(=O)[O-])ccc7F)c7ccc4[nH]7)C=C6)C=C5)cc3)C2)n1
REMARK SMILES IDX 17 1 16 2 15 3 13 4 14 5 12 7 11 8 7 9 8 10 85 11 9 13 10 14
REMARK SMILES IDX 6 15 5 16 1 17 2 18 3 19 86 20 4 21 18 22 19 23 20 24 21 26
REMARK SMILES IDX 22 27 23 28 84 29 24 30 83 31 25 32 26 33 27 34 77 35 28 36
REMARK SMILES IDX 82 37 76 38 78 39 29 40 81 41 75 42 74 43 30 45 62 46 42 47
REMARK SMILES IDX 61 48 43 49 46 50 60 51 79 52 44 53 45 54 59 56 80 57 47 58
REMARK SMILES IDX 31 59 32 60 40 61 33 62 39 63 41 64 38 65 34 66 35 67 36 68
REMARK SMILES IDX 37 69 63 70 64 71 72 72 65 73 71 74 73 75 70 76 66 77 67 78
REMARK SMILES IDX 68 79 69 80 48 81 49 82 57 83 50 84 56 85 58 86 55 87 51 88
REMARK SMILES IDX 52 89 53 90 54 91
REMARK H PARENT 15 6 7 12 19 25 78 44 46 55
REMARK Flexibility Score: inf
ROOT
ATOM      1  C   UNL     1      -1.012   5.470  -6.024  1.00  0.00     0.042 C 
ENDROOT
BRANCH   1   2
ATOM      2  C   UNL     1      -2.224   5.809  -5.154  1.00  0.00     0.117 C 
BRANCH   2   3
ATOM      3  N   UNL     1      -2.986   4.650  -4.720  1.00  0.00    -0.356 N 
ATOM      4  C   UNL     1      -3.035   4.016  -3.518  1.00  0.00     0.220 C 
ATOM      5  O   UNL     1      -3.792   3.053  -3.392  1.00  0.00    -0.275 OA
ATOM      6  H   UNL     1      -3.564   4.257  -5.414  1.00  0.00     0.163 HD
BRANCH   4   7
ATOM      7  C   UNL     1      -2.180   4.489  -2.364  1.00  0.00     0.109 C 
BRANCH   7   8
ATOM      8  C   UNL     1      -0.699   4.063  -2.392  1.00  0.00     0.054 C 
ATOM      9  N   UNL     1       1.113   3.070  -0.903  1.00  0.00    -0.329 N 
ATOM     10  C   UNL     1       1.583   2.258  -2.037  1.00  0.00     0.262 C 
ATOM     11  C   UNL     1      -0.288   3.517  -1.005  1.00  0.00     0.266 C 
ATOM     12  H   UNL     1       1.665   3.928  -0.931  1.00  0.00     0.348 HD
ATOM     13  C   UNL     1       1.171   2.804  -3.398  1.00  0.00     0.062 C 
ATOM     14  C   UNL     1      -0.338   2.996  -3.429  1.00  0.00     0.016 C 
BRANCH   9  15
ATOM     15  C   UNL     1       1.357   2.354   0.386  1.00  0.00     0.331 C 
BRANCH  15  16
ATOM     16  C   UNL     1       0.634   1.024   0.529  1.00  0.00     0.147 A 
ATOM     17  C   UNL     1      -2.498  -0.714   0.289  1.00  0.00     0.067 C 
ATOM     18  C   UNL     1      -1.049  -0.416   0.421  1.00  0.00     0.049 A 
ATOM     19  C   UNL     1       0.003  -1.303   0.309  1.00  0.00     0.090 A 
ATOM     20  N   UNL     1      -0.674   0.896   0.637  1.00  0.00    -0.240 NA
ATOM     21  S   UNL     1       1.495  -0.468   0.443  1.00  0.00    -0.121 S 
ENDBRANCH  15  16
ENDBRANCH   9  15
ENDBRANCH   7   8
ENDBRANCH   4   7
ENDBRANCH   2   3
ENDBRANCH   1   2
BRANCH   1  22
ATOM     22  C   UNL     1      -1.290   4.500  -7.172  1.00  0.00     0.118 C 
BRANCH  22  23
ATOM     23  N   UNL     1      -1.981   5.151  -8.273  1.00  0.00    -0.352 N 
ATOM     24  C   UNL     1      -1.547   5.365  -9.557  1.00  0.00     0.251 C 
ATOM     25  H   UNL     1      -2.885   5.484  -8.070  1.00  0.00     0.163 HD
ATOM     26  O   UNL     1      -2.158   6.167 -10.270  1.00  0.00    -0.269 OA
BRANCH  24  27
ATOM     27  C   UNL     1      -0.358   4.660 -10.088  1.00  0.00     0.039 A 
ATOM     28  C   UNL     1       0.572   5.375 -10.849  1.00  0.00     0.014 A 
ATOM     29  C   UNL     1      -0.183   3.286  -9.890  1.00  0.00     0.014 A 
ATOM     30  C   UNL     1       1.694   4.725 -11.376  1.00  0.00     0.010 A 
ATOM     31  C   UNL     1       0.964   2.650 -10.374  1.00  0.00     0.010 A 
ATOM     32  C   UNL     1       1.911   3.360 -11.129  1.00  0.00    -0.014 A 
BRANCH  32  33
ATOM     33  C   UNL     1       3.097   2.651 -11.686  1.00  0.00     0.031 A 
ATOM     34  C   UNL     1       2.908   1.573 -12.723  1.00  0.00     0.074 A 
ATOM     35  C   UNL     1       4.335   2.940 -11.238  1.00  0.00     0.049 A 
ATOM     36  N   UNL     1       3.792   0.763 -13.248  1.00  0.00    -0.248 NA
ATOM     37  C   UNL     1       1.538   1.369 -13.216  1.00  0.00     0.031 C 
ATOM     38  C   UNL     1       4.655   3.957 -10.234  1.00  0.00     0.029 A 
ATOM     39  N   UNL     1       5.556   2.399 -11.560  1.00  0.00    -0.354 N 
ATOM     40  C   UNL     1       3.086  -0.051 -14.130  1.00  0.00     0.074 A 
ATOM     41  C   UNL     1       1.693   0.330 -14.023  1.00  0.00     0.031 C 
ATOM     42  C   UNL     1       5.983   3.972 -10.031  1.00  0.00     0.029 A 
ATOM     43  C   UNL     1       6.607   2.938 -10.853  1.00  0.00     0.049 A 
ATOM     44  H   UNL     1       5.670   1.691 -12.235  1.00  0.00     0.167 HD
ATOM     45  C   UNL     1       3.556  -1.010 -14.967  1.00  0.00     0.034 A 
ATOM     46  C   UNL     1       7.919   2.624 -10.852  1.00  0.00     0.034 A 
ATOM     47  C   UNL     1       4.946  -1.378 -15.075  1.00  0.00     0.049 A 
ATOM     48  C   UNL     1       8.410   1.522 -11.761  1.00  0.00     0.074 A 
ATOM     49  C   UNL     1       5.526  -2.335 -15.892  1.00  0.00     0.029 A 
ATOM     50  N   UNL     1       5.979  -0.800 -14.350  1.00  0.00    -0.354 N 
ATOM     51  N   UNL     1       7.726   0.768 -12.590  1.00  0.00    -0.248 NA
ATOM     52  C   UNL     1       9.852   1.238 -11.743  1.00  0.00     0.031 C 
ATOM     53  C   UNL     1       6.899  -2.367 -15.628  1.00  0.00     0.029 A 
ATOM     54  C   UNL     1       7.188  -1.387 -14.693  1.00  0.00     0.049 A 
ATOM     55  H   UNL     1       5.870  -0.079 -13.689  1.00  0.00     0.167 HD
ATOM     56  C   UNL     1       8.664  -0.047 -13.220  1.00  0.00     0.074 A 
ATOM     57  C   UNL     1       9.959   0.313 -12.684  1.00  0.00     0.031 C 
ATOM     58  C   UNL     1       8.473  -1.006 -14.161  1.00  0.00     0.034 A 
BRANCH  45  59
ATOM     59  C   UNL     1       2.548  -1.738 -15.821  1.00  0.00     0.023 A 
ATOM     60  C   UNL     1       1.820  -1.072 -16.823  1.00  0.00     0.031 A 
ATOM     61  C   UNL     1       2.303  -3.109 -15.629  1.00  0.00     0.131 A 
ATOM     62  C   UNL     1       0.839  -1.761 -17.550  1.00  0.00     0.055 A 
ATOM     63  C   UNL     1       1.378  -3.807 -16.409  1.00  0.00     0.041 A 
ATOM     64  F   UNL     1       2.955  -3.793 -14.675  1.00  0.00    -0.206 F 
ATOM     65  C   UNL     1       0.631  -3.130 -17.368  1.00  0.00     0.022 A 
BRANCH  62  66
ATOM     66  S   UNL     1      -0.241  -0.816 -18.658  1.00  0.00     0.124 S 
ATOM     67  O   UNL     1      -0.915   0.077 -17.718  1.00  0.00    -0.237 OA
ATOM     68  O   UNL     1       0.709  -0.187 -19.568  1.00  0.00    -0.237 OA
ATOM     69  O   UNL     1      -1.096  -1.838 -19.258  1.00  0.00    -0.744 OA
ENDBRANCH  62  66
ENDBRANCH  45  59
BRANCH  46  70
ATOM     70  C   UNL     1       8.874   3.333  -9.951  1.00  0.00     0.023 A 
ATOM     71  C   UNL     1       9.937   4.086 -10.476  1.00  0.00     0.031 A 
ATOM     72  C   UNL     1       8.790   3.199  -8.554  1.00  0.00     0.131 A 
ATOM     73  C   UNL     1      10.911   4.617  -9.617  1.00  0.00     0.055 A 
ATOM     74  C   UNL     1       9.727   3.782  -7.699  1.00  0.00     0.041 A 
ATOM     75  F   UNL     1       7.793   2.493  -7.998  1.00  0.00    -0.206 F 
ATOM     76  C   UNL     1      10.807   4.481  -8.231  1.00  0.00     0.022 A 
BRANCH  73  77
ATOM     77  S   UNL     1      12.386   5.382 -10.346  1.00  0.00     0.124 S 
ATOM     78  O   UNL     1      12.867   4.322 -11.224  1.00  0.00    -0.237 OA
ATOM     79  O   UNL     1      11.821   6.555 -11.005  1.00  0.00    -0.237 OA
ATOM     80  O   UNL     1      13.230   5.664  -9.187  1.00  0.00    -0.744 OA
ENDBRANCH  73  77
ENDBRANCH  46  70
BRANCH  58  81
ATOM     81  C   UNL     1       9.703  -1.676 -14.720  1.00  0.00     0.023 A 
ATOM     82  C   UNL     1      10.496  -2.540 -13.945  1.00  0.00     0.031 A 
ATOM     83  C   UNL     1      10.090  -1.434 -16.050  1.00  0.00     0.131 A 
ATOM     84  C   UNL     1      11.665  -3.092 -14.491  1.00  0.00     0.055 A 
ATOM     85  C   UNL     1      11.225  -2.027 -16.604  1.00  0.00     0.041 A 
ATOM     86  F   UNL     1       9.368  -0.617 -16.834  1.00  0.00    -0.206 F 
ATOM     87  C   UNL     1      12.026  -2.852 -15.820  1.00  0.00     0.022 A 
BRANCH  84  88
ATOM     88  S   UNL     1      12.750  -4.073 -13.418  1.00  0.00     0.124 S 
ATOM     89  O   UNL     1      13.096  -3.113 -12.376  1.00  0.00    -0.237 OA
ATOM     90  O   UNL     1      11.878  -5.170 -13.011  1.00  0.00    -0.237 OA
ATOM     91  O   UNL     1      13.851  -4.455 -14.301  1.00  0.00    -0.744 OA
ENDBRANCH  84  88
ENDBRANCH  58  81
ENDBRANCH  32  33
ENDBRANCH  24  27
ENDBRANCH  22  23
ENDBRANCH   1  22
TORSDOF 16
