REMARK SMILES O=C(NCCCNC(=O)[C@]1([NH2+]C2CC2)CCC[C@H](SC[C@H](O)CO)C1)c1ccc(-c2c3nc(c(-c4cc(S(=O)(=O)[O-])ccc4F)c4ccc([nH]4)c(-c4cc(S(=O)(=O)[O-])ccc4F)c4nc(c(-c5cc(S(=O)(=O)[O-])ccc5F)c5ccc2[nH]5)C=C4)C=C3)cc1
REMARK SMILES IDX 6 1 5 2 4 3 3 4 1 5 2 6 26 8 27 9 88 10 28 11 87 12 29 13
REMARK SMILES IDX 30 14 31 15 81 16 32 17 86 18 80 19 82 20 33 21 85 22 79 23
REMARK SMILES IDX 78 24 34 26 66 27 46 28 65 29 47 30 50 31 64 32 83 33 48 34
REMARK SMILES IDX 49 35 63 37 84 38 51 39 35 40 36 41 44 42 37 43 43 44 45 45
REMARK SMILES IDX 42 46 38 47 39 48 40 49 41 50 67 51 68 52 76 53 69 54 75 55
REMARK SMILES IDX 77 56 74 57 70 58 71 59 72 60 73 61 52 62 53 63 61 64 54 65
REMARK SMILES IDX 60 66 62 67 59 68 55 69 56 70 57 71 58 72 7 73 8 74 9 76
REMARK SMILES IDX 10 77 15 78 25 79 16 80 18 81 17 82 11 83 12 86 13 87 14 88
REMARK SMILES IDX 19 89 20 90 21 91 23 92 24 93 22 95
REMARK H PARENT 3 7 82 25 50 36 7 75 11 84 11 85 24 94 22 96
REMARK Flexibility Score: inf
ROOT
ATOM      1  C   UNL     1       4.242  12.448   1.901  1.00  0.00     0.118 C 
ENDROOT
BRANCH   1   2
ATOM      2  C   UNL     1       2.737  12.284   1.948  1.00  0.00     0.042 C 
BRANCH   2   3
ATOM      3  C   UNL     1       2.087  12.029   0.598  1.00  0.00     0.118 C 
BRANCH   3   4
ATOM      4  N   UNL     1       2.500  10.805  -0.086  1.00  0.00    -0.352 N 
ATOM      5  O   UNL     1       2.228   8.980  -1.396  1.00  0.00    -0.269 OA
ATOM      6  C   UNL     1       1.728   9.961  -0.865  1.00  0.00     0.251 C 
ATOM      7  H   UNL     1       3.445  10.549   0.021  1.00  0.00     0.163 HD
BRANCH   6   8
ATOM      8  C   UNL     1       0.278  10.235  -0.969  1.00  0.00     0.039 A 
ATOM      9  C   UNL     1      -0.168  11.521  -1.274  1.00  0.00     0.014 A 
ATOM     10  C   UNL     1      -0.627   9.237  -0.598  1.00  0.00     0.014 A 
ATOM     11  C   UNL     1      -1.481  11.866  -0.986  1.00  0.00     0.010 A 
ATOM     12  C   UNL     1      -1.974   9.564  -0.419  1.00  0.00     0.010 A 
ATOM     13  C   UNL     1      -2.400  10.895  -0.553  1.00  0.00    -0.014 A 
BRANCH  13  14
ATOM     14  C   UNL     1      -3.807  11.292  -0.289  1.00  0.00     0.031 A 
ATOM     15  C   UNL     1      -4.412  11.166   1.086  1.00  0.00     0.074 A 
ATOM     16  C   UNL     1      -4.527  11.798  -1.308  1.00  0.00     0.049 A 
ATOM     17  N   UNL     1      -5.633  11.436   1.474  1.00  0.00    -0.248 NA
ATOM     18  C   UNL     1      -3.542  10.668   2.163  1.00  0.00     0.031 C 
ATOM     19  C   UNL     1      -4.036  11.967  -2.680  1.00  0.00     0.029 A 
ATOM     20  N   UNL     1      -5.811  12.274  -1.358  1.00  0.00    -0.354 N 
ATOM     21  C   UNL     1      -5.690  11.111   2.826  1.00  0.00     0.074 A 
ATOM     22  C   UNL     1      -4.380  10.615   3.191  1.00  0.00     0.031 C 
ATOM     23  C   UNL     1      -4.991  12.540  -3.424  1.00  0.00     0.029 A 
ATOM     24  C   UNL     1      -6.188  12.700  -2.610  1.00  0.00     0.049 A 
ATOM     25  H   UNL     1      -6.405  12.306  -0.574  1.00  0.00     0.167 HD
ATOM     26  C   UNL     1      -6.742  11.216   3.676  1.00  0.00     0.034 A 
ATOM     27  C   UNL     1      -7.378  13.132  -3.068  1.00  0.00     0.034 A 
ATOM     28  C   UNL     1      -8.033  11.741   3.296  1.00  0.00     0.049 A 
ATOM     29  C   UNL     1      -8.530  13.212  -2.107  1.00  0.00     0.074 A 
ATOM     30  C   UNL     1      -9.144  11.959   4.094  1.00  0.00     0.029 A 
ATOM     31  N   UNL     1      -8.391  12.122   2.009  1.00  0.00    -0.354 N 
ATOM     32  N   UNL     1      -8.556  12.919  -0.827  1.00  0.00    -0.248 NA
ATOM     33  C   UNL     1      -9.811  13.674  -2.651  1.00  0.00     0.031 C 
ATOM     34  C   UNL     1     -10.190  12.407   3.280  1.00  0.00     0.029 A 
ATOM     35  C   UNL     1      -9.716  12.532   1.984  1.00  0.00     0.049 A 
ATOM     36  H   UNL     1      -7.792  12.103   1.228  1.00  0.00     0.167 HD
ATOM     37  C   UNL     1      -9.860  13.165  -0.413  1.00  0.00     0.074 A 
ATOM     38  C   UNL     1     -10.577  13.661  -1.571  1.00  0.00     0.031 C 
ATOM     39  C   UNL     1     -10.419  12.992   0.811  1.00  0.00     0.034 A 
BRANCH  26  40
ATOM     40  C   UNL     1      -6.570  10.712   5.088  1.00  0.00     0.023 A 
ATOM     41  C   UNL     1      -5.742  11.358   6.021  1.00  0.00     0.031 A 
ATOM     42  C   UNL     1      -7.284   9.576   5.515  1.00  0.00     0.131 A 
ATOM     43  C   UNL     1      -5.622  10.845   7.324  1.00  0.00     0.055 A 
ATOM     44  C   UNL     1      -7.205   9.104   6.827  1.00  0.00     0.041 A 
ATOM     45  F   UNL     1      -8.077   8.909   4.662  1.00  0.00    -0.206 F 
ATOM     46  C   UNL     1      -6.365   9.736   7.738  1.00  0.00     0.022 A 
BRANCH  43  47
ATOM     47  S   UNL     1      -4.419  11.598   8.453  1.00  0.00     0.124 S 
ATOM     48  O   UNL     1      -3.163  11.368   7.744  1.00  0.00    -0.237 OA
ATOM     49  O   UNL     1      -4.870  12.983   8.519  1.00  0.00    -0.237 OA
ATOM     50  O   UNL     1      -4.579  10.832   9.688  1.00  0.00    -0.744 OA
ENDBRANCH  43  47
ENDBRANCH  26  40
BRANCH  27  51
ATOM     51  C   UNL     1      -7.550  13.454  -4.511  1.00  0.00     0.023 A 
ATOM     52  C   UNL     1      -7.870  14.752  -4.934  1.00  0.00     0.031 A 
ATOM     53  C   UNL     1      -7.422  12.451  -5.491  1.00  0.00     0.131 A 
ATOM     54  C   UNL     1      -8.088  15.006  -6.296  1.00  0.00     0.055 A 
ATOM     55  C   UNL     1      -7.583  12.722  -6.849  1.00  0.00     0.041 A 
ATOM     56  F   UNL     1      -7.114  11.192  -5.139  1.00  0.00    -0.206 F 
ATOM     57  C   UNL     1      -7.932  14.004  -7.257  1.00  0.00     0.022 A 
BRANCH  54  58
ATOM     58  S   UNL     1      -8.674  16.650  -6.786  1.00  0.00     0.124 S 
ATOM     59  O   UNL     1      -9.850  16.814  -5.939  1.00  0.00    -0.237 OA
ATOM     60  O   UNL     1      -7.526  17.489  -6.459  1.00  0.00    -0.237 OA
ATOM     61  O   UNL     1      -8.950  16.501  -8.213  1.00  0.00    -0.744 OA
ENDBRANCH  54  58
ENDBRANCH  27  51
BRANCH  39  62
ATOM     62  C   UNL     1     -11.873  13.358   0.937  1.00  0.00     0.023 A 
ATOM     63  C   UNL     1     -12.872  12.601   0.300  1.00  0.00     0.031 A 
ATOM     64  C   UNL     1     -12.260  14.499   1.660  1.00  0.00     0.131 A 
ATOM     65  C   UNL     1     -14.206  13.030   0.345  1.00  0.00     0.055 A 
ATOM     66  C   UNL     1     -13.597  14.889   1.748  1.00  0.00     0.041 A 
ATOM     67  F   UNL     1     -11.344  15.256   2.283  1.00  0.00    -0.206 F 
ATOM     68  C   UNL     1     -14.576  14.162   1.077  1.00  0.00     0.022 A 
BRANCH  65  69
ATOM     69  S   UNL     1     -15.438  12.140  -0.643  1.00  0.00     0.124 S 
ATOM     70  O   UNL     1     -14.921  12.311  -1.997  1.00  0.00    -0.237 OA
ATOM     71  O   UNL     1     -15.362  10.790  -0.097  1.00  0.00    -0.237 OA
ATOM     72  O   UNL     1     -16.683  12.853  -0.360  1.00  0.00    -0.744 OA
ENDBRANCH  65  69
ENDBRANCH  39  62
ENDBRANCH  13  14
ENDBRANCH   6   8
ENDBRANCH   3   4
ENDBRANCH   2   3
ENDBRANCH   1   2
BRANCH   1  73
ATOM     73  N   UNL     1       4.760  13.562   1.115  1.00  0.00    -0.351 N 
ATOM     74  C   UNL     1       6.072  13.994   0.984  1.00  0.00     0.281 C 
ATOM     75  H   UNL     1       4.089  14.077   0.610  1.00  0.00     0.163 HD
ATOM     76  O   UNL     1       6.321  14.824   0.105  1.00  0.00    -0.268 OA
BRANCH  74  77
ATOM     77  C   UNL     1       7.181  13.471   1.964  1.00  0.00     0.176 C 
ATOM     78  C   UNL     1       8.616  14.059   1.742  1.00  0.00     0.079 C 
ATOM     79  C   UNL     1       7.290  11.932   1.884  1.00  0.00     0.093 C 
ATOM     80  C   UNL     1       9.589  13.328   0.804  1.00  0.00     0.008 C 
ATOM     81  C   UNL     1       7.998  11.370   0.629  1.00  0.00     0.053 C 
ATOM     82  C   UNL     1       9.463  11.802   0.807  1.00  0.00     0.015 C 
BRANCH  77  83
ATOM     83  N   UNL     1       6.733  13.940   3.333  1.00  0.00    -0.331 N 
ATOM     84  H   UNL     1       7.378  13.568   4.030  1.00  0.00     0.347 HD
ATOM     85  H   UNL     1       5.780  13.603   3.471  1.00  0.00     0.347 HD
BRANCH  83  86
ATOM     86  C   UNL     1       6.699  15.424   3.466  1.00  0.00     0.183 C 
ATOM     87  C   UNL     1       5.467  16.199   3.079  1.00  0.00     0.071 C 
ATOM     88  C   UNL     1       5.853  16.079   4.521  1.00  0.00     0.071 C 
ENDBRANCH  83  86
ENDBRANCH  77  83
BRANCH  81  89
ATOM     89  S   UNL     1       7.633  11.845  -1.133  1.00  0.00    -0.156 SA
BRANCH  89  90
ATOM     90  C   UNL     1       5.847  11.630  -1.431  1.00  0.00     0.104 C 
BRANCH  90  91
ATOM     91  C   UNL     1       5.485  12.334  -2.763  1.00  0.00     0.149 C 
BRANCH  91  92
ATOM     92  C   UNL     1       3.974  12.499  -2.950  1.00  0.00     0.188 C 
BRANCH  92  93
ATOM     93  O   UNL     1       3.724  13.158  -4.196  1.00  0.00    -0.394 OA
ATOM     94  H   UNL     1       4.152  14.029  -4.192  1.00  0.00     0.210 HD
ENDBRANCH  92  93
ENDBRANCH  91  92
BRANCH  91  95
ATOM     95  O   UNL     1       6.022  13.670  -2.845  1.00  0.00    -0.390 OA
ATOM     96  H   UNL     1       5.623  14.222  -2.154  1.00  0.00     0.211 HD
ENDBRANCH  91  95
ENDBRANCH  90  91
ENDBRANCH  89  90
ENDBRANCH  81  89
ENDBRANCH  74  77
ENDBRANCH   1  73
TORSDOF 21
