REMARK SMILES O=C(NCCCNC(=O)c1cnc2c(C(F)(F)F)cccc2c1NCc1cccnc1)c1ccc(-c2c3nc(c(-c4cc(S(=O)(=O)[O-])ccc4F)c4ccc([nH]4)c(-c4cc(S(=O)(=O)[O-])ccc4F)c4nc(c(-c5cc(S(=O)(=O)[O-])ccc5F)c5ccc2[nH]5)C=C4)C=C3)cc1
REMARK SMILES IDX 5 1 4 2 3 3 1 4 2 5 32 7 33 8 94 9 34 10 93 11 35 12 36 13
REMARK SMILES IDX 37 14 87 15 38 16 92 17 86 18 88 19 39 20 91 21 85 22 84 23
REMARK SMILES IDX 40 25 72 26 52 27 71 28 53 29 56 30 70 31 89 32 54 33 55 34
REMARK SMILES IDX 69 36 90 37 57 38 41 39 42 40 50 41 43 42 49 43 51 44 48 45
REMARK SMILES IDX 44 46 45 47 46 48 47 49 73 50 74 51 82 52 75 53 81 54 83 55
REMARK SMILES IDX 80 56 76 57 77 58 78 59 79 60 58 61 59 62 67 63 60 64 66 65
REMARK SMILES IDX 68 66 65 67 61 68 62 69 63 70 64 71 6 72 7 73 8 74 9 76
REMARK SMILES IDX 10 77 11 78 23 79 12 80 22 81 13 82 21 83 14 84 20 85 19 86
REMARK SMILES IDX 24 87 25 89 26 90 27 91 31 92 28 93 30 94 29 95 15 96 16 97
REMARK SMILES IDX 17 98 18 99
REMARK H PARENT 3 6 88 24 56 35 7 75 24 88
REMARK Flexibility Score: inf
ROOT
ATOM      1  C   UNL     1       4.913   0.539  -2.658  1.00  0.00     0.042 C 
ENDROOT
BRANCH   1   2
ATOM      2  C   UNL     1       4.548   0.992  -1.253  1.00  0.00     0.118 C 
BRANCH   2   3
ATOM      3  N   UNL     1       3.130   0.831  -0.946  1.00  0.00    -0.352 N 
ATOM      4  O   UNL     1       1.252  -0.082  -0.121  1.00  0.00    -0.269 OA
ATOM      5  C   UNL     1       2.476  -0.035  -0.097  1.00  0.00     0.251 C 
ATOM      6  H   UNL     1       2.537   1.450  -1.431  1.00  0.00     0.163 HD
BRANCH   5   7
ATOM      7  C   UNL     1       3.233  -0.916   0.824  1.00  0.00     0.039 A 
ATOM      8  C   UNL     1       4.372  -0.458   1.480  1.00  0.00     0.014 A 
ATOM      9  C   UNL     1       2.774  -2.217   1.065  1.00  0.00     0.014 A 
ATOM     10  C   UNL     1       5.154  -1.343   2.209  1.00  0.00     0.010 A 
ATOM     11  C   UNL     1       3.500  -3.075   1.902  1.00  0.00     0.010 A 
ATOM     12  C   UNL     1       4.720  -2.657   2.452  1.00  0.00    -0.014 A 
BRANCH  12  13
ATOM     13  C   UNL     1       5.550  -3.522   3.334  1.00  0.00     0.031 A 
ATOM     14  C   UNL     1       6.196  -4.780   2.819  1.00  0.00     0.074 A 
ATOM     15  C   UNL     1       5.787  -3.105   4.595  1.00  0.00     0.049 A 
ATOM     16  N   UNL     1       7.025  -5.588   3.432  1.00  0.00    -0.248 NA
ATOM     17  C   UNL     1       5.863  -5.193   1.448  1.00  0.00     0.031 C 
ATOM     18  C   UNL     1       5.191  -1.913   5.208  1.00  0.00     0.029 A 
ATOM     19  N   UNL     1       6.614  -3.597   5.571  1.00  0.00    -0.354 N 
ATOM     20  C   UNL     1       7.309  -6.607   2.528  1.00  0.00     0.074 A 
ATOM     21  C   UNL     1       6.528  -6.335   1.338  1.00  0.00     0.031 C 
ATOM     22  C   UNL     1       5.730  -1.723   6.420  1.00  0.00     0.029 A 
ATOM     23  C   UNL     1       6.652  -2.816   6.704  1.00  0.00     0.049 A 
ATOM     24  H   UNL     1       7.132  -4.428   5.470  1.00  0.00     0.167 HD
ATOM     25  C   UNL     1       8.149  -7.662   2.675  1.00  0.00     0.034 A 
ATOM     26  C   UNL     1       7.342  -2.964   7.851  1.00  0.00     0.034 A 
ATOM     27  C   UNL     1       8.920  -7.918   3.870  1.00  0.00     0.049 A 
ATOM     28  C   UNL     1       8.268  -4.141   7.983  1.00  0.00     0.074 A 
ATOM     29  C   UNL     1       9.799  -8.957   4.126  1.00  0.00     0.029 A 
ATOM     30  N   UNL     1       8.907  -7.125   5.012  1.00  0.00    -0.354 N 
ATOM     31  N   UNL     1       8.522  -5.091   7.113  1.00  0.00    -0.248 NA
ATOM     32  C   UNL     1       9.004  -4.261   9.246  1.00  0.00     0.031 C 
ATOM     33  C   UNL     1      10.273  -8.823   5.437  1.00  0.00     0.029 A 
ATOM     34  C   UNL     1       9.745  -7.663   5.978  1.00  0.00     0.049 A 
ATOM     35  H   UNL     1       8.379  -6.301   5.119  1.00  0.00     0.167 HD
ATOM     36  C   UNL     1       9.449  -5.925   7.728  1.00  0.00     0.074 A 
ATOM     37  C   UNL     1       9.742  -5.337   9.020  1.00  0.00     0.031 C 
ATOM     38  C   UNL     1      10.001  -7.080   7.274  1.00  0.00     0.034 A 
BRANCH  25  39
ATOM     39  C   UNL     1       8.248  -8.639   1.526  1.00  0.00     0.023 A 
ATOM     40  C   UNL     1       8.792  -8.269   0.284  1.00  0.00     0.031 A 
ATOM     41  C   UNL     1       7.788  -9.960   1.675  1.00  0.00     0.131 A 
ATOM     42  C   UNL     1       8.812  -9.191  -0.776  1.00  0.00     0.055 A 
ATOM     43  C   UNL     1       7.874 -10.892   0.639  1.00  0.00     0.041 A 
ATOM     44  F   UNL     1       7.241 -10.367   2.832  1.00  0.00    -0.206 F 
ATOM     45  C   UNL     1       8.378 -10.507  -0.600  1.00  0.00     0.022 A 
BRANCH  42  46
ATOM     46  S   UNL     1       9.312  -8.615  -2.422  1.00  0.00     0.124 S 
ATOM     47  O   UNL     1       8.314  -7.583  -2.691  1.00  0.00    -0.237 OA
ATOM     48  O   UNL     1      10.673  -8.143  -2.193  1.00  0.00    -0.237 OA
ATOM     49  O   UNL     1       9.200  -9.812  -3.253  1.00  0.00    -0.744 OA
ENDBRANCH  42  46
ENDBRANCH  25  39
BRANCH  26  50
ATOM     50  C   UNL     1       7.155  -1.998   8.970  1.00  0.00     0.023 A 
ATOM     51  C   UNL     1       8.212  -1.200   9.434  1.00  0.00     0.031 A 
ATOM     52  C   UNL     1       5.909  -1.881   9.614  1.00  0.00     0.131 A 
ATOM     53  C   UNL     1       8.016  -0.353  10.536  1.00  0.00     0.055 A 
ATOM     54  C   UNL     1       5.704  -0.996  10.672  1.00  0.00     0.041 A 
ATOM     55  F   UNL     1       4.862  -2.617   9.207  1.00  0.00    -0.206 F 
ATOM     56  C   UNL     1       6.766  -0.235  11.148  1.00  0.00     0.022 A 
BRANCH  53  57
ATOM     57  S   UNL     1       9.446   0.530  11.219  1.00  0.00     0.124 S 
ATOM     58  O   UNL     1      10.377  -0.562  11.478  1.00  0.00    -0.237 OA
ATOM     59  O   UNL     1       9.798   1.427  10.124  1.00  0.00    -0.237 OA
ATOM     60  O   UNL     1       8.905   1.184  12.409  1.00  0.00    -0.744 OA
ENDBRANCH  53  57
ENDBRANCH  26  50
BRANCH  38  61
ATOM     61  C   UNL     1      10.980  -7.761   8.197  1.00  0.00     0.023 A 
ATOM     62  C   UNL     1      10.567  -8.310   9.424  1.00  0.00     0.031 A 
ATOM     63  C   UNL     1      12.347  -7.811   7.874  1.00  0.00     0.131 A 
ATOM     64  C   UNL     1      11.521  -8.818  10.318  1.00  0.00     0.055 A 
ATOM     65  C   UNL     1      13.284  -8.376   8.740  1.00  0.00     0.041 A 
ATOM     66  F   UNL     1      12.795  -7.299   6.716  1.00  0.00    -0.206 F 
ATOM     67  C   UNL     1      12.875  -8.867   9.978  1.00  0.00     0.022 A 
BRANCH  64  68
ATOM     68  S   UNL     1      10.981  -9.306  11.979  1.00  0.00     0.124 S 
ATOM     69  O   UNL     1      10.364  -8.079  12.471  1.00  0.00    -0.237 OA
ATOM     70  O   UNL     1      10.069 -10.410  11.698  1.00  0.00    -0.237 OA
ATOM     71  O   UNL     1      12.225  -9.685  12.646  1.00  0.00    -0.744 OA
ENDBRANCH  64  68
ENDBRANCH  38  61
ENDBRANCH  12  13
ENDBRANCH   5   7
ENDBRANCH   2   3
ENDBRANCH   1   2
BRANCH   1  72
ATOM     72  C   UNL     1       4.238   1.330  -3.766  1.00  0.00     0.118 C 
BRANCH  72  73
ATOM     73  N   UNL     1       4.519   2.762  -3.720  1.00  0.00    -0.352 N 
ATOM     74  C   UNL     1       5.249   3.542  -4.587  1.00  0.00     0.254 C 
ATOM     75  H   UNL     1       4.127   3.241  -2.955  1.00  0.00     0.163 HD
ATOM     76  O   UNL     1       5.238   4.764  -4.484  1.00  0.00    -0.269 OA
BRANCH  74  77
ATOM     77  C   UNL     1       5.973   2.905  -5.694  1.00  0.00     0.081 A 
ATOM     78  C   UNL     1       5.134   2.418  -6.684  1.00  0.00     0.127 A 
ATOM     79  C   UNL     1       7.363   2.730  -5.814  1.00  0.00     0.058 A 
ATOM     80  N   UNL     1       5.540   1.679  -7.729  1.00  0.00    -0.255 NA
ATOM     81  C   UNL     1       7.813   1.998  -6.981  1.00  0.00     0.025 A 
ATOM     82  C   UNL     1       6.846   1.447  -7.870  1.00  0.00     0.085 A 
ATOM     83  C   UNL     1       9.178   1.775  -7.306  1.00  0.00     0.012 A 
ATOM     84  C   UNL     1       7.243   0.637  -8.931  1.00  0.00     0.082 A 
ATOM     85  C   UNL     1       9.569   1.005  -8.400  1.00  0.00     0.001 A 
ATOM     86  C   UNL     1       8.603   0.418  -9.198  1.00  0.00     0.015 A 
BRANCH  79  87
ATOM     87  N   UNL     1       8.324   3.177  -4.911  1.00  0.00    -0.380 N 
ATOM     88  H   UNL     1       9.229   2.827  -5.074  1.00  0.00     0.160 HD
BRANCH  87  89
ATOM     89  C   UNL     1       8.223   4.072  -3.769  1.00  0.00     0.150 C 
BRANCH  89  90
ATOM     90  C   UNL     1       8.865   3.463  -2.549  1.00  0.00    -0.011 A 
ATOM     91  C   UNL     1       9.521   4.255  -1.601  1.00  0.00     0.009 A 
ATOM     92  C   UNL     1       8.733   2.109  -2.255  1.00  0.00     0.116 A 
ATOM     93  C   UNL     1      10.026   3.674  -0.439  1.00  0.00     0.020 A 
ATOM     94  N   UNL     1       9.209   1.520  -1.136  1.00  0.00    -0.264 NA
ATOM     95  C   UNL     1       9.847   2.314  -0.253  1.00  0.00     0.111 A 
ENDBRANCH  89  90
ENDBRANCH  87  89
ENDBRANCH  79  87
BRANCH  84  96
ATOM     96  C   UNL     1       6.192  -0.037  -9.774  1.00  0.00     0.418 C 
ATOM     97  F   UNL     1       5.399  -0.897  -9.072  1.00  0.00    -0.166 F 
ATOM     98  F   UNL     1       5.355   0.828 -10.415  1.00  0.00    -0.166 F 
ATOM     99  F   UNL     1       6.732  -0.799 -10.775  1.00  0.00    -0.166 F 
ENDBRANCH  84  96
ENDBRANCH  74  77
ENDBRANCH  72  73
ENDBRANCH   1  72
TORSDOF 17
