REMARK SMILES Cc1ccc(C#N)cc1S(=O)(=O)Nc1cccc(C(=O)NCCCNC(=O)c2ccc(-c3c4nc(c(-c5cc(S(=O)(=O)[O-])ccc5F)c5ccc([nH]5)c(-c5cc(S(=O)(=O)[O-])ccc5F)c5nc(c(-c6cc(S(=O)(=O)[O-])ccc6F)c6ccc3[nH]6)C=C5)C=C4)cc2)c1
REMARK SMILES IDX 22 1 21 2 19 3 20 4 18 6 14 7 15 8 91 9 16 10 17 11 13 12
REMARK SMILES IDX 10 14 11 15 12 16 9 17 1 18 2 19 3 20 4 21 8 22 5 23 6 24
REMARK SMILES IDX 7 25 23 26 24 27 25 28 26 29 27 31 28 32 29 33 90 34 30 35
REMARK SMILES IDX 89 36 31 37 32 38 33 39 83 40 34 41 88 42 82 43 84 44 35 45
REMARK SMILES IDX 87 46 81 47 80 48 36 50 68 51 48 52 67 53 49 54 52 55 66 56
REMARK SMILES IDX 85 57 50 58 51 59 65 61 86 62 53 63 37 64 38 65 46 66 39 67
REMARK SMILES IDX 45 68 47 69 44 70 40 71 41 72 42 73 43 74 69 75 70 76 78 77
REMARK SMILES IDX 71 78 77 79 79 80 76 81 72 82 73 83 74 84 75 85 54 86 55 87
REMARK SMILES IDX 63 88 56 89 62 90 64 91 61 92 57 93 58 94 59 95 60 96
REMARK H PARENT 21 5 13 13 25 30 84 49 52 60
REMARK Flexibility Score: inf
ROOT
ATOM      1  C   UNL     1       4.787  -0.769  -2.429  1.00  0.00     0.118 C 
ENDROOT
BRANCH   1   2
ATOM      2  N   UNL     1       4.144  -2.063  -2.269  1.00  0.00    -0.352 N 
ATOM      3  C   UNL     1       2.831  -2.465  -2.198  1.00  0.00     0.251 C 
ATOM      4  O   UNL     1       2.629  -3.681  -2.165  1.00  0.00    -0.269 OA
ATOM      5  H   UNL     1       4.783  -2.808  -2.196  1.00  0.00     0.163 HD
BRANCH   3   6
ATOM      6  C   UNL     1       1.657  -1.542  -2.061  1.00  0.00     0.041 A 
ATOM      7  C   UNL     1       0.660   0.647  -1.755  1.00  0.00     0.050 A 
ATOM      8  C   UNL     1      -0.511   0.075  -1.276  1.00  0.00     0.027 A 
ATOM      9  C   UNL     1       1.680  -0.161  -2.272  1.00  0.00     0.040 A 
ATOM     10  C   UNL     1      -0.623  -1.309  -1.214  1.00  0.00     0.003 A 
ATOM     11  C   UNL     1       0.470  -2.109  -1.560  1.00  0.00     0.014 A 
BRANCH   7  12
ATOM     12  N   UNL     1       0.842   2.060  -1.615  1.00  0.00    -0.280 N 
ATOM     13  H   UNL     1       0.648   2.654  -2.375  1.00  0.00     0.180 HD
BRANCH  12  14
ATOM     14  S   UNL     1       1.398   2.729  -0.127  1.00  0.00     0.262 S 
ATOM     15  O   UNL     1       0.903   4.093  -0.163  1.00  0.00    -0.201 OA
ATOM     16  O   UNL     1       2.821   2.480  -0.064  1.00  0.00    -0.201 OA
BRANCH  14  17
ATOM     17  C   UNL     1       0.638   1.939   1.295  1.00  0.00     0.092 A 
ATOM     18  C   UNL     1       2.002  -0.240   1.169  1.00  0.00     0.046 C 
ATOM     19  C   UNL     1       0.860   0.600   1.665  1.00  0.00    -0.030 A 
ATOM     20  C   UNL     1       0.124   0.058   2.738  1.00  0.00     0.006 A 
ATOM     21  C   UNL     1      -0.647   0.872   3.563  1.00  0.00     0.020 A 
ATOM     22  C   UNL     1      -0.084   2.769   2.180  1.00  0.00     0.042 A 
ATOM     23  C   UNL     1      -0.679   2.245   3.336  1.00  0.00     0.053 A 
BRANCH  23  24
ATOM     24  C   UNL     1      -1.261   3.108   4.327  1.00  0.00     0.099 C 
ATOM     25  N   UNL     1      -1.714   3.773   5.158  1.00  0.00    -0.192 NA
ENDBRANCH  23  24
ENDBRANCH  14  17
ENDBRANCH  12  14
ENDBRANCH   7  12
ENDBRANCH   3   6
ENDBRANCH   1   2
BRANCH   1  26
ATOM     26  C   UNL     1       6.055  -0.580  -1.618  1.00  0.00     0.042 C 
BRANCH  26  27
ATOM     27  C   UNL     1       7.202  -1.507  -1.966  1.00  0.00     0.118 C 
BRANCH  27  28
ATOM     28  N   UNL     1       7.741  -1.301  -3.307  1.00  0.00    -0.352 N 
ATOM     29  C   UNL     1       8.931  -0.743  -3.729  1.00  0.00     0.251 C 
ATOM     30  H   UNL     1       7.157  -1.614  -4.034  1.00  0.00     0.163 HD
ATOM     31  O   UNL     1       9.110  -0.549  -4.929  1.00  0.00    -0.269 OA
BRANCH  29  32
ATOM     32  C   UNL     1       9.958  -0.330  -2.746  1.00  0.00     0.039 A 
ATOM     33  C   UNL     1      10.210  -1.105  -1.619  1.00  0.00     0.014 A 
ATOM     34  C   UNL     1      10.646   0.875  -2.921  1.00  0.00     0.014 A 
ATOM     35  C   UNL     1      10.895  -0.550  -0.547  1.00  0.00     0.010 A 
ATOM     36  C   UNL     1      11.472   1.359  -1.898  1.00  0.00     0.010 A 
ATOM     37  C   UNL     1      11.535   0.693  -0.665  1.00  0.00    -0.014 A 
BRANCH  37  38
ATOM     38  C   UNL     1      12.242   1.262   0.519  1.00  0.00     0.031 A 
ATOM     39  C   UNL     1      11.853   2.604   1.088  1.00  0.00     0.074 A 
ATOM     40  C   UNL     1      13.193   0.527   1.132  1.00  0.00     0.049 A 
ATOM     41  N   UNL     1      12.331   3.219   2.140  1.00  0.00    -0.248 NA
ATOM     42  C   UNL     1      10.801   3.360   0.389  1.00  0.00     0.031 C 
ATOM     43  C   UNL     1      13.653  -0.786   0.679  1.00  0.00     0.029 A 
ATOM     44  N   UNL     1      13.919   0.754   2.275  1.00  0.00    -0.354 N 
ATOM     45  C   UNL     1      11.660   4.436   2.215  1.00  0.00     0.074 A 
ATOM     46  C   UNL     1      10.772   4.494   1.076  1.00  0.00     0.031 C 
ATOM     47  C   UNL     1      14.526  -1.278   1.567  1.00  0.00     0.029 A 
ATOM     48  C   UNL     1      14.769  -0.278   2.602  1.00  0.00     0.049 A 
ATOM     49  H   UNL     1      13.840   1.577   2.810  1.00  0.00     0.167 HD
ATOM     50  C   UNL     1      11.761   5.404   3.157  1.00  0.00     0.034 A 
ATOM     51  C   UNL     1      15.662  -0.410   3.605  1.00  0.00     0.034 A 
ATOM     52  C   UNL     1      12.634   5.318   4.303  1.00  0.00     0.049 A 
ATOM     53  C   UNL     1      15.777   0.694   4.621  1.00  0.00     0.074 A 
ATOM     54  C   UNL     1      12.779   6.232   5.332  1.00  0.00     0.029 A 
ATOM     55  N   UNL     1      13.501   4.270   4.579  1.00  0.00    -0.354 N 
ATOM     56  N   UNL     1      15.096   1.813   4.702  1.00  0.00    -0.248 NA
ATOM     57  C   UNL     1      16.768   0.518   5.690  1.00  0.00     0.031 C 
ATOM     58  C   UNL     1      13.795   5.786   6.174  1.00  0.00     0.029 A 
ATOM     59  C   UNL     1      14.207   4.535   5.742  1.00  0.00     0.049 A 
ATOM     60  H   UNL     1      13.600   3.459   4.030  1.00  0.00     0.167 HD
ATOM     61  C   UNL     1      15.553   2.458   5.847  1.00  0.00     0.074 A 
ATOM     62  C   UNL     1      16.548   1.589   6.440  1.00  0.00     0.031 C 
ATOM     63  C   UNL     1      15.181   3.660   6.353  1.00  0.00     0.034 A 
BRANCH  50  64
ATOM     64  C   UNL     1      10.916   6.652   3.024  1.00  0.00     0.023 A 
ATOM     65  C   UNL     1      11.541   7.912   2.945  1.00  0.00     0.031 A 
ATOM     66  C   UNL     1       9.515   6.616   3.138  1.00  0.00     0.131 A 
ATOM     67  C   UNL     1      10.775   9.080   3.040  1.00  0.00     0.055 A 
ATOM     68  C   UNL     1       8.750   7.784   3.170  1.00  0.00     0.041 A 
ATOM     69  F   UNL     1       8.867   5.442   3.222  1.00  0.00    -0.206 F 
ATOM     70  C   UNL     1       9.382   9.023   3.140  1.00  0.00     0.022 A 
BRANCH  67  71
ATOM     71  S   UNL     1      11.563  10.711   3.139  1.00  0.00     0.124 S 
ATOM     72  O   UNL     1      10.975  11.399   1.991  1.00  0.00    -0.237 OA
ATOM     73  O   UNL     1      11.116  11.186   4.445  1.00  0.00    -0.237 OA
ATOM     74  O   UNL     1      12.988  10.421   3.025  1.00  0.00    -0.744 OA
ENDBRANCH  67  71
ENDBRANCH  50  64
BRANCH  51  75
ATOM     75  C   UNL     1      16.476  -1.659   3.691  1.00  0.00     0.023 A 
ATOM     76  C   UNL     1      17.312  -2.045   2.626  1.00  0.00     0.031 A 
ATOM     77  C   UNL     1      16.343  -2.541   4.776  1.00  0.00     0.131 A 
ATOM     78  C   UNL     1      17.907  -3.312   2.629  1.00  0.00     0.055 A 
ATOM     79  C   UNL     1      17.013  -3.766   4.816  1.00  0.00     0.041 A 
ATOM     80  F   UNL     1      15.547  -2.228   5.809  1.00  0.00    -0.206 F 
ATOM     81  C   UNL     1      17.782  -4.166   3.728  1.00  0.00     0.022 A 
BRANCH  78  82
ATOM     82  S   UNL     1      18.727  -3.952   1.142  1.00  0.00     0.124 S 
ATOM     83  O   UNL     1      20.073  -4.232   1.631  1.00  0.00    -0.237 OA
ATOM     84  O   UNL     1      17.909  -5.123   0.835  1.00  0.00    -0.237 OA
ATOM     85  O   UNL     1      18.616  -2.854   0.187  1.00  0.00    -0.744 OA
ENDBRANCH  78  82
ENDBRANCH  51  75
BRANCH  63  86
ATOM     86  C   UNL     1      15.810   4.134   7.645  1.00  0.00     0.023 A 
ATOM     87  C   UNL     1      14.988   4.424   8.752  1.00  0.00     0.031 A 
ATOM     88  C   UNL     1      17.177   4.447   7.739  1.00  0.00     0.131 A 
ATOM     89  C   UNL     1      15.527   5.055   9.879  1.00  0.00     0.055 A 
ATOM     90  C   UNL     1      17.723   5.012   8.892  1.00  0.00     0.041 A 
ATOM     91  F   UNL     1      18.004   4.210   6.708  1.00  0.00    -0.206 F 
ATOM     92  C   UNL     1      16.894   5.336   9.962  1.00  0.00     0.022 A 
BRANCH  89  93
ATOM     93  S   UNL     1      14.459   5.638  11.225  1.00  0.00     0.124 S 
ATOM     94  O   UNL     1      14.969   4.879  12.365  1.00  0.00    -0.237 OA
ATOM     95  O   UNL     1      14.749   7.069  11.248  1.00  0.00    -0.237 OA
ATOM     96  O   UNL     1      13.114   5.276  10.790  1.00  0.00    -0.744 OA
ENDBRANCH  89  93
ENDBRANCH  63  86
ENDBRANCH  37  38
ENDBRANCH  29  32
ENDBRANCH  27  28
ENDBRANCH  26  27
ENDBRANCH   1  26
TORSDOF 17
