REMARK SMILES O=C(NCCCNC(=O)c1ccccc1/C=N\NC(=S)NCc1ccccc1)c1ccc(-c2c3nc(c(-c4cc(S(=O)(=O)[O-])ccc4F)c4ccc([nH]4)c(-c4cc(S(=O)(=O)[O-])ccc4F)c4nc(c(-c5cc(S(=O)(=O)[O-])ccc5F)c5ccc2[nH]5)C=C4)C=C3)cc1
REMARK SMILES IDX 7 1 8 2 9 3 6 5 5 6 4 7 3 8 1 9 2 10 29 12 30 13 91 14 31 15
REMARK SMILES IDX 90 16 32 17 33 18 34 19 84 20 35 21 89 22 83 23 85 24 36 25
REMARK SMILES IDX 88 26 82 27 81 28 37 30 69 31 49 32 68 33 50 34 53 35 67 36
REMARK SMILES IDX 86 37 51 38 52 39 66 41 87 42 54 43 38 44 39 45 47 46 40 47
REMARK SMILES IDX 46 48 48 49 45 50 41 51 42 52 43 53 44 54 70 55 71 56 79 57
REMARK SMILES IDX 72 58 78 59 80 60 77 61 73 62 74 63 75 64 76 65 55 66 56 67
REMARK SMILES IDX 64 68 57 69 63 70 65 71 62 72 58 73 59 74 60 75 61 76 10 77
REMARK SMILES IDX 11 78 15 79 12 80 14 81 13 82 16 83 17 84 18 85 19 87 20 88
REMARK SMILES IDX 21 89 22 91 23 92 24 93 28 94 25 95 27 96 26 97
REMARK H PARENT 7 4 3 11 85 29 53 40 18 86 21 90
REMARK Flexibility Score: inf
ROOT
ATOM      1  N   UNL     1       3.841  -2.383  -4.051  1.00  0.00    -0.352 N 
ATOM      2  C   UNL     1       4.397  -3.218  -4.995  1.00  0.00     0.251 C 
ATOM      3  O   UNL     1       4.613  -2.796  -6.128  1.00  0.00    -0.269 OA
ATOM      4  H   UNL     1       3.675  -1.470  -4.379  1.00  0.00     0.163 HD
ENDROOT
BRANCH   1   5
ATOM      5  C   UNL     1       3.451  -2.588  -2.660  1.00  0.00     0.118 C 
BRANCH   5   6
ATOM      6  C   UNL     1       4.357  -1.939  -1.621  1.00  0.00     0.042 C 
BRANCH   6   7
ATOM      7  C   UNL     1       4.215  -0.430  -1.532  1.00  0.00     0.118 C 
BRANCH   7   8
ATOM      8  N   UNL     1       2.847  -0.027  -1.227  1.00  0.00    -0.352 N 
ATOM      9  O   UNL     1       1.019   0.317   0.021  1.00  0.00    -0.269 OA
ATOM     10  C   UNL     1       2.247   0.322  -0.042  1.00  0.00     0.251 C 
ATOM     11  H   UNL     1       2.248  -0.002  -2.008  1.00  0.00     0.163 HD
BRANCH  10  12
ATOM     12  C   UNL     1       3.046   0.713   1.141  1.00  0.00     0.039 A 
ATOM     13  C   UNL     1       4.237   1.421   0.995  1.00  0.00     0.014 A 
ATOM     14  C   UNL     1       2.557   0.446   2.425  1.00  0.00     0.014 A 
ATOM     15  C   UNL     1       5.014   1.718   2.107  1.00  0.00     0.010 A 
ATOM     16  C   UNL     1       3.282   0.854   3.552  1.00  0.00     0.010 A 
ATOM     17  C   UNL     1       4.532   1.472   3.402  1.00  0.00    -0.014 A 
BRANCH  17  18
ATOM     18  C   UNL     1       5.334   1.944   4.563  1.00  0.00     0.031 A 
ATOM     19  C   UNL     1       5.888   0.978   5.571  1.00  0.00     0.074 A 
ATOM     20  C   UNL     1       5.603   3.262   4.666  1.00  0.00     0.049 A 
ATOM     21  N   UNL     1       6.654   1.216   6.606  1.00  0.00    -0.248 NA
ATOM     22  C   UNL     1       5.527  -0.437   5.406  1.00  0.00     0.031 C 
ATOM     23  C   UNL     1       5.108   4.294   3.748  1.00  0.00     0.029 A 
ATOM     24  N   UNL     1       6.379   3.960   5.554  1.00  0.00    -0.354 N 
ATOM     25  C   UNL     1       6.850  -0.013   7.229  1.00  0.00     0.074 A 
ATOM     26  C   UNL     1       6.090  -0.986   6.473  1.00  0.00     0.031 C 
ATOM     27  C   UNL     1       5.654   5.473   4.074  1.00  0.00     0.029 A 
ATOM     28  C   UNL     1       6.466   5.304   5.272  1.00  0.00     0.049 A 
ATOM     29  H   UNL     1       6.831   3.540   6.321  1.00  0.00     0.167 HD
ATOM     30  C   UNL     1       7.601  -0.298   8.323  1.00  0.00     0.034 A 
ATOM     31  C   UNL     1       7.114   6.296   5.912  1.00  0.00     0.034 A 
ATOM     32  C   UNL     1       8.354   0.692   9.059  1.00  0.00     0.049 A 
ATOM     33  C   UNL     1       7.905   5.957   7.146  1.00  0.00     0.074 A 
ATOM     34  C   UNL     1       9.177   0.508  10.159  1.00  0.00     0.029 A 
ATOM     35  N   UNL     1       8.369   2.054   8.782  1.00  0.00    -0.354 N 
ATOM     36  N   UNL     1       8.101   4.786   7.705  1.00  0.00    -0.248 NA
ATOM     37  C   UNL     1       8.562   7.074   7.831  1.00  0.00     0.031 C 
ATOM     38  C   UNL     1       9.623   1.762  10.591  1.00  0.00     0.029 A 
ATOM     39  C   UNL     1       9.154   2.724   9.711  1.00  0.00     0.049 A 
ATOM     40  H   UNL     1       7.892   2.482   8.035  1.00  0.00     0.167 HD
ATOM     41  C   UNL     1       8.929   5.024   8.798  1.00  0.00     0.074 A 
ATOM     42  C   UNL     1       9.210   6.446   8.800  1.00  0.00     0.031 C 
ATOM     43  C   UNL     1       9.414   4.146   9.713  1.00  0.00     0.034 A 
BRANCH  30  44
ATOM     44  C   UNL     1       7.595  -1.727   8.819  1.00  0.00     0.023 A 
ATOM     45  C   UNL     1       8.081  -2.790   8.036  1.00  0.00     0.031 A 
ATOM     46  C   UNL     1       7.063  -2.036  10.084  1.00  0.00     0.131 A 
ATOM     47  C   UNL     1       7.951  -4.112   8.490  1.00  0.00     0.055 A 
ATOM     48  C   UNL     1       7.016  -3.346  10.566  1.00  0.00     0.041 A 
ATOM     49  F   UNL     1       6.564  -1.069  10.870  1.00  0.00    -0.206 F 
ATOM     50  C   UNL     1       7.446  -4.396   9.760  1.00  0.00     0.022 A 
BRANCH  47  51
ATOM     51  S   UNL     1       8.304  -5.464   7.331  1.00  0.00     0.124 S 
ATOM     52  O   UNL     1       7.404  -5.149   6.223  1.00  0.00    -0.237 OA
ATOM     53  O   UNL     1       9.727  -5.288   7.064  1.00  0.00    -0.237 OA
ATOM     54  O   UNL     1       7.953  -6.664   8.086  1.00  0.00    -0.744 OA
ENDBRANCH  47  51
ENDBRANCH  30  44
BRANCH  31  55
ATOM     55  C   UNL     1       7.025   7.699   5.415  1.00  0.00     0.023 A 
ATOM     56  C   UNL     1       8.169   8.387   4.982  1.00  0.00     0.031 A 
ATOM     57  C   UNL     1       5.797   8.385   5.396  1.00  0.00     0.131 A 
ATOM     58  C   UNL     1       8.070   9.730   4.589  1.00  0.00     0.055 A 
ATOM     59  C   UNL     1       5.694   9.703   4.948  1.00  0.00     0.041 A 
ATOM     60  F   UNL     1       4.671   7.774   5.797  1.00  0.00    -0.206 F 
ATOM     61  C   UNL     1       6.838  10.388   4.554  1.00  0.00     0.022 A 
BRANCH  58  62
ATOM     62  S   UNL     1       9.593  10.636   4.204  1.00  0.00     0.124 S 
ATOM     63  O   UNL     1      10.343  10.497   5.447  1.00  0.00    -0.237 OA
ATOM     64  O   UNL     1      10.106   9.892   3.059  1.00  0.00    -0.237 OA
ATOM     65  O   UNL     1       9.120  11.986   3.907  1.00  0.00    -0.744 OA
ENDBRANCH  58  62
ENDBRANCH  31  55
BRANCH  43  66
ATOM     66  C   UNL     1      10.340   4.709  10.765  1.00  0.00     0.023 A 
ATOM     67  C   UNL     1       9.898   5.640  11.722  1.00  0.00     0.031 A 
ATOM     68  C   UNL     1      11.696   4.337  10.783  1.00  0.00     0.131 A 
ATOM     69  C   UNL     1      10.818   6.220  12.609  1.00  0.00     0.055 A 
ATOM     70  C   UNL     1      12.592   4.865  11.714  1.00  0.00     0.041 A 
ATOM     71  F   UNL     1      12.176   3.456   9.890  1.00  0.00    -0.206 F 
ATOM     72  C   UNL     1      12.158   5.825  12.623  1.00  0.00     0.022 A 
BRANCH  69  73
ATOM     73  S   UNL     1      10.264   7.588  13.665  1.00  0.00     0.124 S 
ATOM     74  O   UNL     1       9.770   8.548  12.682  1.00  0.00    -0.237 OA
ATOM     75  O   UNL     1       9.250   6.948  14.497  1.00  0.00    -0.237 OA
ATOM     76  O   UNL     1      11.479   7.991  14.369  1.00  0.00    -0.744 OA
ENDBRANCH  69  73
ENDBRANCH  43  66
ENDBRANCH  17  18
ENDBRANCH  10  12
ENDBRANCH   7   8
ENDBRANCH   6   7
ENDBRANCH   5   6
ENDBRANCH   1   5
BRANCH   2  77
ATOM     77  C   UNL     1       4.925  -4.543  -4.629  1.00  0.00     0.048 A 
ATOM     78  C   UNL     1       6.672  -4.797  -5.017  1.00  0.00     0.014 A 
ATOM     79  C   UNL     1       4.133  -5.621  -3.400  1.00  0.00     0.007 A 
ATOM     80  C   UNL     1       7.608  -6.148  -4.237  1.00  0.00     0.001 A 
ATOM     81  C   UNL     1       5.046  -7.011  -2.636  1.00  0.00     0.010 A 
ATOM     82  C   UNL     1       6.788  -7.245  -3.058  1.00  0.00     0.001 A 
BRANCH  79  83
ATOM     83  C   UNL     1       2.733  -5.865  -3.583  1.00  0.00     0.142 C 
ATOM     84  N   UNL     1       2.388  -6.929  -4.215  1.00  0.00    -0.181 NA
BRANCH  84  85
ATOM     85  N   UNL     1       3.390  -7.668  -4.802  1.00  0.00    -0.254 N 
ATOM     86  H   UNL     1       3.119  -8.586  -5.030  1.00  0.00     0.193 HD
BRANCH  85  87
ATOM     87  C   UNL     1       4.684  -7.382  -5.133  1.00  0.00     0.187 C 
ATOM     88  S   UNL     1       5.308  -8.289  -6.417  1.00  0.00    -0.039 S 
BRANCH  87  89
ATOM     89  N   UNL     1       5.579  -6.468  -4.523  1.00  0.00    -0.357 N 
ATOM     90  H   UNL     1       6.316  -6.392  -5.170  1.00  0.00     0.163 HD
BRANCH  89  91
ATOM     91  C   UNL     1       6.144  -5.200  -2.966  1.00  0.00     0.151 C 
BRANCH  91  92
ATOM     92  C   UNL     1       7.546  -4.482  -2.418  1.00  0.00    -0.029 A 
ATOM     93  C   UNL     1       8.092  -4.981  -1.217  1.00  0.00     0.005 A 
ATOM     94  C   UNL     1       7.859  -3.157  -2.802  1.00  0.00     0.005 A 
ATOM     95  C   UNL     1       8.842  -4.149  -0.384  1.00  0.00     0.000 A 
ATOM     96  C   UNL     1       8.620  -2.339  -1.965  1.00  0.00     0.000 A 
ATOM     97  C   UNL     1       9.080  -2.825  -0.744  1.00  0.00     0.000 A 
ENDBRANCH  91  92
ENDBRANCH  89  91
ENDBRANCH  87  89
ENDBRANCH  85  87
ENDBRANCH  84  85
ENDBRANCH  79  83
ENDBRANCH   2  77
TORSDOF 19
