REMARK SMILES CC[C@@H](C)[C@H](C(=O)NCCCNC(=O)c1ccc(-c2c3nc(c(-c4cc(S(=O)(=O)[O-])ccc4F)c4ccc([nH]4)c(-c4cc(S(=O)(=O)[O-])ccc4F)c4nc(c(-c5cc(S(=O)(=O)[O-])ccc5F)c5ccc2[nH]5)C=C4)C=C3)cc1)N1C(=O)/C(=C/c2ccc3c(c2)OCO3)SC1=S
REMARK SMILES IDX 10 1 9 2 8 3 6 4 7 5 5 7 3 8 4 9 2 10 1 11 78 12 79 13 93 14
REMARK SMILES IDX 80 15 81 16 92 17 94 18 82 19 83 20 84 21 88 22 85 23 87 24
REMARK SMILES IDX 86 25 89 26 91 27 90 28 11 29 12 30 13 31 14 33 15 34 16 35
REMARK SMILES IDX 77 36 17 37 76 38 18 39 19 40 20 41 70 42 21 43 75 44 69 45
REMARK SMILES IDX 71 46 22 47 74 48 68 49 67 50 23 52 55 53 35 54 54 55 36 56
REMARK SMILES IDX 39 57 53 58 72 59 37 60 38 61 52 63 73 64 40 65 24 66 25 67
REMARK SMILES IDX 33 68 26 69 32 70 34 71 31 72 27 73 28 74 29 75 30 76 56 77
REMARK SMILES IDX 57 78 65 79 58 80 64 81 66 82 63 83 59 84 60 85 61 86 62 87
REMARK SMILES IDX 41 88 42 89 50 90 43 91 49 92 51 93 48 94 44 95 45 96 46 97
REMARK SMILES IDX 47 98
REMARK H PARENT 8 6 12 32 71 51 39 62
REMARK Flexibility Score: inf
ROOT
ATOM      1  C   UNL     1       3.812  -1.771  -2.262  1.00  0.00     0.042 C 
ENDROOT
BRANCH   1   2
ATOM      2  C   UNL     1       3.265  -2.553  -1.078  1.00  0.00     0.117 C 
BRANCH   2   3
ATOM      3  N   UNL     1       2.046  -1.949  -0.575  1.00  0.00    -0.354 N 
ATOM      4  C   UNL     1       0.775  -2.439  -0.522  1.00  0.00     0.243 C 
ATOM      5  O   UNL     1      -0.051  -1.801   0.141  1.00  0.00    -0.273 OA
ATOM      6  H   UNL     1       2.154  -1.040  -0.213  1.00  0.00     0.163 HD
BRANCH   4   7
ATOM      7  C   UNL     1       0.343  -3.748  -1.239  1.00  0.00     0.184 C 
BRANCH   7   8
ATOM      8  C   UNL     1       0.456  -3.710  -2.815  1.00  0.00     0.018 C 
ATOM      9  C   UNL     1       1.744  -4.255  -3.435  1.00  0.00     0.010 C 
BRANCH   8  10
ATOM     10  C   UNL     1       0.007  -2.341  -3.390  1.00  0.00     0.002 C 
ATOM     11  C   UNL     1       0.263  -2.141  -4.878  1.00  0.00     0.004 C 
ENDBRANCH   8  10
ENDBRANCH   7   8
BRANCH   7  12
ATOM     12  N   UNL     1       0.728  -5.025  -0.563  1.00  0.00    -0.280 N 
ATOM     13  C   UNL     1       1.591  -5.041   0.527  1.00  0.00     0.266 C 
ATOM     14  C   UNL     1       0.143  -6.251  -0.842  1.00  0.00     0.149 C 
ATOM     15  O   UNL     1       2.060  -4.093   1.142  1.00  0.00    -0.268 OA
ATOM     16  C   UNL     1       1.908  -6.428   0.939  1.00  0.00     0.081 C 
ATOM     17  S   UNL     1       0.969  -7.534   0.031  1.00  0.00    -0.054 SA
ATOM     18  S   UNL     1      -1.171  -6.620  -1.804  1.00  0.00    -0.052 S 
ATOM     19  C   UNL     1       2.855  -6.702   1.851  1.00  0.00     0.029 C 
BRANCH  19  20
ATOM     20  C   UNL     1       3.338  -8.066   2.065  1.00  0.00    -0.020 A 
ATOM     21  C   UNL     1       2.886  -8.853   3.144  1.00  0.00     0.012 A 
ATOM     22  C   UNL     1       4.135  -8.626   1.057  1.00  0.00     0.058 A 
ATOM     23  C   UNL     1       3.164 -10.225   3.178  1.00  0.00     0.051 A 
ATOM     24  C   UNL     1       4.338  -9.982   1.090  1.00  0.00     0.166 A 
ATOM     25  C   UNL     1       3.854 -10.764   2.112  1.00  0.00     0.165 A 
ATOM     26  O   UNL     1       4.937 -10.710   0.110  1.00  0.00    -0.454 OA
ATOM     27  O   UNL     1       4.088 -12.087   1.889  1.00  0.00    -0.454 OA
ATOM     28  C   UNL     1       4.555 -12.035   0.522  1.00  0.00     0.468 C 
ENDBRANCH  19  20
ENDBRANCH   7  12
ENDBRANCH   4   7
ENDBRANCH   2   3
ENDBRANCH   1   2
BRANCH   1  29
ATOM     29  C   UNL     1       4.661  -0.590  -1.829  1.00  0.00     0.118 C 
BRANCH  29  30
ATOM     30  N   UNL     1       6.003  -1.019  -1.461  1.00  0.00    -0.352 N 
ATOM     31  C   UNL     1       7.192  -0.842  -2.131  1.00  0.00     0.251 C 
ATOM     32  H   UNL     1       6.070  -1.507  -0.609  1.00  0.00     0.163 HD
ATOM     33  O   UNL     1       8.154  -1.545  -1.835  1.00  0.00    -0.269 OA
BRANCH  31  34
ATOM     34  C   UNL     1       7.307   0.173  -3.204  1.00  0.00     0.039 A 
ATOM     35  C   UNL     1       8.136  -0.080  -4.301  1.00  0.00     0.014 A 
ATOM     36  C   UNL     1       6.631   1.393  -3.118  1.00  0.00     0.014 A 
ATOM     37  C   UNL     1       8.245   0.867  -5.323  1.00  0.00     0.010 A 
ATOM     38  C   UNL     1       6.647   2.280  -4.188  1.00  0.00     0.010 A 
ATOM     39  C   UNL     1       7.478   2.043  -5.291  1.00  0.00    -0.014 A 
BRANCH  39  40
ATOM     40  C   UNL     1       7.569   3.065  -6.368  1.00  0.00     0.031 A 
ATOM     41  C   UNL     1       8.021   4.464  -6.033  1.00  0.00     0.074 A 
ATOM     42  C   UNL     1       7.197   2.753  -7.625  1.00  0.00     0.049 A 
ATOM     43  N   UNL     1       8.086   5.521  -6.801  1.00  0.00    -0.248 NA
ATOM     44  C   UNL     1       8.418   4.716  -4.638  1.00  0.00     0.031 C 
ATOM     45  C   UNL     1       6.707   1.444  -8.062  1.00  0.00     0.029 A 
ATOM     46  N   UNL     1       7.167   3.513  -8.768  1.00  0.00    -0.354 N 
ATOM     47  C   UNL     1       8.513   6.561  -5.981  1.00  0.00     0.074 A 
ATOM     48  C   UNL     1       8.617   6.024  -4.642  1.00  0.00     0.031 C 
ATOM     49  C   UNL     1       6.461   1.483  -9.381  1.00  0.00     0.029 A 
ATOM     50  C   UNL     1       6.719   2.831  -9.876  1.00  0.00     0.049 A 
ATOM     51  H   UNL     1       7.441   4.458  -8.792  1.00  0.00     0.167 HD
ATOM     52  C   UNL     1       8.820   7.838  -6.317  1.00  0.00     0.034 A 
ATOM     53  C   UNL     1       6.524   3.249 -11.143  1.00  0.00     0.034 A 
ATOM     54  C   UNL     1       8.730   8.349  -7.663  1.00  0.00     0.049 A 
ATOM     55  C   UNL     1       6.843   4.683 -11.487  1.00  0.00     0.074 A 
ATOM     56  C   UNL     1       9.063   9.608  -8.130  1.00  0.00     0.029 A 
ATOM     57  N   UNL     1       8.268   7.629  -8.758  1.00  0.00    -0.354 N 
ATOM     58  N   UNL     1       7.292   5.641 -10.708  1.00  0.00    -0.248 NA
ATOM     59  C   UNL     1       6.641   5.089 -12.884  1.00  0.00     0.031 C 
ATOM     60  C   UNL     1       8.731   9.674  -9.486  1.00  0.00     0.029 A 
ATOM     61  C   UNL     1       8.276   8.428  -9.890  1.00  0.00     0.049 A 
ATOM     62  H   UNL     1       7.978   6.689  -8.733  1.00  0.00     0.167 HD
ATOM     63  C   UNL     1       7.458   6.752 -11.531  1.00  0.00     0.074 A 
ATOM     64  C   UNL     1       7.080   6.339 -12.866  1.00  0.00     0.031 C 
ATOM     65  C   UNL     1       7.889   8.001 -11.214  1.00  0.00     0.034 A 
BRANCH  52  66
ATOM     66  C   UNL     1       9.258   8.768  -5.210  1.00  0.00     0.023 A 
ATOM     67  C   UNL     1      10.419   8.525  -4.454  1.00  0.00     0.031 A 
ATOM     68  C   UNL     1       8.495   9.906  -4.890  1.00  0.00     0.131 A 
ATOM     69  C   UNL     1      10.740   9.358  -3.372  1.00  0.00     0.055 A 
ATOM     70  C   UNL     1       8.869  10.781  -3.868  1.00  0.00     0.041 A 
ATOM     71  F   UNL     1       7.364  10.180  -5.558  1.00  0.00    -0.206 F 
ATOM     72  C   UNL     1       9.989  10.501  -3.091  1.00  0.00     0.022 A 
BRANCH  69  73
ATOM     73  S   UNL     1      12.066   8.842  -2.246  1.00  0.00     0.124 S 
ATOM     74  O   UNL     1      11.571   7.548  -1.783  1.00  0.00    -0.237 OA
ATOM     75  O   UNL     1      13.229   8.805  -3.123  1.00  0.00    -0.237 OA
ATOM     76  O   UNL     1      12.082   9.894  -1.231  1.00  0.00    -0.744 OA
ENDBRANCH  69  73
ENDBRANCH  52  66
BRANCH  53  77
ATOM     77  C   UNL     1       5.994   2.315 -12.179  1.00  0.00     0.023 A 
ATOM     78  C   UNL     1       6.753   1.987 -13.314  1.00  0.00     0.031 A 
ATOM     79  C   UNL     1       4.699   1.776 -12.078  1.00  0.00     0.131 A 
ATOM     80  C   UNL     1       6.192   1.195 -14.328  1.00  0.00     0.055 A 
ATOM     81  C   UNL     1       4.168   0.936 -13.059  1.00  0.00     0.041 A 
ATOM     82  F   UNL     1       3.928   2.053 -11.014  1.00  0.00    -0.206 F 
ATOM     83  C   UNL     1       4.911   0.654 -14.201  1.00  0.00     0.022 A 
BRANCH  80  84
ATOM     84  S   UNL     1       7.123   0.970 -15.869  1.00  0.00     0.124 S 
ATOM     85  O   UNL     1       7.329   2.349 -16.294  1.00  0.00    -0.237 OA
ATOM     86  O   UNL     1       8.307   0.256 -15.405  1.00  0.00    -0.237 OA
ATOM     87  O   UNL     1       6.213   0.188 -16.704  1.00  0.00    -0.744 OA
ENDBRANCH  80  84
ENDBRANCH  53  77
BRANCH  65  88
ATOM     88  C   UNL     1       8.022   8.990 -12.346  1.00  0.00     0.023 A 
ATOM     89  C   UNL     1       6.905   9.453 -13.063  1.00  0.00     0.031 A 
ATOM     90  C   UNL     1       9.290   9.473 -12.716  1.00  0.00     0.131 A 
ATOM     91  C   UNL     1       7.083  10.320 -14.150  1.00  0.00     0.055 A 
ATOM     92  C   UNL     1       9.455  10.391 -13.753  1.00  0.00     0.041 A 
ATOM     93  F   UNL     1      10.393   9.062 -12.069  1.00  0.00    -0.206 F 
ATOM     94  C   UNL     1       8.349  10.808 -14.487  1.00  0.00     0.022 A 
BRANCH  91  95
ATOM     95  S   UNL     1       5.650  10.722 -15.187  1.00  0.00     0.124 S 
ATOM     96  O   UNL     1       5.217   9.400 -15.629  1.00  0.00    -0.237 OA
ATOM     97  O   UNL     1       4.766  11.402 -14.247  1.00  0.00    -0.237 OA
ATOM     98  O   UNL     1       6.212  11.573 -16.234  1.00  0.00    -0.744 OA
ENDBRANCH  91  95
ENDBRANCH  65  88
ENDBRANCH  39  40
ENDBRANCH  31  34
ENDBRANCH  29  30
ENDBRANCH   1  29
TORSDOF 17
