REMARK SMILES CC[C@H](C)[C@H](C(=O)NCCCNC(=O)c1ccc(-c2c3nc(c(-c4cc(S(=O)(=O)[O-])ccc4F)c4ccc([nH]4)c(-c4cc(S(=O)(=O)[O-])ccc4F)c4nc(c(-c5cc(S(=O)(=O)[O-])ccc5F)c5ccc2[nH]5)C=C4)C=C3)cc1)[NH+]1CC2(CC2)C1
REMARK SMILES IDX 10 1 9 2 8 3 6 4 7 5 5 7 3 8 4 9 2 10 1 11 78 12 79 13 83 14
REMARK SMILES IDX 80 16 81 17 82 18 11 19 12 20 13 21 14 23 15 24 16 25 77 26
REMARK SMILES IDX 17 27 76 28 18 29 19 30 20 31 70 32 21 33 75 34 69 35 71 36
REMARK SMILES IDX 22 37 74 38 68 39 67 40 23 42 55 43 35 44 54 45 36 46 39 47
REMARK SMILES IDX 53 48 72 49 37 50 38 51 52 53 73 54 40 55 24 56 25 57 33 58
REMARK SMILES IDX 26 59 32 60 34 61 31 62 27 63 28 64 29 65 30 66 56 67 57 68
REMARK SMILES IDX 65 69 58 70 64 71 66 72 63 73 59 74 60 75 61 76 62 77 41 78
REMARK SMILES IDX 42 79 50 80 43 81 49 82 51 83 48 84 44 85 45 86 46 87 47 88
REMARK H PARENT 8 6 78 15 12 22 71 41 39 52
REMARK Flexibility Score: inf
ROOT
ATOM      1  C   UNL     1       1.403  -2.010  -1.491  1.00  0.00     0.042 C 
ENDROOT
BRANCH   1   2
ATOM      2  C   UNL     1       2.194  -2.162  -0.206  1.00  0.00     0.118 C 
BRANCH   2   3
ATOM      3  N   UNL     1       1.693  -1.361   0.877  1.00  0.00    -0.351 N 
ATOM      4  C   UNL     1       1.145  -1.643   2.079  1.00  0.00     0.278 C 
ATOM      5  O   UNL     1       0.951  -0.612   2.750  1.00  0.00    -0.268 OA
ATOM      6  H   UNL     1       1.765  -0.394   0.704  1.00  0.00     0.163 HD
BRANCH   4   7
ATOM      7  C   UNL     1       0.674  -3.053   2.644  1.00  0.00     0.277 C 
BRANCH   7   8
ATOM      8  C   UNL     1       0.975  -4.421   1.947  1.00  0.00     0.054 C 
ATOM      9  C   UNL     1       0.321  -4.594   0.566  1.00  0.00     0.014 C 
BRANCH   8  10
ATOM     10  C   UNL     1       2.375  -5.067   2.141  1.00  0.00     0.006 C 
ATOM     11  C   UNL     1       3.573  -4.598   1.337  1.00  0.00     0.004 C 
ENDBRANCH   8  10
ENDBRANCH   7   8
BRANCH   7  12
ATOM     12  N   UNL     1       1.059  -3.046   4.109  1.00  0.00    -0.323 N 
ATOM     13  C   UNL     1       0.021  -2.299   4.897  1.00  0.00     0.275 C 
ATOM     14  C   UNL     1       0.696  -4.251   4.898  1.00  0.00     0.275 C 
ATOM     15  H   UNL     1       2.042  -2.783   4.035  1.00  0.00     0.348 HD
ATOM     16  C   UNL     1      -0.595  -3.612   5.178  1.00  0.00     0.068 C 
ATOM     17  C   UNL     1      -1.949  -4.076   4.737  1.00  0.00     0.020 C 
ATOM     18  C   UNL     1      -1.600  -4.001   6.204  1.00  0.00     0.020 C 
ENDBRANCH   7  12
ENDBRANCH   4   7
ENDBRANCH   2   3
ENDBRANCH   1   2
BRANCH   1  19
ATOM     19  C   UNL     1       1.986  -0.951  -2.407  1.00  0.00     0.118 C 
BRANCH  19  20
ATOM     20  N   UNL     1       3.308  -1.324  -2.907  1.00  0.00    -0.352 N 
ATOM     21  C   UNL     1       3.726  -1.606  -4.188  1.00  0.00     0.251 C 
ATOM     22  H   UNL     1       4.010  -1.382  -2.220  1.00  0.00     0.163 HD
ATOM     23  O   UNL     1       4.822  -2.118  -4.367  1.00  0.00    -0.269 OA
BRANCH  21  24
ATOM     24  C   UNL     1       2.836  -1.306  -5.330  1.00  0.00     0.039 A 
ATOM     25  C   UNL     1       2.758  -2.202  -6.398  1.00  0.00     0.014 A 
ATOM     26  C   UNL     1       2.071  -0.139  -5.336  1.00  0.00     0.014 A 
ATOM     27  C   UNL     1       1.850  -1.962  -7.433  1.00  0.00     0.010 A 
ATOM     28  C   UNL     1       1.087   0.034  -6.296  1.00  0.00     0.010 A 
ATOM     29  C   UNL     1       0.977  -0.865  -7.367  1.00  0.00    -0.014 A 
BRANCH  29  30
ATOM     30  C   UNL     1      -0.025  -0.578  -8.424  1.00  0.00     0.031 A 
ATOM     31  C   UNL     1       0.047   0.736  -9.157  1.00  0.00     0.074 A 
ATOM     32  C   UNL     1      -1.034  -1.440  -8.658  1.00  0.00     0.049 A 
ATOM     33  N   UNL     1      -0.819   1.282  -9.970  1.00  0.00    -0.248 NA
ATOM     34  C   UNL     1       1.234   1.568  -8.898  1.00  0.00     0.031 C 
ATOM     35  C   UNL     1      -1.218  -2.732  -7.993  1.00  0.00     0.029 A 
ATOM     36  N   UNL     1      -2.105  -1.353  -9.511  1.00  0.00    -0.354 N 
ATOM     37  C   UNL     1      -0.288   2.524 -10.304  1.00  0.00     0.074 A 
ATOM     38  C   UNL     1       0.927   2.685  -9.537  1.00  0.00     0.031 C 
ATOM     39  C   UNL     1      -2.320  -3.325  -8.482  1.00  0.00     0.029 A 
ATOM     40  C   UNL     1      -2.955  -2.434  -9.447  1.00  0.00     0.049 A 
ATOM     41  H   UNL     1      -2.253  -0.588 -10.113  1.00  0.00     0.167 HD
ATOM     42  C   UNL     1      -0.751   3.432 -11.197  1.00  0.00     0.034 A 
ATOM     43  C   UNL     1      -4.122  -2.666 -10.081  1.00  0.00     0.034 A 
ATOM     44  C   UNL     1      -1.952   3.243 -11.969  1.00  0.00     0.049 A 
ATOM     45  C   UNL     1      -4.644  -1.617 -11.037  1.00  0.00     0.074 A 
ATOM     46  C   UNL     1      -2.512   4.082 -12.916  1.00  0.00     0.029 A 
ATOM     47  N   UNL     1      -2.776   2.127 -11.888  1.00  0.00    -0.354 N 
ATOM     48  N   UNL     1      -4.122  -0.454 -11.353  1.00  0.00    -0.248 NA
ATOM     49  C   UNL     1      -5.905  -1.916 -11.727  1.00  0.00     0.031 C 
ATOM     50  C   UNL     1      -3.702   3.501 -13.365  1.00  0.00     0.029 A 
ATOM     51  C   UNL     1      -3.845   2.263 -12.758  1.00  0.00     0.049 A 
ATOM     52  H   UNL     1      -2.623   1.353 -11.299  1.00  0.00     0.167 HD
ATOM     53  C   UNL     1      -4.967   0.091 -12.317  1.00  0.00     0.074 A 
ATOM     54  C   UNL     1      -6.026  -0.872 -12.533  1.00  0.00     0.031 C 
ATOM     55  C   UNL     1      -4.877   1.278 -12.970  1.00  0.00     0.034 A 
BRANCH  42  56
ATOM     56  C   UNL     1       0.048   4.700 -11.376  1.00  0.00     0.023 A 
ATOM     57  C   UNL     1       1.374   4.670 -11.842  1.00  0.00     0.031 A 
ATOM     58  C   UNL     1      -0.505   5.951 -11.050  1.00  0.00     0.131 A 
ATOM     59  C   UNL     1       2.128   5.850 -11.893  1.00  0.00     0.055 A 
ATOM     60  C   UNL     1       0.223   7.135 -11.189  1.00  0.00     0.041 A 
ATOM     61  F   UNL     1      -1.758   6.044 -10.578  1.00  0.00    -0.206 F 
ATOM     62  C   UNL     1       1.553   7.088 -11.597  1.00  0.00     0.022 A 
BRANCH  59  63
ATOM     63  S   UNL     1       3.909   5.723 -12.209  1.00  0.00     0.124 S 
ATOM     64  O   UNL     1       4.349   4.907 -11.079  1.00  0.00    -0.237 OA
ATOM     65  O   UNL     1       3.954   5.081 -13.517  1.00  0.00    -0.237 OA
ATOM     66  O   UNL     1       4.362   7.112 -12.178  1.00  0.00    -0.744 OA
ENDBRANCH  59  63
ENDBRANCH  42  56
BRANCH  43  67
ATOM     67  C   UNL     1      -4.891  -3.923  -9.843  1.00  0.00     0.023 A 
ATOM     68  C   UNL     1      -5.153  -4.813 -10.897  1.00  0.00     0.031 A 
ATOM     69  C   UNL     1      -5.442  -4.219  -8.584  1.00  0.00     0.131 A 
ATOM     70  C   UNL     1      -6.003  -5.911 -10.695  1.00  0.00     0.055 A 
ATOM     71  C   UNL     1      -6.231  -5.352  -8.370  1.00  0.00     0.041 A 
ATOM     72  F   UNL     1      -5.224  -3.407  -7.537  1.00  0.00    -0.206 F 
ATOM     73  C   UNL     1      -6.533  -6.195  -9.435  1.00  0.00     0.022 A 
BRANCH  70  74
ATOM     74  S   UNL     1      -6.516  -6.884 -12.138  1.00  0.00     0.124 S 
ATOM     75  O   UNL     1      -7.079  -5.853 -13.003  1.00  0.00    -0.237 OA
ATOM     76  O   UNL     1      -5.252  -7.468 -12.572  1.00  0.00    -0.237 OA
ATOM     77  O   UNL     1      -7.481  -7.830 -11.583  1.00  0.00    -0.744 OA
ENDBRANCH  70  74
ENDBRANCH  43  67
BRANCH  55  78
ATOM     78  C   UNL     1      -5.905   1.558 -14.036  1.00  0.00     0.023 A 
ATOM     79  C   UNL     1      -7.259   1.772 -13.728  1.00  0.00     0.031 A 
ATOM     80  C   UNL     1      -5.512   1.627 -15.385  1.00  0.00     0.131 A 
ATOM     81  C   UNL     1      -8.181   1.997 -14.761  1.00  0.00     0.055 A 
ATOM     82  C   UNL     1      -6.422   1.912 -16.402  1.00  0.00     0.041 A 
ATOM     83  F   UNL     1      -4.230   1.429 -15.734  1.00  0.00    -0.206 F 
ATOM     84  C   UNL     1      -7.768   2.088 -16.094  1.00  0.00     0.022 A 
BRANCH  81  85
ATOM     85  S   UNL     1      -9.943   2.096 -14.349  1.00  0.00     0.124 S 
ATOM     86  O   UNL     1     -10.186   0.792 -13.741  1.00  0.00    -0.237 OA
ATOM     87  O   UNL     1      -9.990   3.240 -13.444  1.00  0.00    -0.237 OA
ATOM     88  O   UNL     1     -10.588   2.306 -15.645  1.00  0.00    -0.744 OA
ENDBRANCH  81  85
ENDBRANCH  55  78
ENDBRANCH  29  30
ENDBRANCH  21  24
ENDBRANCH  19  20
ENDBRANCH   1  19
TORSDOF 16
