REMARK SMILES Cc1c(NC(=S)NC(=O)CSc2ccc(Cl)cc2)cccc1C(=O)NCCCNC(=O)c1ccc(-c2c3nc(c(-c4cc(S(=O)(=O)[O-])ccc4F)c4ccc([nH]4)c(-c4cc(S(=O)(=O)[O-])ccc4F)c4nc(c(-c5cc(S(=O)(=O)[O-])ccc5F)c5ccc2[nH]5)C=C4)C=C3)cc1
REMARK SMILES IDX 23 1 24 2 25 3 22 5 1 6 2 7 3 8 19 9 21 10 20 11 4 12 5 14
REMARK SMILES IDX 6 15 7 16 8 17 9 19 10 20 11 21 12 22 13 23 18 24 14 25
REMARK SMILES IDX 17 26 15 27 16 28 26 29 27 30 28 31 29 32 30 33 31 35 32 36
REMARK SMILES IDX 33 37 94 38 34 39 93 40 35 41 36 42 37 43 87 44 38 45 92 46
REMARK SMILES IDX 86 47 88 48 39 49 91 50 85 51 84 52 40 54 72 55 52 56 71 57
REMARK SMILES IDX 53 58 56 59 70 60 89 61 54 62 55 63 69 65 90 66 57 67 41 68
REMARK SMILES IDX 42 69 50 70 43 71 49 72 51 73 48 74 44 75 45 76 46 77 47 78
REMARK SMILES IDX 73 79 74 80 82 81 75 82 81 83 83 84 80 85 76 86 77 87 78 88
REMARK SMILES IDX 79 89 58 90 59 91 67 92 60 93 66 94 68 95 65 96 61 97 62 98
REMARK SMILES IDX 63 99 64 100
REMARK H PARENT 25 4 4 13 7 18 29 34 88 53 56 64
REMARK Flexibility Score: inf
ROOT
ATOM      1  C   UNL     1       1.144   2.226  -0.531  1.00  0.00     0.251 C 
ATOM      2  O   UNL     1       0.440   3.248  -0.460  1.00  0.00    -0.269 OA
ATOM      3  N   UNL     1       2.469   2.508  -0.356  1.00  0.00    -0.352 N 
ATOM      4  H   UNL     1       2.638   3.460  -0.540  1.00  0.00     0.163 HD
ENDROOT
BRANCH   1   5
ATOM      5  C   UNL     1       0.409   0.935  -0.853  1.00  0.00     0.044 A 
ATOM      6  C   UNL     1       2.159  -0.848  -0.383  1.00  0.00     0.047 C 
ATOM      7  C   UNL     1       0.778  -0.430  -0.751  1.00  0.00    -0.015 A 
ATOM      8  C   UNL     1      -0.177  -1.454  -1.058  1.00  0.00     0.044 A 
ATOM      9  C   UNL     1      -1.413  -1.132  -1.611  1.00  0.00     0.026 A 
ATOM     10  C   UNL     1      -0.905   1.194  -1.327  1.00  0.00     0.014 A 
ATOM     11  C   UNL     1      -1.786   0.193  -1.732  1.00  0.00     0.003 A 
BRANCH   8  12
ATOM     12  N   UNL     1       0.154  -2.804  -0.825  1.00  0.00    -0.332 N 
ATOM     13  H   UNL     1       1.126  -2.962  -0.800  1.00  0.00     0.169 HD
BRANCH  12  14
ATOM     14  C   UNL     1      -0.559  -3.921  -0.631  1.00  0.00     0.177 C 
ATOM     15  S   UNL     1       0.220  -5.385  -0.896  1.00  0.00    -0.040 S 
BRANCH  14  16
ATOM     16  N   UNL     1      -1.853  -3.985  -0.204  1.00  0.00    -0.302 N 
ATOM     17  C   UNL     1      -2.840  -3.261   0.444  1.00  0.00     0.236 C 
ATOM     18  H   UNL     1      -2.218  -4.868  -0.442  1.00  0.00     0.172 HD
ATOM     19  O   UNL     1      -3.985  -3.732   0.368  1.00  0.00    -0.274 OA
BRANCH  17  20
ATOM     20  C   UNL     1      -2.618  -1.968   1.198  1.00  0.00     0.175 C 
BRANCH  20  21
ATOM     21  S   UNL     1      -1.109  -1.933   2.200  1.00  0.00    -0.116 SA
BRANCH  21  22
ATOM     22  C   UNL     1      -1.847  -1.641   3.784  1.00  0.00     0.008 A 
ATOM     23  C   UNL     1      -2.127  -0.347   4.236  1.00  0.00     0.016 A 
ATOM     24  C   UNL     1      -2.190  -2.745   4.567  1.00  0.00     0.016 A 
ATOM     25  C   UNL     1      -2.771  -0.164   5.462  1.00  0.00     0.021 A 
ATOM     26  C   UNL     1      -2.833  -2.563   5.789  1.00  0.00     0.021 A 
ATOM     27  C   UNL     1      -3.126  -1.273   6.230  1.00  0.00     0.041 A 
ATOM     28  Cl  UNL     1      -3.943  -1.058   7.728  1.00  0.00    -0.084 Cl
ENDBRANCH  21  22
ENDBRANCH  20  21
ENDBRANCH  17  20
ENDBRANCH  14  16
ENDBRANCH  12  14
ENDBRANCH   8  12
ENDBRANCH   1   5
BRANCH   3  29
ATOM     29  C   UNL     1       3.714   1.843   0.018  1.00  0.00     0.118 C 
BRANCH  29  30
ATOM     30  C   UNL     1       4.401   1.080  -1.107  1.00  0.00     0.042 C 
BRANCH  30  31
ATOM     31  C   UNL     1       5.776   1.597  -1.488  1.00  0.00     0.118 C 
BRANCH  31  32
ATOM     32  N   UNL     1       6.870   0.658  -1.205  1.00  0.00    -0.352 N 
ATOM     33  C   UNL     1       8.201   0.753  -1.601  1.00  0.00     0.251 C 
ATOM     34  H   UNL     1       6.633  -0.134  -0.671  1.00  0.00     0.163 HD
ATOM     35  O   UNL     1       9.043  -0.070  -1.302  1.00  0.00    -0.269 OA
BRANCH  33  36
ATOM     36  C   UNL     1       8.589   2.002  -2.301  1.00  0.00     0.039 A 
ATOM     37  C   UNL     1       9.227   2.948  -1.494  1.00  0.00     0.014 A 
ATOM     38  C   UNL     1       7.850   2.377  -3.419  1.00  0.00     0.014 A 
ATOM     39  C   UNL     1       8.840   4.276  -1.600  1.00  0.00     0.010 A 
ATOM     40  C   UNL     1       7.394   3.681  -3.460  1.00  0.00     0.010 A 
ATOM     41  C   UNL     1       7.818   4.602  -2.491  1.00  0.00    -0.014 A 
BRANCH  41  42
ATOM     42  C   UNL     1       7.100   5.869  -2.410  1.00  0.00     0.031 A 
ATOM     43  C   UNL     1       7.416   6.909  -3.401  1.00  0.00     0.074 A 
ATOM     44  C   UNL     1       6.228   6.151  -1.415  1.00  0.00     0.049 A 
ATOM     45  N   UNL     1       7.413   8.172  -3.152  1.00  0.00    -0.248 NA
ATOM     46  C   UNL     1       7.842   6.580  -4.754  1.00  0.00     0.031 C 
ATOM     47  C   UNL     1       5.386   7.340  -1.291  1.00  0.00     0.029 A 
ATOM     48  N   UNL     1       6.110   5.518  -0.180  1.00  0.00    -0.354 N 
ATOM     49  C   UNL     1       7.572   8.828  -4.348  1.00  0.00     0.074 A 
ATOM     50  C   UNL     1       7.904   7.795  -5.301  1.00  0.00     0.031 C 
ATOM     51  C   UNL     1       5.051   7.504  -0.003  1.00  0.00     0.029 A 
ATOM     52  C   UNL     1       5.742   6.490   0.771  1.00  0.00     0.049 A 
ATOM     53  H   UNL     1       6.257   4.561  -0.004  1.00  0.00     0.167 HD
ATOM     54  C   UNL     1       7.280  10.156  -4.431  1.00  0.00     0.034 A 
ATOM     55  C   UNL     1       6.525   6.719   1.864  1.00  0.00     0.034 A 
ATOM     56  C   UNL     1       6.874  10.707  -3.135  1.00  0.00     0.049 A 
ATOM     57  C   UNL     1       7.191   8.086   1.861  1.00  0.00     0.074 A 
ATOM     58  C   UNL     1       5.654  11.034  -2.563  1.00  0.00     0.029 A 
ATOM     59  N   UNL     1       7.790  10.720  -2.094  1.00  0.00    -0.354 N 
ATOM     60  N   UNL     1       6.989   9.026   0.976  1.00  0.00    -0.248 NA
ATOM     61  C   UNL     1       8.233   8.445   2.821  1.00  0.00     0.031 C 
ATOM     62  C   UNL     1       5.855  11.231  -1.163  1.00  0.00     0.029 A 
ATOM     63  C   UNL     1       7.198  11.054  -0.888  1.00  0.00     0.049 A 
ATOM     64  H   UNL     1       8.748  10.517  -2.200  1.00  0.00     0.167 HD
ATOM     65  C   UNL     1       7.908  10.035   1.161  1.00  0.00     0.074 A 
ATOM     66  C   UNL     1       8.659   9.621   2.335  1.00  0.00     0.031 C 
ATOM     67  C   UNL     1       8.030  11.103   0.309  1.00  0.00     0.034 A 
BRANCH  54  68
ATOM     68  C   UNL     1       7.085  10.859  -5.755  1.00  0.00     0.023 A 
ATOM     69  C   UNL     1       6.177  11.930  -5.840  1.00  0.00     0.031 A 
ATOM     70  C   UNL     1       7.705  10.497  -6.968  1.00  0.00     0.131 A 
ATOM     71  C   UNL     1       5.823  12.489  -7.083  1.00  0.00     0.055 A 
ATOM     72  C   UNL     1       7.292  10.989  -8.212  1.00  0.00     0.041 A 
ATOM     73  F   UNL     1       8.781   9.697  -6.997  1.00  0.00    -0.206 F 
ATOM     74  C   UNL     1       6.329  11.982  -8.276  1.00  0.00     0.022 A 
BRANCH  71  75
ATOM     75  S   UNL     1       4.703  13.913  -7.117  1.00  0.00     0.124 S 
ATOM     76  O   UNL     1       3.510  13.386  -6.464  1.00  0.00    -0.237 OA
ATOM     77  O   UNL     1       5.460  14.914  -6.374  1.00  0.00    -0.237 OA
ATOM     78  O   UNL     1       4.553  14.190  -8.546  1.00  0.00    -0.744 OA
ENDBRANCH  71  75
ENDBRANCH  54  68
BRANCH  55  79
ATOM     79  C   UNL     1       7.132   5.460   2.389  1.00  0.00     0.023 A 
ATOM     80  C   UNL     1       6.264   4.480   2.921  1.00  0.00     0.031 A 
ATOM     81  C   UNL     1       8.416   5.058   1.996  1.00  0.00     0.131 A 
ATOM     82  C   UNL     1       6.635   3.127   2.899  1.00  0.00     0.055 A 
ATOM     83  C   UNL     1       8.790   3.711   2.007  1.00  0.00     0.041 A 
ATOM     84  F   UNL     1       9.276   5.939   1.464  1.00  0.00    -0.206 F 
ATOM     85  C   UNL     1       7.882   2.736   2.410  1.00  0.00     0.022 A 
BRANCH  82  86
ATOM     86  S   UNL     1       5.414   1.837   3.276  1.00  0.00     0.124 S 
ATOM     87  O   UNL     1       5.790   1.438   4.626  1.00  0.00    -0.237 OA
ATOM     88  O   UNL     1       4.140   2.538   3.148  1.00  0.00    -0.237 OA
ATOM     89  O   UNL     1       5.663   0.848   2.225  1.00  0.00    -0.744 OA
ENDBRANCH  82  86
ENDBRANCH  55  79
BRANCH  67  90
ATOM     90  C   UNL     1       9.003  12.258   0.505  1.00  0.00     0.023 A 
ATOM     91  C   UNL     1       9.496  12.631   1.765  1.00  0.00     0.031 A 
ATOM     92  C   UNL     1       9.428  13.076  -0.572  1.00  0.00     0.131 A 
ATOM     93  C   UNL     1      10.457  13.652   1.905  1.00  0.00     0.055 A 
ATOM     94  C   UNL     1      10.325  14.139  -0.422  1.00  0.00     0.041 A 
ATOM     95  F   UNL     1       9.006  12.880  -1.828  1.00  0.00    -0.206 F 
ATOM     96  C   UNL     1      10.868  14.417   0.819  1.00  0.00     0.022 A 
BRANCH  93  97
ATOM     97  S   UNL     1      11.205  13.918   3.534  1.00  0.00     0.124 S 
ATOM     98  O   UNL     1      10.039  14.102   4.391  1.00  0.00    -0.237 OA
ATOM     99  O   UNL     1      11.944  12.673   3.727  1.00  0.00    -0.237 OA
ATOM    100  O   UNL     1      12.032  15.108   3.344  1.00  0.00    -0.744 OA
ENDBRANCH  93  97
ENDBRANCH  67  90
ENDBRANCH  41  42
ENDBRANCH  33  36
ENDBRANCH  31  32
ENDBRANCH  30  31
ENDBRANCH  29  30
ENDBRANCH   3  29
TORSDOF 19
