REMARK SMILES CCc1ncc(C[N@H+]2CCC[C@@H](c3cccc(C(=O)NCCCNC(=O)c4ccc(-c5c6nc(c(-c7cc(S(=O)(=O)[O-])ccc7F)c7ccc([nH]7)c(-c7cc(S(=O)(=O)[O-])ccc7F)c7nc(c(-c8cc(S(=O)(=O)[O-])ccc8F)c8ccc5[nH]8)C=C7)C=C6)cc4)c3)C2)cn1
REMARK SMILES IDX 21 1 20 2 18 3 19 4 17 6 13 7 14 8 90 9 15 10 16 11 12 12
REMARK SMILES IDX 8 13 9 14 91 15 10 17 11 18 7 19 6 20 3 21 4 22 93 23 5 24
REMARK SMILES IDX 92 25 2 26 1 27 22 28 23 29 24 30 25 31 26 33 27 34 28 35
REMARK SMILES IDX 89 36 29 37 88 38 30 39 31 40 32 41 82 42 33 43 87 44 81 45
REMARK SMILES IDX 83 46 34 47 86 48 80 49 79 50 35 52 67 53 47 54 66 55 48 56
REMARK SMILES IDX 51 57 65 58 84 59 49 60 50 61 64 63 85 64 52 65 36 66 37 67
REMARK SMILES IDX 45 68 38 69 44 70 46 71 43 72 39 73 40 74 41 75 42 76 68 77
REMARK SMILES IDX 69 78 77 79 70 80 76 81 78 82 75 83 71 84 72 85 73 86 74 87
REMARK SMILES IDX 53 88 54 89 62 90 55 91 61 92 63 93 60 94 56 95 57 96 58 97
REMARK SMILES IDX 59 98
REMARK H PARENT 20 5 8 16 24 32 83 51 51 62
REMARK Flexibility Score: inf
ROOT
ATOM      1  C   UNL     1       7.136   2.938  -8.724  1.00  0.00     0.118 C 
ENDROOT
BRANCH   1   2
ATOM      2  N   UNL     1       7.582   1.592  -8.419  1.00  0.00    -0.352 N 
ATOM      3  C   UNL     1       7.554   0.799  -7.303  1.00  0.00     0.251 C 
ATOM      4  O   UNL     1       7.995  -0.345  -7.448  1.00  0.00    -0.269 OA
ATOM      5  H   UNL     1       8.000   1.146  -9.191  1.00  0.00     0.163 HD
BRANCH   3   6
ATOM      6  C   UNL     1       7.015   1.195  -5.965  1.00  0.00     0.040 A 
ATOM      7  C   UNL     1       6.071   2.740  -4.314  1.00  0.00    -0.039 A 
ATOM      8  C   UNL     1       5.966   1.685  -3.396  1.00  0.00     0.004 A 
ATOM      9  C   UNL     1       6.635   2.485  -5.579  1.00  0.00     0.018 A 
ATOM     10  C   UNL     1       6.387   0.406  -3.740  1.00  0.00     0.001 A 
ATOM     11  C   UNL     1       6.893   0.163  -5.017  1.00  0.00     0.014 A 
BRANCH   7  12
ATOM     12  C   UNL     1       5.538   4.131  -3.994  1.00  0.00     0.074 C 
ATOM     13  N   UNL     1       3.412   5.364  -3.395  1.00  0.00    -0.331 N 
ATOM     14  C   UNL     1       4.057   5.897  -2.190  1.00  0.00     0.262 C 
ATOM     15  C   UNL     1       4.005   4.081  -3.806  1.00  0.00     0.270 C 
ATOM     16  H   UNL     1       3.600   6.029  -4.145  1.00  0.00     0.348 HD
ATOM     17  C   UNL     1       5.562   6.072  -2.399  1.00  0.00     0.062 C 
ATOM     18  C   UNL     1       6.224   4.747  -2.768  1.00  0.00     0.020 C 
BRANCH  13  19
ATOM     19  C   UNL     1       1.939   5.307  -3.286  1.00  0.00     0.302 C 
BRANCH  19  20
ATOM     20  C   UNL     1       1.388   4.293  -2.325  1.00  0.00     0.043 A 
ATOM     21  C   UNL     1       0.674   2.377  -0.532  1.00  0.00     0.127 A 
ATOM     22  N   UNL     1       0.782   3.644  -0.089  1.00  0.00    -0.241 NA
ATOM     23  N   UNL     1       0.811   2.010  -1.819  1.00  0.00    -0.241 NA
ATOM     24  C   UNL     1       1.136   4.574  -1.000  1.00  0.00     0.124 A 
ATOM     25  C   UNL     1       1.167   2.979  -2.684  1.00  0.00     0.124 A 
BRANCH  21  26
ATOM     26  C   UNL     1       0.371   1.312   0.488  1.00  0.00     0.074 C 
ATOM     27  C   UNL     1       1.009  -0.034   0.170  1.00  0.00     0.012 C 
ENDBRANCH  21  26
ENDBRANCH  19  20
ENDBRANCH  13  19
ENDBRANCH   7  12
ENDBRANCH   3   6
ENDBRANCH   1   2
BRANCH   1  28
ATOM     28  C   UNL     1       8.275   3.949  -8.605  1.00  0.00     0.042 C 
BRANCH  28  29
ATOM     29  C   UNL     1       9.265   3.876  -9.771  1.00  0.00     0.118 C 
BRANCH  29  30
ATOM     30  N   UNL     1       8.627   4.190 -11.045  1.00  0.00    -0.352 N 
ATOM     31  C   UNL     1       8.740   5.292 -11.857  1.00  0.00     0.251 C 
ATOM     32  H   UNL     1       8.014   3.496 -11.378  1.00  0.00     0.163 HD
ATOM     33  O   UNL     1       7.880   5.491 -12.710  1.00  0.00    -0.269 OA
BRANCH  31  34
ATOM     34  C   UNL     1       9.878   6.226 -11.714  1.00  0.00     0.039 A 
ATOM     35  C   UNL     1       9.663   7.593 -11.907  1.00  0.00     0.014 A 
ATOM     36  C   UNL     1      11.167   5.753 -11.457  1.00  0.00     0.014 A 
ATOM     37  C   UNL     1      10.727   8.490 -11.777  1.00  0.00     0.010 A 
ATOM     38  C   UNL     1      12.209   6.652 -11.252  1.00  0.00     0.010 A 
ATOM     39  C   UNL     1      12.001   8.030 -11.411  1.00  0.00    -0.014 A 
BRANCH  39  40
ATOM     40  C   UNL     1      13.132   8.969 -11.184  1.00  0.00     0.031 A 
ATOM     41  C   UNL     1      14.361   8.891 -12.049  1.00  0.00     0.074 A 
ATOM     42  C   UNL     1      13.080   9.830 -10.149  1.00  0.00     0.049 A 
ATOM     43  N   UNL     1      15.495   9.533 -11.936  1.00  0.00    -0.248 NA
ATOM     44  C   UNL     1      14.319   7.939 -13.169  1.00  0.00     0.031 C 
ATOM     45  C   UNL     1      11.955   9.969  -9.222  1.00  0.00     0.029 A 
ATOM     46  N   UNL     1      13.999  10.741  -9.692  1.00  0.00    -0.354 N 
ATOM     47  C   UNL     1      16.308   9.051 -12.957  1.00  0.00     0.074 A 
ATOM     48  C   UNL     1      15.554   8.021 -13.640  1.00  0.00     0.031 C 
ATOM     49  C   UNL     1      12.243  10.921  -8.320  1.00  0.00     0.029 A 
ATOM     50  C   UNL     1      13.590  11.422  -8.569  1.00  0.00     0.049 A 
ATOM     51  H   UNL     1      14.870  10.892 -10.126  1.00  0.00     0.167 HD
ATOM     52  C   UNL     1      17.559   9.446 -13.303  1.00  0.00     0.034 A 
ATOM     53  C   UNL     1      14.234  12.332  -7.812  1.00  0.00     0.034 A 
ATOM     54  C   UNL     1      18.288  10.485 -12.616  1.00  0.00     0.049 A 
ATOM     55  C   UNL     1      15.633  12.736  -8.201  1.00  0.00     0.074 A 
ATOM     56  C   UNL     1      19.535  11.006 -12.914  1.00  0.00     0.029 A 
ATOM     57  N   UNL     1      17.840  11.157 -11.484  1.00  0.00    -0.354 N 
ATOM     58  N   UNL     1      16.371  12.305  -9.198  1.00  0.00    -0.248 NA
ATOM     59  C   UNL     1      16.283  13.755  -7.368  1.00  0.00     0.031 C 
ATOM     60  C   UNL     1      19.869  11.940 -11.927  1.00  0.00     0.029 A 
ATOM     61  C   UNL     1      18.799  12.062 -11.055  1.00  0.00     0.049 A 
ATOM     62  H   UNL     1      16.968  11.011 -11.051  1.00  0.00     0.167 HD
ATOM     63  C   UNL     1      17.562  13.023  -9.127  1.00  0.00     0.074 A 
ATOM     64  C   UNL     1      17.433  13.926  -8.002  1.00  0.00     0.031 C 
ATOM     65  C   UNL     1      18.661  12.945  -9.921  1.00  0.00     0.034 A 
BRANCH  52  66
ATOM     66  C   UNL     1      18.221   8.732 -14.459  1.00  0.00     0.023 A 
ATOM     67  C   UNL     1      17.686   8.774 -15.759  1.00  0.00     0.031 A 
ATOM     68  C   UNL     1      19.389   7.976 -14.255  1.00  0.00     0.131 A 
ATOM     69  C   UNL     1      18.270   8.014 -16.783  1.00  0.00     0.055 A 
ATOM     70  C   UNL     1      20.015   7.289 -15.298  1.00  0.00     0.041 A 
ATOM     71  F   UNL     1      19.937   7.880 -13.033  1.00  0.00    -0.206 F 
ATOM     72  C   UNL     1      19.446   7.292 -16.569  1.00  0.00     0.022 A 
BRANCH  69  73
ATOM     73  S   UNL     1      17.387   7.864 -18.361  1.00  0.00     0.124 S 
ATOM     74  O   UNL     1      16.117   7.283 -17.933  1.00  0.00    -0.237 OA
ATOM     75  O   UNL     1      17.334   9.246 -18.825  1.00  0.00    -0.237 OA
ATOM     76  O   UNL     1      18.239   6.974 -19.147  1.00  0.00    -0.744 OA
ENDBRANCH  69  73
ENDBRANCH  52  66
BRANCH  53  77
ATOM     77  C   UNL     1      13.579  12.914  -6.606  1.00  0.00     0.023 A 
ATOM     78  C   UNL     1      13.280  14.284  -6.536  1.00  0.00     0.031 A 
ATOM     79  C   UNL     1      13.276  12.116  -5.488  1.00  0.00     0.131 A 
ATOM     80  C   UNL     1      12.743  14.824  -5.357  1.00  0.00     0.055 A 
ATOM     81  C   UNL     1      12.691  12.648  -4.338  1.00  0.00     0.041 A 
ATOM     82  F   UNL     1      13.535  10.798  -5.503  1.00  0.00    -0.206 F 
ATOM     83  C   UNL     1      12.434  14.013  -4.263  1.00  0.00     0.022 A 
BRANCH  80  84
ATOM     84  S   UNL     1      12.536  16.622  -5.242  1.00  0.00     0.124 S 
ATOM     85  O   UNL     1      13.896  17.093  -5.479  1.00  0.00    -0.237 OA
ATOM     86  O   UNL     1      11.572  16.883  -6.306  1.00  0.00    -0.237 OA
ATOM     87  O   UNL     1      12.032  16.820  -3.885  1.00  0.00    -0.744 OA
ENDBRANCH  80  84
ENDBRANCH  53  77
BRANCH  65  88
ATOM     88  C   UNL     1      19.792  13.897  -9.614  1.00  0.00     0.023 A 
ATOM     89  C   UNL     1      20.537  13.802  -8.426  1.00  0.00     0.031 A 
ATOM     90  C   UNL     1      20.116  14.923 -10.519  1.00  0.00     0.131 A 
ATOM     91  C   UNL     1      21.530  14.753  -8.147  1.00  0.00     0.055 A 
ATOM     92  C   UNL     1      21.149  15.827 -10.266  1.00  0.00     0.041 A 
ATOM     93  F   UNL     1      19.435  15.063 -11.668  1.00  0.00    -0.206 F 
ATOM     94  C   UNL     1      21.853  15.754  -9.068  1.00  0.00     0.022 A 
BRANCH  91  95
ATOM     95  S   UNL     1      22.331  14.723  -6.520  1.00  0.00     0.124 S 
ATOM     96  O   UNL     1      21.194  14.884  -5.620  1.00  0.00    -0.237 OA
ATOM     97  O   UNL     1      22.971  13.412  -6.511  1.00  0.00    -0.237 OA
ATOM     98  O   UNL     1      23.249  15.860  -6.569  1.00  0.00    -0.744 OA
ENDBRANCH  91  95
ENDBRANCH  65  88
ENDBRANCH  39  40
ENDBRANCH  31  34
ENDBRANCH  29  30
ENDBRANCH  28  29
ENDBRANCH   1  28
TORSDOF 17
