REMARK SMILES O=C(NCCCNC(=O)[C@H](CO)NC(=O)[C@H](CS)NC(=O)[C@H](Cc1c[nH]c2ccccc12)NC(=O)c1ccc(F)cc1)c1ccc(-c2c3nc(c(-c4cc(S(=O)(=O)[O-])ccc4F)c4ccc([nH]4)c(-c4cc(S(=O)(=O)[O-])ccc4F)c4nc(c(-c5cc(S(=O)(=O)[O-])ccc5F)c5ccc2[nH]5)C=C4)C=C3)cc1
REMARK SMILES IDX 7 1 8 2 9 3 6 5 5 6 4 7 3 8 1 9 2 10 43 12 44 13 105 14
REMARK SMILES IDX 45 15 104 16 46 17 47 18 48 19 98 20 49 21 103 22 97 23
REMARK SMILES IDX 99 24 50 25 102 26 96 27 95 28 51 30 83 31 63 32 82 33 64 34
REMARK SMILES IDX 67 35 81 36 100 37 65 38 66 39 80 41 101 42 68 43 52 44
REMARK SMILES IDX 53 45 61 46 54 47 60 48 62 49 59 50 55 51 56 52 57 53 58 54
REMARK SMILES IDX 84 55 85 56 93 57 86 58 92 59 94 60 91 61 87 62 88 63 89 64
REMARK SMILES IDX 90 65 69 66 70 67 78 68 71 69 77 70 79 71 76 72 72 73 73 74
REMARK SMILES IDX 74 75 75 76 10 77 13 78 14 79 15 81 16 82 19 83 20 84 21 86
REMARK SMILES IDX 22 87 33 88 34 89 35 91 36 92 37 93 42 94 38 95 41 96 39 97
REMARK SMILES IDX 40 98 23 99 24 100 25 101 32 102 26 103 27 104 31 105 28 107
REMARK SMILES IDX 30 108 29 109 17 110 18 111 11 113 12 114
REMARK H PARENT 7 4 3 11 99 29 67 40 13 80 19 85 33 90 26 106 18 112 12 115
REMARK Flexibility Score: inf
ROOT
ATOM      1  N   UNL     1       6.745  15.014   9.501  1.00  0.00    -0.354 N 
ATOM      2  C   UNL     1       7.174  14.503   8.325  1.00  0.00     0.244 C 
ATOM      3  O   UNL     1       8.272  13.945   8.348  1.00  0.00    -0.273 OA
ATOM      4  H   UNL     1       7.329  14.807  10.267  1.00  0.00     0.163 HD
ENDROOT
BRANCH   1   5
ATOM      5  C   UNL     1       5.586  15.807   9.837  1.00  0.00     0.117 C 
BRANCH   5   6
ATOM      6  C   UNL     1       4.557  14.975  10.580  1.00  0.00     0.042 C 
BRANCH   6   7
ATOM      7  C   UNL     1       5.142  14.259  11.793  1.00  0.00     0.118 C 
BRANCH   7   8
ATOM      8  N   UNL     1       5.720  15.192  12.754  1.00  0.00    -0.352 N 
ATOM      9  O   UNL     1       5.686  16.605  14.511  1.00  0.00    -0.269 OA
ATOM     10  C   UNL     1       5.208  15.621  13.952  1.00  0.00     0.251 C 
ATOM     11  H   UNL     1       6.597  15.565  12.508  1.00  0.00     0.163 HD
BRANCH  10  12
ATOM     12  C   UNL     1       4.079  14.886  14.548  1.00  0.00     0.039 A 
ATOM     13  C   UNL     1       4.102  13.490  14.570  1.00  0.00     0.014 A 
ATOM     14  C   UNL     1       3.002  15.589  15.093  1.00  0.00     0.014 A 
ATOM     15  C   UNL     1       2.992  12.791  15.012  1.00  0.00     0.010 A 
ATOM     16  C   UNL     1       1.931  14.882  15.641  1.00  0.00     0.010 A 
ATOM     17  C   UNL     1       1.921  13.479  15.600  1.00  0.00    -0.014 A 
BRANCH  17  18
ATOM     18  C   UNL     1       0.882  12.699  16.307  1.00  0.00     0.031 A 
ATOM     19  C   UNL     1      -0.538  12.672  15.836  1.00  0.00     0.074 A 
ATOM     20  C   UNL     1       1.268  11.985  17.381  1.00  0.00     0.049 A 
ATOM     21  N   UNL     1      -1.565  12.061  16.367  1.00  0.00    -0.248 NA
ATOM     22  C   UNL     1      -0.849  13.429  14.616  1.00  0.00     0.031 C 
ATOM     23  C   UNL     1       2.640  11.925  17.900  1.00  0.00     0.029 A 
ATOM     24  N   UNL     1       0.566  11.150  18.207  1.00  0.00    -0.354 N 
ATOM     25  C   UNL     1      -2.649  12.359  15.552  1.00  0.00     0.074 A 
ATOM     26  C   UNL     1      -2.157  13.237  14.508  1.00  0.00     0.031 C 
ATOM     27  C   UNL     1       2.692  11.042  18.904  1.00  0.00     0.029 A 
ATOM     28  C   UNL     1       1.347  10.548  19.163  1.00  0.00     0.049 A 
ATOM     29  H   UNL     1      -0.403  10.997  18.125  1.00  0.00     0.167 HD
ATOM     30  C   UNL     1      -3.931  11.932  15.671  1.00  0.00     0.034 A 
ATOM     31  C   UNL     1       1.018   9.707  20.159  1.00  0.00     0.034 A 
ATOM     32  C   UNL     1      -4.393  11.074  16.738  1.00  0.00     0.049 A 
ATOM     33  C   UNL     1      -0.418   9.319  20.321  1.00  0.00     0.074 A 
ATOM     34  C   UNL     1      -5.674  10.607  16.977  1.00  0.00     0.029 A 
ATOM     35  N   UNL     1      -3.591  10.553  17.748  1.00  0.00    -0.354 N 
ATOM     36  N   UNL     1      -1.451   9.671  19.592  1.00  0.00    -0.248 NA
ATOM     37  C   UNL     1      -0.737   8.433  21.444  1.00  0.00     0.031 C 
ATOM     38  C   UNL     1      -5.658   9.858  18.160  1.00  0.00     0.029 A 
ATOM     39  C   UNL     1      -4.352   9.788  18.620  1.00  0.00     0.049 A 
ATOM     40  H   UNL     1      -2.622  10.706  17.832  1.00  0.00     0.167 HD
ATOM     41  C   UNL     1      -2.546   9.029  20.154  1.00  0.00     0.074 A 
ATOM     42  C   UNL     1      -2.044   8.270  21.285  1.00  0.00     0.031 C 
ATOM     43  C   UNL     1      -3.844   9.057  19.760  1.00  0.00     0.034 A 
BRANCH  30  44
ATOM     44  C   UNL     1      -4.924  12.432  14.650  1.00  0.00     0.023 A 
ATOM     45  C   UNL     1      -4.825  12.084  13.291  1.00  0.00     0.031 A 
ATOM     46  C   UNL     1      -5.975  13.284  15.036  1.00  0.00     0.131 A 
ATOM     47  C   UNL     1      -5.722  12.633  12.360  1.00  0.00     0.055 A 
ATOM     48  C   UNL     1      -6.908  13.768  14.116  1.00  0.00     0.041 A 
ATOM     49  F   UNL     1      -6.107  13.669  16.315  1.00  0.00    -0.206 F 
ATOM     50  C   UNL     1      -6.777  13.453  12.767  1.00  0.00     0.022 A 
BRANCH  47  51
ATOM     51  S   UNL     1      -5.414  12.362  10.593  1.00  0.00     0.124 S 
ATOM     52  O   UNL     1      -4.099  12.976  10.427  1.00  0.00    -0.237 OA
ATOM     53  O   UNL     1      -5.460  10.909  10.485  1.00  0.00    -0.237 OA
ATOM     54  O   UNL     1      -6.513  13.072   9.941  1.00  0.00    -0.744 OA
ENDBRANCH  47  51
ENDBRANCH  30  44
BRANCH  31  55
ATOM     55  C   UNL     1       2.085   9.203  21.060  1.00  0.00     0.023 A 
ATOM     56  C   UNL     1       2.527   7.876  20.971  1.00  0.00     0.031 A 
ATOM     57  C   UNL     1       2.741  10.068  21.954  1.00  0.00     0.131 A 
ATOM     58  C   UNL     1       3.603   7.449  21.764  1.00  0.00     0.055 A 
ATOM     59  C   UNL     1       3.832   9.649  22.715  1.00  0.00     0.041 A 
ATOM     60  F   UNL     1       2.366  11.354  22.051  1.00  0.00    -0.206 F 
ATOM     61  C   UNL     1       4.268   8.331  22.622  1.00  0.00     0.022 A 
BRANCH  58  62
ATOM     62  S   UNL     1       4.140   5.722  21.645  1.00  0.00     0.124 S 
ATOM     63  O   UNL     1       2.990   5.015  22.197  1.00  0.00    -0.237 OA
ATOM     64  O   UNL     1       4.362   5.567  20.211  1.00  0.00    -0.237 OA
ATOM     65  O   UNL     1       5.350   5.686  22.464  1.00  0.00    -0.744 OA
ENDBRANCH  58  62
ENDBRANCH  31  55
BRANCH  43  66
ATOM     66  C   UNL     1      -4.807   8.200  20.538  1.00  0.00     0.023 A 
ATOM     67  C   UNL     1      -5.167   8.502  21.862  1.00  0.00     0.031 A 
ATOM     68  C   UNL     1      -5.369   7.059  19.939  1.00  0.00     0.131 A 
ATOM     69  C   UNL     1      -6.031   7.646  22.560  1.00  0.00     0.055 A 
ATOM     70  C   UNL     1      -6.270   6.241  20.620  1.00  0.00     0.041 A 
ATOM     71  F   UNL     1      -5.053   6.724  18.677  1.00  0.00    -0.206 F 
ATOM     72  C   UNL     1      -6.598   6.527  21.942  1.00  0.00     0.022 A 
BRANCH  69  73
ATOM     73  S   UNL     1      -6.352   7.972  24.315  1.00  0.00     0.124 S 
ATOM     74  O   UNL     1      -5.020   7.834  24.896  1.00  0.00    -0.237 OA
ATOM     75  O   UNL     1      -6.900   9.324  24.289  1.00  0.00    -0.237 OA
ATOM     76  O   UNL     1      -7.303   6.927  24.690  1.00  0.00    -0.744 OA
ENDBRANCH  69  73
ENDBRANCH  43  66
ENDBRANCH  17  18
ENDBRANCH  10  12
ENDBRANCH   7   8
ENDBRANCH   6   7
ENDBRANCH   5   6
ENDBRANCH   1   5
BRANCH   2  77
ATOM     77  C   UNL     1       6.469  14.803   6.998  1.00  0.00     0.197 C 
BRANCH  77  78
ATOM     78  N   UNL     1       5.053  14.407   6.909  1.00  0.00    -0.340 N 
ATOM     79  C   UNL     1       4.435  13.557   6.022  1.00  0.00     0.244 C 
ATOM     80  H   UNL     1       4.461  14.810   7.584  1.00  0.00     0.164 HD
ATOM     81  O   UNL     1       3.238  13.316   6.182  1.00  0.00    -0.273 OA
BRANCH  79  82
ATOM     82  C   UNL     1       5.222  12.971   4.832  1.00  0.00     0.181 C 
BRANCH  82  83
ATOM     83  N   UNL     1       4.714  11.674   4.359  1.00  0.00    -0.342 N 
ATOM     84  C   UNL     1       5.408  10.549   3.980  1.00  0.00     0.243 C 
ATOM     85  H   UNL     1       3.734  11.601   4.305  1.00  0.00     0.164 HD
ATOM     86  O   UNL     1       4.796   9.640   3.419  1.00  0.00    -0.273 OA
BRANCH  84  87
ATOM     87  C   UNL     1       6.943  10.494   4.198  1.00  0.00     0.176 C 
BRANCH  87  88
ATOM     88  N   UNL     1       7.194  10.595   5.643  1.00  0.00    -0.340 N 
ATOM     89  C   UNL     1       8.208  11.121   6.396  1.00  0.00     0.251 C 
ATOM     90  H   UNL     1       6.476  10.197   6.187  1.00  0.00     0.164 HD
ATOM     91  O   UNL     1       8.273  10.731   7.564  1.00  0.00    -0.269 OA
BRANCH  89  92
ATOM     92  C   UNL     1       9.171  12.171   5.933  1.00  0.00     0.040 A 
ATOM     93  C   UNL     1       8.939  13.068   4.882  1.00  0.00     0.017 A 
ATOM     94  C   UNL     1      10.306  12.389   6.735  1.00  0.00     0.017 A 
ATOM     95  C   UNL     1       9.780  14.161   4.654  1.00  0.00     0.040 A 
ATOM     96  C   UNL     1      11.146  13.487   6.518  1.00  0.00     0.040 A 
ATOM     97  C   UNL     1      10.867  14.370   5.485  1.00  0.00     0.123 A 
ATOM     98  F   UNL     1      11.635  15.451   5.303  1.00  0.00    -0.207 F 
ENDBRANCH  89  92
ENDBRANCH  87  88
BRANCH  87  99
ATOM     99  C   UNL     1       7.578   9.207   3.620  1.00  0.00     0.072 C 
BRANCH  99 100
ATOM    100  C   UNL     1       9.088   9.223   3.666  1.00  0.00    -0.020 A 
ATOM    101  C   UNL     1       9.908  10.264   3.269  1.00  0.00     0.087 A 
ATOM    102  C   UNL     1       9.963   8.174   4.113  1.00  0.00     0.003 A 
ATOM    103  N   UNL     1      11.194   9.965   3.625  1.00  0.00    -0.361 N 
ATOM    104  C   UNL     1      11.266   8.677   4.093  1.00  0.00     0.046 A 
ATOM    105  C   UNL     1       9.775   6.844   4.543  1.00  0.00     0.010 A 
ATOM    106  H   UNL     1      11.957  10.584   3.556  1.00  0.00     0.166 HD
ATOM    107  C   UNL     1      12.381   7.935   4.500  1.00  0.00     0.026 A 
ATOM    108  C   UNL     1      10.885   6.073   4.918  1.00  0.00     0.001 A 
ATOM    109  C   UNL     1      12.168   6.616   4.902  1.00  0.00     0.002 A 
ENDBRANCH  99 100
ENDBRANCH  87  99
ENDBRANCH  84  87
ENDBRANCH  82  83
BRANCH  82 110
ATOM    110  C   UNL     1       5.344  14.009   3.702  1.00  0.00     0.101 C 
BRANCH 110 111
ATOM    111  S   UNL     1       3.907  14.135   2.587  1.00  0.00    -0.177 SA
ATOM    112  H   UNL     1       3.738  12.957   1.930  1.00  0.00     0.102 HD
ENDBRANCH 110 111
ENDBRANCH  82 110
ENDBRANCH  79  82
ENDBRANCH  77  78
BRANCH  77 113
ATOM    113  C   UNL     1       6.726  16.279   6.653  1.00  0.00     0.191 C 
BRANCH 113 114
ATOM    114  O   UNL     1       7.170  16.390   5.297  1.00  0.00    -0.394 OA
ATOM    115  H   UNL     1       7.993  15.889   5.184  1.00  0.00     0.210 HD
ENDBRANCH 113 114
ENDBRANCH  77 113
ENDBRANCH   2  77
TORSDOF 25
