REMARK SMILES O=C(COC[C@@H]1CCCCO1)NCCCNC(=O)c1ccc(-c2c3nc(c(-c4cc(S(=O)(=O)[O-])ccc4F)c4ccc([nH]4)c(-c4cc(S(=O)(=O)[O-])ccc4F)c4nc(c(-c5cc(S(=O)(=O)[O-])ccc5F)c5ccc2[nH]5)C=C4)C=C3)cc1
REMARK SMILES IDX 14 1 13 2 12 3 1 4 2 5 3 7 4 8 5 9 6 10 7 11 11 12 8 13
REMARK SMILES IDX 10 14 9 15 15 16 16 17 17 18 18 20 19 21 20 22 81 23 21 24
REMARK SMILES IDX 80 25 22 26 23 27 24 28 74 29 25 30 79 31 73 32 75 33 26 34
REMARK SMILES IDX 78 35 72 36 71 37 27 39 59 40 39 41 58 42 40 43 43 44 57 45
REMARK SMILES IDX 76 46 41 47 42 48 56 50 77 51 44 52 28 53 29 54 37 55 30 56
REMARK SMILES IDX 36 57 38 58 35 59 31 60 32 61 33 62 34 63 60 64 61 65 69 66
REMARK SMILES IDX 62 67 68 68 70 69 67 70 63 71 64 72 65 73 66 74 45 75 46 76
REMARK SMILES IDX 54 77 47 78 53 79 55 80 52 81 48 82 49 83 50 84 51 85
REMARK H PARENT 12 6 16 19 75 38 43 49
REMARK Flexibility Score: inf
ROOT
ATOM      1  C   UNL     1       2.385   3.081  -1.437  1.00  0.00     0.042 C 
ENDROOT
BRANCH   1   2
ATOM      2  C   UNL     1       2.116   1.629  -1.814  1.00  0.00     0.117 C 
BRANCH   2   3
ATOM      3  N   UNL     1       2.765   0.688  -0.927  1.00  0.00    -0.354 N 
ATOM      4  O   UNL     1       0.949   0.330   0.443  1.00  0.00    -0.272 OA
ATOM      5  C   UNL     1       2.108   0.084   0.123  1.00  0.00     0.246 C 
ATOM      6  H   UNL     1       3.713   0.470  -1.080  1.00  0.00     0.163 HD
BRANCH   5   7
ATOM      7  C   UNL     1       2.973  -0.928   0.883  1.00  0.00     0.260 C 
BRANCH   7   8
ATOM      8  O   UNL     1       3.758  -1.814   0.093  1.00  0.00    -0.369 OA
BRANCH   8   9
ATOM      9  C   UNL     1       3.024  -2.606  -0.846  1.00  0.00     0.192 C 
BRANCH   9  10
ATOM     10  C   UNL     1       1.982  -3.566  -0.235  1.00  0.00     0.144 C 
ATOM     11  C   UNL     1       2.561  -4.540   0.796  1.00  0.00     0.034 C 
ATOM     12  O   UNL     1       1.253  -4.272  -1.252  1.00  0.00    -0.376 OA
ATOM     13  C   UNL     1       3.357  -5.663   0.139  1.00  0.00     0.005 C 
ATOM     14  C   UNL     1       2.001  -5.277  -1.934  1.00  0.00     0.160 C 
ATOM     15  C   UNL     1       2.537  -6.319  -0.965  1.00  0.00     0.029 C 
ENDBRANCH   9  10
ENDBRANCH   8   9
ENDBRANCH   7   8
ENDBRANCH   5   7
ENDBRANCH   2   3
ENDBRANCH   1   2
BRANCH   1  16
ATOM     16  C   UNL     1       3.854   3.491  -1.498  1.00  0.00     0.118 C 
BRANCH  16  17
ATOM     17  N   UNL     1       4.423   3.374  -2.832  1.00  0.00    -0.352 N 
ATOM     18  C   UNL     1       5.099   4.287  -3.600  1.00  0.00     0.251 C 
ATOM     19  H   UNL     1       4.302   2.492  -3.254  1.00  0.00     0.163 HD
ATOM     20  O   UNL     1       5.348   3.994  -4.773  1.00  0.00    -0.269 OA
BRANCH  18  21
ATOM     21  C   UNL     1       5.513   5.605  -3.066  1.00  0.00     0.039 A 
ATOM     22  C   UNL     1       5.466   6.714  -3.919  1.00  0.00     0.014 A 
ATOM     23  C   UNL     1       6.000   5.760  -1.765  1.00  0.00     0.014 A 
ATOM     24  C   UNL     1       5.865   7.972  -3.460  1.00  0.00     0.010 A 
ATOM     25  C   UNL     1       6.327   7.030  -1.285  1.00  0.00     0.010 A 
ATOM     26  C   UNL     1       6.279   8.148  -2.131  1.00  0.00    -0.014 A 
BRANCH  26  27
ATOM     27  C   UNL     1       6.702   9.486  -1.631  1.00  0.00     0.031 A 
ATOM     28  C   UNL     1       8.126   9.714  -1.193  1.00  0.00     0.074 A 
ATOM     29  C   UNL     1       5.802  10.485  -1.537  1.00  0.00     0.049 A 
ATOM     30  N   UNL     1       8.677  10.790  -0.690  1.00  0.00    -0.248 NA
ATOM     31  C   UNL     1       9.042   8.571  -1.310  1.00  0.00     0.031 C 
ATOM     32  C   UNL     1       4.385  10.381  -1.893  1.00  0.00     0.029 A 
ATOM     33  N   UNL     1       5.941  11.783  -1.112  1.00  0.00    -0.354 N 
ATOM     34  C   UNL     1       9.999  10.449  -0.419  1.00  0.00     0.074 A 
ATOM     35  C   UNL     1      10.144   9.048  -0.753  1.00  0.00     0.031 C 
ATOM     36  C   UNL     1       3.794  11.571  -1.697  1.00  0.00     0.029 A 
ATOM     37  C   UNL     1       4.776  12.512  -1.165  1.00  0.00     0.049 A 
ATOM     38  H   UNL     1       6.796  12.157  -0.799  1.00  0.00     0.167 HD
ATOM     39  C   UNL     1      11.005  11.236   0.042  1.00  0.00     0.034 A 
ATOM     40  C   UNL     1       4.524  13.790  -0.821  1.00  0.00     0.034 A 
ATOM     41  C   UNL     1      10.850  12.636   0.356  1.00  0.00     0.049 A 
ATOM     42  C   UNL     1       5.655  14.645  -0.306  1.00  0.00     0.074 A 
ATOM     43  C   UNL     1      11.810  13.535   0.789  1.00  0.00     0.029 A 
ATOM     44  N   UNL     1       9.657  13.343   0.276  1.00  0.00    -0.354 N 
ATOM     45  N   UNL     1       6.910  14.319  -0.098  1.00  0.00    -0.248 NA
ATOM     46  C   UNL     1       5.339  16.046   0.000  1.00  0.00     0.031 C 
ATOM     47  C   UNL     1      11.187  14.765   1.027  1.00  0.00     0.029 A 
ATOM     48  C   UNL     1       9.853  14.658   0.671  1.00  0.00     0.049 A 
ATOM     49  H   UNL     1       8.797  12.965  -0.018  1.00  0.00     0.167 HD
ATOM     50  C   UNL     1       7.539  15.486   0.328  1.00  0.00     0.074 A 
ATOM     51  C   UNL     1       6.528  16.524   0.334  1.00  0.00     0.031 C 
ATOM     52  C   UNL     1       8.836  15.684   0.676  1.00  0.00     0.034 A 
BRANCH  39  53
ATOM     53  C   UNL     1      12.352  10.584   0.253  1.00  0.00     0.023 A 
ATOM     54  C   UNL     1      13.075  10.018  -0.813  1.00  0.00     0.031 A 
ATOM     55  C   UNL     1      12.909  10.495   1.542  1.00  0.00     0.131 A 
ATOM     56  C   UNL     1      14.264   9.316  -0.561  1.00  0.00     0.055 A 
ATOM     57  C   UNL     1      14.137   9.871   1.773  1.00  0.00     0.041 A 
ATOM     58  F   UNL     1      12.259  10.998   2.603  1.00  0.00    -0.206 F 
ATOM     59  C   UNL     1      14.814   9.262   0.721  1.00  0.00     0.022 A 
BRANCH  56  60
ATOM     60  S   UNL     1      14.997   8.345  -1.907  1.00  0.00     0.124 S 
ATOM     61  O   UNL     1      13.907   7.429  -2.236  1.00  0.00    -0.237 OA
ATOM     62  O   UNL     1      15.298   9.365  -2.905  1.00  0.00    -0.237 OA
ATOM     63  O   UNL     1      16.160   7.719  -1.283  1.00  0.00    -0.744 OA
ENDBRANCH  56  60
ENDBRANCH  39  53
BRANCH  40  64
ATOM     64  C   UNL     1       3.148  14.351  -0.950  1.00  0.00     0.023 A 
ATOM     65  C   UNL     1       2.872  15.390  -1.853  1.00  0.00     0.031 A 
ATOM     66  C   UNL     1       2.098  13.886  -0.138  1.00  0.00     0.131 A 
ATOM     67  C   UNL     1       1.592  15.966  -1.887  1.00  0.00     0.055 A 
ATOM     68  C   UNL     1       0.813  14.426  -0.214  1.00  0.00     0.041 A 
ATOM     69  F   UNL     1       2.307  12.890   0.737  1.00  0.00    -0.206 F 
ATOM     70  C   UNL     1       0.558  15.482  -1.083  1.00  0.00     0.022 A 
BRANCH  67  71
ATOM     71  S   UNL     1       1.321  17.417  -2.941  1.00  0.00     0.124 S 
ATOM     72  O   UNL     1       2.310  18.353  -2.418  1.00  0.00    -0.237 OA
ATOM     73  O   UNL     1       1.586  16.879  -4.271  1.00  0.00    -0.237 OA
ATOM     74  O   UNL     1      -0.073  17.771  -2.680  1.00  0.00    -0.744 OA
ENDBRANCH  67  71
ENDBRANCH  40  64
BRANCH  52  75
ATOM     75  C   UNL     1       9.244  17.094   1.033  1.00  0.00     0.023 A 
ATOM     76  C   UNL     1       8.750  17.744   2.178  1.00  0.00     0.031 A 
ATOM     77  C   UNL     1      10.126  17.804   0.199  1.00  0.00     0.131 A 
ATOM     78  C   UNL     1       9.092  19.083   2.423  1.00  0.00     0.055 A 
ATOM     79  C   UNL     1      10.511  19.115   0.481  1.00  0.00     0.041 A 
ATOM     80  F   UNL     1      10.627  17.233  -0.909  1.00  0.00    -0.206 F 
ATOM     81  C   UNL     1       9.982  19.767   1.590  1.00  0.00     0.022 A 
BRANCH  78  82
ATOM     82  S   UNL     1       8.278  19.955   3.790  1.00  0.00     0.124 S 
ATOM     83  O   UNL     1       6.867  19.800   3.452  1.00  0.00    -0.237 OA
ATOM     84  O   UNL     1       8.741  19.208   4.955  1.00  0.00    -0.237 OA
ATOM     85  O   UNL     1       8.795  21.318   3.684  1.00  0.00    -0.744 OA
ENDBRANCH  78  82
ENDBRANCH  52  75
ENDBRANCH  26  27
ENDBRANCH  18  21
ENDBRANCH  16  17
ENDBRANCH   1  16
TORSDOF 16
