REMARK SMILES NS(=O)(=O)c1ccc(-n2nc(C(=O)NCCCNC(=O)c3ccc(-c4c5nc(c(-c6cc(S(=O)(=O)[O-])ccc6F)c6ccc([nH]6)c(-c6cc(S(=O)(=O)[O-])ccc6F)c6nc(c(-c7cc(S(=O)(=O)[O-])ccc7F)c7ccc4[nH]7)C=C6)C=C5)cc3)cc2-c2ccc(Cl)s2)cc1
REMARK SMILES IDX 16 1 15 2 14 3 12 4 13 5 11 7 9 8 10 9 85 10 84 11 8 12 5 13
REMARK SMILES IDX 6 14 93 15 7 16 92 17 2 18 3 19 4 20 1 21 86 24 87 25 91 26
REMARK SMILES IDX 88 27 89 28 90 29 17 30 18 31 19 32 20 34 21 35 22 36 83 37
REMARK SMILES IDX 23 38 82 39 24 40 25 41 26 42 76 43 27 44 81 45 75 46 77 47
REMARK SMILES IDX 28 48 80 49 74 50 73 51 29 53 61 54 41 55 60 56 42 57 45 58
REMARK SMILES IDX 59 59 78 60 43 61 44 62 58 64 79 65 46 66 30 67 31 68 39 69
REMARK SMILES IDX 32 70 38 71 40 72 37 73 33 74 34 75 35 76 36 77 62 78 63 79
REMARK SMILES IDX 71 80 64 81 70 82 72 83 69 84 65 85 66 86 67 87 68 88 47 89
REMARK SMILES IDX 48 90 56 91 49 92 55 93 57 94 54 95 50 96 51 97 52 98 53 99
REMARK H PARENT 14 6 1 22 1 23 18 33 77 52 45 63
REMARK Flexibility Score: inf
ROOT
ATOM      1  C   UNL     1       3.758 -11.206  -2.971  1.00  0.00     0.042 C 
ENDROOT
BRANCH   1   2
ATOM      2  C   UNL     1       3.350 -11.286  -1.494  1.00  0.00     0.118 C 
BRANCH   2   3
ATOM      3  N   UNL     1       4.314 -10.635  -0.621  1.00  0.00    -0.351 N 
ATOM      4  C   UNL     1       4.391  -9.366  -0.083  1.00  0.00     0.271 C 
ATOM      5  O   UNL     1       5.328  -9.160   0.691  1.00  0.00    -0.267 OA
ATOM      6  H   UNL     1       5.064 -11.217  -0.361  1.00  0.00     0.163 HD
BRANCH   4   7
ATOM      7  C   UNL     1       3.382  -8.329  -0.397  1.00  0.00     0.151 A 
ATOM      8  N   UNL     1       2.257  -6.507  -0.166  1.00  0.00    -0.231 N 
ATOM      9  N   UNL     1       3.377  -7.139   0.248  1.00  0.00    -0.162 NA
ATOM     10  C   UNL     1       1.605  -7.207  -1.156  1.00  0.00     0.085 A 
ATOM     11  C   UNL     1       2.346  -8.343  -1.358  1.00  0.00     0.066 A 
BRANCH   8  12
ATOM     12  C   UNL     1       1.890  -5.237   0.333  1.00  0.00     0.065 A 
ATOM     13  C   UNL     1       1.047  -2.656   0.892  1.00  0.00     0.082 A 
ATOM     14  C   UNL     1       0.141  -3.713   1.019  1.00  0.00     0.024 A 
ATOM     15  C   UNL     1       2.376  -2.885   0.510  1.00  0.00     0.024 A 
ATOM     16  C   UNL     1       0.565  -5.009   0.733  1.00  0.00     0.030 A 
ATOM     17  C   UNL     1       2.811  -4.187   0.255  1.00  0.00     0.030 A 
BRANCH  13  18
ATOM     18  S   UNL     1       0.502  -1.012   1.242  1.00  0.00     0.238 S 
ATOM     19  O   UNL     1       1.171  -0.561   2.456  1.00  0.00    -0.207 OA
ATOM     20  O   UNL     1      -0.916  -0.930   1.067  1.00  0.00    -0.207 OA
BRANCH  18  21
ATOM     21  N   UNL     1       1.163  -0.102  -0.007  1.00  0.00    -0.225 NA
ATOM     22  H   UNL     1       0.900   0.876   0.109  1.00  0.00     0.137 HD
ATOM     23  H   UNL     1       0.811  -0.445  -0.901  1.00  0.00     0.137 HD
ENDBRANCH  18  21
ENDBRANCH  13  18
ENDBRANCH   8  12
BRANCH  10  24
ATOM     24  C   UNL     1       0.466  -6.784  -1.905  1.00  0.00     0.054 A 
ATOM     25  C   UNL     1      -0.751  -7.433  -1.982  1.00  0.00     0.024 A 
ATOM     26  S   UNL     1       0.522  -5.405  -2.920  1.00  0.00    -0.122 S 
ATOM     27  C   UNL     1      -1.648  -6.776  -2.876  1.00  0.00     0.033 A 
ATOM     28  C   UNL     1      -1.064  -5.670  -3.437  1.00  0.00     0.094 A 
ATOM     29  Cl  UNL     1      -1.774  -4.599  -4.574  1.00  0.00    -0.072 Cl
ENDBRANCH  10  24
ENDBRANCH   4   7
ENDBRANCH   2   3
ENDBRANCH   1   2
BRANCH   1  30
ATOM     30  C   UNL     1       4.773 -12.289  -3.313  1.00  0.00     0.118 C 
BRANCH  30  31
ATOM     31  N   UNL     1       4.191 -13.637  -3.302  1.00  0.00    -0.352 N 
ATOM     32  C   UNL     1       4.760 -14.833  -3.721  1.00  0.00     0.251 C 
ATOM     33  H   UNL     1       3.274 -13.702  -2.950  1.00  0.00     0.163 HD
ATOM     34  O   UNL     1       4.034 -15.774  -4.024  1.00  0.00    -0.269 OA
BRANCH  32  35
ATOM     35  C   UNL     1       6.238 -14.967  -3.744  1.00  0.00     0.039 A 
ATOM     36  C   UNL     1       6.941 -15.782  -4.632  1.00  0.00     0.014 A 
ATOM     37  C   UNL     1       6.952 -14.222  -2.822  1.00  0.00     0.014 A 
ATOM     38  C   UNL     1       8.349 -15.835  -4.531  1.00  0.00     0.010 A 
ATOM     39  C   UNL     1       8.288 -14.002  -3.030  1.00  0.00     0.010 A 
ATOM     40  C   UNL     1       9.047 -14.945  -3.679  1.00  0.00    -0.014 A 
BRANCH  40  41
ATOM     41  C   UNL     1      10.498 -14.634  -3.783  1.00  0.00     0.031 A 
ATOM     42  C   UNL     1      10.739 -14.249  -5.206  1.00  0.00     0.074 A 
ATOM     43  C   UNL     1      11.413 -14.536  -2.757  1.00  0.00     0.049 A 
ATOM     44  N   UNL     1      11.033 -15.083  -6.153  1.00  0.00    -0.248 NA
ATOM     45  C   UNL     1      10.227 -12.966  -5.744  1.00  0.00     0.031 C 
ATOM     46  C   UNL     1      11.196 -14.737  -1.312  1.00  0.00     0.029 A 
ATOM     47  N   UNL     1      12.776 -14.231  -2.764  1.00  0.00    -0.354 N 
ATOM     48  C   UNL     1      11.218 -14.288  -7.276  1.00  0.00     0.074 A 
ATOM     49  C   UNL     1      10.386 -13.145  -7.062  1.00  0.00     0.031 C 
ATOM     50  C   UNL     1      12.289 -14.361  -0.587  1.00  0.00     0.029 A 
ATOM     51  C   UNL     1      13.384 -14.002  -1.479  1.00  0.00     0.049 A 
ATOM     52  H   UNL     1      13.291 -14.176  -3.601  1.00  0.00     0.167 HD
ATOM     53  C   UNL     1      12.394 -14.411  -7.955  1.00  0.00     0.034 A 
ATOM     54  C   UNL     1      14.705 -13.677  -1.177  1.00  0.00     0.034 A 
ATOM     55  C   UNL     1      13.045 -15.641  -7.538  1.00  0.00     0.049 A 
ATOM     56  C   UNL     1      15.488 -14.134  -2.339  1.00  0.00     0.074 A 
ATOM     57  C   UNL     1      12.770 -16.992  -7.602  1.00  0.00     0.029 A 
ATOM     58  N   UNL     1      13.873 -15.451  -6.459  1.00  0.00    -0.354 N 
ATOM     59  N   UNL     1      15.649 -15.396  -2.612  1.00  0.00    -0.248 NA
ATOM     60  C   UNL     1      15.632 -13.217  -3.456  1.00  0.00     0.031 C 
ATOM     61  C   UNL     1      13.325 -17.564  -6.415  1.00  0.00     0.029 A 
ATOM     62  C   UNL     1      14.062 -16.593  -5.740  1.00  0.00     0.049 A 
ATOM     63  H   UNL     1      14.285 -14.586  -6.231  1.00  0.00     0.167 HD
ATOM     64  C   UNL     1      15.412 -15.473  -3.970  1.00  0.00     0.074 A 
ATOM     65  C   UNL     1      15.555 -14.096  -4.460  1.00  0.00     0.031 C 
ATOM     66  C   UNL     1      14.774 -16.571  -4.478  1.00  0.00     0.034 A 
BRANCH  53  67
ATOM     67  C   UNL     1      13.239 -13.235  -8.449  1.00  0.00     0.023 A 
ATOM     68  C   UNL     1      14.495 -13.556  -9.007  1.00  0.00     0.031 A 
ATOM     69  C   UNL     1      13.050 -11.867  -8.142  1.00  0.00     0.131 A 
ATOM     70  C   UNL     1      15.501 -12.583  -9.153  1.00  0.00     0.055 A 
ATOM     71  C   UNL     1      14.038 -10.894  -8.333  1.00  0.00     0.041 A 
ATOM     72  F   UNL     1      11.943 -11.389  -7.567  1.00  0.00    -0.206 F 
ATOM     73  C   UNL     1      15.280 -11.251  -8.822  1.00  0.00     0.022 A 
BRANCH  70  74
ATOM     74  S   UNL     1      17.158 -13.121  -9.645  1.00  0.00     0.124 S 
ATOM     75  O   UNL     1      17.493 -14.051  -8.574  1.00  0.00    -0.237 OA
ATOM     76  O   UNL     1      16.905 -13.707 -10.957  1.00  0.00    -0.237 OA
ATOM     77  O   UNL     1      17.925 -11.877  -9.659  1.00  0.00    -0.744 OA
ENDBRANCH  70  74
ENDBRANCH  53  67
BRANCH  54  78
ATOM     78  C   UNL     1      15.386 -12.744  -0.164  1.00  0.00     0.023 A 
ATOM     79  C   UNL     1      16.792 -12.703   0.182  1.00  0.00     0.031 A 
ATOM     80  C   UNL     1      14.652 -11.608   0.219  1.00  0.00     0.131 A 
ATOM     81  C   UNL     1      17.364 -11.568   0.856  1.00  0.00     0.055 A 
ATOM     82  C   UNL     1      15.227 -10.489   0.841  1.00  0.00     0.041 A 
ATOM     83  F   UNL     1      13.352 -11.505  -0.095  1.00  0.00    -0.206 F 
ATOM     84  C   UNL     1      16.578 -10.456   1.150  1.00  0.00     0.022 A 
BRANCH  81  85
ATOM     85  S   UNL     1      19.149 -11.431   1.355  1.00  0.00     0.124 S 
ATOM     86  O   UNL     1      19.297 -12.507   2.328  1.00  0.00    -0.237 OA
ATOM     87  O   UNL     1      19.860 -11.591   0.093  1.00  0.00    -0.237 OA
ATOM     88  O   UNL     1      19.247 -10.086   1.932  1.00  0.00    -0.744 OA
ENDBRANCH  81  85
ENDBRANCH  54  78
BRANCH  66  89
ATOM     89  C   UNL     1      14.806 -17.838  -3.655  1.00  0.00     0.023 A 
ATOM     90  C   UNL     1      14.248 -18.029  -2.369  1.00  0.00     0.031 A 
ATOM     91  C   UNL     1      15.455 -18.929  -4.256  1.00  0.00     0.131 A 
ATOM     92  C   UNL     1      14.387 -19.279  -1.727  1.00  0.00     0.055 A 
ATOM     93  C   UNL     1      15.560 -20.167  -3.635  1.00  0.00     0.041 A 
ATOM     94  F   UNL     1      15.994 -18.808  -5.481  1.00  0.00    -0.206 F 
ATOM     95  C   UNL     1      15.037 -20.343  -2.362  1.00  0.00     0.022 A 
BRANCH  92  96
ATOM     96  S   UNL     1      13.797 -19.535  -0.019  1.00  0.00     0.124 S 
ATOM     97  O   UNL     1      14.296 -18.364   0.692  1.00  0.00    -0.237 OA
ATOM     98  O   UNL     1      12.348 -19.605  -0.192  1.00  0.00    -0.237 OA
ATOM     99  O   UNL     1      14.423 -20.800   0.372  1.00  0.00    -0.744 OA
ENDBRANCH  92  96
ENDBRANCH  66  89
ENDBRANCH  40  41
ENDBRANCH  32  35
ENDBRANCH  30  31
ENDBRANCH   1  30
TORSDOF 17
