REMARK SMILES O=C(NCCCNC(=O)c1ccc(-c2c3nc(c(-c4cc(S(=O)(=O)[O-])ccc4F)c4ccc([nH]4)c(-c4cc(S(=O)(=O)[O-])ccc4F)c4nc(c(-c5cc(S(=O)(=O)[O-])ccc5F)c5ccc2[nH]5)C=C4)C=C3)cc1)C1=Cc2ccc(Cl)c(Cl)c2O[C@@H]1C(F)(F)F
REMARK SMILES IDX 6 1 5 2 4 3 3 4 1 5 2 6 73 8 74 9 84 10 75 11 83 12 76 13
REMARK SMILES IDX 82 14 77 15 80 16 78 17 81 18 79 19 85 20 86 21 87 22 88 23
REMARK SMILES IDX 7 24 8 25 9 27 10 28 11 29 72 30 12 31 71 32 13 33 14 34
REMARK SMILES IDX 15 35 65 36 16 37 70 38 64 39 66 40 17 41 69 42 63 43 62 44
REMARK SMILES IDX 18 46 50 47 30 48 49 49 31 50 34 51 48 52 67 53 32 54 33 55
REMARK SMILES IDX 47 57 68 58 35 59 19 60 20 61 28 62 21 63 27 64 29 65 26 66
REMARK SMILES IDX 22 67 23 68 24 69 25 70 51 71 52 72 60 73 53 74 59 75 61 76
REMARK SMILES IDX 58 77 54 78 55 79 56 80 57 81 36 82 37 83 45 84 38 85 44 86
REMARK SMILES IDX 46 87 43 88 39 89 40 90 41 91 42 92
REMARK H PARENT 3 7 7 26 66 45 34 56
REMARK Flexibility Score: inf
ROOT
ATOM      1  C   UNL     1       4.029  -3.363   2.370  1.00  0.00     0.118 C 
ENDROOT
BRANCH   1   2
ATOM      2  C   UNL     1       4.152  -1.867   2.105  1.00  0.00     0.042 C 
BRANCH   2   3
ATOM      3  C   UNL     1       3.370  -1.424   0.873  1.00  0.00     0.118 C 
BRANCH   3   4
ATOM      4  N   UNL     1       2.385  -0.376   1.158  1.00  0.00    -0.352 N 
ATOM      5  O   UNL     1       1.242   1.555   0.808  1.00  0.00    -0.270 OA
ATOM      6  C   UNL     1       2.245   0.882   0.621  1.00  0.00     0.251 C 
ATOM      7  H   UNL     1       1.718  -0.610   1.843  1.00  0.00     0.163 HD
BRANCH   6   8
ATOM      8  C   UNL     1       3.334   1.360  -0.248  1.00  0.00     0.067 C 
ATOM      9  C   UNL     1       4.512   1.605   0.336  1.00  0.00     0.025 C 
ATOM     10  C   UNL     1       3.176   1.151  -1.719  1.00  0.00     0.314 C 
ATOM     11  C   UNL     1       5.643   0.991  -0.369  1.00  0.00     0.019 A 
ATOM     12  O   UNL     1       4.253   0.368  -2.283  1.00  0.00    -0.474 OA
ATOM     13  C   UNL     1       6.804   0.769   0.378  1.00  0.00     0.013 A 
ATOM     14  C   UNL     1       5.422   0.266  -1.560  1.00  0.00     0.148 A 
ATOM     15  C   UNL     1       7.682  -0.247   0.007  1.00  0.00     0.023 A 
ATOM     16  C   UNL     1       6.322  -0.744  -1.941  1.00  0.00     0.102 A 
ATOM     17  C   UNL     1       7.432  -1.019  -1.132  1.00  0.00     0.063 A 
ATOM     18  Cl  UNL     1       5.948  -1.737  -3.316  1.00  0.00    -0.079 Cl
ATOM     19  Cl  UNL     1       8.489  -2.354  -1.429  1.00  0.00    -0.083 Cl
BRANCH  10  20
ATOM     20  C   UNL     1       3.032   2.488  -2.461  1.00  0.00     0.429 C 
ATOM     21  F   UNL     1       2.733   2.291  -3.769  1.00  0.00    -0.167 F 
ATOM     22  F   UNL     1       2.039   3.251  -1.948  1.00  0.00    -0.167 F 
ATOM     23  F   UNL     1       4.168   3.224  -2.418  1.00  0.00    -0.167 F 
ENDBRANCH  10  20
ENDBRANCH   6   8
ENDBRANCH   3   4
ENDBRANCH   2   3
ENDBRANCH   1   2
BRANCH   1  24
ATOM     24  N   UNL     1       4.643  -4.201   1.347  1.00  0.00    -0.352 N 
ATOM     25  C   UNL     1       5.516  -5.268   1.463  1.00  0.00     0.251 C 
ATOM     26  H   UNL     1       4.396  -3.969   0.422  1.00  0.00     0.163 HD
ATOM     27  O   UNL     1       5.959  -5.789   0.456  1.00  0.00    -0.269 OA
BRANCH  25  28
ATOM     28  C   UNL     1       5.947  -5.741   2.804  1.00  0.00     0.039 A 
ATOM     29  C   UNL     1       7.281  -6.114   2.996  1.00  0.00     0.014 A 
ATOM     30  C   UNL     1       5.055  -5.797   3.873  1.00  0.00     0.014 A 
ATOM     31  C   UNL     1       7.733  -6.447   4.278  1.00  0.00     0.010 A 
ATOM     32  C   UNL     1       5.532  -6.000   5.162  1.00  0.00     0.010 A 
ATOM     33  C   UNL     1       6.875  -6.340   5.383  1.00  0.00    -0.014 A 
BRANCH  33  34
ATOM     34  C   UNL     1       7.334  -6.608   6.774  1.00  0.00     0.031 A 
ATOM     35  C   UNL     1       6.633  -7.659   7.599  1.00  0.00     0.074 A 
ATOM     36  C   UNL     1       8.307  -5.854   7.324  1.00  0.00     0.049 A 
ATOM     37  N   UNL     1       6.766  -7.945   8.869  1.00  0.00    -0.248 NA
ATOM     38  C   UNL     1       5.602  -8.453   6.913  1.00  0.00     0.031 C 
ATOM     39  C   UNL     1       9.020  -4.764   6.651  1.00  0.00     0.029 A 
ATOM     40  N   UNL     1       8.861  -5.879   8.579  1.00  0.00    -0.354 N 
ATOM     41  C   UNL     1       5.808  -8.919   9.139  1.00  0.00     0.074 A 
ATOM     42  C   UNL     1       5.052  -9.110   7.921  1.00  0.00     0.031 C 
ATOM     43  C   UNL     1       9.940  -4.255   7.486  1.00  0.00     0.029 A 
ATOM     44  C   UNL     1       9.852  -4.944   8.769  1.00  0.00     0.049 A 
ATOM     45  H   UNL     1       8.575  -6.509   9.280  1.00  0.00     0.167 HD
ATOM     46  C   UNL     1       5.601  -9.617  10.284  1.00  0.00     0.034 A 
ATOM     47  C   UNL     1      10.601  -4.670   9.855  1.00  0.00     0.034 A 
ATOM     48  C   UNL     1       6.402  -9.448  11.471  1.00  0.00     0.049 A 
ATOM     49  C   UNL     1      10.382  -5.483  11.106  1.00  0.00     0.074 A 
ATOM     50  C   UNL     1       6.333 -10.142  12.666  1.00  0.00     0.029 A 
ATOM     51  N   UNL     1       7.430  -8.523  11.608  1.00  0.00    -0.354 N 
ATOM     52  N   UNL     1       9.501  -6.431  11.332  1.00  0.00    -0.248 NA
ATOM     53  C   UNL     1      11.268  -5.200  12.242  1.00  0.00     0.031 C 
ATOM     54  C   UNL     1       7.281  -9.601  13.542  1.00  0.00     0.029 A 
ATOM     55  C   UNL     1       7.991  -8.618  12.872  1.00  0.00     0.049 A 
ATOM     56  H   UNL     1       7.718  -7.893  10.909  1.00  0.00     0.167 HD
ATOM     57  C   UNL     1       9.749  -6.878  12.627  1.00  0.00     0.074 A 
ATOM     58  C   UNL     1      10.874  -6.109  13.120  1.00  0.00     0.031 C 
ATOM     59  C   UNL     1       9.109  -7.836  13.345  1.00  0.00     0.034 A 
BRANCH  46  60
ATOM     60  C   UNL     1       4.460 -10.610  10.296  1.00  0.00     0.023 A 
ATOM     61  C   UNL     1       4.423 -11.702   9.409  1.00  0.00     0.031 A 
ATOM     62  C   UNL     1       3.371 -10.438  11.167  1.00  0.00     0.131 A 
ATOM     63  C   UNL     1       3.281 -12.514   9.343  1.00  0.00     0.055 A 
ATOM     64  C   UNL     1       2.278 -11.309  11.163  1.00  0.00     0.041 A 
ATOM     65  F   UNL     1       3.336  -9.405  12.024  1.00  0.00    -0.206 F 
ATOM     66  C   UNL     1       2.219 -12.343  10.233  1.00  0.00     0.022 A 
BRANCH  63  67
ATOM     67  S   UNL     1       3.135 -13.687   7.967  1.00  0.00     0.124 S 
ATOM     68  O   UNL     1       3.189 -12.792   6.813  1.00  0.00    -0.237 OA
ATOM     69  O   UNL     1       4.296 -14.549   8.162  1.00  0.00    -0.237 OA
ATOM     70  O   UNL     1       1.839 -14.322   8.194  1.00  0.00    -0.744 OA
ENDBRANCH  63  67
ENDBRANCH  46  60
BRANCH  47  71
ATOM     71  C   UNL     1      11.635  -3.595   9.816  1.00  0.00     0.023 A 
ATOM     72  C   UNL     1      12.999  -3.902   9.943  1.00  0.00     0.031 A 
ATOM     73  C   UNL     1      11.274  -2.242   9.689  1.00  0.00     0.131 A 
ATOM     74  C   UNL     1      13.950  -2.870   9.991  1.00  0.00     0.055 A 
ATOM     75  C   UNL     1      12.228  -1.221   9.686  1.00  0.00     0.041 A 
ATOM     76  F   UNL     1       9.985  -1.892   9.554  1.00  0.00    -0.206 F 
ATOM     77  C   UNL     1      13.574  -1.532   9.852  1.00  0.00     0.022 A 
BRANCH  74  78
ATOM     78  S   UNL     1      15.681  -3.299  10.323  1.00  0.00     0.124 S 
ATOM     79  O   UNL     1      15.576  -3.991  11.602  1.00  0.00    -0.237 OA
ATOM     80  O   UNL     1      16.012  -4.128   9.169  1.00  0.00    -0.237 OA
ATOM     81  O   UNL     1      16.350  -2.000  10.367  1.00  0.00    -0.744 OA
ENDBRANCH  74  78
ENDBRANCH  47  71
BRANCH  59  82
ATOM     82  C   UNL     1       9.651  -8.129  14.722  1.00  0.00     0.023 A 
ATOM     83  C   UNL     1       9.588  -7.181  15.758  1.00  0.00     0.031 A 
ATOM     84  C   UNL     1      10.261  -9.367  14.993  1.00  0.00     0.131 A 
ATOM     85  C   UNL     1      10.185  -7.459  16.996  1.00  0.00     0.055 A 
ATOM     86  C   UNL     1      10.796  -9.663  16.247  1.00  0.00     0.041 A 
ATOM     87  F   UNL     1      10.348 -10.309  14.039  1.00  0.00    -0.206 F 
ATOM     88  C   UNL     1      10.774  -8.700  17.252  1.00  0.00     0.022 A 
BRANCH  85  89
ATOM     89  S   UNL     1      10.278  -6.136  18.231  1.00  0.00     0.124 S 
ATOM     90  O   UNL     1      10.986  -5.088  17.502  1.00  0.00    -0.237 OA
ATOM     91  O   UNL     1       8.871  -5.874  18.515  1.00  0.00    -0.237 OA
ATOM     92  O   UNL     1      11.029  -6.743  19.329  1.00  0.00    -0.744 OA
ENDBRANCH  85  89
ENDBRANCH  59  82
ENDBRANCH  33  34
ENDBRANCH  25  28
ENDBRANCH   1  24
TORSDOF 14
