REMARK SMILES O=C(NCCCNC(=O)c1ccc(NCCCO)c(F)c1F)c1ccc(-c2c3nc(c(-c4cc(S(=O)(=O)[O-])ccc4F)c4ccc([nH]4)c(-c4cc(S(=O)(=O)[O-])ccc4F)c4nc(c(-c5cc(S(=O)(=O)[O-])ccc5F)c5ccc2[nH]5)C=C4)C=C3)cc1
REMARK SMILES IDX 6 1 5 2 4 3 3 4 1 5 2 6 23 8 24 9 85 10 25 11 84 12 26 13
REMARK SMILES IDX 27 14 28 15 78 16 29 17 83 18 77 19 79 20 30 21 82 22 76 23
REMARK SMILES IDX 75 24 31 26 63 27 43 28 62 29 44 30 47 31 61 32 80 33 45 34
REMARK SMILES IDX 46 35 60 37 81 38 48 39 32 40 33 41 41 42 34 43 40 44 42 45
REMARK SMILES IDX 39 46 35 47 36 48 37 49 38 50 64 51 65 52 73 53 66 54 72 55
REMARK SMILES IDX 74 56 71 57 67 58 68 59 69 60 70 61 49 62 50 63 58 64 51 65
REMARK SMILES IDX 57 66 59 67 56 68 52 69 53 70 54 71 55 72 7 73 8 74 9 76
REMARK SMILES IDX 10 77 11 78 21 79 12 80 19 81 22 82 13 83 20 84 14 85 15 87
REMARK SMILES IDX 16 88 17 89 18 90
REMARK H PARENT 3 7 79 25 47 36 7 75 14 86 18 91
REMARK Flexibility Score: inf
ROOT
ATOM      1  C   UNL     1       4.445   3.160   2.061  1.00  0.00     0.118 C 
ENDROOT
BRANCH   1   2
ATOM      2  C   UNL     1       4.989   2.232   0.987  1.00  0.00     0.042 C 
BRANCH   2   3
ATOM      3  C   UNL     1       4.565   0.782   1.155  1.00  0.00     0.118 C 
BRANCH   3   4
ATOM      4  N   UNL     1       3.126   0.600   1.020  1.00  0.00    -0.352 N 
ATOM      5  O   UNL     1       1.191   0.056   0.009  1.00  0.00    -0.269 OA
ATOM      6  C   UNL     1       2.412  -0.068   0.054  1.00  0.00     0.251 C 
ATOM      7  H   UNL     1       2.583   1.017   1.728  1.00  0.00     0.163 HD
BRANCH   6   8
ATOM      8  C   UNL     1       3.114  -0.923  -0.928  1.00  0.00     0.039 A 
ATOM      9  C   UNL     1       4.157  -1.758  -0.522  1.00  0.00     0.014 A 
ATOM     10  C   UNL     1       2.703  -0.917  -2.264  1.00  0.00     0.014 A 
ATOM     11  C   UNL     1       4.879  -2.477  -1.465  1.00  0.00     0.010 A 
ATOM     12  C   UNL     1       3.363  -1.724  -3.196  1.00  0.00     0.010 A 
ATOM     13  C   UNL     1       4.463  -2.503  -2.804  1.00  0.00    -0.014 A 
BRANCH  13  14
ATOM     14  C   UNL     1       5.107  -3.460  -3.738  1.00  0.00     0.031 A 
ATOM     15  C   UNL     1       5.879  -2.988  -4.935  1.00  0.00     0.074 A 
ATOM     16  C   UNL     1       4.973  -4.778  -3.479  1.00  0.00     0.049 A 
ATOM     17  N   UNL     1       6.464  -3.699  -5.864  1.00  0.00    -0.248 NA
ATOM     18  C   UNL     1       6.010  -1.535  -5.121  1.00  0.00     0.031 C 
ATOM     19  C   UNL     1       4.238  -5.339  -2.340  1.00  0.00     0.029 A 
ATOM     20  N   UNL     1       5.441  -5.883  -4.142  1.00  0.00    -0.354 N 
ATOM     21  C   UNL     1       7.013  -2.787  -6.759  1.00  0.00     0.074 A 
ATOM     22  C   UNL     1       6.681  -1.466  -6.265  1.00  0.00     0.031 C 
ATOM     23  C   UNL     1       4.328  -6.675  -2.369  1.00  0.00     0.029 A 
ATOM     24  C   UNL     1       5.044  -7.072  -3.573  1.00  0.00     0.049 A 
ATOM     25  H   UNL     1       6.007  -5.831  -4.946  1.00  0.00     0.167 HD
ATOM     26  C   UNL     1       7.721  -3.040  -7.886  1.00  0.00     0.034 A 
ATOM     27  C   UNL     1       5.191  -8.342  -3.998  1.00  0.00     0.034 A 
ATOM     28  C   UNL     1       8.046  -4.370  -8.347  1.00  0.00     0.049 A 
ATOM     29  C   UNL     1       5.929  -8.582  -5.288  1.00  0.00     0.074 A 
ATOM     30  C   UNL     1       8.829  -4.735  -9.429  1.00  0.00     0.029 A 
ATOM     31  N   UNL     1       7.588  -5.549  -7.774  1.00  0.00    -0.354 N 
ATOM     32  N   UNL     1       6.498  -7.707  -6.085  1.00  0.00    -0.248 NA
ATOM     33  C   UNL     1       6.042  -9.973  -5.739  1.00  0.00     0.031 C 
ATOM     34  C   UNL     1       8.768  -6.125  -9.564  1.00  0.00     0.029 A 
ATOM     35  C   UNL     1       8.020  -6.638  -8.517  1.00  0.00     0.049 A 
ATOM     36  H   UNL     1       7.038  -5.604  -6.959  1.00  0.00     0.167 HD
ATOM     37  C   UNL     1       7.047  -8.448  -7.126  1.00  0.00     0.074 A 
ATOM     38  C   UNL     1       6.770  -9.839  -6.837  1.00  0.00     0.031 C 
ATOM     39  C   UNL     1       7.715  -8.018  -8.225  1.00  0.00     0.034 A 
BRANCH  26  40
ATOM     40  C   UNL     1       8.151  -1.873  -8.740  1.00  0.00     0.023 A 
ATOM     41  C   UNL     1       9.111  -0.941  -8.311  1.00  0.00     0.031 A 
ATOM     42  C   UNL     1       7.623  -1.727 -10.037  1.00  0.00     0.131 A 
ATOM     43  C   UNL     1       9.489   0.113  -9.159  1.00  0.00     0.055 A 
ATOM     44  C   UNL     1       8.049  -0.715 -10.898  1.00  0.00     0.041 A 
ATOM     45  F   UNL     1       6.687  -2.576 -10.491  1.00  0.00    -0.206 F 
ATOM     46  C   UNL     1       8.984   0.216 -10.459  1.00  0.00     0.022 A 
BRANCH  43  47
ATOM     47  S   UNL     1      10.587   1.403  -8.512  1.00  0.00     0.124 S 
ATOM     48  O   UNL     1       9.813   1.913  -7.383  1.00  0.00    -0.237 OA
ATOM     49  O   UNL     1      11.791   0.653  -8.173  1.00  0.00    -0.237 OA
ATOM     50  O   UNL     1      10.726   2.331  -9.633  1.00  0.00    -0.744 OA
ENDBRANCH  43  47
ENDBRANCH  26  40
BRANCH  27  51
ATOM     51  C   UNL     1       4.563  -9.469  -3.250  1.00  0.00     0.023 A 
ATOM     52  C   UNL     1       5.337 -10.519  -2.737  1.00  0.00     0.031 A 
ATOM     53  C   UNL     1       3.165  -9.545  -3.096  1.00  0.00     0.131 A 
ATOM     54  C   UNL     1       4.707 -11.629  -2.153  1.00  0.00     0.055 A 
ATOM     55  C   UNL     1       2.549 -10.616  -2.448  1.00  0.00     0.041 A 
ATOM     56  F   UNL     1       2.373  -8.570  -3.571  1.00  0.00    -0.206 F 
ATOM     57  C   UNL     1       3.321 -11.677  -1.989  1.00  0.00     0.022 A 
BRANCH  54  58
ATOM     58  S   UNL     1       5.720 -13.074  -1.735  1.00  0.00     0.124 S 
ATOM     59  O   UNL     1       6.384 -13.347  -3.005  1.00  0.00    -0.237 OA
ATOM     60  O   UNL     1       6.566 -12.551  -0.668  1.00  0.00    -0.237 OA
ATOM     61  O   UNL     1       4.735 -14.070  -1.319  1.00  0.00    -0.744 OA
ENDBRANCH  54  58
ENDBRANCH  27  51
BRANCH  39  62
ATOM     62  C   UNL     1       8.204  -9.076  -9.181  1.00  0.00     0.023 A 
ATOM     63  C   UNL     1       7.306  -9.853  -9.934  1.00  0.00     0.031 A 
ATOM     64  C   UNL     1       9.580  -9.314  -9.336  1.00  0.00     0.131 A 
ATOM     65  C   UNL     1       7.794 -10.865 -10.773  1.00  0.00     0.055 A 
ATOM     66  C   UNL     1      10.062 -10.279 -10.220  1.00  0.00     0.041 A 
ATOM     67  F   UNL     1      10.480  -8.604  -8.637  1.00  0.00    -0.206 F 
ATOM     68  C   UNL     1       9.166 -11.069 -10.936  1.00  0.00     0.022 A 
BRANCH  65  69
ATOM     69  S   UNL     1       6.607 -11.964 -11.591  1.00  0.00     0.124 S 
ATOM     70  O   UNL     1       5.938 -12.588 -10.454  1.00  0.00    -0.237 OA
ATOM     71  O   UNL     1       5.800 -11.030 -12.371  1.00  0.00    -0.237 OA
ATOM     72  O   UNL     1       7.454 -12.857 -12.380  1.00  0.00    -0.744 OA
ENDBRANCH  65  69
ENDBRANCH  39  62
ENDBRANCH  13  14
ENDBRANCH   6   8
ENDBRANCH   3   4
ENDBRANCH   2   3
ENDBRANCH   1   2
BRANCH   1  73
ATOM     73  N   UNL     1       4.916   2.813   3.396  1.00  0.00    -0.352 N 
ATOM     74  C   UNL     1       5.724   3.514   4.255  1.00  0.00     0.254 C 
ATOM     75  H   UNL     1       4.606   1.942   3.734  1.00  0.00     0.163 HD
ATOM     76  O   UNL     1       6.084   3.011   5.317  1.00  0.00    -0.269 OA
BRANCH  74  77
ATOM     77  C   UNL     1       6.125   4.886   3.920  1.00  0.00     0.078 A 
ATOM     78  C   UNL     1       5.157   5.842   3.592  1.00  0.00     0.019 A 
ATOM     79  C   UNL     1       7.465   5.242   3.946  1.00  0.00     0.173 A 
ATOM     80  C   UNL     1       5.544   7.121   3.183  1.00  0.00     0.030 A 
ATOM     81  C   UNL     1       7.837   6.524   3.559  1.00  0.00     0.182 A 
ATOM     82  F   UNL     1       8.413   4.360   4.298  1.00  0.00    -0.203 F 
ATOM     83  C   UNL     1       6.894   7.479   3.126  1.00  0.00     0.073 A 
ATOM     84  F   UNL     1       9.139   6.860   3.567  1.00  0.00    -0.201 F 
BRANCH  83  85
ATOM     85  N   UNL     1       7.342   8.709   2.676  1.00  0.00    -0.383 N 
ATOM     86  H   UNL     1       8.295   8.911   2.816  1.00  0.00     0.160 HD
BRANCH  85  87
ATOM     87  C   UNL     1       6.548   9.730   2.019  1.00  0.00     0.115 C 
BRANCH  87  88
ATOM     88  C   UNL     1       6.428  10.963   2.909  1.00  0.00     0.049 C 
BRANCH  88  89
ATOM     89  C   UNL     1       7.746  11.708   3.085  1.00  0.00     0.158 C 
BRANCH  89  90
ATOM     90  O   UNL     1       8.199  12.237   1.845  1.00  0.00    -0.396 OA
ATOM     91  H   UNL     1       8.342  11.511   1.217  1.00  0.00     0.210 HD
ENDBRANCH  89  90
ENDBRANCH  88  89
ENDBRANCH  87  88
ENDBRANCH  85  87
ENDBRANCH  83  85
ENDBRANCH  74  77
ENDBRANCH   1  73
TORSDOF 18
