REMARK SMILES O=C(CSc1nc(O)cc(=O)[nH]1)Nc1cccc(C(=O)NCCCNC(=O)c2ccc(-c3c4nc(c(-c5cc(S(=O)(=O)[O-])ccc5F)c5ccc([nH]5)c(-c5cc(S(=O)(=O)[O-])ccc5F)c5nc(c(-c6cc(S(=O)(=O)[O-])ccc6F)c6ccc3[nH]6)C=C5)C=C4)cc2)c1
REMARK SMILES IDX 22 1 21 2 19 3 20 4 18 6 14 7 15 8 91 9 16 10 17 11 13 12
REMARK SMILES IDX 1 13 2 14 3 16 4 17 5 18 6 19 12 20 7 21 10 22 9 24 11 25
REMARK SMILES IDX 8 26 23 28 24 29 25 30 26 31 27 33 28 34 29 35 90 36 30 37
REMARK SMILES IDX 89 38 31 39 32 40 33 41 83 42 34 43 88 44 82 45 84 46 35 47
REMARK SMILES IDX 87 48 81 49 80 50 36 52 68 53 48 54 67 55 49 56 52 57 66 58
REMARK SMILES IDX 85 59 50 60 51 61 65 63 86 64 53 65 37 66 38 67 46 68 39 69
REMARK SMILES IDX 45 70 47 71 44 72 40 73 41 74 42 75 43 76 69 77 70 78 78 79
REMARK SMILES IDX 71 80 77 81 79 82 76 83 72 84 73 85 74 86 75 87 54 88 55 89
REMARK SMILES IDX 63 90 56 91 62 92 64 93 61 94 57 95 58 96 59 97 60 98
REMARK H PARENT 21 5 13 15 12 23 8 27 25 32 84 51 52 62
REMARK Flexibility Score: inf
ROOT
ATOM      1  C   UNL     1      -0.263  -2.500  -1.750  1.00  0.00     0.118 C 
ENDROOT
BRANCH   1   2
ATOM      2  N   UNL     1      -0.802  -3.643  -1.013  1.00  0.00    -0.352 N 
ATOM      3  C   UNL     1      -0.501  -4.178   0.223  1.00  0.00     0.251 C 
ATOM      4  O   UNL     1      -1.123  -5.168   0.606  1.00  0.00    -0.269 OA
ATOM      5  H   UNL     1      -1.517  -4.123  -1.490  1.00  0.00     0.163 HD
BRANCH   3   6
ATOM      6  C   UNL     1       0.607  -3.655   1.068  1.00  0.00     0.041 A 
ATOM      7  C   UNL     1       2.247  -1.935   1.474  1.00  0.00     0.041 A 
ATOM      8  C   UNL     1       2.999  -2.835   2.235  1.00  0.00     0.026 A 
ATOM      9  C   UNL     1       0.980  -2.314   1.046  1.00  0.00     0.040 A 
ATOM     10  C   UNL     1       2.519  -4.126   2.471  1.00  0.00     0.003 A 
ATOM     11  C   UNL     1       1.348  -4.552   1.844  1.00  0.00     0.014 A 
BRANCH   7  12
ATOM     12  N   UNL     1       2.862  -0.737   1.051  1.00  0.00    -0.325 N 
ATOM     13  O   UNL     1       1.141   0.306  -0.135  1.00  0.00    -0.274 OA
ATOM     14  C   UNL     1       2.312   0.241   0.225  1.00  0.00     0.234 C 
ATOM     15  H   UNL     1       3.777  -0.575   1.374  1.00  0.00     0.169 HD
BRANCH  14  16
ATOM     16  C   UNL     1       3.317   1.274  -0.260  1.00  0.00     0.178 C 
BRANCH  16  17
ATOM     17  S   UNL     1       4.421   1.823   1.072  1.00  0.00    -0.078 SA
BRANCH  17  18
ATOM     18  C   UNL     1       3.272   2.590   2.126  1.00  0.00     0.172 A 
ATOM     19  N   UNL     1       3.217   3.876   2.218  1.00  0.00    -0.189 NA
ATOM     20  N   UNL     1       2.519   1.732   2.863  1.00  0.00    -0.301 N 
ATOM     21  C   UNL     1       2.333   4.371   3.132  1.00  0.00     0.218 A 
ATOM     22  C   UNL     1       1.621   2.178   3.782  1.00  0.00     0.255 A 
ATOM     23  H   UNL     1       2.627   0.762   2.729  1.00  0.00     0.172 HD
ATOM     24  C   UNL     1       1.540   3.636   3.913  1.00  0.00     0.139 A 
ATOM     25  O   UNL     1       0.949   1.427   4.472  1.00  0.00    -0.269 OA
BRANCH  21  26
ATOM     26  O   UNL     1       2.312   5.735   3.244  1.00  0.00    -0.493 OA
ATOM     27  H   UNL     1       2.867   6.259   2.700  1.00  0.00     0.295 HD
ENDBRANCH  21  26
ENDBRANCH  17  18
ENDBRANCH  16  17
ENDBRANCH  14  16
ENDBRANCH   7  12
ENDBRANCH   3   6
ENDBRANCH   1   2
BRANCH   1  28
ATOM     28  C   UNL     1       0.237  -2.821  -3.147  1.00  0.00     0.042 C 
BRANCH  28  29
ATOM     29  C   UNL     1      -0.844  -3.206  -4.139  1.00  0.00     0.118 C 
BRANCH  29  30
ATOM     30  N   UNL     1      -1.793  -2.129  -4.393  1.00  0.00    -0.352 N 
ATOM     31  C   UNL     1      -1.975  -1.324  -5.494  1.00  0.00     0.251 C 
ATOM     32  H   UNL     1      -2.410  -1.945  -3.648  1.00  0.00     0.163 HD
ATOM     33  O   UNL     1      -2.719  -0.350  -5.404  1.00  0.00    -0.269 OA
BRANCH  31  34
ATOM     34  C   UNL     1      -1.266  -1.598  -6.766  1.00  0.00     0.039 A 
ATOM     35  C   UNL     1      -0.789  -0.523  -7.523  1.00  0.00     0.014 A 
ATOM     36  C   UNL     1      -1.083  -2.901  -7.229  1.00  0.00     0.014 A 
ATOM     37  C   UNL     1      -0.053  -0.763  -8.688  1.00  0.00     0.010 A 
ATOM     38  C   UNL     1      -0.259  -3.142  -8.323  1.00  0.00     0.010 A 
ATOM     39  C   UNL     1       0.265  -2.076  -9.069  1.00  0.00    -0.014 A 
BRANCH  39  40
ATOM     40  C   UNL     1       1.137  -2.364 -10.240  1.00  0.00     0.031 A 
ATOM     41  C   UNL     1       0.610  -3.185 -11.388  1.00  0.00     0.074 A 
ATOM     42  C   UNL     1       2.424  -1.957 -10.232  1.00  0.00     0.049 A 
ATOM     43  N   UNL     1       1.242  -3.640 -12.439  1.00  0.00    -0.248 NA
ATOM     44  C   UNL     1      -0.807  -3.575 -11.327  1.00  0.00     0.031 C 
ATOM     45  C   UNL     1       3.061  -1.192  -9.157  1.00  0.00     0.029 A 
ATOM     46  N   UNL     1       3.432  -2.141 -11.145  1.00  0.00    -0.354 N 
ATOM     47  C   UNL     1       0.307  -4.385 -13.152  1.00  0.00     0.074 A 
ATOM     48  C   UNL     1      -0.916  -4.370 -12.380  1.00  0.00     0.031 C 
ATOM     49  C   UNL     1       4.340  -0.952  -9.485  1.00  0.00     0.029 A 
ATOM     50  C   UNL     1       4.636  -1.595 -10.760  1.00  0.00     0.049 A 
ATOM     51  H   UNL     1       3.307  -2.619 -11.997  1.00  0.00     0.167 HD
ATOM     52  C   UNL     1       0.452  -5.005 -14.349  1.00  0.00     0.034 A 
ATOM     53  C   UNL     1       5.847  -1.627 -11.354  1.00  0.00     0.034 A 
ATOM     54  C   UNL     1       1.675  -4.991 -15.113  1.00  0.00     0.049 A 
ATOM     55  C   UNL     1       5.988  -2.347 -12.672  1.00  0.00     0.074 A 
ATOM     56  C   UNL     1       1.910  -5.525 -16.367  1.00  0.00     0.029 A 
ATOM     57  N   UNL     1       2.871  -4.424 -14.692  1.00  0.00    -0.354 N 
ATOM     58  N   UNL     1       5.077  -2.996 -13.361  1.00  0.00    -0.248 NA
ATOM     59  C   UNL     1       7.317  -2.333 -13.298  1.00  0.00     0.031 C 
ATOM     60  C   UNL     1       3.265  -5.356 -16.668  1.00  0.00     0.029 A 
ATOM     61  C   UNL     1       3.857  -4.634 -15.644  1.00  0.00     0.049 A 
ATOM     62  H   UNL     1       3.000  -3.944 -13.842  1.00  0.00     0.167 HD
ATOM     63  C   UNL     1       5.717  -3.439 -14.515  1.00  0.00     0.074 A 
ATOM     64  C   UNL     1       7.084  -2.968 -14.437  1.00  0.00     0.031 C 
ATOM     65  C   UNL     1       5.220  -4.165 -15.549  1.00  0.00     0.034 A 
BRANCH  52  66
ATOM     66  C   UNL     1      -0.732  -5.771 -14.891  1.00  0.00     0.023 A 
ATOM     67  C   UNL     1      -1.945  -5.136 -15.212  1.00  0.00     0.031 A 
ATOM     68  C   UNL     1      -0.649  -7.162 -15.085  1.00  0.00     0.131 A 
ATOM     69  C   UNL     1      -3.042  -5.896 -15.643  1.00  0.00     0.055 A 
ATOM     70  C   UNL     1      -1.718  -7.901 -15.594  1.00  0.00     0.041 A 
ATOM     71  F   UNL     1       0.474  -7.829 -14.775  1.00  0.00    -0.206 F 
ATOM     72  C   UNL     1      -2.929  -7.271 -15.863  1.00  0.00     0.022 A 
BRANCH  69  73
ATOM     73  S   UNL     1      -4.659  -5.085 -15.779  1.00  0.00     0.124 S 
ATOM     74  O   UNL     1      -4.858  -4.597 -14.416  1.00  0.00    -0.237 OA
ATOM     75  O   UNL     1      -4.416  -4.066 -16.793  1.00  0.00    -0.237 OA
ATOM     76  O   UNL     1      -5.553  -6.168 -16.182  1.00  0.00    -0.744 OA
ENDBRANCH  69  73
ENDBRANCH  52  66
BRANCH  53  77
ATOM     77  C   UNL     1       7.029  -0.987 -10.704  1.00  0.00     0.023 A 
ATOM     78  C   UNL     1       7.711   0.073 -11.322  1.00  0.00     0.031 A 
ATOM     79  C   UNL     1       7.529  -1.463  -9.478  1.00  0.00     0.131 A 
ATOM     80  C   UNL     1       8.884   0.585 -10.743  1.00  0.00     0.055 A 
ATOM     81  C   UNL     1       8.659  -0.908  -8.875  1.00  0.00     0.041 A 
ATOM     82  F   UNL     1       6.918  -2.474  -8.841  1.00  0.00    -0.206 F 
ATOM     83  C   UNL     1       9.353   0.113  -9.516  1.00  0.00     0.022 A 
BRANCH  80  84
ATOM     84  S   UNL     1       9.850   1.807 -11.673  1.00  0.00     0.124 S 
ATOM     85  O   UNL     1      10.111   1.093 -12.917  1.00  0.00    -0.237 OA
ATOM     86  O   UNL     1       8.918   2.927 -11.758  1.00  0.00    -0.237 OA
ATOM     87  O   UNL     1      11.017   2.033 -10.824  1.00  0.00    -0.744 OA
ENDBRANCH  80  84
ENDBRANCH  53  77
BRANCH  65  88
ATOM     88  C   UNL     1       6.152  -4.454 -16.701  1.00  0.00     0.023 A 
ATOM     89  C   UNL     1       7.280  -5.278 -16.554  1.00  0.00     0.031 A 
ATOM     90  C   UNL     1       5.901  -3.895 -17.967  1.00  0.00     0.131 A 
ATOM     91  C   UNL     1       8.145  -5.477 -17.640  1.00  0.00     0.055 A 
ATOM     92  C   UNL     1       6.727  -4.152 -19.061  1.00  0.00     0.041 A 
ATOM     93  F   UNL     1       4.840  -3.096 -18.164  1.00  0.00    -0.206 F 
ATOM     94  C   UNL     1       7.865  -4.937 -18.898  1.00  0.00     0.022 A 
BRANCH  91  95
ATOM     95  S   UNL     1       9.696  -6.377 -17.365  1.00  0.00     0.124 S 
ATOM     96  O   UNL     1      10.339  -5.564 -16.339  1.00  0.00    -0.237 OA
ATOM     97  O   UNL     1       9.223  -7.690 -16.936  1.00  0.00    -0.237 OA
ATOM     98  O   UNL     1      10.345  -6.351 -18.675  1.00  0.00    -0.744 OA
ENDBRANCH  91  95
ENDBRANCH  65  88
ENDBRANCH  39  40
ENDBRANCH  31  34
ENDBRANCH  29  30
ENDBRANCH  28  29
ENDBRANCH   1  28
TORSDOF 18
