REMARK SMILES O=C(CC[NH+]1CC[NH+](Cc2ccccc2C2CC2)CC1)NCCCNC(=O)c1ccc(-c2c3nc(c(-c4cc(S(=O)(=O)[O-])ccc4F)c4ccc([nH]4)c(-c4cc(S(=O)(=O)[O-])ccc4F)c4nc(c(-c5cc(S(=O)(=O)[O-])ccc5F)c5ccc2[nH]5)C=C4)C=C3)cc1
REMARK SMILES IDX 22 1 21 2 1 3 2 4 3 6 4 7 5 8 6 9 20 10 7 12 19 13 8 14 9 16
REMARK SMILES IDX 10 17 11 18 15 19 12 20 14 21 13 22 16 23 17 24 18 25 23 26
REMARK SMILES IDX 24 27 25 28 26 29 27 31 28 32 29 33 90 34 30 35 89 36 31 37
REMARK SMILES IDX 32 38 33 39 83 40 34 41 88 42 82 43 84 44 35 45 87 46 81 47
REMARK SMILES IDX 80 48 36 50 68 51 48 52 67 53 49 54 52 55 66 56 85 57 50 58
REMARK SMILES IDX 51 59 65 61 86 62 53 63 37 64 38 65 46 66 39 67 45 68 47 69
REMARK SMILES IDX 44 70 40 71 41 72 42 73 43 74 69 75 70 76 78 77 71 78 77 79
REMARK SMILES IDX 79 80 76 81 72 82 73 83 74 84 75 85 54 86 55 87 63 88 56 89
REMARK SMILES IDX 62 90 64 91 61 92 57 93 58 94 59 95 60 96
REMARK H PARENT 21 5 5 11 8 15 25 30 84 49 52 60
REMARK Flexibility Score: inf
ROOT
ATOM      1  C   UNL     1       1.917   1.949  -1.663  1.00  0.00     0.117 C 
ENDROOT
BRANCH   1   2
ATOM      2  N   UNL     1       2.336   0.749  -0.951  1.00  0.00    -0.356 N 
ATOM      3  O   UNL     1       0.231   0.158  -0.293  1.00  0.00    -0.275 OA
ATOM      4  C   UNL     1       1.433  -0.105  -0.360  1.00  0.00     0.225 C 
ATOM      5  H   UNL     1       3.297   0.543  -0.890  1.00  0.00     0.163 HD
BRANCH   4   6
ATOM      6  C   UNL     1       1.967  -1.363   0.326  1.00  0.00     0.161 C 
BRANCH   6   7
ATOM      7  C   UNL     1       3.180  -2.097  -0.264  1.00  0.00     0.272 C 
BRANCH   7   8
ATOM      8  N   UNL     1       4.409  -1.317  -0.393  1.00  0.00    -0.325 N 
ATOM      9  C   UNL     1       4.740  -0.490   0.770  1.00  0.00     0.324 C 
ATOM     10  C   UNL     1       5.586  -2.123  -0.808  1.00  0.00     0.324 C 
ATOM     11  H   UNL     1       4.185  -0.673  -1.152  1.00  0.00     0.348 HD
ATOM     12  C   UNL     1       5.540  -1.152   1.891  1.00  0.00     0.324 C 
ATOM     13  C   UNL     1       6.550  -2.634   0.308  1.00  0.00     0.324 C 
ATOM     14  N   UNL     1       6.799  -1.732   1.438  1.00  0.00    -0.322 N 
ATOM     15  H   UNL     1       7.175  -2.320   2.181  1.00  0.00     0.348 HD
BRANCH  14  16
ATOM     16  C   UNL     1       7.917  -0.777   1.312  1.00  0.00     0.299 C 
BRANCH  16  17
ATOM     17  C   UNL     1       8.069   0.068   0.057  1.00  0.00     0.010 A 
ATOM     18  C   UNL     1       8.833  -0.527  -0.982  1.00  0.00     0.010 A 
ATOM     19  C   UNL     1       7.528   1.366  -0.142  1.00  0.00    -0.036 A 
ATOM     20  C   UNL     1       8.997   0.079  -2.224  1.00  0.00     0.001 A 
ATOM     21  C   UNL     1       7.713   1.940  -1.428  1.00  0.00     0.004 A 
ATOM     22  C   UNL     1       8.416   1.310  -2.455  1.00  0.00     0.000 A 
BRANCH  19  23
ATOM     23  C   UNL     1       6.636   2.176   0.793  1.00  0.00     0.020 C 
ATOM     24  C   UNL     1       6.563   2.118   2.292  1.00  0.00     0.009 C 
ATOM     25  C   UNL     1       7.197   3.297   1.629  1.00  0.00     0.009 C 
ENDBRANCH  19  23
ENDBRANCH  16  17
ENDBRANCH  14  16
ENDBRANCH   7   8
ENDBRANCH   6   7
ENDBRANCH   4   6
ENDBRANCH   1   2
BRANCH   1  26
ATOM     26  C   UNL     1       2.024   3.271  -0.887  1.00  0.00     0.042 C 
BRANCH  26  27
ATOM     27  C   UNL     1       3.384   3.983  -0.851  1.00  0.00     0.118 C 
BRANCH  27  28
ATOM     28  N   UNL     1       4.061   4.088  -2.134  1.00  0.00    -0.352 N 
ATOM     29  C   UNL     1       4.888   5.059  -2.648  1.00  0.00     0.251 C 
ATOM     30  H   UNL     1       3.898   3.330  -2.742  1.00  0.00     0.163 HD
ATOM     31  O   UNL     1       5.260   4.947  -3.816  1.00  0.00    -0.269 OA
BRANCH  29  32
ATOM     32  C   UNL     1       5.348   6.221  -1.848  1.00  0.00     0.039 A 
ATOM     33  C   UNL     1       5.454   7.470  -2.470  1.00  0.00     0.014 A 
ATOM     34  C   UNL     1       5.779   6.083  -0.529  1.00  0.00     0.014 A 
ATOM     35  C   UNL     1       5.948   8.574  -1.761  1.00  0.00     0.010 A 
ATOM     36  C   UNL     1       6.238   7.193   0.193  1.00  0.00     0.010 A 
ATOM     37  C   UNL     1       6.329   8.454  -0.413  1.00  0.00    -0.014 A 
BRANCH  37  38
ATOM     38  C   UNL     1       6.795   9.646   0.355  1.00  0.00     0.031 A 
ATOM     39  C   UNL     1       8.215   9.755   0.850  1.00  0.00     0.074 A 
ATOM     40  C   UNL     1       5.921  10.635   0.635  1.00  0.00     0.049 A 
ATOM     41  N   UNL     1       8.791  10.732   1.507  1.00  0.00    -0.248 NA
ATOM     42  C   UNL     1       9.094   8.606   0.593  1.00  0.00     0.031 C 
ATOM     43  C   UNL     1       4.504  10.635   0.265  1.00  0.00     0.029 A 
ATOM     44  N   UNL     1       6.090  11.831   1.291  1.00  0.00    -0.354 N 
ATOM     45  C   UNL     1      10.100  10.319   1.742  1.00  0.00     0.074 A 
ATOM     46  C   UNL     1      10.208   8.975   1.210  1.00  0.00     0.031 C 
ATOM     47  C   UNL     1       3.943  11.785   0.671  1.00  0.00     0.029 A 
ATOM     48  C   UNL     1       4.946  12.593   1.358  1.00  0.00     0.049 A 
ATOM     49  H   UNL     1       6.950  12.115   1.677  1.00  0.00     0.167 HD
ATOM     50  C   UNL     1      11.121  11.001   2.324  1.00  0.00     0.034 A 
ATOM     51  C   UNL     1       4.725  13.805   1.905  1.00  0.00     0.034 A 
ATOM     52  C   UNL     1      11.003  12.342   2.854  1.00  0.00     0.049 A 
ATOM     53  C   UNL     1       5.872  14.545   2.547  1.00  0.00     0.074 A 
ATOM     54  C   UNL     1      11.987  13.136   3.421  1.00  0.00     0.029 A 
ATOM     55  N   UNL     1       9.831  13.086   2.893  1.00  0.00    -0.354 N 
ATOM     56  N   UNL     1       7.120  14.165   2.699  1.00  0.00    -0.248 NA
ATOM     57  C   UNL     1       5.584  15.887   3.067  1.00  0.00     0.031 C 
ATOM     58  C   UNL     1      11.398  14.327   3.861  1.00  0.00     0.029 A 
ATOM     59  C   UNL     1      10.062  14.316   3.496  1.00  0.00     0.049 A 
ATOM     60  H   UNL     1       8.960  12.785   2.545  1.00  0.00     0.167 HD
ATOM     61  C   UNL     1       7.772  15.242   3.296  1.00  0.00     0.074 A 
ATOM     62  C   UNL     1       6.784  16.286   3.461  1.00  0.00     0.031 C 
ATOM     63  C   UNL     1       9.074  15.356   3.666  1.00  0.00     0.034 A 
BRANCH  50  64
ATOM     64  C   UNL     1      12.454  10.296   2.437  1.00  0.00     0.023 A 
ATOM     65  C   UNL     1      13.173   9.891   1.297  1.00  0.00     0.031 A 
ATOM     66  C   UNL     1      13.011  10.009   3.696  1.00  0.00     0.131 A 
ATOM     67  C   UNL     1      14.361   9.157   1.439  1.00  0.00     0.055 A 
ATOM     68  C   UNL     1      14.236   9.352   3.830  1.00  0.00     0.041 A 
ATOM     69  F   UNL     1      12.368  10.354   4.823  1.00  0.00    -0.206 F 
ATOM     70  C   UNL     1      14.911   8.906   2.697  1.00  0.00     0.022 A 
BRANCH  67  71
ATOM     71  S   UNL     1      15.098   8.404  -0.038  1.00  0.00     0.124 S 
ATOM     72  O   UNL     1      14.000   7.569  -0.522  1.00  0.00    -0.237 OA
ATOM     73  O   UNL     1      15.420   9.571  -0.858  1.00  0.00    -0.237 OA
ATOM     74  O   UNL     1      16.245   7.673   0.484  1.00  0.00    -0.744 OA
ENDBRANCH  67  71
ENDBRANCH  50  64
BRANCH  51  75
ATOM     75  C   UNL     1       3.363  14.413   1.865  1.00  0.00     0.023 A 
ATOM     76  C   UNL     1       3.116  15.592   1.143  1.00  0.00     0.031 A 
ATOM     77  C   UNL     1       2.299  13.847   2.588  1.00  0.00     0.131 A 
ATOM     78  C   UNL     1       1.852  16.198   1.204  1.00  0.00     0.055 A 
ATOM     79  C   UNL     1       1.027  14.423   2.600  1.00  0.00     0.041 A 
ATOM     80  F   UNL     1       2.479  12.716   3.289  1.00  0.00    -0.206 F 
ATOM     81  C   UNL     1       0.802  15.614   1.916  1.00  0.00     0.022 A 
BRANCH  78  82
ATOM     82  S   UNL     1       1.623  17.811   0.407  1.00  0.00     0.124 S 
ATOM     83  O   UNL     1       2.631  18.621   1.081  1.00  0.00    -0.237 OA
ATOM     84  O   UNL     1       1.883  17.497  -0.994  1.00  0.00    -0.237 OA
ATOM     85  O   UNL     1       0.236  18.151   0.720  1.00  0.00    -0.744 OA
ENDBRANCH  78  82
ENDBRANCH  51  75
BRANCH  63  86
ATOM     86  C   UNL     1       9.513  16.687   4.233  1.00  0.00     0.023 A 
ATOM     87  C   UNL     1       9.009  17.185   5.448  1.00  0.00     0.031 A 
ATOM     88  C   UNL     1      10.427  17.487   3.523  1.00  0.00     0.131 A 
ATOM     89  C   UNL     1       9.366  18.473   5.880  1.00  0.00     0.055 A 
ATOM     90  C   UNL     1      10.829  18.740   3.991  1.00  0.00     0.041 A 
ATOM     91  F   UNL     1      10.941  17.067   2.356  1.00  0.00    -0.206 F 
ATOM     92  C   UNL     1      10.284  19.247   5.167  1.00  0.00     0.022 A 
BRANCH  89  93
ATOM     93  S   UNL     1       8.521  19.174   7.325  1.00  0.00     0.124 S 
ATOM     94  O   UNL     1       7.117  19.062   6.942  1.00  0.00    -0.237 OA
ATOM     95  O   UNL     1       8.960  18.290   8.400  1.00  0.00    -0.237 OA
ATOM     96  O   UNL     1       9.038  20.540   7.396  1.00  0.00    -0.744 OA
ENDBRANCH  89  93
ENDBRANCH  63  86
ENDBRANCH  37  38
ENDBRANCH  29  32
ENDBRANCH  27  28
ENDBRANCH  26  27
ENDBRANCH   1  26
TORSDOF 18
