REMARK SMILES CCc1ccc(S(=O)(=O)c2nnn(-c3ccc(C(=O)NCCCNC(=O)c4ccc(-c5c6nc(c(-c7cc(S(=O)(=O)[O-])ccc7F)c7ccc([nH]7)c(-c7cc(S(=O)(=O)[O-])ccc7F)c7nc(c(-c8cc(S(=O)(=O)[O-])ccc8F)c8ccc5[nH]8)C=C7)C=C6)cc4)cc3)c2C)cc1
REMARK SMILES IDX 21 1 20 2 18 3 19 4 17 6 14 7 15 8 91 9 16 10 90 11 13 12
REMARK SMILES IDX 10 13 11 14 92 15 12 16 93 17 7 18 8 19 9 20 6 21 3 22 4 23
REMARK SMILES IDX 95 24 5 25 94 26 2 27 1 28 22 29 23 30 24 31 25 32 26 34
REMARK SMILES IDX 27 35 28 36 89 37 29 38 88 39 30 40 31 41 32 42 82 43 33 44
REMARK SMILES IDX 87 45 81 46 83 47 34 48 86 49 80 50 79 51 35 53 67 54 47 55
REMARK SMILES IDX 66 56 48 57 51 58 65 59 84 60 49 61 50 62 64 64 85 65 52 66
REMARK SMILES IDX 36 67 37 68 45 69 38 70 44 71 46 72 43 73 39 74 40 75 41 76
REMARK SMILES IDX 42 77 68 78 69 79 77 80 70 81 76 82 78 83 75 84 71 85 72 86
REMARK SMILES IDX 73 87 74 88 53 89 54 90 62 91 55 92 61 93 63 94 60 95 56 96
REMARK SMILES IDX 57 97 58 98 59 99
REMARK H PARENT 20 5 24 33 83 52 51 63
REMARK Flexibility Score: inf
ROOT
ATOM      1  C   UNL     1      -1.925   0.094  11.576  1.00  0.00     0.118 C 
ENDROOT
BRANCH   1   2
ATOM      2  N   UNL     1      -0.846   1.063  11.721  1.00  0.00    -0.352 N 
ATOM      3  C   UNL     1       0.397   1.163  11.139  1.00  0.00     0.251 C 
ATOM      4  O   UNL     1       1.056   2.180  11.349  1.00  0.00    -0.269 OA
ATOM      5  H   UNL     1      -1.044   1.786  12.359  1.00  0.00     0.163 HD
BRANCH   3   6
ATOM      6  C   UNL     1       0.959   0.124  10.228  1.00  0.00     0.039 A 
ATOM      7  C   UNL     1       1.955  -1.695   8.350  1.00  0.00     0.067 A 
ATOM      8  C   UNL     1       2.504  -0.413   8.413  1.00  0.00     0.029 A 
ATOM      9  C   UNL     1       1.002  -2.105   9.277  1.00  0.00     0.029 A 
ATOM     10  C   UNL     1       1.979   0.502   9.335  1.00  0.00     0.016 A 
ATOM     11  C   UNL     1       0.545  -1.207  10.231  1.00  0.00     0.016 A 
BRANCH   7  12
ATOM     12  N   UNL     1       2.328  -2.590   7.335  1.00  0.00    -0.216 N 
ATOM     13  C   UNL     1       2.372  -4.111   5.786  1.00  0.00     0.205 A 
ATOM     14  N   UNL     1       3.656  -3.717   6.052  1.00  0.00    -0.117 NA
ATOM     15  C   UNL     1       1.488  -3.357   6.544  1.00  0.00     0.081 A 
ATOM     16  N   UNL     1       3.608  -2.729   6.934  1.00  0.00    -0.061 NA
ATOM     17  C   UNL     1       0.017  -3.156   6.450  1.00  0.00     0.070 C 
BRANCH  13  18
ATOM     18  S   UNL     1       1.993  -5.125   4.439  1.00  0.00     0.227 S 
ATOM     19  O   UNL     1       0.772  -5.796   4.804  1.00  0.00    -0.217 OA
ATOM     20  O   UNL     1       3.220  -5.849   4.128  1.00  0.00    -0.217 OA
BRANCH  18  21
ATOM     21  C   UNL     1       1.645  -4.030   3.088  1.00  0.00     0.073 A 
ATOM     22  C   UNL     1       0.969  -2.343   0.948  1.00  0.00    -0.048 A 
ATOM     23  C   UNL     1       0.830  -3.739   0.838  1.00  0.00     0.005 A 
ATOM     24  C   UNL     1       1.447  -1.811   2.150  1.00  0.00     0.005 A 
ATOM     25  C   UNL     1       1.161  -4.582   1.902  1.00  0.00     0.021 A 
ATOM     26  C   UNL     1       1.800  -2.647   3.208  1.00  0.00     0.021 A 
BRANCH  22  27
ATOM     27  C   UNL     1       0.564  -1.476  -0.222  1.00  0.00     0.032 C 
ATOM     28  C   UNL     1       1.007  -0.018  -0.167  1.00  0.00     0.009 C 
ENDBRANCH  22  27
ENDBRANCH  18  21
ENDBRANCH  13  18
ENDBRANCH   7  12
ENDBRANCH   3   6
ENDBRANCH   1   2
BRANCH   1  29
ATOM     29  C   UNL     1      -1.869  -1.018  12.636  1.00  0.00     0.042 C 
BRANCH  29  30
ATOM     30  C   UNL     1      -2.528  -0.623  13.943  1.00  0.00     0.118 C 
BRANCH  30  31
ATOM     31  N   UNL     1      -3.986  -0.530  13.828  1.00  0.00    -0.352 N 
ATOM     32  C   UNL     1      -4.899  -0.072  14.763  1.00  0.00     0.251 C 
ATOM     33  H   UNL     1      -4.367  -0.835  12.973  1.00  0.00     0.163 HD
ATOM     34  O   UNL     1      -6.075  -0.410  14.689  1.00  0.00    -0.269 OA
BRANCH  32  35
ATOM     35  C   UNL     1      -4.428   0.816  15.842  1.00  0.00     0.039 A 
ATOM     36  C   UNL     1      -4.947   0.765  17.139  1.00  0.00     0.014 A 
ATOM     37  C   UNL     1      -3.397   1.692  15.532  1.00  0.00     0.014 A 
ATOM     38  C   UNL     1      -4.354   1.554  18.126  1.00  0.00     0.010 A 
ATOM     39  C   UNL     1      -2.669   2.262  16.535  1.00  0.00     0.010 A 
ATOM     40  C   UNL     1      -3.199   2.288  17.815  1.00  0.00    -0.014 A 
BRANCH  40  41
ATOM     41  C   UNL     1      -2.431   3.014  18.819  1.00  0.00     0.031 A 
ATOM     42  C   UNL     1      -1.977   2.164  19.946  1.00  0.00     0.074 A 
ATOM     43  C   UNL     1      -1.941   4.258  18.605  1.00  0.00     0.049 A 
ATOM     44  N   UNL     1      -2.425   2.162  21.156  1.00  0.00    -0.248 NA
ATOM     45  C   UNL     1      -1.064   1.045  19.653  1.00  0.00     0.031 C 
ATOM     46  C   UNL     1      -2.047   5.077  17.389  1.00  0.00     0.029 A 
ATOM     47  N   UNL     1      -1.125   5.012  19.389  1.00  0.00    -0.354 N 
ATOM     48  C   UNL     1      -1.638   1.244  21.841  1.00  0.00     0.074 A 
ATOM     49  C   UNL     1      -1.040   0.417  20.830  1.00  0.00     0.031 C 
ATOM     50  C   UNL     1      -1.138   6.076  17.429  1.00  0.00     0.029 A 
ATOM     51  C   UNL     1      -0.505   6.078  18.735  1.00  0.00     0.049 A 
ATOM     52  H   UNL     1      -0.984   4.822  20.344  1.00  0.00     0.167 HD
ATOM     53  C   UNL     1      -1.313   1.444  23.150  1.00  0.00     0.034 A 
ATOM     54  C   UNL     1       0.475   6.890  19.221  1.00  0.00     0.034 A 
ATOM     55  C   UNL     1      -2.149   2.479  23.729  1.00  0.00     0.049 A 
ATOM     56  C   UNL     1       0.407   6.784  20.701  1.00  0.00     0.074 A 
ATOM     57  C   UNL     1      -3.514   2.661  23.852  1.00  0.00     0.029 A 
ATOM     58  N   UNL     1      -1.596   3.731  23.906  1.00  0.00    -0.354 N 
ATOM     59  N   UNL     1      -0.619   7.191  21.397  1.00  0.00    -0.248 NA
ATOM     60  C   UNL     1       1.227   5.770  21.348  1.00  0.00     0.031 C 
ATOM     61  C   UNL     1      -3.726   4.045  23.573  1.00  0.00     0.029 A 
ATOM     62  C   UNL     1      -2.481   4.655  23.404  1.00  0.00     0.049 A 
ATOM     63  H   UNL     1      -0.724   3.927  24.319  1.00  0.00     0.167 HD
ATOM     64  C   UNL     1      -0.836   6.191  22.333  1.00  0.00     0.074 A 
ATOM     65  C   UNL     1       0.392   5.394  22.322  1.00  0.00     0.031 C 
ATOM     66  C   UNL     1      -2.090   5.921  22.807  1.00  0.00     0.034 A 
BRANCH  53  67
ATOM     67  C   UNL     1      -0.010   1.018  23.797  1.00  0.00     0.023 A 
ATOM     68  C   UNL     1       0.152   1.338  25.159  1.00  0.00     0.031 A 
ATOM     69  C   UNL     1       1.161   0.591  23.130  1.00  0.00     0.131 A 
ATOM     70  C   UNL     1       1.425   1.352  25.754  1.00  0.00     0.055 A 
ATOM     71  C   UNL     1       2.414   0.539  23.747  1.00  0.00     0.041 A 
ATOM     72  F   UNL     1       1.193   0.285  21.829  1.00  0.00    -0.206 F 
ATOM     73  C   UNL     1       2.560   0.956  25.056  1.00  0.00     0.022 A 
BRANCH  70  74
ATOM     74  S   UNL     1       1.586   2.083  27.401  1.00  0.00     0.124 S 
ATOM     75  O   UNL     1       0.985   3.396  27.196  1.00  0.00    -0.237 OA
ATOM     76  O   UNL     1       0.825   1.145  28.220  1.00  0.00    -0.237 OA
ATOM     77  O   UNL     1       3.028   2.083  27.631  1.00  0.00    -0.744 OA
ENDBRANCH  70  74
ENDBRANCH  53  67
BRANCH  54  78
ATOM     78  C   UNL     1       1.632   7.484  18.484  1.00  0.00     0.023 A 
ATOM     79  C   UNL     1       2.392   8.571  18.974  1.00  0.00     0.031 A 
ATOM     80  C   UNL     1       2.164   6.802  17.366  1.00  0.00     0.131 A 
ATOM     81  C   UNL     1       3.617   8.928  18.355  1.00  0.00     0.055 A 
ATOM     82  C   UNL     1       3.372   7.157  16.759  1.00  0.00     0.041 A 
ATOM     83  F   UNL     1       1.568   5.704  16.874  1.00  0.00    -0.206 F 
ATOM     84  C   UNL     1       4.110   8.217  17.259  1.00  0.00     0.022 A 
BRANCH  81  85
ATOM     85  S   UNL     1       4.649  10.278  19.023  1.00  0.00     0.124 S 
ATOM     86  O   UNL     1       3.843  11.459  18.736  1.00  0.00    -0.237 OA
ATOM     87  O   UNL     1       4.782   9.908  20.428  1.00  0.00    -0.237 OA
ATOM     88  O   UNL     1       5.888  10.180  18.249  1.00  0.00    -0.744 OA
ENDBRANCH  81  85
ENDBRANCH  54  78
BRANCH  66  89
ATOM     89  C   UNL     1      -3.203   6.917  22.524  1.00  0.00     0.023 A 
ATOM     90  C   UNL     1      -3.622   7.336  21.239  1.00  0.00     0.031 A 
ATOM     91  C   UNL     1      -3.951   7.366  23.627  1.00  0.00     0.131 A 
ATOM     92  C   UNL     1      -4.746   8.178  21.101  1.00  0.00     0.055 A 
ATOM     93  C   UNL     1      -5.074   8.179  23.486  1.00  0.00     0.041 A 
ATOM     94  F   UNL     1      -3.621   6.987  24.873  1.00  0.00    -0.206 F 
ATOM     95  C   UNL     1      -5.473   8.593  22.222  1.00  0.00     0.022 A 
BRANCH  92  96
ATOM     96  S   UNL     1      -5.279   8.772  19.461  1.00  0.00     0.124 S 
ATOM     97  O   UNL     1      -4.042   9.238  18.846  1.00  0.00    -0.237 OA
ATOM     98  O   UNL     1      -5.877   7.578  18.869  1.00  0.00    -0.237 OA
ATOM     99  O   UNL     1      -6.237   9.834  19.778  1.00  0.00    -0.744 OA
ENDBRANCH  92  96
ENDBRANCH  66  89
ENDBRANCH  40  41
ENDBRANCH  32  35
ENDBRANCH  30  31
ENDBRANCH  29  30
ENDBRANCH   1  29
TORSDOF 17
