REMARK SMILES Cc1cc2c(=O)c3ccccc3oc2c(C(=O)NCCCNC(=O)c2ccc(-c3c4nc(c(-c5cc(S(=O)(=O)[O-])ccc5F)c5ccc([nH]5)c(-c5cc(S(=O)(=O)[O-])ccc5F)c5nc(c(-c6cc(S(=O)(=O)[O-])ccc6F)c6ccc3[nH]6)C=C5)C=C4)cc2)c1C
REMARK SMILES IDX 22 1 23 2 24 3 21 5 20 6 19 7 18 8 16 9 17 10 15 12 1 13
REMARK SMILES IDX 2 14 3 15 88 16 4 17 89 18 5 19 14 20 6 21 7 22 13 23 8 24
REMARK SMILES IDX 12 25 9 26 11 27 10 28 25 29 26 30 87 31 27 32 86 33 28 34
REMARK SMILES IDX 29 35 30 36 80 37 31 38 85 39 79 40 81 41 32 42 84 43 78 44
REMARK SMILES IDX 77 45 33 47 65 48 45 49 64 50 46 51 49 52 63 53 82 54 47 55
REMARK SMILES IDX 48 56 62 58 83 59 50 60 34 61 35 62 43 63 36 64 42 65 44 66
REMARK SMILES IDX 41 67 37 68 38 69 39 70 40 71 66 72 67 73 75 74 68 75 74 76
REMARK SMILES IDX 76 77 73 78 69 79 70 80 71 81 72 82 51 83 52 84 60 85 53 86
REMARK SMILES IDX 59 87 61 88 58 89 54 90 55 91 56 92 57 93
REMARK H PARENT 22 4 18 11 81 46 49 57
REMARK Flexibility Score: inf
ROOT
ATOM      1  N   UNL     1       7.259  -3.831  -1.195  1.00  0.00    -0.352 N 
ATOM      2  C   UNL     1       8.539  -3.315  -1.229  1.00  0.00     0.251 C 
ATOM      3  O   UNL     1       9.048  -3.052  -2.307  1.00  0.00    -0.269 OA
ATOM      4  H   UNL     1       6.899  -4.107  -2.069  1.00  0.00     0.163 HD
ENDROOT
BRANCH   1   5
ATOM      5  C   UNL     1       6.360  -4.031  -0.068  1.00  0.00     0.118 C 
BRANCH   5   6
ATOM      6  C   UNL     1       5.043  -3.291  -0.242  1.00  0.00     0.042 C 
BRANCH   6   7
ATOM      7  C   UNL     1       4.072  -3.942  -1.231  1.00  0.00     0.118 C 
BRANCH   7   8
ATOM      8  N   UNL     1       3.042  -4.682  -0.525  1.00  0.00    -0.352 N 
ATOM      9  C   UNL     1       1.799  -4.500   0.015  1.00  0.00     0.255 C 
ATOM     10  O   UNL     1       1.452  -5.497   0.666  1.00  0.00    -0.269 OA
ATOM     11  H   UNL     1       3.330  -5.614  -0.394  1.00  0.00     0.163 HD
BRANCH   9  12
ATOM     12  C   UNL     1       0.833  -3.323  -0.047  1.00  0.00     0.086 A 
ATOM     13  C   UNL     1       0.386   0.532   0.165  1.00  0.00     0.044 C 
ATOM     14  C   UNL     1       0.117  -0.955   0.135  1.00  0.00    -0.046 A 
ATOM     15  C   UNL     1      -1.198  -1.359   0.356  1.00  0.00     0.019 A 
ATOM     16  C   UNL     1       1.142  -1.927  -0.092  1.00  0.00    -0.032 A 
ATOM     17  C   UNL     1      -1.524  -2.706   0.344  1.00  0.00     0.066 A 
ATOM     18  C   UNL     1       2.512  -1.391  -0.360  1.00  0.00     0.045 C 
ATOM     19  C   UNL     1      -2.922  -3.095   0.589  1.00  0.00     0.200 A 
ATOM     20  C   UNL     1      -0.543  -3.681   0.138  1.00  0.00     0.151 A 
ATOM     21  O   UNL     1      -3.810  -2.263   0.733  1.00  0.00    -0.288 OA
ATOM     22  C   UNL     1      -3.207  -4.526   0.665  1.00  0.00     0.065 A 
ATOM     23  O   UNL     1      -0.896  -5.020   0.079  1.00  0.00    -0.455 OA
ATOM     24  C   UNL     1      -4.489  -4.990   0.979  1.00  0.00     0.016 A 
ATOM     25  C   UNL     1      -2.166  -5.410   0.419  1.00  0.00     0.138 A 
ATOM     26  C   UNL     1      -4.724  -6.362   1.052  1.00  0.00     0.001 A 
ATOM     27  C   UNL     1      -2.403  -6.783   0.500  1.00  0.00     0.048 A 
ATOM     28  C   UNL     1      -3.680  -7.258   0.816  1.00  0.00     0.004 A 
ENDBRANCH   9  12
ENDBRANCH   7   8
ENDBRANCH   6   7
ENDBRANCH   5   6
ENDBRANCH   1   5
BRANCH   2  29
ATOM     29  C   UNL     1       9.274  -3.048   0.035  1.00  0.00     0.039 A 
ATOM     30  C   UNL     1       9.179  -3.917   1.121  1.00  0.00     0.014 A 
ATOM     31  C   UNL     1      10.075  -1.905   0.133  1.00  0.00     0.014 A 
ATOM     32  C   UNL     1       9.709  -3.547   2.352  1.00  0.00     0.010 A 
ATOM     33  C   UNL     1      10.704  -1.592   1.345  1.00  0.00     0.010 A 
ATOM     34  C   UNL     1      10.482  -2.382   2.482  1.00  0.00    -0.014 A 
BRANCH  34  35
ATOM     35  C   UNL     1      11.055  -2.036   3.813  1.00  0.00     0.031 A 
ATOM     36  C   UNL     1      10.666  -0.766   4.522  1.00  0.00     0.074 A 
ATOM     37  C   UNL     1      11.881  -2.916   4.415  1.00  0.00     0.049 A 
ATOM     38  N   UNL     1      11.026  -0.343   5.707  1.00  0.00    -0.248 NA
ATOM     39  C   UNL     1       9.764   0.155   3.812  1.00  0.00     0.031 C 
ATOM     40  C   UNL     1      12.330  -4.176   3.819  1.00  0.00     0.029 A 
ATOM     41  N   UNL     1      12.460  -2.915   5.660  1.00  0.00    -0.354 N 
ATOM     42  C   UNL     1      10.417   0.896   5.875  1.00  0.00     0.074 A 
ATOM     43  C   UNL     1       9.690   1.174   4.657  1.00  0.00     0.031 C 
ATOM     44  C   UNL     1      13.046  -4.859   4.721  1.00  0.00     0.029 A 
ATOM     45  C   UNL     1      13.184  -4.054   5.931  1.00  0.00     0.049 A 
ATOM     46  H   UNL     1      12.367  -2.171   6.297  1.00  0.00     0.167 HD
ATOM     47  C   UNL     1      10.452   1.717   6.953  1.00  0.00     0.034 A 
ATOM     48  C   UNL     1      13.888  -4.415   7.024  1.00  0.00     0.034 A 
ATOM     49  C   UNL     1      11.160   1.410   8.171  1.00  0.00     0.049 A 
ATOM     50  C   UNL     1      13.911  -3.485   8.207  1.00  0.00     0.074 A 
ATOM     51  C   UNL     1      11.234   2.165   9.329  1.00  0.00     0.029 A 
ATOM     52  N   UNL     1      11.904   0.260   8.398  1.00  0.00    -0.354 N 
ATOM     53  N   UNL     1      13.299  -2.334   8.360  1.00  0.00    -0.248 NA
ATOM     54  C   UNL     1      14.715  -3.894   9.366  1.00  0.00     0.031 C 
ATOM     55  C   UNL     1      12.069   1.504  10.230  1.00  0.00     0.029 A 
ATOM     56  C   UNL     1      12.459   0.298   9.668  1.00  0.00     0.049 A 
ATOM     57  H   UNL     1      12.021  -0.474   7.753  1.00  0.00     0.167 HD
ATOM     58  C   UNL     1      13.634  -1.887   9.634  1.00  0.00     0.074 A 
ATOM     59  C   UNL     1      14.474  -2.910  10.223  1.00  0.00     0.031 C 
ATOM     60  C   UNL     1      13.285  -0.731  10.253  1.00  0.00     0.034 A 
BRANCH  47  61
ATOM     61  C   UNL     1       9.703   3.027   6.895  1.00  0.00     0.023 A 
ATOM     62  C   UNL     1      10.405   4.244   6.995  1.00  0.00     0.031 A 
ATOM     63  C   UNL     1       8.297   3.072   6.875  1.00  0.00     0.131 A 
ATOM     64  C   UNL     1       9.700   5.449   7.107  1.00  0.00     0.055 A 
ATOM     65  C   UNL     1       7.601   4.280   6.945  1.00  0.00     0.041 A 
ATOM     66  F   UNL     1       7.580   1.941   6.780  1.00  0.00    -0.206 F 
ATOM     67  C   UNL     1       8.302   5.474   7.075  1.00  0.00     0.022 A 
BRANCH  64  68
ATOM     68  S   UNL     1      10.565   7.023   7.364  1.00  0.00     0.124 S 
ATOM     69  O   UNL     1      10.126   7.798   6.205  1.00  0.00    -0.237 OA
ATOM     70  O   UNL     1      10.025   7.462   8.648  1.00  0.00    -0.237 OA
ATOM     71  O   UNL     1      11.976   6.653   7.365  1.00  0.00    -0.744 OA
ENDBRANCH  64  68
ENDBRANCH  47  61
BRANCH  48  72
ATOM     72  C   UNL     1      14.577  -5.740   7.037  1.00  0.00     0.023 A 
ATOM     73  C   UNL     1      15.558  -6.051   6.076  1.00  0.00     0.031 A 
ATOM     74  C   UNL     1      14.176  -6.755   7.921  1.00  0.00     0.131 A 
ATOM     75  C   UNL     1      16.035  -7.363   5.964  1.00  0.00     0.055 A 
ATOM     76  C   UNL     1      14.716  -8.042   7.859  1.00  0.00     0.041 A 
ATOM     77  F   UNL     1      13.236  -6.514   8.847  1.00  0.00    -0.206 F 
ATOM     78  C   UNL     1      15.634  -8.357   6.861  1.00  0.00     0.022 A 
BRANCH  75  79
ATOM     79  S   UNL     1      17.060  -7.857   4.550  1.00  0.00     0.124 S 
ATOM     80  O   UNL     1      18.296  -8.276   5.202  1.00  0.00    -0.237 OA
ATOM     81  O   UNL     1      16.261  -8.931   3.963  1.00  0.00    -0.237 OA
ATOM     82  O   UNL     1      17.147  -6.643   3.746  1.00  0.00    -0.744 OA
ENDBRANCH  75  79
ENDBRANCH  48  72
BRANCH  60  83
ATOM     83  C   UNL     1      13.800  -0.479  11.650  1.00  0.00     0.023 A 
ATOM     84  C   UNL     1      12.895  -0.341  12.719  1.00  0.00     0.031 A 
ATOM     85  C   UNL     1      15.161  -0.225  11.893  1.00  0.00     0.131 A 
ATOM     86  C   UNL     1      13.356   0.080  13.972  1.00  0.00     0.055 A 
ATOM     87  C   UNL     1      15.622   0.148  13.156  1.00  0.00     0.041 A 
ATOM     88  F   UNL     1      16.062  -0.331  10.903  1.00  0.00    -0.206 F 
ATOM     89  C   UNL     1      14.716   0.317  14.199  1.00  0.00     0.022 A 
BRANCH  86  90
ATOM     90  S   UNL     1      12.199   0.429  15.326  1.00  0.00     0.124 S 
ATOM     91  O   UNL     1      12.612  -0.546  16.333  1.00  0.00    -0.237 OA
ATOM     92  O   UNL     1      12.507   1.821  15.643  1.00  0.00    -0.237 OA
ATOM     93  O   UNL     1      10.885   0.196  14.736  1.00  0.00    -0.744 OA
ENDBRANCH  86  90
ENDBRANCH  60  83
ENDBRANCH  34  35
ENDBRANCH   2  29
TORSDOF 13
