REMARK SMILES CC[C@@H]1CCCN1C(=O)N(CC(=O)NCCCNC(=O)c1ccc(-c2c3nc(c(-c4cc(S(=O)(=O)[O-])ccc4F)c4ccc([nH]4)c(-c4cc(S(=O)(=O)[O-])ccc4F)c4nc(c(-c5cc(S(=O)(=O)[O-])ccc5F)c5ccc2[nH]5)C=C4)C=C3)cc1)CC(F)(F)F
REMARK SMILES IDX 15 1 14 2 12 3 13 4 11 6 10 7 8 8 9 9 7 10 3 11 4 12 5 13
REMARK SMILES IDX 6 14 2 15 1 16 84 17 85 18 86 19 87 20 88 21 16 22 17 23
REMARK SMILES IDX 18 24 19 25 20 27 21 28 22 29 83 30 23 31 82 32 24 33 25 34
REMARK SMILES IDX 26 35 76 36 27 37 81 38 75 39 77 40 28 41 80 42 74 43 73 44
REMARK SMILES IDX 29 46 61 47 41 48 60 49 42 50 45 51 59 52 78 53 43 54 44 55
REMARK SMILES IDX 58 57 79 58 46 59 30 60 31 61 39 62 32 63 38 64 40 65 37 66
REMARK SMILES IDX 33 67 34 68 35 69 36 70 62 71 63 72 71 73 64 74 70 75 72 76
REMARK SMILES IDX 69 77 65 78 66 79 67 80 68 81 47 82 48 83 56 84 49 85 55 86
REMARK SMILES IDX 57 87 54 88 50 89 51 90 52 91 53 92
REMARK H PARENT 14 5 18 26 77 45 45 56
REMARK Flexibility Score: inf
ROOT
ATOM      1  C   UNL     1       2.440   0.003   0.998  1.00  0.00     0.117 C 
ENDROOT
BRANCH   1   2
ATOM      2  N   UNL     1       2.015   1.369   1.239  1.00  0.00    -0.354 N 
ATOM      3  C   UNL     1       1.738   2.389   0.387  1.00  0.00     0.239 C 
ATOM      4  O   UNL     1       1.212   3.396   0.875  1.00  0.00    -0.273 OA
ATOM      5  H   UNL     1       1.909   1.598   2.190  1.00  0.00     0.163 HD
BRANCH   3   6
ATOM      6  C   UNL     1       1.838   2.257  -1.136  1.00  0.00     0.221 C 
BRANCH   6   7
ATOM      7  N   UNL     1       2.977   1.657  -1.796  1.00  0.00    -0.306 N 
BRANCH   7   8
ATOM      8  C   UNL     1       3.107   0.422  -2.376  1.00  0.00     0.321 C 
ATOM      9  O   UNL     1       4.245   0.126  -2.773  1.00  0.00    -0.248 OA
BRANCH   8  10
ATOM     10  N   UNL     1       2.118  -0.545  -2.427  1.00  0.00    -0.322 N 
ATOM     11  C   UNL     1       0.656  -0.640  -2.741  1.00  0.00     0.086 C 
ATOM     12  C   UNL     1       0.370  -2.141  -2.510  1.00  0.00     0.027 C 
ATOM     13  C   UNL     1       1.576  -2.811  -3.110  1.00  0.00     0.024 C 
ATOM     14  C   UNL     1       2.700  -1.882  -2.697  1.00  0.00     0.122 C 
BRANCH  11  15
ATOM     15  C   UNL     1      -0.526   0.146  -2.143  1.00  0.00     0.022 C 
ATOM     16  C   UNL     1      -0.820  -0.042  -0.661  1.00  0.00     0.006 C 
ENDBRANCH  11  15
ENDBRANCH   8  10
ENDBRANCH   7   8
BRANCH   7  17
ATOM     17  C   UNL     1       4.227   2.471  -1.718  1.00  0.00     0.237 C 
BRANCH  17  18
ATOM     18  C   UNL     1       5.171   2.184  -0.540  1.00  0.00     0.406 C 
ATOM     19  F   UNL     1       5.521   0.888  -0.435  1.00  0.00    -0.169 F 
ATOM     20  F   UNL     1       6.308   2.910  -0.664  1.00  0.00    -0.169 F 
ATOM     21  F   UNL     1       4.603   2.553   0.631  1.00  0.00    -0.169 F 
ENDBRANCH  17  18
ENDBRANCH   7  17
ENDBRANCH   6   7
ENDBRANCH   3   6
ENDBRANCH   1   2
BRANCH   1  22
ATOM     22  C   UNL     1       3.629  -0.403   1.842  1.00  0.00     0.042 C 
BRANCH  22  23
ATOM     23  C   UNL     1       3.352  -0.334   3.331  1.00  0.00     0.118 C 
BRANCH  23  24
ATOM     24  N   UNL     1       2.363  -1.311   3.774  1.00  0.00    -0.352 N 
ATOM     25  C   UNL     1       2.520  -2.359   4.651  1.00  0.00     0.251 C 
ATOM     26  H   UNL     1       1.462  -1.206   3.393  1.00  0.00     0.163 HD
ATOM     27  O   UNL     1       1.630  -3.196   4.778  1.00  0.00    -0.269 OA
BRANCH  25  28
ATOM     28  C   UNL     1       3.787  -2.479   5.400  1.00  0.00     0.039 A 
ATOM     29  C   UNL     1       4.450  -3.706   5.443  1.00  0.00     0.014 A 
ATOM     30  C   UNL     1       4.360  -1.345   5.980  1.00  0.00     0.014 A 
ATOM     31  C   UNL     1       5.733  -3.771   5.991  1.00  0.00     0.010 A 
ATOM     32  C   UNL     1       5.680  -1.386   6.399  1.00  0.00     0.010 A 
ATOM     33  C   UNL     1       6.380  -2.602   6.425  1.00  0.00    -0.014 A 
BRANCH  33  34
ATOM     34  C   UNL     1       7.772  -2.617   6.944  1.00  0.00     0.031 A 
ATOM     35  C   UNL     1       8.050  -2.116   8.337  1.00  0.00     0.074 A 
ATOM     36  C   UNL     1       8.789  -2.991   6.143  1.00  0.00     0.049 A 
ATOM     37  N   UNL     1       9.194  -1.924   8.940  1.00  0.00    -0.248 NA
ATOM     38  C   UNL     1       6.878  -1.724   9.135  1.00  0.00     0.031 C 
ATOM     39  C   UNL     1       8.657  -3.438   4.753  1.00  0.00     0.029 A 
ATOM     40  N   UNL     1      10.139  -3.050   6.380  1.00  0.00    -0.354 N 
ATOM     41  C   UNL     1       8.879  -1.358  10.172  1.00  0.00     0.074 A 
ATOM     42  C   UNL     1       7.447  -1.156  10.185  1.00  0.00     0.031 C 
ATOM     43  C   UNL     1       9.870  -3.766   4.279  1.00  0.00     0.029 A 
ATOM     44  C   UNL     1      10.871  -3.508   5.309  1.00  0.00     0.049 A 
ATOM     45  H   UNL     1      10.547  -2.789   7.237  1.00  0.00     0.167 HD
ATOM     46  C   UNL     1       9.701  -1.069  11.211  1.00  0.00     0.034 A 
ATOM     47  C   UNL     1      12.198  -3.695   5.173  1.00  0.00     0.034 A 
ATOM     48  C   UNL     1      11.122  -1.310  11.188  1.00  0.00     0.049 A 
ATOM     49  C   UNL     1      13.098  -3.371   6.337  1.00  0.00     0.074 A 
ATOM     50  C   UNL     1      12.048  -1.125  12.200  1.00  0.00     0.029 A 
ATOM     51  N   UNL     1      11.826  -1.790  10.089  1.00  0.00    -0.354 N 
ATOM     52  N   UNL     1      12.783  -2.886   7.516  1.00  0.00    -0.248 NA
ATOM     53  C   UNL     1      14.532  -3.628   6.153  1.00  0.00     0.031 C 
ATOM     54  C   UNL     1      13.316  -1.435  11.695  1.00  0.00     0.029 A 
ATOM     55  C   UNL     1      13.176  -1.883  10.390  1.00  0.00     0.049 A 
ATOM     56  H   UNL     1      11.424  -2.030   9.223  1.00  0.00     0.167 HD
ATOM     57  C   UNL     1      13.978  -2.806   8.225  1.00  0.00     0.074 A 
ATOM     58  C   UNL     1      15.015  -3.305   7.344  1.00  0.00     0.031 C 
ATOM     59  C   UNL     1      14.198  -2.368   9.492  1.00  0.00     0.034 A 
BRANCH  46  60
ATOM     60  C   UNL     1       9.068  -0.447  12.436  1.00  0.00     0.023 A 
ATOM     61  C   UNL     1       8.046  -1.101  13.150  1.00  0.00     0.031 A 
ATOM     62  C   UNL     1       9.428   0.847  12.851  1.00  0.00     0.131 A 
ATOM     63  C   UNL     1       7.344  -0.419  14.155  1.00  0.00     0.055 A 
ATOM     64  C   UNL     1       8.793   1.481  13.922  1.00  0.00     0.041 A 
ATOM     65  F   UNL     1      10.383   1.532  12.202  1.00  0.00    -0.206 F 
ATOM     66  C   UNL     1       7.728   0.858  14.565  1.00  0.00     0.022 A 
BRANCH  63  67
ATOM     67  S   UNL     1       5.802  -1.150  14.774  1.00  0.00     0.124 S 
ATOM     68  O   UNL     1       5.025  -1.283  13.543  1.00  0.00    -0.237 OA
ATOM     69  O   UNL     1       6.262  -2.395  15.377  1.00  0.00    -0.237 OA
ATOM     70  O   UNL     1       5.300  -0.148  15.712  1.00  0.00    -0.744 OA
ENDBRANCH  63  67
ENDBRANCH  46  60
BRANCH  47  71
ATOM     71  C   UNL     1      12.756  -4.230   3.899  1.00  0.00     0.023 A 
ATOM     72  C   UNL     1      13.337  -5.507   3.851  1.00  0.00     0.031 A 
ATOM     73  C   UNL     1      12.729  -3.471   2.716  1.00  0.00     0.131 A 
ATOM     74  C   UNL     1      13.898  -5.976   2.653  1.00  0.00     0.055 A 
ATOM     75  C   UNL     1      13.249  -3.960   1.516  1.00  0.00     0.041 A 
ATOM     76  F   UNL     1      12.177  -2.248   2.707  1.00  0.00    -0.206 F 
ATOM     77  C   UNL     1      13.847  -5.216   1.482  1.00  0.00     0.022 A 
BRANCH  74  78
ATOM     78  S   UNL     1      14.745  -7.580   2.659  1.00  0.00     0.124 S 
ATOM     79  O   UNL     1      15.811  -7.350   3.628  1.00  0.00    -0.237 OA
ATOM     80  O   UNL     1      13.680  -8.485   3.080  1.00  0.00    -0.237 OA
ATOM     81  O   UNL     1      15.182  -7.740   1.274  1.00  0.00    -0.744 OA
ENDBRANCH  74  78
ENDBRANCH  47  71
BRANCH  59  82
ATOM     82  C   UNL     1      15.614  -2.453  10.006  1.00  0.00     0.023 A 
ATOM     83  C   UNL     1      16.642  -1.652   9.481  1.00  0.00     0.031 A 
ATOM     84  C   UNL     1      15.937  -3.359  11.033  1.00  0.00     0.131 A 
ATOM     85  C   UNL     1      17.956  -1.809   9.947  1.00  0.00     0.055 A 
ATOM     86  C   UNL     1      17.235  -3.468  11.533  1.00  0.00     0.041 A 
ATOM     87  F   UNL     1      14.994  -4.150  11.569  1.00  0.00    -0.206 F 
ATOM     88  C   UNL     1      18.255  -2.700  10.981  1.00  0.00     0.022 A 
BRANCH  85  89
ATOM     89  S   UNL     1      19.288  -0.896   9.121  1.00  0.00     0.124 S 
ATOM     90  O   UNL     1      19.172  -1.369   7.745  1.00  0.00    -0.237 OA
ATOM     91  O   UNL     1      18.905   0.493   9.353  1.00  0.00    -0.237 OA
ATOM     92  O   UNL     1      20.491  -1.332   9.827  1.00  0.00    -0.744 OA
ENDBRANCH  85  89
ENDBRANCH  59  82
ENDBRANCH  33  34
ENDBRANCH  25  28
ENDBRANCH  23  24
ENDBRANCH  22  23
ENDBRANCH   1  22
TORSDOF 19
