REMARK SMILES O=C(Cc1ccc(NC(=O)c2ccc(N3C(=O)c4ccccc4C3=O)cc2)cc1)NCCCNC(=O)c1ccc(-c2c3nc(c(-c4cc(S(=O)(=O)[O-])ccc4F)c4ccc([nH]4)c(-c4cc(S(=O)(=O)[O-])ccc4F)c4nc(c(-c5cc(S(=O)(=O)[O-])ccc5F)c5ccc2[nH]5)C=C4)C=C3)cc1
REMARK SMILES IDX 31 1 30 2 1 3 2 4 3 6 4 7 5 8 29 9 6 10 28 11 7 12 8 13 9 14
REMARK SMILES IDX 10 16 11 17 12 18 27 19 13 20 26 21 14 22 15 23 16 24 24 25
REMARK SMILES IDX 17 26 18 27 23 28 25 29 19 30 22 31 20 32 21 33 32 34 33 35
REMARK SMILES IDX 34 36 35 37 36 39 37 40 38 41 99 42 39 43 98 44 40 45 41 46
REMARK SMILES IDX 42 47 92 48 43 49 97 50 91 51 93 52 44 53 96 54 90 55 89 56
REMARK SMILES IDX 45 58 77 59 57 60 76 61 58 62 61 63 75 64 94 65 59 66 60 67
REMARK SMILES IDX 74 69 95 70 62 71 46 72 47 73 55 74 48 75 54 76 56 77 53 78
REMARK SMILES IDX 49 79 50 80 51 81 52 82 78 83 79 84 87 85 80 86 86 87 88 88
REMARK SMILES IDX 85 89 81 90 82 91 83 92 84 93 63 94 64 95 72 96 65 97 71 98
REMARK SMILES IDX 73 99 70 100 66 101 67 102 68 103 69 104
REMARK H PARENT 30 5 8 15 34 38 93 57 61 68
REMARK Flexibility Score: inf
ROOT
ATOM      1  C   UNL     1       2.106   1.892   1.770  1.00  0.00     0.117 C 
ENDROOT
BRANCH   1   2
ATOM      2  N   UNL     1       2.752   0.977   0.855  1.00  0.00    -0.356 N 
ATOM      3  O   UNL     1       0.832  -0.027   0.087  1.00  0.00    -0.275 OA
ATOM      4  C   UNL     1       2.050   0.117   0.038  1.00  0.00     0.224 C 
ATOM      5  H   UNL     1       3.736   0.968   0.814  1.00  0.00     0.163 HD
BRANCH   4   6
ATOM      6  C   UNL     1       2.914  -0.688  -0.915  1.00  0.00     0.135 C 
BRANCH   6   7
ATOM      7  C   UNL     1       3.904   0.125  -1.724  1.00  0.00    -0.039 A 
ATOM      8  C   UNL     1       5.169  -0.403  -1.993  1.00  0.00     0.006 A 
ATOM      9  C   UNL     1       3.576   1.378  -2.260  1.00  0.00     0.006 A 
ATOM     10  C   UNL     1       6.076   0.298  -2.792  1.00  0.00     0.026 A 
ATOM     11  C   UNL     1       4.488   2.075  -3.060  1.00  0.00     0.026 A 
ATOM     12  C   UNL     1       5.726   1.514  -3.382  1.00  0.00     0.041 A 
BRANCH  12  13
ATOM     13  N   UNL     1       6.542   2.217  -4.293  1.00  0.00    -0.322 N 
ATOM     14  C   UNL     1       7.578   1.789  -5.100  1.00  0.00     0.255 C 
ATOM     15  H   UNL     1       6.339   3.178  -4.365  1.00  0.00     0.170 HD
ATOM     16  O   UNL     1       8.286   2.594  -5.701  1.00  0.00    -0.269 OA
BRANCH  14  17
ATOM     17  C   UNL     1       7.796   0.346  -5.322  1.00  0.00     0.040 A 
ATOM     18  C   UNL     1       9.025  -0.221  -5.001  1.00  0.00     0.016 A 
ATOM     19  C   UNL     1       6.750  -0.462  -5.763  1.00  0.00     0.016 A 
ATOM     20  C   UNL     1       9.160  -1.617  -4.989  1.00  0.00     0.028 A 
ATOM     21  C   UNL     1       6.894  -1.853  -5.743  1.00  0.00     0.028 A 
ATOM     22  C   UNL     1       8.082  -2.466  -5.305  1.00  0.00     0.052 A 
BRANCH  22  23
ATOM     23  N   UNL     1       8.164  -3.885  -5.138  1.00  0.00    -0.242 N 
ATOM     24  C   UNL     1       7.151  -4.776  -5.440  1.00  0.00     0.266 C 
ATOM     25  C   UNL     1       9.241  -4.562  -4.596  1.00  0.00     0.266 C 
ATOM     26  O   UNL     1       6.042  -4.628  -5.921  1.00  0.00    -0.268 OA
ATOM     27  C   UNL     1       7.616  -6.105  -5.065  1.00  0.00     0.053 A 
ATOM     28  C   UNL     1       8.884  -5.977  -4.549  1.00  0.00     0.053 A 
ATOM     29  O   UNL     1      10.323  -4.181  -4.185  1.00  0.00    -0.268 OA
ATOM     30  C   UNL     1       6.980  -7.329  -5.161  1.00  0.00     0.015 A 
ATOM     31  C   UNL     1       9.594  -7.069  -4.087  1.00  0.00     0.015 A 
ATOM     32  C   UNL     1       7.679  -8.450  -4.709  1.00  0.00     0.001 A 
ATOM     33  C   UNL     1       8.976  -8.321  -4.174  1.00  0.00     0.001 A 
ENDBRANCH  22  23
ENDBRANCH  14  17
ENDBRANCH  12  13
ENDBRANCH   6   7
ENDBRANCH   4   6
ENDBRANCH   1   2
BRANCH   1  34
ATOM     34  C   UNL     1       2.462   1.615   3.225  1.00  0.00     0.042 C 
BRANCH  34  35
ATOM     35  C   UNL     1       3.950   1.711   3.549  1.00  0.00     0.118 C 
BRANCH  35  36
ATOM     36  N   UNL     1       4.509   3.032   3.302  1.00  0.00    -0.352 N 
ATOM     37  C   UNL     1       5.233   3.860   4.125  1.00  0.00     0.251 C 
ATOM     38  H   UNL     1       4.341   3.389   2.401  1.00  0.00     0.163 HD
ATOM     39  O   UNL     1       5.477   5.003   3.744  1.00  0.00    -0.269 OA
BRANCH  37  40
ATOM     40  C   UNL     1       5.691   3.410   5.461  1.00  0.00     0.039 A 
ATOM     41  C   UNL     1       5.643   4.319   6.522  1.00  0.00     0.014 A 
ATOM     42  C   UNL     1       6.194   2.124   5.677  1.00  0.00     0.014 A 
ATOM     43  C   UNL     1       6.038   3.921   7.803  1.00  0.00     0.010 A 
ATOM     44  C   UNL     1       6.512   1.704   6.970  1.00  0.00     0.010 A 
ATOM     45  C   UNL     1       6.441   2.599   8.048  1.00  0.00    -0.014 A 
BRANCH  45  46
ATOM     46  C   UNL     1       6.785   2.151   9.426  1.00  0.00     0.031 A 
ATOM     47  C   UNL     1       8.180   1.689   9.757  1.00  0.00     0.074 A 
ATOM     48  C   UNL     1       5.828   2.128  10.376  1.00  0.00     0.049 A 
ATOM     49  N   UNL     1       8.661   1.255  10.895  1.00  0.00    -0.248 NA
ATOM     50  C   UNL     1       9.155   1.688   8.657  1.00  0.00     0.031 C 
ATOM     51  C   UNL     1       4.426   2.501  10.169  1.00  0.00     0.029 A 
ATOM     52  N   UNL     1       5.883   1.780  11.702  1.00  0.00    -0.354 N 
ATOM     53  C   UNL     1       9.989   0.923  10.647  1.00  0.00     0.074 A 
ATOM     54  C   UNL     1      10.216   1.143   9.234  1.00  0.00     0.031 C 
ATOM     55  C   UNL     1       3.767   2.397  11.333  1.00  0.00     0.029 A 
ATOM     56  C   UNL     1       4.682   1.910  12.360  1.00  0.00     0.049 A 
ATOM     57  H   UNL     1       6.706   1.465  12.142  1.00  0.00     0.167 HD
ATOM     58  C   UNL     1      10.939   0.500  11.520  1.00  0.00     0.034 A 
ATOM     59  C   UNL     1       4.352   1.665  13.644  1.00  0.00     0.034 A 
ATOM     60  C   UNL     1      10.701   0.293  12.929  1.00  0.00     0.049 A 
ATOM     61  C   UNL     1       5.422   1.188  14.593  1.00  0.00     0.074 A 
ATOM     62  C   UNL     1      11.604  -0.082  13.910  1.00  0.00     0.029 A 
ATOM     63  N   UNL     1       9.472   0.437  13.561  1.00  0.00    -0.354 N 
ATOM     64  N   UNL     1       6.688   0.937  14.354  1.00  0.00    -0.248 NA
ATOM     65  C   UNL     1       5.019   0.979  15.990  1.00  0.00     0.031 C 
ATOM     66  C   UNL     1      10.908  -0.232  15.116  1.00  0.00     0.029 A 
ATOM     67  C   UNL     1       9.587   0.128  14.909  1.00  0.00     0.049 A 
ATOM     68  H   UNL     1       8.639   0.717  13.116  1.00  0.00     0.167 HD
ATOM     69  C   UNL     1       7.239   0.571  15.579  1.00  0.00     0.074 A 
ATOM     70  C   UNL     1       6.172   0.656  16.555  1.00  0.00     0.031 C 
ATOM     71  C   UNL     1       8.513   0.200  15.872  1.00  0.00     0.034 A 
BRANCH  58  72
ATOM     72  C   UNL     1      12.316   0.213  10.964  1.00  0.00     0.023 A 
ATOM     73  C   UNL     1      13.096   1.218  10.365  1.00  0.00     0.031 A 
ATOM     74  C   UNL     1      12.848  -1.088  11.012  1.00  0.00     0.131 A 
ATOM     75  C   UNL     1      14.324   0.893   9.770  1.00  0.00     0.055 A 
ATOM     76  C   UNL     1      14.110  -1.388  10.494  1.00  0.00     0.041 A 
ATOM     77  F   UNL     1      12.145  -2.096  11.552  1.00  0.00    -0.206 F 
ATOM     78  C   UNL     1      14.850  -0.398   9.853  1.00  0.00     0.022 A 
BRANCH  75  79
ATOM     79  S   UNL     1      15.154   2.148   8.757  1.00  0.00     0.124 S 
ATOM     80  O   UNL     1      14.135   2.432   7.748  1.00  0.00    -0.237 OA
ATOM     81  O   UNL     1      15.414   3.211   9.720  1.00  0.00    -0.237 OA
ATOM     82  O   UNL     1      16.339   1.455   8.256  1.00  0.00    -0.744 OA
ENDBRANCH  75  79
ENDBRANCH  58  72
BRANCH  59  83
ATOM     83  C   UNL     1       2.951   1.866  14.117  1.00  0.00     0.023 A 
ATOM     84  C   UNL     1       2.645   2.836  15.084  1.00  0.00     0.031 A 
ATOM     85  C   UNL     1       1.904   1.057  13.640  1.00  0.00     0.131 A 
ATOM     86  C   UNL     1       1.337   2.940  15.582  1.00  0.00     0.055 A 
ATOM     87  C   UNL     1       0.593   1.202  14.098  1.00  0.00     0.041 A 
ATOM     88  F   UNL     1       2.141   0.117  12.711  1.00  0.00    -0.206 F 
ATOM     89  C   UNL     1       0.306   2.139  15.086  1.00  0.00     0.022 A 
BRANCH  86  90
ATOM     90  S   UNL     1       1.019   4.081  16.956  1.00  0.00     0.124 S 
ATOM     91  O   UNL     1       1.940   3.586  17.972  1.00  0.00    -0.237 OA
ATOM     92  O   UNL     1       1.351   5.371  16.362  1.00  0.00    -0.237 OA
ATOM     93  O   UNL     1      -0.399   3.876  17.246  1.00  0.00    -0.744 OA
ENDBRANCH  86  90
ENDBRANCH  59  83
BRANCH  71  94
ATOM     94  C   UNL     1       8.821  -0.099  17.321  1.00  0.00     0.023 A 
ATOM     95  C   UNL     1       8.229  -1.181  17.996  1.00  0.00     0.031 A 
ATOM     96  C   UNL     1       9.693   0.733  18.046  1.00  0.00     0.131 A 
ATOM     97  C   UNL     1       8.459  -1.360  19.369  1.00  0.00     0.055 A 
ATOM     98  C   UNL     1       9.971   0.510  19.395  1.00  0.00     0.041 A 
ATOM     99  F   UNL     1      10.285   1.783  17.454  1.00  0.00    -0.206 F 
ATOM    100  C   UNL     1       9.339  -0.531  20.069  1.00  0.00     0.022 A 
BRANCH  97 101
ATOM    101  S   UNL     1       7.499  -2.619  20.255  1.00  0.00     0.124 S 
ATOM    102  O   UNL     1       6.127  -2.214  19.967  1.00  0.00    -0.237 OA
ATOM    103  O   UNL     1       7.945  -3.855  19.620  1.00  0.00    -0.237 OA
ATOM    104  O   UNL     1       7.915  -2.451  21.646  1.00  0.00    -0.744 OA
ENDBRANCH  97 101
ENDBRANCH  71  94
ENDBRANCH  45  46
ENDBRANCH  37  40
ENDBRANCH  35  36
ENDBRANCH  34  35
ENDBRANCH   1  34
TORSDOF 17
