REMARK SMILES CC[C@H](C)[C@@H](NC(=S)Nc1ccccc1)C(=O)NCCCNC(=O)c1ccc(-c2c3nc(c(-c4cc(S(=O)(=O)[O-])ccc4F)c4ccc([nH]4)c(-c4cc(S(=O)(=O)[O-])ccc4F)c4nc(c(-c5cc(S(=O)(=O)[O-])ccc5F)c5ccc2[nH]5)C=C4)C=C3)cc1
REMARK SMILES IDX 19 1 18 2 16 3 17 4 5 6 3 7 4 8 2 9 1 10 6 11 7 13 8 14 9 15
REMARK SMILES IDX 10 17 11 18 15 19 12 20 14 21 13 22 20 23 21 24 22 25 23 26
REMARK SMILES IDX 24 28 25 29 26 30 87 31 27 32 86 33 28 34 29 35 30 36 80 37
REMARK SMILES IDX 31 38 85 39 79 40 81 41 32 42 84 43 78 44 77 45 33 47 65 48
REMARK SMILES IDX 45 49 64 50 46 51 49 52 63 53 82 54 47 55 48 56 62 58 83 59
REMARK SMILES IDX 50 60 34 61 35 62 43 63 36 64 42 65 44 66 41 67 37 68 38 69
REMARK SMILES IDX 39 70 40 71 66 72 67 73 75 74 68 75 74 76 76 77 73 78 69 79
REMARK SMILES IDX 70 80 71 81 72 82 51 83 52 84 60 85 53 86 59 87 61 88 58 89
REMARK SMILES IDX 54 90 55 91 56 92 57 93
REMARK H PARENT 18 5 6 12 9 16 22 27 81 46 49 57
REMARK Flexibility Score: inf
ROOT
ATOM      1  C   UNL     1       3.768  -3.007   2.246  1.00  0.00     0.117 C 
ENDROOT
BRANCH   1   2
ATOM      2  N   UNL     1       2.875  -2.712   3.345  1.00  0.00    -0.354 N 
ATOM      3  C   UNL     1       1.524  -2.589   3.368  1.00  0.00     0.242 C 
ATOM      4  O   UNL     1       1.027  -2.112   4.394  1.00  0.00    -0.273 OA
ATOM      5  H   UNL     1       3.317  -2.580   4.215  1.00  0.00     0.163 HD
BRANCH   3   6
ATOM      6  C   UNL     1       0.658  -2.844   2.112  1.00  0.00     0.173 C 
BRANCH   6   7
ATOM      7  C   UNL     1       0.617  -1.492   1.302  1.00  0.00     0.018 C 
ATOM      8  C   UNL     1      -0.046  -1.627  -0.074  1.00  0.00     0.010 C 
BRANCH   7   9
ATOM      9  C   UNL     1      -0.064  -0.394   2.169  1.00  0.00     0.002 C 
ATOM     10  C   UNL     1      -0.564   0.843   1.439  1.00  0.00     0.004 C 
ENDBRANCH   7   9
ENDBRANCH   6   7
BRANCH   6  11
ATOM     11  N   UNL     1       1.076  -4.002   1.290  1.00  0.00    -0.350 N 
ATOM     12  H   UNL     1       1.178  -3.774   0.338  1.00  0.00     0.163 HD
BRANCH  11  13
ATOM     13  C   UNL     1       1.348  -5.296   1.545  1.00  0.00     0.171 C 
ATOM     14  S   UNL     1       1.738  -6.252   0.224  1.00  0.00    -0.041 S 
BRANCH  13  15
ATOM     15  N   UNL     1       1.525  -5.818   2.771  1.00  0.00    -0.333 N 
ATOM     16  H   UNL     1       2.147  -6.581   2.791  1.00  0.00     0.169 HD
BRANCH  15  17
ATOM     17  C   UNL     1       0.999  -5.489   4.024  1.00  0.00     0.040 A 
ATOM     18  C   UNL     1       1.837  -5.623   5.136  1.00  0.00     0.026 A 
ATOM     19  C   UNL     1      -0.317  -5.062   4.193  1.00  0.00     0.026 A 
ATOM     20  C   UNL     1       1.399  -5.207   6.393  1.00  0.00     0.002 A 
ATOM     21  C   UNL     1      -0.761  -4.667   5.456  1.00  0.00     0.002 A 
ATOM     22  C   UNL     1       0.104  -4.716   6.550  1.00  0.00     0.000 A 
ENDBRANCH  15  17
ENDBRANCH  13  15
ENDBRANCH  11  13
ENDBRANCH   6  11
ENDBRANCH   3   6
ENDBRANCH   1   2
BRANCH   1  23
ATOM     23  C   UNL     1       4.970  -2.074   2.251  1.00  0.00     0.042 C 
BRANCH  23  24
ATOM     24  C   UNL     1       5.825  -2.179   3.503  1.00  0.00     0.118 C 
BRANCH  24  25
ATOM     25  N   UNL     1       6.468  -3.474   3.656  1.00  0.00    -0.352 N 
ATOM     26  C   UNL     1       7.682  -3.722   4.253  1.00  0.00     0.251 C 
ATOM     27  H   UNL     1       5.985  -4.253   3.295  1.00  0.00     0.163 HD
ATOM     28  O   UNL     1       8.180  -4.841   4.225  1.00  0.00    -0.269 OA
BRANCH  26  29
ATOM     29  C   UNL     1       8.379  -2.588   4.889  1.00  0.00     0.039 A 
ATOM     30  C   UNL     1       9.648  -2.230   4.435  1.00  0.00     0.014 A 
ATOM     31  C   UNL     1       7.721  -1.827   5.860  1.00  0.00     0.014 A 
ATOM     32  C   UNL     1      10.249  -1.073   4.933  1.00  0.00     0.010 A 
ATOM     33  C   UNL     1       8.292  -0.640   6.302  1.00  0.00     0.010 A 
ATOM     34  C   UNL     1       9.568  -0.261   5.854  1.00  0.00    -0.014 A 
BRANCH  34  35
ATOM     35  C   UNL     1      10.202   0.958   6.414  1.00  0.00     0.031 A 
ATOM     36  C   UNL     1      10.548   0.999   7.877  1.00  0.00     0.074 A 
ATOM     37  C   UNL     1      10.415   2.032   5.629  1.00  0.00     0.049 A 
ATOM     38  N   UNL     1      11.049   1.977   8.586  1.00  0.00    -0.248 NA
ATOM     39  C   UNL     1      10.249  -0.215   8.653  1.00  0.00     0.031 C 
ATOM     40  C   UNL     1      10.070   2.125   4.209  1.00  0.00     0.029 A 
ATOM     41  N   UNL     1      10.968   3.253   5.917  1.00  0.00    -0.354 N 
ATOM     42  C   UNL     1      11.103   1.505   9.893  1.00  0.00     0.074 A 
ATOM     43  C   UNL     1      10.520   0.180   9.886  1.00  0.00     0.031 C 
ATOM     44  C   UNL     1      10.442   3.330   3.745  1.00  0.00     0.029 A 
ATOM     45  C   UNL     1      11.025   4.104   4.837  1.00  0.00     0.049 A 
ATOM     46  H   UNL     1      11.294   3.499   6.813  1.00  0.00     0.167 HD
ATOM     47  C   UNL     1      11.617   2.109  10.993  1.00  0.00     0.034 A 
ATOM     48  C   UNL     1      11.499   5.362   4.744  1.00  0.00     0.034 A 
ATOM     49  C   UNL     1      12.219   3.419  10.973  1.00  0.00     0.049 A 
ATOM     50  C   UNL     1      12.103   6.000   5.969  1.00  0.00     0.074 A 
ATOM     51  C   UNL     1      12.813   4.115  12.010  1.00  0.00     0.029 A 
ATOM     52  N   UNL     1      12.306   4.230   9.848  1.00  0.00    -0.354 N 
ATOM     53  N   UNL     1      12.194   5.524   7.190  1.00  0.00    -0.248 NA
ATOM     54  C   UNL     1      12.689   7.336   5.798  1.00  0.00     0.031 C 
ATOM     55  C   UNL     1      13.219   5.364  11.523  1.00  0.00     0.029 A 
ATOM     56  C   UNL     1      12.935   5.423  10.168  1.00  0.00     0.049 A 
ATOM     57  H   UNL     1      11.970   3.992   8.953  1.00  0.00     0.167 HD
ATOM     58  C   UNL     1      12.882   6.487   7.922  1.00  0.00     0.074 A 
ATOM     59  C   UNL     1      13.189   7.565   7.003  1.00  0.00     0.031 C 
ATOM     60  C   UNL     1      13.235   6.481   9.233  1.00  0.00     0.034 A 
BRANCH  47  61
ATOM     61  C   UNL     1      11.521   1.356  12.299  1.00  0.00     0.023 A 
ATOM     62  C   UNL     1      12.156   0.115  12.482  1.00  0.00     0.031 A 
ATOM     63  C   UNL     1      10.736   1.853  13.353  1.00  0.00     0.131 A 
ATOM     64  C   UNL     1      11.918  -0.631  13.646  1.00  0.00     0.055 A 
ATOM     65  C   UNL     1      10.575   1.147  14.548  1.00  0.00     0.041 A 
ATOM     66  F   UNL     1      10.088   3.022  13.232  1.00  0.00    -0.206 F 
ATOM     67  C   UNL     1      11.152  -0.112  14.692  1.00  0.00     0.022 A 
BRANCH  64  68
ATOM     68  S   UNL     1      12.488  -2.352  13.702  1.00  0.00     0.124 S 
ATOM     69  O   UNL     1      11.764  -2.937  12.575  1.00  0.00    -0.237 OA
ATOM     70  O   UNL     1      13.929  -2.213  13.533  1.00  0.00    -0.237 OA
ATOM     71  O   UNL     1      12.054  -2.814  15.019  1.00  0.00    -0.744 OA
ENDBRANCH  64  68
ENDBRANCH  47  61
BRANCH  48  72
ATOM     72  C   UNL     1      11.447   6.096   3.449  1.00  0.00     0.023 A 
ATOM     73  C   UNL     1      12.624   6.428   2.759  1.00  0.00     0.031 A 
ATOM     74  C   UNL     1      10.221   6.513   2.901  1.00  0.00     0.131 A 
ATOM     75  C   UNL     1      12.556   7.196   1.586  1.00  0.00     0.055 A 
ATOM     76  C   UNL     1      10.155   7.238   1.710  1.00  0.00     0.041 A 
ATOM     77  F   UNL     1       9.066   6.211   3.515  1.00  0.00    -0.206 F 
ATOM     78  C   UNL     1      11.329   7.596   1.052  1.00  0.00     0.022 A 
BRANCH  75  79
ATOM     79  S   UNL     1      14.104   7.730   0.807  1.00  0.00     0.124 S 
ATOM     80  O   UNL     1      14.744   8.468   1.889  1.00  0.00    -0.237 OA
ATOM     81  O   UNL     1      14.717   6.455   0.449  1.00  0.00    -0.237 OA
ATOM     82  O   UNL     1      13.654   8.541  -0.323  1.00  0.00    -0.744 OA
ENDBRANCH  75  79
ENDBRANCH  48  72
BRANCH  60  83
ATOM     83  C   UNL     1      14.047   7.652   9.725  1.00  0.00     0.023 A 
ATOM     84  C   UNL     1      13.504   8.944   9.821  1.00  0.00     0.031 A 
ATOM     85  C   UNL     1      15.393   7.467  10.088  1.00  0.00     0.131 A 
ATOM     86  C   UNL     1      14.320  10.015  10.215  1.00  0.00     0.055 A 
ATOM     87  C   UNL     1      16.185   8.527  10.532  1.00  0.00     0.041 A 
ATOM     88  F   UNL     1      15.960   6.252  10.015  1.00  0.00    -0.206 F 
ATOM     89  C   UNL     1      15.653   9.812  10.584  1.00  0.00     0.022 A 
BRANCH  86  90
ATOM     90  S   UNL     1      13.642  11.695  10.149  1.00  0.00     0.124 S 
ATOM     91  O   UNL     1      13.228  11.803   8.754  1.00  0.00    -0.237 OA
ATOM     92  O   UNL     1      12.563  11.634  11.130  1.00  0.00    -0.237 OA
ATOM     93  O   UNL     1      14.775  12.538  10.526  1.00  0.00    -0.744 OA
ENDBRANCH  86  90
ENDBRANCH  60  83
ENDBRANCH  34  35
ENDBRANCH  26  29
ENDBRANCH  24  25
ENDBRANCH  23  24
ENDBRANCH   1  23
TORSDOF 19
