REMARK SMILES C[C@H](C(=O)NCCCNC(=O)c1ccc(-c2c3nc(c(-c4cc(S(=O)(=O)[O-])ccc4F)c4ccc([nH]4)c(-c4cc(S(=O)(=O)[O-])ccc4F)c4nc(c(-c5cc(S(=O)(=O)[O-])ccc5F)c5ccc2[nH]5)C=C4)C=C3)cc1)n1ccc2c(cnc3nc(C4CCCCC4)nn32)c1=O
REMARK SMILES IDX 7 1 6 2 5 3 3 4 4 5 2 7 1 8 75 9 76 10 93 11 77 12 79 13
REMARK SMILES IDX 94 14 78 15 80 16 92 17 81 18 82 19 91 20 83 21 84 22 85 23
REMARK SMILES IDX 86 24 90 25 87 26 89 27 88 28 8 29 9 30 10 31 11 33 12 34
REMARK SMILES IDX 13 35 74 36 14 37 73 38 15 39 16 40 17 41 67 42 18 43 72 44
REMARK SMILES IDX 66 45 68 46 19 47 71 48 65 49 64 50 20 52 52 53 32 54 51 55
REMARK SMILES IDX 33 56 36 57 50 58 69 59 34 60 35 61 49 63 70 64 37 65 21 66
REMARK SMILES IDX 22 67 30 68 23 69 29 70 31 71 28 72 24 73 25 74 26 75 27 76
REMARK SMILES IDX 53 77 54 78 62 79 55 80 61 81 63 82 60 83 56 84 57 85 58 86
REMARK SMILES IDX 59 87 38 88 39 89 47 90 40 91 46 92 48 93 45 94 41 95 42 96
REMARK SMILES IDX 43 97 44 98
REMARK H PARENT 5 6 9 32 68 51 36 62
REMARK Flexibility Score: inf
ROOT
ATOM      1  C   UNL     1      -1.639  -1.220  -1.688  1.00  0.00     0.042 C 
ENDROOT
BRANCH   1   2
ATOM      2  C   UNL     1      -0.287  -1.691  -1.169  1.00  0.00     0.117 C 
BRANCH   2   3
ATOM      3  N   UNL     1       0.634  -0.595  -0.942  1.00  0.00    -0.354 N 
ATOM      4  C   UNL     1       1.049  -0.005   0.219  1.00  0.00     0.242 C 
ATOM      5  O   UNL     1       2.038   0.731   0.128  1.00  0.00    -0.273 OA
ATOM      6  H   UNL     1       1.024  -0.210  -1.760  1.00  0.00     0.163 HD
BRANCH   4   7
ATOM      7  C   UNL     1       0.472  -0.425   1.597  1.00  0.00     0.176 C 
ATOM      8  C   UNL     1       1.050   0.425   2.733  1.00  0.00     0.042 C 
BRANCH   7   9
ATOM      9  N   UNL     1      -1.004  -0.487   1.666  1.00  0.00    -0.303 N 
ATOM     10  C   UNL     1      -1.609  -1.689   2.004  1.00  0.00     0.092 A 
ATOM     11  C   UNL     1      -1.745   0.689   1.488  1.00  0.00     0.262 A 
ATOM     12  C   UNL     1      -2.938  -1.809   2.054  1.00  0.00     0.047 A 
ATOM     13  C   UNL     1      -3.224   0.532   1.526  1.00  0.00     0.084 A 
ATOM     14  O   UNL     1      -1.248   1.788   1.269  1.00  0.00    -0.269 OA
ATOM     15  C   UNL     1      -3.781  -0.670   1.759  1.00  0.00     0.084 A 
ATOM     16  C   UNL     1      -4.179   1.642   1.257  1.00  0.00     0.131 A 
ATOM     17  N   UNL     1      -5.167  -0.803   1.656  1.00  0.00    -0.196 N 
ATOM     18  N   UNL     1      -5.473   1.539   1.177  1.00  0.00    -0.219 NA
ATOM     19  C   UNL     1      -5.986   0.281   1.327  1.00  0.00     0.252 A 
ATOM     20  N   UNL     1      -5.913  -1.927   1.763  1.00  0.00    -0.149 NA
ATOM     21  N   UNL     1      -7.214  -0.157   1.153  1.00  0.00    -0.194 NA
ATOM     22  C   UNL     1      -7.120  -1.503   1.374  1.00  0.00     0.156 A 
BRANCH  22  23
ATOM     23  C   UNL     1      -8.272  -2.437   1.147  1.00  0.00     0.060 C 
ATOM     24  C   UNL     1      -7.797  -3.812   0.632  1.00  0.00     0.012 C 
ATOM     25  C   UNL     1      -9.128  -2.587   2.413  1.00  0.00     0.012 C 
ATOM     26  C   UNL     1      -8.944  -4.801   0.457  1.00  0.00     0.001 C 
ATOM     27  C   UNL     1     -10.266  -3.589   2.220  1.00  0.00     0.001 C 
ATOM     28  C   UNL     1      -9.751  -4.942   1.742  1.00  0.00     0.000 C 
ENDBRANCH  22  23
ENDBRANCH   7   9
ENDBRANCH   4   7
ENDBRANCH   2   3
ENDBRANCH   1   2
BRANCH   1  29
ATOM     29  C   UNL     1      -1.597  -0.709  -3.124  1.00  0.00     0.118 C 
BRANCH  29  30
ATOM     30  N   UNL     1      -1.367  -1.779  -4.087  1.00  0.00    -0.352 N 
ATOM     31  C   UNL     1      -2.135  -2.167  -5.159  1.00  0.00     0.251 C 
ATOM     32  H   UNL     1      -0.543  -2.299  -3.949  1.00  0.00     0.163 HD
ATOM     33  O   UNL     1      -1.880  -3.221  -5.735  1.00  0.00    -0.269 OA
BRANCH  31  34
ATOM     34  C   UNL     1      -3.272  -1.329  -5.596  1.00  0.00     0.039 A 
ATOM     35  C   UNL     1      -4.493  -1.936  -5.904  1.00  0.00     0.014 A 
ATOM     36  C   UNL     1      -3.132   0.057  -5.701  1.00  0.00     0.014 A 
ATOM     37  C   UNL     1      -5.594  -1.147  -6.247  1.00  0.00     0.010 A 
ATOM     38  C   UNL     1      -4.245   0.845  -5.969  1.00  0.00     0.010 A 
ATOM     39  C   UNL     1      -5.488   0.252  -6.247  1.00  0.00    -0.014 A 
BRANCH  39  40
ATOM     40  C   UNL     1      -6.642   1.137  -6.556  1.00  0.00     0.031 A 
ATOM     41  C   UNL     1      -6.569   2.051  -7.747  1.00  0.00     0.074 A 
ATOM     42  C   UNL     1      -7.686   1.209  -5.709  1.00  0.00     0.049 A 
ATOM     43  N   UNL     1      -7.343   3.052  -8.078  1.00  0.00    -0.248 NA
ATOM     44  C   UNL     1      -5.439   1.832  -8.661  1.00  0.00     0.031 C 
ATOM     45  C   UNL     1      -7.854   0.396  -4.504  1.00  0.00     0.029 A 
ATOM     46  N   UNL     1      -8.785   2.031  -5.713  1.00  0.00    -0.354 N 
ATOM     47  C   UNL     1      -6.774   3.606  -9.220  1.00  0.00     0.074 A 
ATOM     48  C   UNL     1      -5.559   2.862  -9.483  1.00  0.00     0.031 C 
ATOM     49  C   UNL     1      -8.984   0.765  -3.880  1.00  0.00     0.029 A 
ATOM     50  C   UNL     1      -9.591   1.875  -4.609  1.00  0.00     0.049 A 
ATOM     51  H   UNL     1      -8.977   2.671  -6.435  1.00  0.00     0.167 HD
ATOM     52  C   UNL     1      -7.232   4.629  -9.985  1.00  0.00     0.034 A 
ATOM     53  C   UNL     1     -10.675   2.570  -4.209  1.00  0.00     0.034 A 
ATOM     54  C   UNL     1      -8.451   5.348  -9.706  1.00  0.00     0.049 A 
ATOM     55  C   UNL     1     -11.163   3.717  -5.056  1.00  0.00     0.074 A 
ATOM     56  C   UNL     1      -9.042   6.364 -10.436  1.00  0.00     0.029 A 
ATOM     57  N   UNL     1      -9.266   5.131  -8.600  1.00  0.00    -0.354 N 
ATOM     58  N   UNL     1     -10.637   4.214  -6.153  1.00  0.00    -0.248 NA
ATOM     59  C   UNL     1     -12.392   4.391  -4.619  1.00  0.00     0.031 C 
ATOM     60  C   UNL     1     -10.174   6.805  -9.740  1.00  0.00     0.029 A 
ATOM     61  C   UNL     1     -10.337   6.011  -8.615  1.00  0.00     0.049 A 
ATOM     62  H   UNL     1      -9.105   4.452  -7.906  1.00  0.00     0.167 HD
ATOM     63  C   UNL     1     -11.491   5.237  -6.554  1.00  0.00     0.074 A 
ATOM     64  C   UNL     1     -12.563   5.288  -5.581  1.00  0.00     0.031 C 
ATOM     65  C   UNL     1     -11.401   6.051  -7.637  1.00  0.00     0.034 A 
BRANCH  52  66
ATOM     66  C   UNL     1      -6.379   5.043 -11.163  1.00  0.00     0.023 A 
ATOM     67  C   UNL     1      -6.064   4.143 -12.198  1.00  0.00     0.031 A 
ATOM     68  C   UNL     1      -5.810   6.328 -11.219  1.00  0.00     0.131 A 
ATOM     69  C   UNL     1      -5.120   4.497 -13.173  1.00  0.00     0.055 A 
ATOM     70  C   UNL     1      -4.949   6.709 -12.252  1.00  0.00     0.041 A 
ATOM     71  F   UNL     1      -6.056   7.228 -10.255  1.00  0.00    -0.206 F 
ATOM     72  C   UNL     1      -4.580   5.784 -13.223  1.00  0.00     0.022 A 
BRANCH  69  73
ATOM     73  S   UNL     1      -4.459   3.191 -14.246  1.00  0.00     0.124 S 
ATOM     74  O   UNL     1      -3.952   2.233 -13.265  1.00  0.00    -0.237 OA
ATOM     75  O   UNL     1      -5.638   2.773 -14.996  1.00  0.00    -0.237 OA
ATOM     76  O   UNL     1      -3.430   3.875 -15.026  1.00  0.00    -0.744 OA
ENDBRANCH  69  73
ENDBRANCH  52  66
BRANCH  53  77
ATOM     77  C   UNL     1     -11.351   2.214  -2.930  1.00  0.00     0.023 A 
ATOM     78  C   UNL     1     -12.633   1.644  -2.920  1.00  0.00     0.031 A 
ATOM     79  C   UNL     1     -10.710   2.425  -1.696  1.00  0.00     0.131 A 
ATOM     80  C   UNL     1     -13.245   1.325  -1.698  1.00  0.00     0.055 A 
ATOM     81  C   UNL     1     -11.303   2.064  -0.486  1.00  0.00     0.041 A 
ATOM     82  F   UNL     1      -9.481   2.964  -1.656  1.00  0.00    -0.206 F 
ATOM     83  C   UNL     1     -12.584   1.518  -0.482  1.00  0.00     0.022 A 
BRANCH  80  84
ATOM     84  S   UNL     1     -14.943   0.687  -1.716  1.00  0.00     0.124 S 
ATOM     85  O   UNL     1     -15.671   1.792  -2.331  1.00  0.00    -0.237 OA
ATOM     86  O   UNL     1     -14.807  -0.520  -2.525  1.00  0.00    -0.237 OA
ATOM     87  O   UNL     1     -15.237   0.456  -0.303  1.00  0.00    -0.744 OA
ENDBRANCH  80  84
ENDBRANCH  53  77
BRANCH  65  88
ATOM     88  C   UNL     1     -12.531   7.022  -7.871  1.00  0.00     0.023 A 
ATOM     89  C   UNL     1     -12.739   8.142  -7.048  1.00  0.00     0.031 A 
ATOM     90  C   UNL     1     -13.395   6.832  -8.965  1.00  0.00     0.131 A 
ATOM     91  C   UNL     1     -13.806   9.015  -7.317  1.00  0.00     0.055 A 
ATOM     92  C   UNL     1     -14.422   7.729  -9.255  1.00  0.00     0.041 A 
ATOM     93  F   UNL     1     -13.241   5.777  -9.781  1.00  0.00    -0.206 F 
ATOM     94  C   UNL     1     -14.637   8.825  -8.425  1.00  0.00     0.022 A 
BRANCH  91  95
ATOM     95  S   UNL     1     -14.132  10.382  -6.169  1.00  0.00     0.124 S 
ATOM     96  O   UNL     1     -14.421   9.673  -4.927  1.00  0.00    -0.237 OA
ATOM     97  O   UNL     1     -12.877  11.126  -6.203  1.00  0.00    -0.237 OA
ATOM     98  O   UNL     1     -15.274  11.070  -6.770  1.00  0.00    -0.744 OA
ENDBRANCH  91  95
ENDBRANCH  65  88
ENDBRANCH  39  40
ENDBRANCH  31  34
ENDBRANCH  29  30
ENDBRANCH   1  29
TORSDOF 15
