REMARK SMILES CC(C)C[C@H](NC(=O)CNC(=O)[C@@H](NC(=O)OCc1ccccc1)C(C)C)C(=O)NCCCNC(=O)c1ccc(-c2c3nc(c(-c4cc(S(=O)(=O)[O-])ccc4F)c4ccc([nH]4)c(-c4cc(S(=O)(=O)[O-])ccc4F)c4nc(c(-c5cc(S(=O)(=O)[O-])ccc5F)c5ccc2[nH]5)C=C4)C=C3)cc1
REMARK SMILES IDX 28 1 29 2 30 3 5 5 4 6 2 7 1 8 3 9 6 10 7 11 8 13 9 14 10 15
REMARK SMILES IDX 11 16 12 18 13 19 14 20 15 21 16 23 17 24 18 25 19 26 20 27
REMARK SMILES IDX 24 28 21 29 23 30 22 31 25 32 26 33 27 34 31 35 32 36 33 37
REMARK SMILES IDX 34 38 35 39 36 41 37 42 38 43 99 44 39 45 98 46 40 47 41 48
REMARK SMILES IDX 42 49 92 50 43 51 97 52 91 53 93 54 44 55 96 56 90 57 89 58
REMARK SMILES IDX 45 60 77 61 57 62 76 63 58 64 61 65 75 66 94 67 59 68 60 69
REMARK SMILES IDX 74 71 95 72 62 73 46 74 47 75 55 76 48 77 54 78 56 79 53 80
REMARK SMILES IDX 49 81 50 82 51 83 52 84 78 85 79 86 87 87 80 88 86 89 88 90
REMARK SMILES IDX 85 91 81 92 82 93 83 94 84 95 63 96 64 97 72 98 65 99 71 100
REMARK SMILES IDX 73 101 70 102 66 103 67 104 68 105 69 106
REMARK H PARENT 30 4 6 12 10 17 14 22 34 40 93 59 61 70
REMARK Flexibility Score: inf
ROOT
ATOM      1  C   UNL     1      -3.481   0.953   0.776  1.00  0.00     0.242 C 
ATOM      2  O   UNL     1      -4.147  -0.080   0.775  1.00  0.00    -0.273 OA
ATOM      3  N   UNL     1      -4.021   2.107   0.276  1.00  0.00    -0.354 N 
ATOM      4  H   UNL     1      -4.909   2.026  -0.139  1.00  0.00     0.163 HD
ENDROOT
BRANCH   1   5
ATOM      5  C   UNL     1      -2.060   1.014   1.356  1.00  0.00     0.171 C 
BRANCH   5   6
ATOM      6  C   UNL     1      -2.040   1.935   2.580  1.00  0.00     0.038 C 
BRANCH   6   7
ATOM      7  C   UNL     1      -3.280   2.122   3.477  1.00  0.00    -0.015 C 
ATOM      8  C   UNL     1      -3.709   0.845   4.191  1.00  0.00     0.007 C 
ATOM      9  C   UNL     1      -2.946   3.212   4.506  1.00  0.00     0.007 C 
ENDBRANCH   6   7
ENDBRANCH   5   6
BRANCH   5  10
ATOM     10  N   UNL     1      -1.214   1.365   0.180  1.00  0.00    -0.343 N 
ATOM     11  C   UNL     1      -0.078   1.996  -0.171  1.00  0.00     0.240 C 
ATOM     12  H   UNL     1      -1.639   1.005  -0.632  1.00  0.00     0.164 HD
ATOM     13  O   UNL     1       0.185   1.933  -1.382  1.00  0.00    -0.273 OA
BRANCH  11  14
ATOM     14  C   UNL     1       0.960   2.659   0.740  1.00  0.00     0.216 C 
BRANCH  14  15
ATOM     15  N   UNL     1       0.566   3.416   1.899  1.00  0.00    -0.345 N 
ATOM     16  C   UNL     1       0.679   3.191   3.228  1.00  0.00     0.243 C 
ATOM     17  H   UNL     1       0.126   4.269   1.681  1.00  0.00     0.164 HD
ATOM     18  O   UNL     1       0.332   4.133   3.953  1.00  0.00    -0.273 OA
BRANCH  16  19
ATOM     19  C   UNL     1       1.251   1.895   3.876  1.00  0.00     0.177 C 
BRANCH  19  20
ATOM     20  N   UNL     1       0.955   0.635   3.176  1.00  0.00    -0.309 N 
ATOM     21  C   UNL     1       1.639  -0.096   2.266  1.00  0.00     0.408 C 
ATOM     22  H   UNL     1       0.085   0.245   3.420  1.00  0.00     0.167 HD
ATOM     23  O   UNL     1       1.068  -0.986   1.648  1.00  0.00    -0.225 OA
BRANCH  21  24
ATOM     24  O   UNL     1       2.934   0.260   2.142  1.00  0.00    -0.445 OA
BRANCH  24  25
ATOM     25  C   UNL     1       3.727  -0.563   1.276  1.00  0.00     0.270 C 
BRANCH  25  26
ATOM     26  C   UNL     1       3.821  -1.982   1.781  1.00  0.00    -0.011 A 
ATOM     27  C   UNL     1       4.228  -2.252   3.095  1.00  0.00     0.007 A 
ATOM     28  C   UNL     1       3.423  -3.043   0.958  1.00  0.00     0.007 A 
ATOM     29  C   UNL     1       4.202  -3.557   3.587  1.00  0.00     0.000 A 
ATOM     30  C   UNL     1       3.409  -4.348   1.448  1.00  0.00     0.000 A 
ATOM     31  C   UNL     1       3.792  -4.604   2.763  1.00  0.00     0.000 A 
ENDBRANCH  25  26
ENDBRANCH  24  25
ENDBRANCH  21  24
ENDBRANCH  19  20
BRANCH  19  32
ATOM     32  C   UNL     1       2.701   2.067   4.376  1.00  0.00     0.015 C 
ATOM     33  C   UNL     1       2.886   3.340   5.214  1.00  0.00     0.010 C 
ATOM     34  C   UNL     1       3.114   0.872   5.245  1.00  0.00     0.010 C 
ENDBRANCH  19  32
ENDBRANCH  16  19
ENDBRANCH  14  15
ENDBRANCH  11  14
ENDBRANCH   5  10
ENDBRANCH   1   5
BRANCH   3  35
ATOM     35  C   UNL     1      -3.433   3.439   0.288  1.00  0.00     0.117 C 
BRANCH  35  36
ATOM     36  C   UNL     1      -3.725   4.207  -0.972  1.00  0.00     0.042 C 
BRANCH  36  37
ATOM     37  C   UNL     1      -5.197   4.522  -1.095  1.00  0.00     0.118 C 
BRANCH  37  38
ATOM     38  N   UNL     1      -5.681   5.368  -0.006  1.00  0.00    -0.352 N 
ATOM     39  C   UNL     1      -6.280   6.602  -0.094  1.00  0.00     0.251 C 
ATOM     40  H   UNL     1      -5.563   5.010   0.903  1.00  0.00     0.163 HD
ATOM     41  O   UNL     1      -6.456   7.290   0.903  1.00  0.00    -0.269 OA
BRANCH  39  42
ATOM     42  C   UNL     1      -6.663   7.073  -1.436  1.00  0.00     0.039 A 
ATOM     43  C   UNL     1      -6.224   8.319  -1.877  1.00  0.00     0.014 A 
ATOM     44  C   UNL     1      -7.318   6.190  -2.298  1.00  0.00     0.014 A 
ATOM     45  C   UNL     1      -6.365   8.643  -3.225  1.00  0.00     0.010 A 
ATOM     46  C   UNL     1      -7.328   6.459  -3.655  1.00  0.00     0.010 A 
ATOM     47  C   UNL     1      -6.864   7.693  -4.132  1.00  0.00    -0.014 A 
BRANCH  47  48
ATOM     48  C   UNL     1      -6.939   7.966  -5.588  1.00  0.00     0.031 A 
ATOM     49  C   UNL     1      -8.276   7.903  -6.275  1.00  0.00     0.074 A 
ATOM     50  C   UNL     1      -5.812   8.186  -6.293  1.00  0.00     0.049 A 
ATOM     51  N   UNL     1      -8.557   7.992  -7.548  1.00  0.00    -0.248 NA
ATOM     52  C   UNL     1      -9.449   7.664  -5.417  1.00  0.00     0.031 C 
ATOM     53  C   UNL     1      -4.456   8.220  -5.738  1.00  0.00     0.029 A 
ATOM     54  N   UNL     1      -5.624   8.414  -7.633  1.00  0.00    -0.354 N 
ATOM     55  C   UNL     1      -9.931   7.802  -7.643  1.00  0.00     0.074 A 
ATOM     56  C   UNL     1     -10.411   7.510  -6.311  1.00  0.00     0.031 C 
ATOM     57  C   UNL     1      -3.584   8.493  -6.722  1.00  0.00     0.029 A 
ATOM     58  C   UNL     1      -4.306   8.592  -7.986  1.00  0.00     0.049 A 
ATOM     59  H   UNL     1      -6.364   8.448  -8.281  1.00  0.00     0.167 HD
ATOM     60  C   UNL     1     -10.724   7.896  -8.736  1.00  0.00     0.034 A 
ATOM     61  C   UNL     1      -3.744   8.794  -9.194  1.00  0.00     0.034 A 
ATOM     62  C   UNL     1     -10.225   8.208 -10.051  1.00  0.00     0.049 A 
ATOM     63  C   UNL     1      -4.643   8.857 -10.405  1.00  0.00     0.074 A 
ATOM     64  C   UNL     1     -10.939   8.388 -11.221  1.00  0.00     0.029 A 
ATOM     65  N   UNL     1      -8.883   8.378 -10.371  1.00  0.00    -0.354 N 
ATOM     66  N   UNL     1      -5.949   8.731 -10.471  1.00  0.00    -0.248 NA
ATOM     67  C   UNL     1      -3.995   9.095 -11.700  1.00  0.00     0.031 C 
ATOM     68  C   UNL     1     -10.026   8.586 -12.262  1.00  0.00     0.029 A 
ATOM     69  C   UNL     1      -8.747   8.621 -11.729  1.00  0.00     0.049 A 
ATOM     70  H   UNL     1      -8.139   8.332  -9.729  1.00  0.00     0.167 HD
ATOM     71  C   UNL     1      -6.280   8.907 -11.812  1.00  0.00     0.074 A 
ATOM     72  C   UNL     1      -5.038   9.162 -12.514  1.00  0.00     0.031 C 
ATOM     73  C   UNL     1      -7.498   8.866 -12.411  1.00  0.00     0.034 A 
BRANCH  60  74
ATOM     74  C   UNL     1     -12.200   7.637  -8.550  1.00  0.00     0.023 A 
ATOM     75  C   UNL     1     -12.989   8.435  -7.702  1.00  0.00     0.031 A 
ATOM     76  C   UNL     1     -12.820   6.558  -9.202  1.00  0.00     0.131 A 
ATOM     77  C   UNL     1     -14.329   8.094  -7.466  1.00  0.00     0.055 A 
ATOM     78  C   UNL     1     -14.178   6.278  -9.033  1.00  0.00     0.041 A 
ATOM     79  F   UNL     1     -12.114   5.744 -10.002  1.00  0.00    -0.206 F 
ATOM     80  C   UNL     1     -14.937   7.039  -8.149  1.00  0.00     0.022 A 
BRANCH  77  81
ATOM     81  S   UNL     1     -15.218   8.953  -6.139  1.00  0.00     0.124 S 
ATOM     82  O   UNL     1     -14.381   8.650  -4.980  1.00  0.00    -0.237 OA
ATOM     83  O   UNL     1     -15.203  10.338  -6.593  1.00  0.00    -0.237 OA
ATOM     84  O   UNL     1     -16.531   8.311  -6.135  1.00  0.00    -0.744 OA
ENDBRANCH  77  81
ENDBRANCH  60  74
BRANCH  61  85
ATOM     85  C   UNL     1      -2.265   8.937  -9.332  1.00  0.00     0.023 A 
ATOM     86  C   UNL     1      -1.695  10.126  -9.813  1.00  0.00     0.031 A 
ATOM     87  C   UNL     1      -1.400   7.869  -9.029  1.00  0.00     0.131 A 
ATOM     88  C   UNL     1      -0.309  10.203 -10.027  1.00  0.00     0.055 A 
ATOM     89  C   UNL     1      -0.017   7.971  -9.185  1.00  0.00     0.041 A 
ATOM     90  F   UNL     1      -1.890   6.709  -8.563  1.00  0.00    -0.206 F 
ATOM     91  C   UNL     1       0.535   9.139  -9.702  1.00  0.00     0.022 A 
BRANCH  88  92
ATOM     92  S   UNL     1       0.364  11.682 -10.834  1.00  0.00     0.124 S 
ATOM     93  O   UNL     1      -0.380  11.698 -12.089  1.00  0.00    -0.237 OA
ATOM     94  O   UNL     1       0.028  12.729  -9.875  1.00  0.00    -0.237 OA
ATOM     95  O   UNL     1       1.789  11.383 -10.956  1.00  0.00    -0.744 OA
ENDBRANCH  88  92
ENDBRANCH  61  85
BRANCH  73  96
ATOM     96  C   UNL     1      -7.548   9.151 -13.891  1.00  0.00     0.023 A 
ATOM     97  C   UNL     1      -6.971   8.282 -14.833  1.00  0.00     0.031 A 
ATOM     98  C   UNL     1      -8.196  10.306 -14.365  1.00  0.00     0.131 A 
ATOM     99  C   UNL     1      -7.009   8.608 -16.197  1.00  0.00     0.055 A 
ATOM    100  C   UNL     1      -8.289  10.590 -15.727  1.00  0.00     0.041 A 
ATOM    101  F   UNL     1      -8.762  11.172 -13.508  1.00  0.00    -0.206 F 
ATOM    102  C   UNL     1      -7.683   9.745 -16.651  1.00  0.00     0.022 A 
BRANCH  99 103
ATOM    103  S   UNL     1      -6.090   7.571 -17.366  1.00  0.00     0.124 S 
ATOM    104  O   UNL     1      -4.726   7.678 -16.858  1.00  0.00    -0.237 OA
ATOM    105  O   UNL     1      -6.731   6.271 -17.202  1.00  0.00    -0.237 OA
ATOM    106  O   UNL     1      -6.323   8.218 -18.656  1.00  0.00    -0.744 OA
ENDBRANCH  99 103
ENDBRANCH  73  96
ENDBRANCH  47  48
ENDBRANCH  39  42
ENDBRANCH  37  38
ENDBRANCH  36  37
ENDBRANCH  35  36
ENDBRANCH   3  35
TORSDOF 24
