REMARK SMILES O=C(Cc1ccc(NC(=O)C2CCCC2)cc1)NCCCNC(=O)c1ccc(-c2c3nc(c(-c4cc(S(=O)(=O)[O-])ccc4F)c4ccc([nH]4)c(-c4cc(S(=O)(=O)[O-])ccc4F)c4nc(c(-c5cc(S(=O)(=O)[O-])ccc5F)c5ccc2[nH]5)C=C4)C=C3)cc1
REMARK SMILES IDX 20 1 19 2 18 3 1 4 2 5 3 7 4 8 5 9 17 10 6 11 16 12 7 13
REMARK SMILES IDX 8 14 9 15 10 17 11 18 12 19 15 20 13 21 14 22 21 23 22 24
REMARK SMILES IDX 23 25 24 27 25 28 26 29 87 30 27 31 86 32 28 33 29 34 30 35
REMARK SMILES IDX 80 36 31 37 85 38 79 39 81 40 32 41 84 42 78 43 77 44 33 46
REMARK SMILES IDX 65 47 45 48 64 49 46 50 49 51 63 52 82 53 47 54 48 55 62 57
REMARK SMILES IDX 83 58 50 59 34 60 35 61 43 62 36 63 42 64 44 65 41 66 37 67
REMARK SMILES IDX 38 68 39 69 40 70 66 71 67 72 75 73 68 74 74 75 76 76 73 77
REMARK SMILES IDX 69 78 70 79 71 80 72 81 51 82 52 83 60 84 53 85 59 86 61 87
REMARK SMILES IDX 58 88 54 89 55 90 56 91 57 92
REMARK H PARENT 18 6 8 16 22 26 81 45 49 56
REMARK Flexibility Score: inf
ROOT
ATOM      1  C   UNL     1       2.466  -2.975   1.533  1.00  0.00     0.042 C 
ENDROOT
BRANCH   1   2
ATOM      2  C   UNL     1       2.124  -1.496   1.688  1.00  0.00     0.117 C 
BRANCH   2   3
ATOM      3  N   UNL     1       2.705  -0.679   0.639  1.00  0.00    -0.356 N 
ATOM      4  O   UNL     1       0.750   0.297  -0.082  1.00  0.00    -0.275 OA
ATOM      5  C   UNL     1       1.969   0.178  -0.158  1.00  0.00     0.224 C 
ATOM      6  H   UNL     1       3.676  -0.738   0.486  1.00  0.00     0.163 HD
BRANCH   5   7
ATOM      7  C   UNL     1       2.796   0.963  -1.174  1.00  0.00     0.135 C 
BRANCH   7   8
ATOM      8  C   UNL     1       3.700   1.974  -0.511  1.00  0.00    -0.039 A 
ATOM      9  C   UNL     1       4.974   1.599  -0.081  1.00  0.00     0.006 A 
ATOM     10  C   UNL     1       3.253   3.269  -0.228  1.00  0.00     0.006 A 
ATOM     11  C   UNL     1       5.721   2.449   0.733  1.00  0.00     0.026 A 
ATOM     12  C   UNL     1       4.019   4.121   0.576  1.00  0.00     0.026 A 
ATOM     13  C   UNL     1       5.216   3.673   1.145  1.00  0.00     0.041 A 
BRANCH  13  14
ATOM     14  N   UNL     1       5.820   4.495   2.107  1.00  0.00    -0.326 N 
ATOM     15  C   UNL     1       6.630   4.277   3.179  1.00  0.00     0.227 C 
ATOM     16  H   UNL     1       5.611   5.448   1.976  1.00  0.00     0.169 HD
ATOM     17  O   UNL     1       7.024   5.298   3.765  1.00  0.00    -0.274 OA
BRANCH  15  18
ATOM     18  C   UNL     1       7.052   2.917   3.739  1.00  0.00     0.079 C 
ATOM     19  C   UNL     1       5.977   1.846   3.880  1.00  0.00     0.013 C 
ATOM     20  C   UNL     1       8.253   2.300   3.034  1.00  0.00     0.013 C 
ATOM     21  C   UNL     1       6.645   0.513   3.572  1.00  0.00     0.001 C 
ATOM     22  C   UNL     1       7.993   0.802   2.925  1.00  0.00     0.001 C 
ENDBRANCH  15  18
ENDBRANCH  13  14
ENDBRANCH   7   8
ENDBRANCH   5   7
ENDBRANCH   2   3
ENDBRANCH   1   2
BRANCH   1  23
ATOM     23  C   UNL     1       3.952  -3.315   1.653  1.00  0.00     0.118 C 
BRANCH  23  24
ATOM     24  N   UNL     1       4.494  -3.092   2.986  1.00  0.00    -0.352 N 
ATOM     25  C   UNL     1       5.128  -3.959   3.846  1.00  0.00     0.251 C 
ATOM     26  H   UNL     1       4.389  -2.175   3.327  1.00  0.00     0.163 HD
ATOM     27  O   UNL     1       5.388  -3.578   4.987  1.00  0.00    -0.269 OA
BRANCH  25  28
ATOM     28  C   UNL     1       5.465  -5.343   3.436  1.00  0.00     0.039 A 
ATOM     29  C   UNL     1       5.218  -6.388   4.333  1.00  0.00     0.014 A 
ATOM     30  C   UNL     1       6.032  -5.624   2.190  1.00  0.00     0.014 A 
ATOM     31  C   UNL     1       5.451  -7.713   3.948  1.00  0.00     0.010 A 
ATOM     32  C   UNL     1       6.201  -6.950   1.782  1.00  0.00     0.010 A 
ATOM     33  C   UNL     1       5.894  -8.011   2.649  1.00  0.00    -0.014 A 
BRANCH  33  34
ATOM     34  C   UNL     1       5.991  -9.418   2.168  1.00  0.00     0.031 A 
ATOM     35  C   UNL     1       7.316 -10.003   1.760  1.00  0.00     0.074 A 
ATOM     36  C   UNL     1       4.867 -10.151   2.032  1.00  0.00     0.049 A 
ATOM     37  N   UNL     1       7.578 -11.170   1.228  1.00  0.00    -0.248 NA
ATOM     38  C   UNL     1       8.499  -9.154   1.958  1.00  0.00     0.031 C 
ATOM     39  C   UNL     1       3.517  -9.694   2.370  1.00  0.00     0.029 A 
ATOM     40  N   UNL     1       4.672 -11.428   1.564  1.00  0.00    -0.354 N 
ATOM     41  C   UNL     1       8.953 -11.197   1.020  1.00  0.00     0.074 A 
ATOM     42  C   UNL     1       9.459  -9.904   1.435  1.00  0.00     0.031 C 
ATOM     43  C   UNL     1       2.641 -10.678   2.118  1.00  0.00     0.029 A 
ATOM     44  C   UNL     1       3.352 -11.816   1.543  1.00  0.00     0.049 A 
ATOM     45  H   UNL     1       5.409 -12.011   1.270  1.00  0.00     0.167 HD
ATOM     46  C   UNL     1       9.721 -12.209   0.543  1.00  0.00     0.034 A 
ATOM     47  C   UNL     1       2.771 -12.946   1.091  1.00  0.00     0.034 A 
ATOM     48  C   UNL     1       9.202 -13.492   0.132  1.00  0.00     0.049 A 
ATOM     49  C   UNL     1       3.640 -14.030   0.504  1.00  0.00     0.074 A 
ATOM     50  C   UNL     1       9.901 -14.601  -0.316  1.00  0.00     0.029 A 
ATOM     51  N   UNL     1       7.856 -13.838   0.100  1.00  0.00    -0.354 N 
ATOM     52  N   UNL     1       4.945 -14.055   0.358  1.00  0.00    -0.248 NA
ATOM     53  C   UNL     1       2.958 -15.239   0.025  1.00  0.00     0.031 C 
ATOM     54  C   UNL     1       8.979 -15.580  -0.697  1.00  0.00     0.029 A 
ATOM     55  C   UNL     1       7.705 -15.123  -0.404  1.00  0.00     0.049 A 
ATOM     56  H   UNL     1       7.118 -13.256   0.391  1.00  0.00     0.167 HD
ATOM     57  C   UNL     1       5.239 -15.294  -0.205  1.00  0.00     0.074 A 
ATOM     58  C   UNL     1       3.979 -15.994  -0.351  1.00  0.00     0.031 C 
ATOM     59  C   UNL     1       6.443 -15.808  -0.566  1.00  0.00     0.034 A 
BRANCH  46  60
ATOM     60  C   UNL     1      11.206 -11.955   0.409  1.00  0.00     0.023 A 
ATOM     61  C   UNL     1      12.013 -11.677   1.526  1.00  0.00     0.031 A 
ATOM     62  C   UNL     1      11.822 -11.982  -0.855  1.00  0.00     0.131 A 
ATOM     63  C   UNL     1      13.370 -11.365   1.351  1.00  0.00     0.055 A 
ATOM     64  C   UNL     1      13.191 -11.755  -1.013  1.00  0.00     0.041 A 
ATOM     65  F   UNL     1      11.102 -12.221  -1.962  1.00  0.00    -0.206 F 
ATOM     66  C   UNL     1      13.971 -11.429   0.092  1.00  0.00     0.022 A 
BRANCH  63  67
ATOM     67  S   UNL     1      14.302 -10.728   2.770  1.00  0.00     0.124 S 
ATOM     68  O   UNL     1      13.511  -9.556   3.139  1.00  0.00    -0.237 OA
ATOM     69  O   UNL     1      14.259 -11.847   3.704  1.00  0.00    -0.237 OA
ATOM     70  O   UNL     1      15.618 -10.430   2.210  1.00  0.00    -0.744 OA
ENDBRANCH  63  67
ENDBRANCH  46  60
BRANCH  47  71
ATOM     71  C   UNL     1       1.287 -13.106   1.138  1.00  0.00     0.023 A 
ATOM     72  C   UNL     1       0.693 -14.125   1.900  1.00  0.00     0.031 A 
ATOM     73  C   UNL     1       0.443 -12.275   0.380  1.00  0.00     0.131 A 
ATOM     74  C   UNL     1      -0.696 -14.319   1.848  1.00  0.00     0.055 A 
ATOM     75  C   UNL     1      -0.944 -12.432   0.380  1.00  0.00     0.041 A 
ATOM     76  F   UNL     1       0.957 -11.286  -0.369  1.00  0.00    -0.206 F 
ATOM     77  C   UNL     1      -1.520 -13.469   1.107  1.00  0.00     0.022 A 
BRANCH  74  78
ATOM     78  S   UNL     1      -1.403 -15.764   2.686  1.00  0.00     0.124 S 
ATOM     79  O   UNL     1      -0.688 -16.859   2.041  1.00  0.00    -0.237 OA
ATOM     80  O   UNL     1      -1.058 -15.504   4.080  1.00  0.00    -0.237 OA
ATOM     81  O   UNL     1      -2.827 -15.676   2.372  1.00  0.00    -0.744 OA
ENDBRANCH  74  78
ENDBRANCH  47  71
BRANCH  59  82
ATOM     82  C   UNL     1       6.452 -17.212  -1.125  1.00  0.00     0.023 A 
ATOM     83  C   UNL     1       5.835 -17.526  -2.349  1.00  0.00     0.031 A 
ATOM     84  C   UNL     1       7.076 -18.254  -0.415  1.00  0.00     0.131 A 
ATOM     85  C   UNL     1       5.803 -18.856  -2.796  1.00  0.00     0.055 A 
ATOM     86  C   UNL     1       7.101 -19.563  -0.899  1.00  0.00     0.041 A 
ATOM     87  F   UNL     1       7.677 -18.016   0.762  1.00  0.00    -0.206 F 
ATOM     88  C   UNL     1       6.449 -19.873  -2.089  1.00  0.00     0.022 A 
BRANCH  85  89
ATOM     89  S   UNL     1       4.818 -19.258  -4.266  1.00  0.00     0.124 S 
ATOM     90  O   UNL     1       3.486 -18.814  -3.867  1.00  0.00    -0.237 OA
ATOM     91  O   UNL     1       5.469 -18.467  -5.304  1.00  0.00    -0.237 OA
ATOM     92  O   UNL     1       4.975 -20.705  -4.399  1.00  0.00    -0.744 OA
ENDBRANCH  85  89
ENDBRANCH  59  82
ENDBRANCH  33  34
ENDBRANCH  25  28
ENDBRANCH  23  24
ENDBRANCH   1  23
TORSDOF 16
