REMARK SMILES O=C(NCCCNC(=O)c1cc(NC(=O)c2cc([N+](=O)[O-])ccc2N2CCCC2)ccc1Cl)c1ccc(-c2c3nc(c(-c4cc(S(=O)(=O)[O-])ccc4F)c4ccc([nH]4)c(-c4cc(S(=O)(=O)[O-])ccc4F)c4nc(c(-c5cc(S(=O)(=O)[O-])ccc5F)c5ccc2[nH]5)C=C4)C=C3)cc1
REMARK SMILES IDX 5 1 4 2 3 3 1 4 2 5 34 7 35 8 96 9 36 10 95 11 37 12 38 13
REMARK SMILES IDX 39 14 89 15 40 16 94 17 88 18 90 19 41 20 93 21 87 22 86 23
REMARK SMILES IDX 42 25 74 26 54 27 73 28 55 29 58 30 72 31 91 32 56 33 57 34
REMARK SMILES IDX 71 36 92 37 59 38 43 39 44 40 52 41 45 42 51 43 53 44 50 45
REMARK SMILES IDX 46 46 47 47 48 48 49 49 75 50 76 51 84 52 77 53 83 54 85 55
REMARK SMILES IDX 82 56 78 57 79 58 80 59 81 60 60 61 61 62 69 63 62 64 68 65
REMARK SMILES IDX 70 66 67 67 63 68 64 69 65 70 66 71 6 72 7 73 8 74 9 76
REMARK SMILES IDX 10 77 11 78 32 79 12 80 31 81 33 82 30 83 13 84 14 85 15 87
REMARK SMILES IDX 16 88 17 89 24 90 18 91 23 92 22 93 25 94 26 95 29 96 27 97
REMARK SMILES IDX 28 98 19 99 20 100 21 101
REMARK H PARENT 3 6 90 24 58 35 7 75 13 86
REMARK Flexibility Score: inf
ROOT
ATOM      1  C   UNL     1       4.574  -1.136  -2.394  1.00  0.00     0.042 C 
ENDROOT
BRANCH   1   2
ATOM      2  C   UNL     1       4.266   0.154  -1.656  1.00  0.00     0.118 C 
BRANCH   2   3
ATOM      3  N   UNL     1       2.866   0.271  -1.291  1.00  0.00    -0.352 N 
ATOM      4  O   UNL     1       1.024   0.099  -0.020  1.00  0.00    -0.269 OA
ATOM      5  C   UNL     1       2.256   0.164  -0.064  1.00  0.00     0.251 C 
ATOM      6  H   UNL     1       2.256   0.455  -2.042  1.00  0.00     0.163 HD
BRANCH   5   7
ATOM      7  C   UNL     1       3.039   0.108   1.196  1.00  0.00     0.039 A 
ATOM      8  C   UNL     1       4.170   0.903   1.391  1.00  0.00     0.014 A 
ATOM      9  C   UNL     1       2.590  -0.710   2.240  1.00  0.00     0.014 A 
ATOM     10  C   UNL     1       4.923   0.777   2.558  1.00  0.00     0.010 A 
ATOM     11  C   UNL     1       3.292  -0.759   3.452  1.00  0.00     0.010 A 
ATOM     12  C   UNL     1       4.479  -0.031   3.616  1.00  0.00    -0.014 A 
BRANCH  12  13
ATOM     13  C   UNL     1       5.226  -0.028   4.906  1.00  0.00     0.031 A 
ATOM     14  C   UNL     1       5.867  -1.279   5.443  1.00  0.00     0.074 A 
ATOM     15  C   UNL     1       5.336   1.129   5.591  1.00  0.00     0.049 A 
ATOM     16  N   UNL     1       6.552  -1.447   6.547  1.00  0.00    -0.248 NA
ATOM     17  C   UNL     1       5.713  -2.502   4.643  1.00  0.00     0.031 C 
ATOM     18  C   UNL     1       4.749   2.407   5.179  1.00  0.00     0.029 A 
ATOM     19  N   UNL     1       5.983   1.429   6.764  1.00  0.00    -0.354 N 
ATOM     20  C   UNL     1       6.902  -2.793   6.583  1.00  0.00     0.074 A 
ATOM     21  C   UNL     1       6.317  -3.403   5.406  1.00  0.00     0.031 C 
ATOM     22  C   UNL     1       5.101   3.358   6.055  1.00  0.00     0.029 A 
ATOM     23  C   UNL     1       5.868   2.749   7.135  1.00  0.00     0.049 A 
ATOM     24  H   UNL     1       6.481   0.762   7.290  1.00  0.00     0.167 HD
ATOM     25  C   UNL     1       7.647  -3.453   7.507  1.00  0.00     0.034 A 
ATOM     26  C   UNL     1       6.302   3.398   8.233  1.00  0.00     0.034 A 
ATOM     27  C   UNL     1       8.215  -2.829   8.681  1.00  0.00     0.049 A 
ATOM     28  C   UNL     1       7.074   2.629   9.272  1.00  0.00     0.074 A 
ATOM     29  C   UNL     1       9.012  -3.400   9.659  1.00  0.00     0.029 A 
ATOM     30  N   UNL     1       8.035  -1.500   9.048  1.00  0.00    -0.354 N 
ATOM     31  N   UNL     1       7.419   1.362   9.274  1.00  0.00    -0.248 NA
ATOM     32  C   UNL     1       7.518   3.377  10.454  1.00  0.00     0.031 C 
ATOM     33  C   UNL     1       9.243  -2.445  10.655  1.00  0.00     0.029 A 
ATOM     34  C   UNL     1       8.671  -1.247  10.256  1.00  0.00     0.049 A 
ATOM     35  H   UNL     1       7.530  -0.835   8.527  1.00  0.00     0.167 HD
ATOM     36  C   UNL     1       8.143   1.170  10.447  1.00  0.00     0.074 A 
ATOM     37  C   UNL     1       8.202   2.454  11.113  1.00  0.00     0.031 C 
ATOM     38  C   UNL     1       8.711   0.033  10.925  1.00  0.00     0.034 A 
BRANCH  25  39
ATOM     39  C   UNL     1       7.851  -4.939   7.310  1.00  0.00     0.023 A 
ATOM     40  C   UNL     1       8.541  -5.452   6.197  1.00  0.00     0.031 A 
ATOM     41  C   UNL     1       7.342  -5.857   8.246  1.00  0.00     0.131 A 
ATOM     42  C   UNL     1       8.640  -6.841   6.012  1.00  0.00     0.055 A 
ATOM     43  C   UNL     1       7.517  -7.235   8.099  1.00  0.00     0.041 A 
ATOM     44  F   UNL     1       6.656  -5.431   9.318  1.00  0.00    -0.206 F 
ATOM     45  C   UNL     1       8.156  -7.735   6.969  1.00  0.00     0.022 A 
BRANCH  42  46
ATOM     46  S   UNL     1       9.279  -7.460   4.431  1.00  0.00     0.124 S 
ATOM     47  O   UNL     1       8.369  -6.832   3.475  1.00  0.00    -0.237 OA
ATOM     48  O   UNL     1      10.649  -6.963   4.427  1.00  0.00    -0.237 OA
ATOM     49  O   UNL     1       9.140  -8.911   4.548  1.00  0.00    -0.744 OA
ENDBRANCH  42  46
ENDBRANCH  25  39
BRANCH  26  50
ATOM     50  C   UNL     1       5.984   4.842   8.427  1.00  0.00     0.023 A 
ATOM     51  C   UNL     1       7.000   5.807   8.502  1.00  0.00     0.031 A 
ATOM     52  C   UNL     1       4.653   5.274   8.574  1.00  0.00     0.131 A 
ATOM     53  C   UNL     1       6.672   7.147   8.761  1.00  0.00     0.055 A 
ATOM     54  C   UNL     1       4.328   6.617   8.768  1.00  0.00     0.041 A 
ATOM     55  F   UNL     1       3.642   4.393   8.510  1.00  0.00    -0.206 F 
ATOM     56  C   UNL     1       5.343   7.561   8.877  1.00  0.00     0.022 A 
BRANCH  53  57
ATOM     57  S   UNL     1       8.018   8.331   9.038  1.00  0.00     0.124 S 
ATOM     58  O   UNL     1       8.722   7.722  10.160  1.00  0.00    -0.237 OA
ATOM     59  O   UNL     1       8.712   8.305   7.754  1.00  0.00    -0.237 OA
ATOM     60  O   UNL     1       7.317   9.577   9.341  1.00  0.00    -0.744 OA
ENDBRANCH  53  57
ENDBRANCH  26  50
BRANCH  38  61
ATOM     61  C   UNL     1       9.486   0.147  12.217  1.00  0.00     0.023 A 
ATOM     62  C   UNL     1       8.858   0.468  13.434  1.00  0.00     0.031 A 
ATOM     63  C   UNL     1      10.879  -0.049  12.225  1.00  0.00     0.131 A 
ATOM     64  C   UNL     1       9.630   0.645  14.594  1.00  0.00     0.055 A 
ATOM     65  C   UNL     1      11.631   0.060  13.396  1.00  0.00     0.041 A 
ATOM     66  F   UNL     1      11.533  -0.352  11.092  1.00  0.00    -0.206 F 
ATOM     67  C   UNL     1      11.009   0.424  14.586  1.00  0.00     0.022 A 
BRANCH  64  68
ATOM     68  S   UNL     1       8.820   1.271  16.092  1.00  0.00     0.124 S 
ATOM     69  O   UNL     1       8.268   2.540  15.629  1.00  0.00    -0.237 OA
ATOM     70  O   UNL     1       7.849   0.222  16.384  1.00  0.00    -0.237 OA
ATOM     71  O   UNL     1       9.917   1.385  17.052  1.00  0.00    -0.744 OA
ENDBRANCH  64  68
ENDBRANCH  38  61
ENDBRANCH  12  13
ENDBRANCH   5   7
ENDBRANCH   2   3
ENDBRANCH   1   2
BRANCH   1  72
ATOM     72  C   UNL     1       4.119  -1.212  -3.850  1.00  0.00     0.118 C 
BRANCH  72  73
ATOM     73  N   UNL     1       4.624  -0.152  -4.718  1.00  0.00    -0.352 N 
ATOM     74  C   UNL     1       5.201  -0.206  -5.969  1.00  0.00     0.252 C 
ATOM     75  H   UNL     1       4.538   0.755  -4.347  1.00  0.00     0.163 HD
ATOM     76  O   UNL     1       5.470   0.842  -6.555  1.00  0.00    -0.269 OA
BRANCH  74  77
ATOM     77  C   UNL     1       5.637  -1.486  -6.569  1.00  0.00     0.060 A 
ATOM     78  C   UNL     1       7.013  -1.585  -6.857  1.00  0.00     0.041 A 
ATOM     79  C   UNL     1       4.800  -2.569  -6.820  1.00  0.00     0.053 A 
ATOM     80  C   UNL     1       7.595  -2.807  -7.189  1.00  0.00     0.042 A 
ATOM     81  C   UNL     1       5.362  -3.786  -7.211  1.00  0.00     0.023 A 
ATOM     82  Cl  UNL     1       3.079  -2.468  -6.733  1.00  0.00    -0.083 Cl
ATOM     83  C   UNL     1       6.749  -3.907  -7.373  1.00  0.00     0.028 A 
BRANCH  80  84
ATOM     84  N   UNL     1       8.978  -3.039  -7.330  1.00  0.00    -0.322 N 
ATOM     85  C   UNL     1      10.105  -2.319  -6.984  1.00  0.00     0.258 C 
ATOM     86  H   UNL     1       9.185  -3.896  -7.769  1.00  0.00     0.170 HD
ATOM     87  O   UNL     1      11.210  -2.725  -7.351  1.00  0.00    -0.269 OA
BRANCH  85  88
ATOM     88  C   UNL     1      10.055  -1.070  -6.196  1.00  0.00     0.070 A 
ATOM     89  C   UNL     1      10.581   0.063  -6.840  1.00  0.00     0.101 A 
ATOM     90  C   UNL     1       9.436  -0.990  -4.928  1.00  0.00     0.050 A 
ATOM     91  C   UNL     1      10.395   1.321  -6.270  1.00  0.00     0.270 A 
ATOM     92  C   UNL     1       9.220   0.304  -4.418  1.00  0.00     0.034 A 
ATOM     93  C   UNL     1       9.681   1.452  -5.077  1.00  0.00     0.088 A 
BRANCH  90  94
ATOM     94  N   UNL     1       8.990  -2.091  -4.245  1.00  0.00    -0.371 N 
ATOM     95  C   UNL     1       9.790  -3.264  -3.930  1.00  0.00     0.116 C 
ATOM     96  C   UNL     1       7.750  -2.138  -3.501  1.00  0.00     0.116 C 
ATOM     97  C   UNL     1       8.724  -4.349  -3.818  1.00  0.00     0.023 C 
ATOM     98  C   UNL     1       7.486  -3.629  -3.288  1.00  0.00     0.023 C 
ENDBRANCH  90  94
BRANCH  91  99
ATOM     99  N   UNL     1      10.924   2.512  -6.945  1.00  0.00     0.062 N 
ATOM    100  O   UNL     1      11.598   2.341  -7.971  1.00  0.00    -0.258 OA
ATOM    101  O   UNL     1      10.667   3.619  -6.452  1.00  0.00    -0.258 OA
ENDBRANCH  91  99
ENDBRANCH  85  88
ENDBRANCH  80  84
ENDBRANCH  74  77
ENDBRANCH  72  73
ENDBRANCH   1  72
TORSDOF 17
