REMARK SMILES Cc1ccc(OCC(=O)NNC(=O)[C@H]2CCCC[C@@H]2C(=O)NCCCNC(=O)c2ccc(-c3c4nc(c(-c5cc(S(=O)(=O)[O-])ccc5F)c5ccc([nH]5)c(-c5cc(S(=O)(=O)[O-])ccc5F)c5nc(c(-c6cc(S(=O)(=O)[O-])ccc6F)c6ccc3[nH]6)C=C5)C=C4)cc2)cc1
REMARK SMILES IDX 23 1 22 2 20 3 21 4 19 6 14 7 15 8 16 9 18 10 17 11 12 12
REMARK SMILES IDX 11 13 13 15 10 16 8 17 9 18 7 20 6 21 5 22 1 23 2 24 3 25
REMARK SMILES IDX 93 26 4 27 92 28 24 29 25 30 26 31 27 32 28 34 29 35 30 36
REMARK SMILES IDX 91 37 31 38 90 39 32 40 33 41 34 42 84 43 35 44 89 45 83 46
REMARK SMILES IDX 85 47 36 48 88 49 82 50 81 51 37 53 69 54 49 55 68 56 50 57
REMARK SMILES IDX 53 58 67 59 86 60 51 61 52 62 66 64 87 65 54 66 38 67 39 68
REMARK SMILES IDX 47 69 40 70 46 71 48 72 45 73 41 74 42 75 43 76 44 77 70 78
REMARK SMILES IDX 71 79 79 80 72 81 78 82 80 83 77 84 73 85 74 86 75 87 76 88
REMARK SMILES IDX 55 89 56 90 64 91 57 92 63 93 65 94 62 95 58 96 59 97 60 98
REMARK SMILES IDX 61 99
REMARK H PARENT 22 5 11 14 10 19 26 33 85 52 53 63
REMARK Flexibility Score: inf
ROOT
ATOM      1  C   UNL     1      -6.862   3.665   5.904  1.00  0.00     0.117 C 
ENDROOT
BRANCH   1   2
ATOM      2  N   UNL     1      -6.269   3.090   4.704  1.00  0.00    -0.356 N 
ATOM      3  C   UNL     1      -5.194   2.318   4.453  1.00  0.00     0.223 C 
ATOM      4  O   UNL     1      -5.017   1.992   3.267  1.00  0.00    -0.275 OA
ATOM      5  H   UNL     1      -6.770   3.317   3.887  1.00  0.00     0.163 HD
BRANCH   3   6
ATOM      6  C   UNL     1      -4.168   1.809   5.471  1.00  0.00     0.091 C 
ATOM      7  C   UNL     1      -4.145   0.265   5.396  1.00  0.00     0.092 C 
ATOM      8  C   UNL     1      -5.173  -0.332   6.367  1.00  0.00     0.014 C 
ATOM      9  C   UNL     1      -4.959   0.101   7.813  1.00  0.00     0.001 C 
ATOM     10  C   UNL     1      -4.049   2.325   6.902  1.00  0.00     0.014 C 
ATOM     11  C   UNL     1      -4.853   1.607   7.984  1.00  0.00     0.001 C 
BRANCH   7  12
ATOM     12  C   UNL     1      -2.739  -0.302   5.612  1.00  0.00     0.242 C 
ATOM     13  N   UNL     1      -1.747  -0.040   4.705  1.00  0.00    -0.267 N 
ATOM     14  H   UNL     1      -0.844  -0.367   4.925  1.00  0.00     0.191 HD
ATOM     15  O   UNL     1      -2.441  -1.022   6.568  1.00  0.00    -0.273 OA
BRANCH  13  16
ATOM     16  N   UNL     1      -1.893   0.645   3.505  1.00  0.00    -0.265 N 
ATOM     17  C   UNL     1      -0.834   1.225   2.842  1.00  0.00     0.276 C 
ATOM     18  O   UNL     1      -0.986   1.715   1.722  1.00  0.00    -0.269 OA
ATOM     19  H   UNL     1      -2.792   0.718   3.111  1.00  0.00     0.191 HD
BRANCH  17  20
ATOM     20  C   UNL     1       0.551   1.193   3.504  1.00  0.00     0.331 C 
BRANCH  20  21
ATOM     21  O   UNL     1       0.645   1.794   4.786  1.00  0.00    -0.484 OA
BRANCH  21  22
ATOM     22  C   UNL     1       0.651   3.162   4.849  1.00  0.00     0.120 A 
ATOM     23  C   UNL     1       0.662   7.433   5.493  1.00  0.00     0.044 C 
ATOM     24  C   UNL     1       0.664   5.951   5.267  1.00  0.00    -0.051 A 
ATOM     25  C   UNL     1       0.798   5.072   6.346  1.00  0.00     0.007 A 
ATOM     26  C   UNL     1       0.536   5.422   3.979  1.00  0.00     0.007 A 
ATOM     27  C   UNL     1       0.787   3.689   6.136  1.00  0.00     0.047 A 
ATOM     28  C   UNL     1       0.530   4.038   3.772  1.00  0.00     0.047 A 
ENDBRANCH  21  22
ENDBRANCH  20  21
ENDBRANCH  17  20
ENDBRANCH  13  16
ENDBRANCH   7  12
ENDBRANCH   3   6
ENDBRANCH   1   2
BRANCH   1  29
ATOM     29  C   UNL     1      -6.210   4.995   6.284  1.00  0.00     0.042 C 
BRANCH  29  30
ATOM     30  C   UNL     1      -7.200   6.150   6.292  1.00  0.00     0.118 C 
BRANCH  30  31
ATOM     31  N   UNL     1      -7.796   6.462   7.589  1.00  0.00    -0.352 N 
ATOM     32  C   UNL     1      -8.800   7.380   7.868  1.00  0.00     0.251 C 
ATOM     33  H   UNL     1      -7.442   5.961   8.359  1.00  0.00     0.163 HD
ATOM     34  O   UNL     1      -9.166   7.618   9.009  1.00  0.00    -0.269 OA
BRANCH  32  35
ATOM     35  C   UNL     1      -9.515   7.983   6.718  1.00  0.00     0.039 A 
ATOM     36  C   UNL     1     -10.874   7.681   6.585  1.00  0.00     0.014 A 
ATOM     37  C   UNL     1      -8.787   8.493   5.648  1.00  0.00     0.014 A 
ATOM     38  C   UNL     1     -11.433   7.633   5.312  1.00  0.00     0.010 A 
ATOM     39  C   UNL     1      -9.304   8.324   4.379  1.00  0.00     0.010 A 
ATOM     40  C   UNL     1     -10.604   7.830   4.207  1.00  0.00    -0.014 A 
BRANCH  40  41
ATOM     41  C   UNL     1     -10.965   7.407   2.856  1.00  0.00     0.031 A 
ATOM     42  C   UNL     1     -11.175   8.404   1.788  1.00  0.00     0.074 A 
ATOM     43  C   UNL     1     -11.061   6.093   2.547  1.00  0.00     0.049 A 
ATOM     44  N   UNL     1     -11.904   8.198   0.744  1.00  0.00    -0.248 NA
ATOM     45  C   UNL     1     -10.593   9.742   1.831  1.00  0.00     0.031 C 
ATOM     46  C   UNL     1     -11.186   5.499   1.217  1.00  0.00     0.029 A 
ATOM     47  N   UNL     1     -11.319   5.037   3.421  1.00  0.00    -0.354 N 
ATOM     48  C   UNL     1     -11.677   9.230  -0.129  1.00  0.00     0.074 A 
ATOM     49  C   UNL     1     -10.884  10.188   0.607  1.00  0.00     0.031 C 
ATOM     50  C   UNL     1     -11.767   4.296   1.334  1.00  0.00     0.029 A 
ATOM     51  C   UNL     1     -12.143   4.126   2.724  1.00  0.00     0.049 A 
ATOM     52  H   UNL     1     -10.991   4.944   4.344  1.00  0.00     0.167 HD
ATOM     53  C   UNL     1     -12.082   9.132  -1.424  1.00  0.00     0.034 A 
ATOM     54  C   UNL     1     -13.393   3.833   3.188  1.00  0.00     0.034 A 
ATOM     55  C   UNL     1     -12.783   7.884  -1.700  1.00  0.00     0.049 A 
ATOM     56  C   UNL     1     -14.511   4.273   2.258  1.00  0.00     0.074 A 
ATOM     57  C   UNL     1     -12.445   6.681  -2.298  1.00  0.00     0.029 A 
ATOM     58  N   UNL     1     -13.992   7.662  -1.065  1.00  0.00    -0.354 N 
ATOM     59  N   UNL     1     -14.332   4.827   1.088  1.00  0.00    -0.248 NA
ATOM     60  C   UNL     1     -15.927   4.204   2.623  1.00  0.00     0.031 C 
ATOM     61  C   UNL     1     -13.462   5.728  -1.984  1.00  0.00     0.029 A 
ATOM     62  C   UNL     1     -14.426   6.360  -1.222  1.00  0.00     0.049 A 
ATOM     63  H   UNL     1     -14.484   8.350  -0.562  1.00  0.00     0.167 HD
ATOM     64  C   UNL     1     -15.540   5.252   0.592  1.00  0.00     0.074 A 
ATOM     65  C   UNL     1     -16.510   4.829   1.587  1.00  0.00     0.031 C 
ATOM     66  C   UNL     1     -15.664   5.966  -0.567  1.00  0.00     0.034 A 
BRANCH  53  67
ATOM     67  C   UNL     1     -11.614  10.100  -2.473  1.00  0.00     0.023 A 
ATOM     68  C   UNL     1     -11.290   9.633  -3.759  1.00  0.00     0.031 A 
ATOM     69  C   UNL     1     -11.433  11.479  -2.249  1.00  0.00     0.131 A 
ATOM     70  C   UNL     1     -10.721  10.491  -4.716  1.00  0.00     0.055 A 
ATOM     71  C   UNL     1     -10.800  12.316  -3.173  1.00  0.00     0.041 A 
ATOM     72  F   UNL     1     -11.884  12.067  -1.129  1.00  0.00    -0.206 F 
ATOM     73  C   UNL     1     -10.427  11.819  -4.413  1.00  0.00     0.022 A 
BRANCH  70  74
ATOM     74  S   UNL     1     -10.384   9.848  -6.377  1.00  0.00     0.124 S 
ATOM     75  O   UNL     1      -9.500   8.721  -6.102  1.00  0.00    -0.237 OA
ATOM     76  O   UNL     1     -11.723   9.517  -6.853  1.00  0.00    -0.237 OA
ATOM     77  O   UNL     1      -9.751  10.978  -7.055  1.00  0.00    -0.744 OA
ENDBRANCH  70  74
ENDBRANCH  53  67
BRANCH  54  78
ATOM     78  C   UNL     1     -13.434   3.784   4.682  1.00  0.00     0.023 A 
ATOM     79  C   UNL     1     -12.526   2.896   5.307  1.00  0.00     0.031 A 
ATOM     80  C   UNL     1     -13.973   4.818   5.456  1.00  0.00     0.131 A 
ATOM     81  C   UNL     1     -12.029   3.178   6.586  1.00  0.00     0.055 A 
ATOM     82  C   UNL     1     -13.544   5.038   6.771  1.00  0.00     0.041 A 
ATOM     83  F   UNL     1     -14.810   5.716   4.916  1.00  0.00    -0.206 F 
ATOM     84  C   UNL     1     -12.529   4.253   7.322  1.00  0.00     0.022 A 
BRANCH  81  85
ATOM     85  S   UNL     1     -10.515   2.335   7.147  1.00  0.00     0.124 S 
ATOM     86  O   UNL     1     -11.049   1.262   7.976  1.00  0.00    -0.237 OA
ATOM     87  O   UNL     1      -9.881   1.922   5.897  1.00  0.00    -0.237 OA
ATOM     88  O   UNL     1      -9.785   3.385   7.856  1.00  0.00    -0.744 OA
ENDBRANCH  81  85
ENDBRANCH  54  78
BRANCH  66  89
ATOM     89  C   UNL     1     -16.994   6.394  -1.142  1.00  0.00     0.023 A 
ATOM     90  C   UNL     1     -18.133   5.579  -1.053  1.00  0.00     0.031 A 
ATOM     91  C   UNL     1     -17.151   7.599  -1.865  1.00  0.00     0.131 A 
ATOM     92  C   UNL     1     -19.369   6.005  -1.571  1.00  0.00     0.055 A 
ATOM     93  C   UNL     1     -18.359   7.980  -2.454  1.00  0.00     0.041 A 
ATOM     94  F   UNL     1     -16.149   8.480  -2.002  1.00  0.00    -0.206 F 
ATOM     95  C   UNL     1     -19.485   7.190  -2.293  1.00  0.00     0.022 A 
BRANCH  92  96
ATOM     96  S   UNL     1     -20.843   5.019  -1.202  1.00  0.00     0.124 S 
ATOM     97  O   UNL     1     -20.483   3.704  -1.720  1.00  0.00    -0.237 OA
ATOM     98  O   UNL     1     -20.915   5.132   0.253  1.00  0.00    -0.237 OA
ATOM     99  O   UNL     1     -21.908   5.706  -1.930  1.00  0.00    -0.744 OA
ENDBRANCH  92  96
ENDBRANCH  66  89
ENDBRANCH  40  41
ENDBRANCH  32  35
ENDBRANCH  30  31
ENDBRANCH  29  30
ENDBRANCH   1  29
TORSDOF 18
