REMARK SMILES CC[C@H](C)[C@@H](C)NC(=O)c1ccncc1/C=C/C(=O)NCCCNC(=O)c1ccc(-c2c3nc(c(-c4cc(S(=O)(=O)[O-])ccc4F)c4ccc([nH]4)c(-c4cc(S(=O)(=O)[O-])ccc4F)c4nc(c(-c5cc(S(=O)(=O)[O-])ccc5F)c5ccc2[nH]5)C=C4)C=C3)cc1
REMARK SMILES IDX 21 1 20 2 18 3 19 4 17 6 16 7 15 8 10 9 11 10 12 11 14 12
REMARK SMILES IDX 13 13 8 14 7 15 9 17 5 18 6 19 3 20 4 21 2 22 1 23 22 24
REMARK SMILES IDX 23 25 24 26 25 27 26 29 27 30 28 31 89 32 29 33 88 34 30 35
REMARK SMILES IDX 31 36 32 37 82 38 33 39 87 40 81 41 83 42 34 43 86 44 80 45
REMARK SMILES IDX 79 46 35 48 67 49 47 50 66 51 48 52 51 53 65 54 84 55 49 56
REMARK SMILES IDX 50 57 64 59 85 60 52 61 36 62 37 63 45 64 38 65 44 66 46 67
REMARK SMILES IDX 43 68 39 69 40 70 41 71 42 72 68 73 69 74 77 75 70 76 76 77
REMARK SMILES IDX 78 78 75 79 71 80 72 81 73 82 74 83 53 84 54 85 62 86 55 87
REMARK SMILES IDX 61 88 63 89 60 90 56 91 57 92 58 93 59 94
REMARK H PARENT 20 5 7 16 24 28 83 47 51 58
REMARK Flexibility Score: inf
ROOT
ATOM      1  C   UNL     1       0.106  -1.664   8.413  1.00  0.00     0.118 C 
ENDROOT
BRANCH   1   2
ATOM      2  N   UNL     1      -0.993  -0.818   8.850  1.00  0.00    -0.352 N 
ATOM      3  C   UNL     1      -2.270  -0.733   8.397  1.00  0.00     0.244 C 
ATOM      4  O   UNL     1      -3.079  -0.013   8.976  1.00  0.00    -0.270 OA
ATOM      5  H   UNL     1      -0.777  -0.210   9.594  1.00  0.00     0.163 HD
BRANCH   3   6
ATOM      6  C   UNL     1      -2.737  -1.583   7.278  1.00  0.00     0.072 C 
ATOM      7  C   UNL     1      -2.103  -1.746   6.106  1.00  0.00     0.016 C 
BRANCH   7   8
ATOM      8  C   UNL     1      -2.598  -2.639   5.044  1.00  0.00     0.006 A 
ATOM      9  C   UNL     1      -1.761  -3.473   4.284  1.00  0.00     0.050 A 
ATOM     10  C   UNL     1      -2.301  -4.337   3.325  1.00  0.00     0.034 A 
ATOM     11  C   UNL     1      -3.660  -4.285   3.091  1.00  0.00     0.112 A 
ATOM     12  C   UNL     1      -3.950  -2.670   4.708  1.00  0.00     0.119 A 
ATOM     13  N   UNL     1      -4.497  -3.463   3.753  1.00  0.00    -0.264 NA
BRANCH   9  14
ATOM     14  C   UNL     1      -0.303  -3.528   4.530  1.00  0.00     0.252 C 
ATOM     15  N   UNL     1       0.581  -3.275   3.511  1.00  0.00    -0.349 N 
ATOM     16  H   UNL     1       1.530  -3.338   3.765  1.00  0.00     0.164 HD
ATOM     17  O   UNL     1       0.115  -3.796   5.652  1.00  0.00    -0.269 OA
BRANCH  15  18
ATOM     18  C   UNL     1       0.343  -2.925   2.106  1.00  0.00     0.082 C 
ATOM     19  C   UNL     1       0.904  -4.065   1.248  1.00  0.00     0.031 C 
BRANCH  18  20
ATOM     20  C   UNL     1       0.978  -1.551   1.756  1.00  0.00     0.008 C 
ATOM     21  C   UNL     1       0.812  -1.216   0.267  1.00  0.00     0.010 C 
BRANCH  20  22
ATOM     22  C   UNL     1       0.444  -0.400   2.643  1.00  0.00     0.002 C 
ATOM     23  C   UNL     1      -0.947   0.109   2.286  1.00  0.00     0.004 C 
ENDBRANCH  20  22
ENDBRANCH  18  20
ENDBRANCH  15  18
ENDBRANCH   9  14
ENDBRANCH   7   8
ENDBRANCH   3   6
ENDBRANCH   1   2
BRANCH   1  24
ATOM     24  C   UNL     1       1.156  -0.853   7.661  1.00  0.00     0.042 C 
BRANCH  24  25
ATOM     25  C   UNL     1       2.018  -0.001   8.587  1.00  0.00     0.118 C 
BRANCH  25  26
ATOM     26  N   UNL     1       2.892  -0.816   9.421  1.00  0.00    -0.352 N 
ATOM     27  C   UNL     1       4.262  -0.806   9.523  1.00  0.00     0.251 C 
ATOM     28  H   UNL     1       2.433  -1.471   9.996  1.00  0.00     0.163 HD
ATOM     29  O   UNL     1       4.836  -1.724  10.097  1.00  0.00    -0.269 OA
BRANCH  27  30
ATOM     30  C   UNL     1       5.034   0.305   8.927  1.00  0.00     0.039 A 
ATOM     31  C   UNL     1       6.213   0.022   8.232  1.00  0.00     0.014 A 
ATOM     32  C   UNL     1       4.600   1.625   9.069  1.00  0.00     0.014 A 
ATOM     33  C   UNL     1       6.927   1.061   7.630  1.00  0.00     0.010 A 
ATOM     34  C   UNL     1       5.265   2.645   8.401  1.00  0.00     0.010 A 
ATOM     35  C   UNL     1       6.442   2.377   7.684  1.00  0.00    -0.014 A 
BRANCH  35  36
ATOM     36  C   UNL     1       7.160   3.508   7.044  1.00  0.00     0.031 A 
ATOM     37  C   UNL     1       7.675   4.633   7.900  1.00  0.00     0.074 A 
ATOM     38  C   UNL     1       7.262   3.574   5.703  1.00  0.00     0.049 A 
ATOM     39  N   UNL     1       8.166   5.791   7.545  1.00  0.00    -0.248 NA
ATOM     40  C   UNL     1       7.580   4.437   9.354  1.00  0.00     0.031 C 
ATOM     41  C   UNL     1       6.781   2.554   4.769  1.00  0.00     0.029 A 
ATOM     42  N   UNL     1       7.781   4.551   4.891  1.00  0.00    -0.354 N 
ATOM     43  C   UNL     1       8.414   6.474   8.732  1.00  0.00     0.074 A 
ATOM     44  C   UNL     1       7.950   5.624   9.807  1.00  0.00     0.031 C 
ATOM     45  C   UNL     1       7.035   2.956   3.513  1.00  0.00     0.029 A 
ATOM     46  C   UNL     1       7.641   4.284   3.549  1.00  0.00     0.049 A 
ATOM     47  H   UNL     1       8.213   5.365   5.236  1.00  0.00     0.167 HD
ATOM     48  C   UNL     1       8.995   7.687   8.906  1.00  0.00     0.034 A 
ATOM     49  C   UNL     1       7.938   5.036   2.470  1.00  0.00     0.034 A 
ATOM     50  C   UNL     1       9.452   8.513   7.815  1.00  0.00     0.049 A 
ATOM     51  C   UNL     1       8.545   6.401   2.678  1.00  0.00     0.074 A 
ATOM     52  C   UNL     1      10.093   9.738   7.869  1.00  0.00     0.029 A 
ATOM     53  N   UNL     1       9.306   8.202   6.468  1.00  0.00    -0.354 N 
ATOM     54  N   UNL     1       8.803   7.026   3.805  1.00  0.00    -0.248 NA
ATOM     55  C   UNL     1       8.911   7.157   1.474  1.00  0.00     0.031 C 
ATOM     56  C   UNL     1      10.260  10.203   6.561  1.00  0.00     0.029 A 
ATOM     57  C   UNL     1       9.815   9.226   5.684  1.00  0.00     0.049 A 
ATOM     58  H   UNL     1       8.900   7.375   6.121  1.00  0.00     0.167 HD
ATOM     59  C   UNL     1       9.398   8.232   3.444  1.00  0.00     0.074 A 
ATOM     60  C   UNL     1       9.458   8.246   1.996  1.00  0.00     0.031 C 
ATOM     61  C   UNL     1       9.867   9.228   4.239  1.00  0.00     0.034 A 
BRANCH  48  62
ATOM     62  C   UNL     1       9.124   8.194  10.326  1.00  0.00     0.023 A 
ATOM     63  C   UNL     1       9.839   7.478  11.304  1.00  0.00     0.031 A 
ATOM     64  C   UNL     1       8.468   9.371  10.728  1.00  0.00     0.131 A 
ATOM     65  C   UNL     1       9.786   7.880  12.647  1.00  0.00     0.055 A 
ATOM     66  C   UNL     1       8.508   9.823  12.049  1.00  0.00     0.041 A 
ATOM     67  F   UNL     1       7.751  10.090   9.850  1.00  0.00    -0.206 F 
ATOM     68  C   UNL     1       9.150   9.064  13.023  1.00  0.00     0.022 A 
BRANCH  65  69
ATOM     69  S   UNL     1      10.385   6.727  13.913  1.00  0.00     0.124 S 
ATOM     70  O   UNL     1       9.578   5.540  13.635  1.00  0.00    -0.237 OA
ATOM     71  O   UNL     1      11.805   6.622  13.599  1.00  0.00    -0.237 OA
ATOM     72  O   UNL     1      10.070   7.404  15.169  1.00  0.00    -0.744 OA
ENDBRANCH  65  69
ENDBRANCH  48  62
BRANCH  49  73
ATOM     73  C   UNL     1       7.647   4.522   1.101  1.00  0.00     0.023 A 
ATOM     74  C   UNL     1       8.682   4.228   0.200  1.00  0.00     0.031 A 
ATOM     75  C   UNL     1       6.322   4.319   0.673  1.00  0.00     0.131 A 
ATOM     76  C   UNL     1       8.375   3.777  -1.094  1.00  0.00     0.055 A 
ATOM     77  C   UNL     1       6.024   3.822  -0.597  1.00  0.00     0.041 A 
ATOM     78  F   UNL     1       5.295   4.577   1.498  1.00  0.00    -0.206 F 
ATOM     79  C   UNL     1       7.054   3.557  -1.492  1.00  0.00     0.022 A 
BRANCH  76  80
ATOM     80  S   UNL     1       9.729   3.539  -2.277  1.00  0.00     0.124 S 
ATOM     81  O   UNL     1      10.302   4.879  -2.344  1.00  0.00    -0.237 OA
ATOM     82  O   UNL     1      10.540   2.526  -1.611  1.00  0.00    -0.237 OA
ATOM     83  O   UNL     1       9.046   3.090  -3.489  1.00  0.00    -0.744 OA
ENDBRANCH  76  80
ENDBRANCH  49  73
BRANCH  61  84
ATOM     84  C   UNL     1      10.557  10.390   3.566  1.00  0.00     0.023 A 
ATOM     85  C   UNL     1       9.868  11.307   2.753  1.00  0.00     0.031 A 
ATOM     86  C   UNL     1      11.935  10.595   3.773  1.00  0.00     0.131 A 
ATOM     87  C   UNL     1      10.566  12.364   2.149  1.00  0.00     0.055 A 
ATOM     88  C   UNL     1      12.609  11.683   3.220  1.00  0.00     0.041 A 
ATOM     89  F   UNL     1      12.644   9.747   4.535  1.00  0.00    -0.206 F 
ATOM     90  C   UNL     1      11.927  12.570   2.394  1.00  0.00     0.022 A 
BRANCH  87  91
ATOM     91  S   UNL     1       9.690  13.431   0.972  1.00  0.00     0.124 S 
ATOM     92  O   UNL     1       9.251  12.473  -0.037  1.00  0.00    -0.237 OA
ATOM     93  O   UNL     1       8.638  14.013   1.799  1.00  0.00    -0.237 OA
ATOM     94  O   UNL     1      10.719  14.370   0.528  1.00  0.00    -0.744 OA
ENDBRANCH  87  91
ENDBRANCH  61  84
ENDBRANCH  35  36
ENDBRANCH  27  30
ENDBRANCH  25  26
ENDBRANCH  24  25
ENDBRANCH   1  24
TORSDOF 18
