REMARK SMILES COC(=O)c1c(NC(=O)[C@@H]2[C@H]3CC[C@H](CC3)[C@H]2C(=O)NCCCNC(=O)c2ccc(-c3c4nc(c(-c5cc(S(=O)(=O)[O-])ccc5F)c5ccc([nH]5)c(-c5cc(S(=O)(=O)[O-])ccc5F)c5nc(c(-c6cc(S(=O)(=O)[O-])ccc6F)c6ccc3[nH]6)C=C5)C=C4)cc2)sc(C)c1-c1ccc(C)cc1
REMARK SMILES IDX 21 1 20 2 18 3 19 4 17 6 10 7 11 8 16 9 12 10 14 11 15 12
REMARK SMILES IDX 13 13 8 14 7 15 9 17 6 18 5 19 93 20 90 21 91 22 92 23 3 24
REMARK SMILES IDX 4 25 2 26 1 27 94 28 95 29 100 30 96 31 99 32 97 33 98 34
REMARK SMILES IDX 22 35 23 36 24 37 25 38 26 40 27 41 28 42 89 43 29 44 88 45
REMARK SMILES IDX 30 46 31 47 32 48 82 49 33 50 87 51 81 52 83 53 34 54 86 55
REMARK SMILES IDX 80 56 79 57 35 59 67 60 47 61 66 62 48 63 51 64 65 65 84 66
REMARK SMILES IDX 49 67 50 68 64 70 85 71 52 72 36 73 37 74 45 75 38 76 44 77
REMARK SMILES IDX 46 78 43 79 39 80 40 81 41 82 42 83 68 84 69 85 77 86 70 87
REMARK SMILES IDX 76 88 78 89 75 90 71 91 72 92 73 93 74 94 53 95 54 96 62 97
REMARK SMILES IDX 55 98 61 99 63 100 60 101 56 102 57 103 58 104 59 105
REMARK H PARENT 20 5 7 16 24 39 83 58 51 69
REMARK Flexibility Score: inf
ROOT
ATOM      1  C   UNL     1       6.131  -4.414   5.030  1.00  0.00     0.117 C 
ENDROOT
BRANCH   1   2
ATOM      2  N   UNL     1       5.475  -3.235   5.549  1.00  0.00    -0.356 N 
ATOM      3  C   UNL     1       4.451  -3.078   6.423  1.00  0.00     0.224 C 
ATOM      4  O   UNL     1       4.254  -1.920   6.813  1.00  0.00    -0.275 OA
ATOM      5  H   UNL     1       5.839  -2.388   5.202  1.00  0.00     0.163 HD
BRANCH   3   6
ATOM      6  C   UNL     1       3.584  -4.215   6.979  1.00  0.00     0.094 C 
ATOM      7  C   UNL     1       2.998  -5.218   5.951  1.00  0.00     0.094 C 
ATOM      8  C   UNL     1       2.992  -6.633   6.615  1.00  0.00     0.002 C 
ATOM      9  C   UNL     1       4.443  -7.090   6.852  1.00  0.00     0.005 C 
ATOM     10  C   UNL     1       2.286  -6.581   7.984  1.00  0.00     0.005 C 
ATOM     11  C   UNL     1       4.205  -4.964   8.191  1.00  0.00     0.002 C 
ATOM     12  C   UNL     1       5.155  -6.105   7.789  1.00  0.00     0.005 C 
ATOM     13  C   UNL     1       3.030  -5.636   8.938  1.00  0.00     0.005 C 
BRANCH   7  14
ATOM     14  C   UNL     1       1.593  -4.818   5.457  1.00  0.00     0.229 C 
ATOM     15  N   UNL     1       0.903  -5.566   4.541  1.00  0.00    -0.317 N 
ATOM     16  H   UNL     1      -0.019  -5.261   4.377  1.00  0.00     0.170 HD
ATOM     17  O   UNL     1       1.006  -3.837   5.925  1.00  0.00    -0.274 OA
BRANCH  15  18
ATOM     18  C   UNL     1       1.280  -6.674   3.808  1.00  0.00     0.111 A 
ATOM     19  C   UNL     1       0.466  -7.726   3.416  1.00  0.00     0.102 A 
ATOM     20  C   UNL     1       1.262  -8.769   2.795  1.00  0.00     0.012 A 
ATOM     21  S   UNL     1       2.851  -6.813   3.192  1.00  0.00    -0.122 S 
ATOM     22  C   UNL     1       2.606  -8.432   2.725  1.00  0.00     0.012 A 
ATOM     23  C   UNL     1       3.793  -9.236   2.301  1.00  0.00     0.057 C 
BRANCH  19  24
ATOM     24  C   UNL     1      -0.963  -7.751   3.728  1.00  0.00     0.341 C 
ATOM     25  O   UNL     1      -1.605  -6.733   3.976  1.00  0.00    -0.246 OA
BRANCH  24  26
ATOM     26  O   UNL     1      -1.483  -9.008   3.786  1.00  0.00    -0.465 OA
ATOM     27  C   UNL     1      -2.862  -9.082   4.141  1.00  0.00     0.282 C 
ENDBRANCH  24  26
ENDBRANCH  19  24
BRANCH  20  28
ATOM     28  C   UNL     1       0.788 -10.043   2.276  1.00  0.00    -0.016 A 
ATOM     29  C   UNL     1       0.055 -10.066   1.085  1.00  0.00     0.009 A 
ATOM     30  C   UNL     1       1.069 -11.238   2.944  1.00  0.00     0.009 A 
ATOM     31  C   UNL     1      -0.382 -11.281   0.558  1.00  0.00     0.004 A 
ATOM     32  C   UNL     1       0.636 -12.454   2.411  1.00  0.00     0.004 A 
ATOM     33  C   UNL     1      -0.086 -12.484   1.211  1.00  0.00    -0.051 A 
ATOM     34  C   UNL     1      -0.542 -13.782   0.614  1.00  0.00     0.044 C 
ENDBRANCH  20  28
ENDBRANCH  15  18
ENDBRANCH   7  14
ENDBRANCH   3   6
ENDBRANCH   1   2
BRANCH   1  35
ATOM     35  C   UNL     1       6.133  -4.494   3.513  1.00  0.00     0.042 C 
BRANCH  35  36
ATOM     36  C   UNL     1       7.244  -3.680   2.869  1.00  0.00     0.118 C 
BRANCH  36  37
ATOM     37  N   UNL     1       8.572  -4.180   3.215  1.00  0.00    -0.352 N 
ATOM     38  C   UNL     1       9.497  -4.886   2.483  1.00  0.00     0.251 C 
ATOM     39  H   UNL     1       8.855  -3.974   4.135  1.00  0.00     0.163 HD
ATOM     40  O   UNL     1      10.447  -5.402   3.069  1.00  0.00    -0.269 OA
BRANCH  38  41
ATOM     41  C   UNL     1       9.353  -5.050   1.019  1.00  0.00     0.039 A 
ATOM     42  C   UNL     1       9.760  -6.247   0.421  1.00  0.00     0.014 A 
ATOM     43  C   UNL     1       8.855  -4.018   0.224  1.00  0.00     0.014 A 
ATOM     44  C   UNL     1       9.588  -6.434  -0.955  1.00  0.00     0.010 A 
ATOM     45  C   UNL     1       8.582  -4.245  -1.120  1.00  0.00     0.010 A 
ATOM     46  C   UNL     1       8.954  -5.452  -1.730  1.00  0.00    -0.014 A 
BRANCH  46  47
ATOM     47  C   UNL     1       8.687  -5.637  -3.181  1.00  0.00     0.031 A 
ATOM     48  C   UNL     1       9.264  -4.663  -4.176  1.00  0.00     0.074 A 
ATOM     49  C   UNL     1       7.846  -6.608  -3.590  1.00  0.00     0.049 A 
ATOM     50  N   UNL     1       9.019  -4.538  -5.454  1.00  0.00    -0.248 NA
ATOM     51  C   UNL     1      10.206  -3.665  -3.646  1.00  0.00     0.031 C 
ATOM     52  C   UNL     1       7.182  -7.579  -2.717  1.00  0.00     0.029 A 
ATOM     53  N   UNL     1       7.390  -6.928  -4.844  1.00  0.00    -0.354 N 
ATOM     54  C   UNL     1       9.741  -3.423  -5.871  1.00  0.00     0.074 A 
ATOM     55  C   UNL     1      10.383  -2.878  -4.695  1.00  0.00     0.031 C 
ATOM     56  C   UNL     1       6.422  -8.396  -3.463  1.00  0.00     0.029 A 
ATOM     57  C   UNL     1       6.503  -7.980  -4.859  1.00  0.00     0.049 A 
ATOM     58  H   UNL     1       7.671  -6.450  -5.658  1.00  0.00     0.167 HD
ATOM     59  C   UNL     1       9.875  -2.917  -7.122  1.00  0.00     0.034 A 
ATOM     60  C   UNL     1       5.820  -8.536  -5.879  1.00  0.00     0.034 A 
ATOM     61  C   UNL     1       9.263  -3.504  -8.289  1.00  0.00     0.049 A 
ATOM     62  C   UNL     1       6.008  -7.977  -7.266  1.00  0.00     0.074 A 
ATOM     63  C   UNL     1       9.391  -3.126  -9.614  1.00  0.00     0.029 A 
ATOM     64  N   UNL     1       8.410  -4.600  -8.269  1.00  0.00    -0.354 N 
ATOM     65  N   UNL     1       6.731  -6.950  -7.651  1.00  0.00    -0.248 NA
ATOM     66  C   UNL     1       5.298  -8.658  -8.356  1.00  0.00     0.031 C 
ATOM     67  C   UNL     1       8.575  -3.959 -10.388  1.00  0.00     0.029 A 
ATOM     68  C   UNL     1       7.988  -4.899  -9.555  1.00  0.00     0.049 A 
ATOM     69  H   UNL     1       8.143  -5.093  -7.460  1.00  0.00     0.167 HD
ATOM     70  C   UNL     1       6.583  -6.880  -9.033  1.00  0.00     0.074 A 
ATOM     71  C   UNL     1       5.715  -7.976  -9.413  1.00  0.00     0.031 C 
ATOM     72  C   UNL     1       7.117  -5.994  -9.911  1.00  0.00     0.034 A 
BRANCH  59  73
ATOM     73  C   UNL     1      10.698  -1.659  -7.279  1.00  0.00     0.023 A 
ATOM     74  C   UNL     1      12.065  -1.625  -6.952  1.00  0.00     0.031 A 
ATOM     75  C   UNL     1      10.100  -0.466  -7.723  1.00  0.00     0.131 A 
ATOM     76  C   UNL     1      12.764  -0.409  -6.985  1.00  0.00     0.055 A 
ATOM     77  C   UNL     1      10.824   0.723  -7.838  1.00  0.00     0.041 A 
ATOM     78  F   UNL     1       8.794  -0.430  -8.034  1.00  0.00    -0.206 F 
ATOM     79  C   UNL     1      12.160   0.761  -7.451  1.00  0.00     0.022 A 
BRANCH  76  80
ATOM     80  S   UNL     1      14.428  -0.350  -6.266  1.00  0.00     0.124 S 
ATOM     81  O   UNL     1      14.164  -0.744  -4.883  1.00  0.00    -0.237 OA
ATOM     82  O   UNL     1      15.158  -1.317  -7.077  1.00  0.00    -0.237 OA
ATOM     83  O   UNL     1      14.829   1.044  -6.443  1.00  0.00    -0.744 OA
ENDBRANCH  76  80
ENDBRANCH  59  73
BRANCH  60  84
ATOM     84  C   UNL     1       4.894  -9.677  -5.634  1.00  0.00     0.023 A 
ATOM     85  C   UNL     1       5.168 -10.952  -6.154  1.00  0.00     0.031 A 
ATOM     86  C   UNL     1       3.707  -9.504  -4.901  1.00  0.00     0.131 A 
ATOM     87  C   UNL     1       4.246 -11.995  -5.971  1.00  0.00     0.055 A 
ATOM     88  C   UNL     1       2.816 -10.556  -4.681  1.00  0.00     0.041 A 
ATOM     89  F   UNL     1       3.403  -8.308  -4.372  1.00  0.00    -0.206 F 
ATOM     90  C   UNL     1       3.078 -11.808  -5.229  1.00  0.00     0.022 A 
BRANCH  87  91
ATOM     91  S   UNL     1       4.564 -13.586  -6.782  1.00  0.00     0.124 S 
ATOM     92  O   UNL     1       4.655 -13.193  -8.183  1.00  0.00    -0.237 OA
ATOM     93  O   UNL     1       5.810 -14.004  -6.149  1.00  0.00    -0.237 OA
ATOM     94  O   UNL     1       3.391 -14.385  -6.432  1.00  0.00    -0.744 OA
ENDBRANCH  87  91
ENDBRANCH  60  84
BRANCH  72  95
ATOM     95  C   UNL     1       6.810  -6.210 -11.370  1.00  0.00     0.023 A 
ATOM     96  C   UNL     1       5.518  -6.017 -11.889  1.00  0.00     0.031 A 
ATOM     97  C   UNL     1       7.825  -6.625 -12.250  1.00  0.00     0.131 A 
ATOM     98  C   UNL     1       5.263  -6.288 -13.242  1.00  0.00     0.055 A 
ATOM     99  C   UNL     1       7.578  -6.840 -13.606  1.00  0.00     0.041 A 
ATOM    100  F   UNL     1       9.076  -6.825 -11.804  1.00  0.00    -0.206 F 
ATOM    101  C   UNL     1       6.288  -6.683 -14.106  1.00  0.00     0.022 A 
BRANCH  98 102
ATOM    102  S   UNL     1       3.554  -6.196 -13.841  1.00  0.00     0.124 S 
ATOM    103  O   UNL     1       2.883  -7.180 -12.997  1.00  0.00    -0.237 OA
ATOM    104  O   UNL     1       3.210  -4.800 -13.589  1.00  0.00    -0.237 OA
ATOM    105  O   UNL     1       3.665  -6.561 -15.252  1.00  0.00    -0.744 OA
ENDBRANCH  98 102
ENDBRANCH  72  95
ENDBRANCH  46  47
ENDBRANCH  38  41
ENDBRANCH  36  37
ENDBRANCH  35  36
ENDBRANCH   1  35
TORSDOF 18
