REMARK SMILES O=C(NCCCNC(=O)[C@]1(NC(=O)C2CCN(C(=O)C3CC3)CC2)CCCc2ccccc21)c1ccc(-c2c3nc(c(-c4cc(S(=O)(=O)[O-])ccc4F)c4ccc([nH]4)c(-c4cc(S(=O)(=O)[O-])ccc4F)c4nc(c(-c5cc(S(=O)(=O)[O-])ccc5F)c5ccc2[nH]5)C=C4)C=C3)cc1
REMARK SMILES IDX 5 1 4 2 3 3 1 4 2 5 34 7 35 8 96 9 36 10 95 11 37 12 38 13
REMARK SMILES IDX 39 14 89 15 40 16 94 17 88 18 90 19 41 20 93 21 87 22 86 23
REMARK SMILES IDX 42 25 74 26 54 27 73 28 55 29 58 30 72 31 91 32 56 33 57 34
REMARK SMILES IDX 71 36 92 37 59 38 43 39 44 40 52 41 45 42 51 43 53 44 50 45
REMARK SMILES IDX 46 46 47 47 48 48 49 49 75 50 76 51 84 52 77 53 83 54 85 55
REMARK SMILES IDX 82 56 78 57 79 58 80 59 81 60 60 61 61 62 69 63 62 64 68 65
REMARK SMILES IDX 70 66 67 67 63 68 64 69 65 70 66 71 6 72 7 73 8 74 9 76
REMARK SMILES IDX 10 77 25 78 33 79 26 80 28 81 32 82 27 83 29 84 31 85 30 86
REMARK SMILES IDX 11 87 12 88 13 90 14 91 15 92 24 93 16 94 23 95 17 96 18 97
REMARK SMILES IDX 19 98 20 99 21 100 22 101
REMARK H PARENT 3 6 90 24 58 35 7 75 11 89
REMARK Flexibility Score: inf
ROOT
ATOM      1  C   UNL     1       4.896   0.085   2.196  1.00  0.00     0.042 C 
ENDROOT
BRANCH   1   2
ATOM      2  C   UNL     1       4.552  -0.794   1.008  1.00  0.00     0.118 C 
BRANCH   2   3
ATOM      3  N   UNL     1       3.113  -0.844   0.761  1.00  0.00    -0.352 N 
ATOM      4  O   UNL     1       1.134  -0.108  -0.016  1.00  0.00    -0.269 OA
ATOM      5  C   UNL     1       2.351  -0.164  -0.157  1.00  0.00     0.251 C 
ATOM      6  H   UNL     1       2.612  -1.460   1.343  1.00  0.00     0.163 HD
BRANCH   5   7
ATOM      7  C   UNL     1       3.005   0.489  -1.309  1.00  0.00     0.039 A 
ATOM      8  C   UNL     1       4.065  -0.147  -1.957  1.00  0.00     0.014 A 
ATOM      9  C   UNL     1       2.537   1.722  -1.769  1.00  0.00     0.014 A 
ATOM     10  C   UNL     1       4.767   0.516  -2.949  1.00  0.00     0.010 A 
ATOM     11  C   UNL     1       3.167   2.333  -2.855  1.00  0.00     0.010 A 
ATOM     12  C   UNL     1       4.300   1.743  -3.438  1.00  0.00    -0.014 A 
BRANCH  12  13
ATOM     13  C   UNL     1       4.960   2.341  -4.622  1.00  0.00     0.031 A 
ATOM     14  C   UNL     1       5.617   3.686  -4.540  1.00  0.00     0.074 A 
ATOM     15  C   UNL     1       4.952   1.647  -5.777  1.00  0.00     0.049 A 
ATOM     16  N   UNL     1       6.170   4.392  -5.491  1.00  0.00    -0.248 NA
ATOM     17  C   UNL     1       5.641   4.327  -3.218  1.00  0.00     0.031 C 
ATOM     18  C   UNL     1       4.342   0.326  -5.958  1.00  0.00     0.029 A 
ATOM     19  N   UNL     1       5.464   1.946  -7.012  1.00  0.00    -0.354 N 
ATOM     20  C   UNL     1       6.585   5.576  -4.893  1.00  0.00     0.074 A 
ATOM     21  C   UNL     1       6.187   5.501  -3.502  1.00  0.00     0.031 C 
ATOM     22  C   UNL     1       4.535  -0.080  -7.219  1.00  0.00     0.029 A 
ATOM     23  C   UNL     1       5.193   0.988  -7.959  1.00  0.00     0.049 A 
ATOM     24  H   UNL     1       5.975   2.766  -7.202  1.00  0.00     0.167 HD
ATOM     25  C   UNL     1       7.240   6.621  -5.460  1.00  0.00     0.034 A 
ATOM     26  C   UNL     1       5.396   0.987  -9.290  1.00  0.00     0.034 A 
ATOM     27  C   UNL     1       7.609   6.662  -6.856  1.00  0.00     0.049 A 
ATOM     28  C   UNL     1       6.060   2.180  -9.912  1.00  0.00     0.074 A 
ATOM     29  C   UNL     1       8.305   7.646  -7.536  1.00  0.00     0.029 A 
ATOM     30  N   UNL     1       7.292   5.684  -7.795  1.00  0.00    -0.354 N 
ATOM     31  N   UNL     1       6.468   3.287  -9.333  1.00  0.00    -0.248 NA
ATOM     32  C   UNL     1       6.295   2.129 -11.358  1.00  0.00     0.031 C 
ATOM     33  C   UNL     1       8.331   7.307  -8.894  1.00  0.00     0.029 A 
ATOM     34  C   UNL     1       7.738   6.064  -9.052  1.00  0.00     0.049 A 
ATOM     35  H   UNL     1       6.819   4.844  -7.595  1.00  0.00     0.167 HD
ATOM     36  C   UNL     1       7.030   4.058 -10.344  1.00  0.00     0.074 A 
ATOM     37  C   UNL     1       6.914   3.284 -11.566  1.00  0.00     0.031 C 
ATOM     38  C   UNL     1       7.600   5.287 -10.265  1.00  0.00     0.034 A 
BRANCH  25  39
ATOM     39  C   UNL     1       7.528   7.819  -4.583  1.00  0.00     0.023 A 
ATOM     40  C   UNL     1       8.320   7.720  -3.425  1.00  0.00     0.031 A 
ATOM     41  C   UNL     1       6.951   9.068  -4.875  1.00  0.00     0.131 A 
ATOM     42  C   UNL     1       8.427   8.814  -2.552  1.00  0.00     0.055 A 
ATOM     43  C   UNL     1       7.143  10.181  -4.053  1.00  0.00     0.041 A 
ATOM     44  F   UNL     1       6.166   9.225  -5.952  1.00  0.00    -0.206 F 
ATOM     45  C   UNL     1       7.867  10.053  -2.872  1.00  0.00     0.022 A 
BRANCH  42  46
ATOM     46  S   UNL     1       9.142   8.539  -0.906  1.00  0.00     0.124 S 
ATOM     47  O   UNL     1       8.317   7.442  -0.403  1.00  0.00    -0.237 OA
ATOM     48  O   UNL     1      10.527   8.204  -1.216  1.00  0.00    -0.237 OA
ATOM     49  O   UNL     1       8.943   9.817  -0.227  1.00  0.00    -0.744 OA
ENDBRANCH  42  46
ENDBRANCH  25  39
BRANCH  26  50
ATOM     50  C   UNL     1       4.898  -0.156 -10.104  1.00  0.00     0.023 A 
ATOM     51  C   UNL     1       5.779  -1.023 -10.764  1.00  0.00     0.031 A 
ATOM     52  C   UNL     1       3.516  -0.415 -10.200  1.00  0.00     0.131 A 
ATOM     53  C   UNL     1       5.268  -2.099 -11.508  1.00  0.00     0.055 A 
ATOM     54  C   UNL     1       3.017  -1.515 -10.896  1.00  0.00     0.041 A 
ATOM     55  F   UNL     1       2.632   0.381  -9.576  1.00  0.00    -0.206 F 
ATOM     56  C   UNL     1       3.896  -2.361 -11.563  1.00  0.00     0.022 A 
BRANCH  53  57
ATOM     57  S   UNL     1       6.424  -3.128 -12.451  1.00  0.00     0.124 S 
ATOM     58  O   UNL     1       7.040  -2.146 -13.337  1.00  0.00    -0.237 OA
ATOM     59  O   UNL     1       7.278  -3.668 -11.399  1.00  0.00    -0.237 OA
ATOM     60  O   UNL     1       5.555  -4.102 -13.107  1.00  0.00    -0.744 OA
ENDBRANCH  53  57
ENDBRANCH  26  50
BRANCH  38  61
ATOM     61  C   UNL     1       8.191   5.851 -11.532  1.00  0.00     0.023 A 
ATOM     62  C   UNL     1       7.390   6.249 -12.616  1.00  0.00     0.031 A 
ATOM     63  C   UNL     1       9.584   6.013 -11.642  1.00  0.00     0.131 A 
ATOM     64  C   UNL     1       7.992   6.758 -13.777  1.00  0.00     0.055 A 
ATOM     65  C   UNL     1      10.172   6.574 -12.775  1.00  0.00     0.041 A 
ATOM     66  F   UNL     1      10.395   5.641 -10.638  1.00  0.00    -0.206 F 
ATOM     67  C   UNL     1       9.376   6.942 -13.854  1.00  0.00     0.022 A 
BRANCH  64  68
ATOM     68  S   UNL     1       6.950   7.116 -15.218  1.00  0.00     0.124 S 
ATOM     69  O   UNL     1       6.386   5.803 -15.516  1.00  0.00    -0.237 OA
ATOM     70  O   UNL     1       6.018   8.107 -14.692  1.00  0.00    -0.237 OA
ATOM     71  O   UNL     1       7.898   7.622 -16.209  1.00  0.00    -0.744 OA
ENDBRANCH  64  68
ENDBRANCH  38  61
ENDBRANCH  12  13
ENDBRANCH   5   7
ENDBRANCH   2   3
ENDBRANCH   1   2
BRANCH   1  72
ATOM     72  C   UNL     1       4.253  -0.394   3.481  1.00  0.00     0.117 C 
BRANCH  72  73
ATOM     73  N   UNL     1       4.752  -1.670   3.956  1.00  0.00    -0.354 N 
ATOM     74  C   UNL     1       5.184  -2.023   5.200  1.00  0.00     0.250 C 
ATOM     75  H   UNL     1       4.782  -2.387   3.281  1.00  0.00     0.163 HD
ATOM     76  O   UNL     1       4.827  -3.155   5.550  1.00  0.00    -0.272 OA
BRANCH  74  77
ATOM     77  C   UNL     1       6.027  -1.097   6.160  1.00  0.00     0.145 C 
ATOM     78  C   UNL     1       5.040  -0.672   7.293  1.00  0.00     0.044 C 
ATOM     79  C   UNL     1       6.642   0.137   5.487  1.00  0.00    -0.010 A 
ATOM     80  C   UNL     1       4.068   0.416   6.882  1.00  0.00     0.008 C 
ATOM     81  C   UNL     1       6.050   1.418   5.613  1.00  0.00    -0.042 A 
ATOM     82  C   UNL     1       7.791   0.012   4.680  1.00  0.00     0.007 A 
ATOM     83  C   UNL     1       4.819   1.673   6.456  1.00  0.00     0.036 C 
ATOM     84  C   UNL     1       6.597   2.511   4.917  1.00  0.00     0.004 A 
ATOM     85  C   UNL     1       8.329   1.112   4.007  1.00  0.00     0.000 A 
ATOM     86  C   UNL     1       7.724   2.358   4.115  1.00  0.00     0.000 A 
BRANCH  77  87
ATOM     87  N   UNL     1       7.107  -1.824   6.922  1.00  0.00    -0.338 N 
ATOM     88  C   UNL     1       8.036  -2.768   6.624  1.00  0.00     0.224 C 
ATOM     89  H   UNL     1       7.148  -1.546   7.865  1.00  0.00     0.164 HD
ATOM     90  O   UNL     1       9.066  -2.763   7.303  1.00  0.00    -0.275 OA
BRANCH  88  91
ATOM     91  C   UNL     1       7.771  -3.867   5.605  1.00  0.00     0.082 C 
ATOM     92  C   UNL     1       6.893  -4.964   6.247  1.00  0.00     0.035 C 
ATOM     93  C   UNL     1       9.082  -4.451   5.035  1.00  0.00     0.035 C 
ATOM     94  C   UNL     1       7.676  -5.956   7.103  1.00  0.00     0.120 C 
ATOM     95  C   UNL     1       9.749  -5.462   5.970  1.00  0.00     0.120 C 
ATOM     96  N   UNL     1       8.790  -6.495   6.334  1.00  0.00    -0.342 N 
ATOM     97  C   UNL     1       8.723  -7.831   5.940  1.00  0.00     0.225 C 
ATOM     98  O   UNL     1       7.818  -8.562   6.344  1.00  0.00    -0.275 OA
BRANCH  97  99
ATOM     99  C   UNL     1       9.697  -8.493   5.021  1.00  0.00     0.079 C 
ATOM    100  C   UNL     1      10.553  -7.877   3.954  1.00  0.00     0.014 C 
ATOM    101  C   UNL     1      11.188  -8.412   5.213  1.00  0.00     0.014 C 
ENDBRANCH  97  99
ENDBRANCH  88  91
ENDBRANCH  77  87
ENDBRANCH  74  77
ENDBRANCH  72  73
ENDBRANCH   1  72
TORSDOF 16
