REMARK SMILES CCC[NH2+][C@@]1(C(=O)NCCCNC(=O)c2ccc(-c3c4nc(c(-c5cc(S(=O)(=O)[O-])ccc5F)c5ccc([nH]5)c(-c5cc(S(=O)(=O)[O-])ccc5F)c5nc(c(-c6cc(S(=O)(=O)[O-])ccc6F)c6ccc3[nH]6)C=C5)C=C4)cc2)CCC[C@H](n2nc(C)c(C)c2C)C1
REMARK SMILES IDX 10 1 9 2 8 3 6 4 7 5 5 7 78 8 90 9 79 10 81 11 80 12 4 13
REMARK SMILES IDX 3 16 2 17 1 18 82 19 83 20 88 21 84 22 86 23 89 24 85 25
REMARK SMILES IDX 87 26 11 27 12 28 13 29 14 31 15 32 16 33 77 34 17 35 76 36
REMARK SMILES IDX 18 37 19 38 20 39 70 40 21 41 75 42 69 43 71 44 22 45 74 46
REMARK SMILES IDX 68 47 67 48 23 50 55 51 35 52 54 53 36 54 39 55 53 56 72 57
REMARK SMILES IDX 37 58 38 59 52 61 73 62 40 63 24 64 25 65 33 66 26 67 32 68
REMARK SMILES IDX 34 69 31 70 27 71 28 72 29 73 30 74 56 75 57 76 65 77 58 78
REMARK SMILES IDX 64 79 66 80 63 81 59 82 60 83 61 84 62 85 41 86 42 87 50 88
REMARK SMILES IDX 43 89 49 90 51 91 48 92 44 93 45 94 46 95 47 96
REMARK H PARENT 8 6 4 14 4 15 12 30 71 49 39 60
REMARK Flexibility Score: inf
ROOT
ATOM      1  C   UNL     1       3.191   6.584   4.950  1.00  0.00     0.042 C 
ENDROOT
BRANCH   1   2
ATOM      2  C   UNL     1       3.295   6.027   3.515  1.00  0.00     0.118 C 
BRANCH   2   3
ATOM      3  N   UNL     1       3.365   4.565   3.356  1.00  0.00    -0.351 N 
ATOM      4  C   UNL     1       2.648   3.603   2.692  1.00  0.00     0.281 C 
ATOM      5  O   UNL     1       3.371   2.759   2.133  1.00  0.00    -0.268 OA
ATOM      6  H   UNL     1       4.122   4.179   3.854  1.00  0.00     0.163 HD
BRANCH   4   7
ATOM      7  C   UNL     1       1.046   3.424   2.630  1.00  0.00     0.177 C 
ATOM      8  C   UNL     1       0.378   4.776   2.347  1.00  0.00     0.079 C 
ATOM      9  C   UNL     1       0.294   2.850   3.853  1.00  0.00     0.106 C 
ATOM     10  C   UNL     1       0.016   5.599   3.604  1.00  0.00     0.009 C 
ATOM     11  C   UNL     1       0.626   3.500   5.174  1.00  0.00     0.114 C 
ATOM     12  C   UNL     1       0.131   4.967   5.024  1.00  0.00     0.028 C 
BRANCH   7  13
ATOM     13  N   UNL     1       0.708   2.509   1.438  1.00  0.00    -0.334 N 
ATOM     14  H   UNL     1      -0.275   2.648   1.203  1.00  0.00     0.347 HD
ATOM     15  H   UNL     1       1.349   2.772   0.690  1.00  0.00     0.347 HD
BRANCH  13  16
ATOM     16  C   UNL     1       0.922   1.062   1.668  1.00  0.00     0.261 C 
BRANCH  16  17
ATOM     17  C   UNL     1       0.343   0.112   0.618  1.00  0.00     0.058 C 
ATOM     18  C   UNL     1       1.062   0.153  -0.710  1.00  0.00     0.010 C 
ENDBRANCH  16  17
ENDBRANCH  13  16
ENDBRANCH   7  13
BRANCH  11  19
ATOM     19  N   UNL     1       1.970   3.147   5.660  1.00  0.00    -0.266 N 
ATOM     20  N   UNL     1       2.526   3.828   6.694  1.00  0.00    -0.178 NA
ATOM     21  C   UNL     1       2.773   2.045   5.359  1.00  0.00     0.039 A 
ATOM     22  C   UNL     1       3.772   3.332   6.770  1.00  0.00     0.063 A 
ATOM     23  C   UNL     1       4.045   2.418   5.741  1.00  0.00    -0.007 A 
ATOM     24  C   UNL     1       2.414   0.729   4.785  1.00  0.00     0.066 C 
ATOM     25  C   UNL     1       4.715   3.678   7.852  1.00  0.00     0.069 C 
ATOM     26  C   UNL     1       5.343   1.813   5.355  1.00  0.00     0.048 C 
ENDBRANCH  11  19
ENDBRANCH   4   7
ENDBRANCH   2   3
ENDBRANCH   1   2
BRANCH   1  27
ATOM     27  C   UNL     1       4.419   6.526   5.873  1.00  0.00     0.118 C 
BRANCH  27  28
ATOM     28  N   UNL     1       5.102   7.807   6.014  1.00  0.00    -0.352 N 
ATOM     29  C   UNL     1       5.435   8.545   7.135  1.00  0.00     0.251 C 
ATOM     30  H   UNL     1       5.374   8.218   5.161  1.00  0.00     0.163 HD
ATOM     31  O   UNL     1       5.859   9.689   6.963  1.00  0.00    -0.269 OA
BRANCH  29  32
ATOM     32  C   UNL     1       5.301   8.033   8.531  1.00  0.00     0.039 A 
ATOM     33  C   UNL     1       4.884   8.903   9.543  1.00  0.00     0.014 A 
ATOM     34  C   UNL     1       5.701   6.751   8.899  1.00  0.00     0.014 A 
ATOM     35  C   UNL     1       4.822   8.475  10.883  1.00  0.00     0.010 A 
ATOM     36  C   UNL     1       5.552   6.292  10.223  1.00  0.00     0.010 A 
ATOM     37  C   UNL     1       5.125   7.151  11.247  1.00  0.00    -0.014 A 
BRANCH  37  38
ATOM     38  C   UNL     1       5.020   6.705  12.682  1.00  0.00     0.031 A 
ATOM     39  C   UNL     1       6.217   6.159  13.436  1.00  0.00     0.074 A 
ATOM     40  C   UNL     1       3.839   6.795  13.335  1.00  0.00     0.049 A 
ATOM     41  N   UNL     1       6.318   5.811  14.698  1.00  0.00    -0.248 NA
ATOM     42  C   UNL     1       7.452   5.950  12.669  1.00  0.00     0.031 C 
ATOM     43  C   UNL     1       2.576   7.225  12.734  1.00  0.00     0.029 A 
ATOM     44  N   UNL     1       3.505   6.547  14.649  1.00  0.00    -0.354 N 
ATOM     45  C   UNL     1       7.619   5.341  14.871  1.00  0.00     0.074 A 
ATOM     46  C   UNL     1       8.242   5.377  13.565  1.00  0.00     0.031 C 
ATOM     47  C   UNL     1       1.625   7.270  13.681  1.00  0.00     0.029 A 
ATOM     48  C   UNL     1       2.191   6.832  14.954  1.00  0.00     0.049 A 
ATOM     49  H   UNL     1       4.146   6.199  15.310  1.00  0.00     0.167 HD
ATOM     50  C   UNL     1       8.251   4.947  16.008  1.00  0.00     0.034 A 
ATOM     51  C   UNL     1       1.511   6.761  16.119  1.00  0.00     0.034 A 
ATOM     52  C   UNL     1       7.635   4.928  17.315  1.00  0.00     0.049 A 
ATOM     53  C   UNL     1       2.232   6.324  17.372  1.00  0.00     0.074 A 
ATOM     54  C   UNL     1       8.214   4.622  18.536  1.00  0.00     0.029 A 
ATOM     55  N   UNL     1       6.301   5.213  17.575  1.00  0.00    -0.354 N 
ATOM     56  N   UNL     1       3.487   5.972  17.524  1.00  0.00    -0.248 NA
ATOM     57  C   UNL     1       1.446   6.293  18.614  1.00  0.00     0.031 C 
ATOM     58  C   UNL     1       7.218   4.646  19.518  1.00  0.00     0.029 A 
ATOM     59  C   UNL     1       6.033   5.053  18.927  1.00  0.00     0.049 A 
ATOM     60  H   UNL     1       5.642   5.489  16.898  1.00  0.00     0.167 HD
ATOM     61  C   UNL     1       3.644   5.705  18.882  1.00  0.00     0.074 A 
ATOM     62  C   UNL     1       2.364   5.959  19.508  1.00  0.00     0.031 C 
ATOM     63  C   UNL     1       4.751   5.289  19.550  1.00  0.00     0.034 A 
BRANCH  50  64
ATOM     64  C   UNL     1       9.692   4.492  15.889  1.00  0.00     0.023 A 
ATOM     65  C   UNL     1      10.706   5.356  15.438  1.00  0.00     0.031 A 
ATOM     66  C   UNL     1      10.059   3.177  16.229  1.00  0.00     0.131 A 
ATOM     67  C   UNL     1      12.013   4.876  15.262  1.00  0.00     0.055 A 
ATOM     68  C   UNL     1      11.380   2.730  16.135  1.00  0.00     0.041 A 
ATOM     69  F   UNL     1       9.138   2.297  16.654  1.00  0.00    -0.206 F 
ATOM     70  C   UNL     1      12.364   3.576  15.633  1.00  0.00     0.022 A 
BRANCH  67  71
ATOM     71  S   UNL     1      13.217   5.925  14.401  1.00  0.00     0.124 S 
ATOM     72  O   UNL     1      12.544   6.156  13.122  1.00  0.00    -0.237 OA
ATOM     73  O   UNL     1      13.313   7.085  15.287  1.00  0.00    -0.237 OA
ATOM     74  O   UNL     1      14.410   5.096  14.328  1.00  0.00    -0.744 OA
ENDBRANCH  67  71
ENDBRANCH  50  64
BRANCH  51  75
ATOM     75  C   UNL     1       0.059   7.114  16.172  1.00  0.00     0.023 A 
ATOM     76  C   UNL     1      -0.402   8.201  16.935  1.00  0.00     0.031 A 
ATOM     77  C   UNL     1      -0.898   6.336  15.496  1.00  0.00     0.131 A 
ATOM     78  C   UNL     1      -1.780   8.453  17.039  1.00  0.00     0.055 A 
ATOM     79  C   UNL     1      -2.262   6.625  15.555  1.00  0.00     0.041 A 
ATOM     80  F   UNL     1      -0.515   5.284  14.755  1.00  0.00    -0.206 F 
ATOM     81  C   UNL     1      -2.712   7.681  16.341  1.00  0.00     0.022 A 
BRANCH  78  82
ATOM     82  S   UNL     1      -2.349   9.750  18.174  1.00  0.00     0.124 S 
ATOM     83  O   UNL     1      -1.794   9.298  19.445  1.00  0.00    -0.237 OA
ATOM     84  O   UNL     1      -1.741  10.945  17.597  1.00  0.00    -0.237 OA
ATOM     85  O   UNL     1      -3.804   9.681  18.068  1.00  0.00    -0.744 OA
ENDBRANCH  78  82
ENDBRANCH  51  75
BRANCH  63  86
ATOM     86  C   UNL     1       4.633   5.120  21.048  1.00  0.00     0.023 A 
ATOM     87  C   UNL     1       3.795   4.146  21.621  1.00  0.00     0.031 A 
ATOM     88  C   UNL     1       5.355   5.959  21.916  1.00  0.00     0.131 A 
ATOM     89  C   UNL     1       3.653   4.077  23.016  1.00  0.00     0.055 A 
ATOM     90  C   UNL     1       5.260   5.842  23.303  1.00  0.00     0.041 A 
ATOM     91  F   UNL     1       6.168   6.910  21.428  1.00  0.00    -0.206 F 
ATOM     92  C   UNL     1       4.394   4.907  23.861  1.00  0.00     0.022 A 
BRANCH  89  93
ATOM     93  S   UNL     1       2.407   2.956  23.711  1.00  0.00     0.124 S 
ATOM     94  O   UNL     1       1.183   3.431  23.074  1.00  0.00    -0.237 OA
ATOM     95  O   UNL     1       2.886   1.648  23.277  1.00  0.00    -0.237 OA
ATOM     96  O   UNL     1       2.491   3.199  25.150  1.00  0.00    -0.744 OA
ENDBRANCH  89  93
ENDBRANCH  63  86
ENDBRANCH  37  38
ENDBRANCH  29  32
ENDBRANCH  27  28
ENDBRANCH   1  27
TORSDOF 17
