REMARK SMILES Cc1nsc(NC[C@@H]2C[C@H]3CC[C@@H]2C3)c1C(=O)NCCCNC(=O)c1ccc(-c2c3nc(c(-c4cc(S(=O)(=O)[O-])ccc4F)c4ccc([nH]4)c(-c4cc(S(=O)(=O)[O-])ccc4F)c4nc(c(-c5cc(S(=O)(=O)[O-])ccc5F)c5ccc2[nH]5)C=C4)C=C3)cc1
REMARK SMILES IDX 20 1 19 2 18 3 16 4 17 5 15 7 1 8 2 9 3 10 4 11 5 12 6 13
REMARK SMILES IDX 7 15 8 16 9 17 13 18 10 19 12 20 14 21 11 22 21 23 22 24
REMARK SMILES IDX 23 25 24 27 25 28 26 29 87 30 27 31 86 32 28 33 29 34 30 35
REMARK SMILES IDX 80 36 31 37 85 38 79 39 81 40 32 41 84 42 78 43 77 44 33 46
REMARK SMILES IDX 65 47 45 48 64 49 46 50 49 51 63 52 82 53 47 54 48 55 62 57
REMARK SMILES IDX 83 58 50 59 34 60 35 61 43 62 36 63 42 64 44 65 41 66 37 67
REMARK SMILES IDX 38 68 39 69 40 70 66 71 67 72 75 73 68 74 74 75 76 76 73 77
REMARK SMILES IDX 69 78 70 79 71 80 72 81 51 82 52 83 60 84 53 85 59 86 61 87
REMARK SMILES IDX 58 88 54 89 55 90 56 91 57 92
REMARK H PARENT 18 6 6 14 22 26 81 45 49 56
REMARK Flexibility Score: inf
ROOT
ATOM      1  C   UNL     1       2.339  -0.044   1.705  1.00  0.00     0.042 C 
ENDROOT
BRANCH   1   2
ATOM      2  C   UNL     1       1.240   1.008   1.885  1.00  0.00     0.118 C 
BRANCH   2   3
ATOM      3  N   UNL     1       1.621   2.266   1.290  1.00  0.00    -0.352 N 
ATOM      4  C   UNL     1       1.404   2.882   0.088  1.00  0.00     0.256 C 
ATOM      5  O   UNL     1       1.895   4.019   0.047  1.00  0.00    -0.269 OA
ATOM      6  H   UNL     1       2.171   2.814   1.895  1.00  0.00     0.163 HD
BRANCH   4   7
ATOM      7  C   UNL     1       0.631   2.351  -1.056  1.00  0.00     0.097 A 
ATOM      8  C   UNL     1       0.575  -0.329  -0.940  1.00  0.00     0.069 C 
ATOM      9  C   UNL     1       0.238   1.010  -1.488  1.00  0.00     0.066 A 
ATOM     10  N   UNL     1      -0.509   0.937  -2.591  1.00  0.00    -0.195 NA
ATOM     11  S   UNL     1      -0.685   2.422  -3.240  1.00  0.00    -0.018 S 
ATOM     12  C   UNL     1       0.207   3.263  -2.048  1.00  0.00     0.122 A 
BRANCH  12  13
ATOM     13  N   UNL     1       0.453   4.603  -2.069  1.00  0.00    -0.375 N 
ATOM     14  H   UNL     1       0.847   4.991  -1.254  1.00  0.00     0.161 HD
BRANCH  13  15
ATOM     15  C   UNL     1       0.198   5.519  -3.161  1.00  0.00     0.117 C 
BRANCH  15  16
ATOM     16  C   UNL     1      -0.789   6.593  -2.695  1.00  0.00     0.012 C 
ATOM     17  C   UNL     1      -2.260   6.116  -2.733  1.00  0.00     0.009 C 
ATOM     18  C   UNL     1      -0.818   7.830  -3.627  1.00  0.00    -0.006 C 
ATOM     19  C   UNL     1      -2.953   7.201  -3.575  1.00  0.00    -0.011 C 
ATOM     20  C   UNL     1      -1.498   8.981  -2.862  1.00  0.00     0.004 C 
ATOM     21  C   UNL     1      -1.898   7.471  -4.647  1.00  0.00     0.007 C 
ATOM     22  C   UNL     1      -2.962   8.522  -2.787  1.00  0.00     0.004 C 
ENDBRANCH  15  16
ENDBRANCH  13  15
ENDBRANCH  12  13
ENDBRANCH   4   7
ENDBRANCH   2   3
ENDBRANCH   1   2
BRANCH   1  23
ATOM     23  C   UNL     1       3.386  -0.019   2.806  1.00  0.00     0.118 C 
BRANCH  23  24
ATOM     24  N   UNL     1       2.862  -0.522   4.069  1.00  0.00    -0.352 N 
ATOM     25  C   UNL     1       3.484  -0.556   5.303  1.00  0.00     0.251 C 
ATOM     26  H   UNL     1       1.947  -0.885   4.040  1.00  0.00     0.163 HD
ATOM     27  O   UNL     1       3.097  -1.339   6.154  1.00  0.00    -0.269 OA
BRANCH  25  28
ATOM     28  C   UNL     1       4.630   0.342   5.556  1.00  0.00     0.039 A 
ATOM     29  C   UNL     1       5.735  -0.118   6.274  1.00  0.00     0.014 A 
ATOM     30  C   UNL     1       4.610   1.640   5.045  1.00  0.00     0.014 A 
ATOM     31  C   UNL     1       6.854   0.704   6.380  1.00  0.00     0.010 A 
ATOM     32  C   UNL     1       5.761   2.400   5.040  1.00  0.00     0.010 A 
ATOM     33  C   UNL     1       6.884   1.949   5.722  1.00  0.00    -0.014 A 
BRANCH  33  34
ATOM     34  C   UNL     1       8.154   2.669   5.580  1.00  0.00     0.031 A 
ATOM     35  C   UNL     1       9.263   1.800   5.106  1.00  0.00     0.074 A 
ATOM     36  C   UNL     1       8.325   4.007   5.672  1.00  0.00     0.049 A 
ATOM     37  N   UNL     1      10.228   1.321   5.817  1.00  0.00    -0.248 NA
ATOM     38  C   UNL     1       9.183   1.220   3.754  1.00  0.00     0.031 C 
ATOM     39  C   UNL     1       7.301   5.035   5.861  1.00  0.00     0.029 A 
ATOM     40  N   UNL     1       9.465   4.748   5.525  1.00  0.00    -0.354 N 
ATOM     41  C   UNL     1      11.043   0.632   4.928  1.00  0.00     0.074 A 
ATOM     42  C   UNL     1      10.230   0.391   3.768  1.00  0.00     0.031 C 
ATOM     43  C   UNL     1       7.822   6.255   5.596  1.00  0.00     0.029 A 
ATOM     44  C   UNL     1       9.253   6.120   5.375  1.00  0.00     0.049 A 
ATOM     45  H   UNL     1      10.363   4.346   5.524  1.00  0.00     0.167 HD
ATOM     46  C   UNL     1      12.392   0.601   5.117  1.00  0.00     0.034 A 
ATOM     47  C   UNL     1      10.173   7.085   5.088  1.00  0.00     0.034 A 
ATOM     48  C   UNL     1      12.727   0.989   6.477  1.00  0.00     0.049 A 
ATOM     49  C   UNL     1      11.489   6.555   5.516  1.00  0.00     0.074 A 
ATOM     50  C   UNL     1      12.319   0.565   7.730  1.00  0.00     0.029 A 
ATOM     51  N   UNL     1      13.290   2.231   6.684  1.00  0.00    -0.354 N 
ATOM     52  N   UNL     1      11.795   6.331   6.764  1.00  0.00    -0.248 NA
ATOM     53  C   UNL     1      12.280   5.818   4.543  1.00  0.00     0.031 C 
ATOM     54  C   UNL     1      12.172   1.762   8.493  1.00  0.00     0.029 A 
ATOM     55  C   UNL     1      12.607   2.833   7.711  1.00  0.00     0.049 A 
ATOM     56  H   UNL     1      14.046   2.617   6.184  1.00  0.00     0.167 HD
ATOM     57  C   UNL     1      12.463   5.117   6.751  1.00  0.00     0.074 A 
ATOM     58  C   UNL     1      12.825   4.902   5.350  1.00  0.00     0.031 C 
ATOM     59  C   UNL     1      12.406   4.267   7.820  1.00  0.00     0.034 A 
BRANCH  46  60
ATOM     60  C   UNL     1      13.412   0.656   3.994  1.00  0.00     0.023 A 
ATOM     61  C   UNL     1      14.765   0.713   4.377  1.00  0.00     0.031 A 
ATOM     62  C   UNL     1      13.150   0.973   2.640  1.00  0.00     0.131 A 
ATOM     63  C   UNL     1      15.742   1.224   3.508  1.00  0.00     0.055 A 
ATOM     64  C   UNL     1      14.142   1.408   1.755  1.00  0.00     0.041 A 
ATOM     65  F   UNL     1      11.925   0.964   2.108  1.00  0.00    -0.206 F 
ATOM     66  C   UNL     1      15.440   1.579   2.198  1.00  0.00     0.022 A 
BRANCH  63  67
ATOM     67  S   UNL     1      17.366   1.614   4.200  1.00  0.00     0.124 S 
ATOM     68  O   UNL     1      17.000   2.534   5.273  1.00  0.00    -0.237 OA
ATOM     69  O   UNL     1      17.840   0.297   4.613  1.00  0.00    -0.237 OA
ATOM     70  O   UNL     1      18.079   2.211   3.074  1.00  0.00    -0.744 OA
ENDBRANCH  63  67
ENDBRANCH  46  60
BRANCH  47  71
ATOM     71  C   UNL     1      10.018   8.315   4.255  1.00  0.00     0.023 A 
ATOM     72  C   UNL     1      10.957   9.375   4.258  1.00  0.00     0.031 A 
ATOM     73  C   UNL     1       9.049   8.341   3.228  1.00  0.00     0.131 A 
ATOM     74  C   UNL     1      10.905  10.384   3.262  1.00  0.00     0.055 A 
ATOM     75  C   UNL     1       9.003   9.337   2.249  1.00  0.00     0.041 A 
ATOM     76  F   UNL     1       8.162   7.344   3.084  1.00  0.00    -0.206 F 
ATOM     77  C   UNL     1       9.939  10.357   2.254  1.00  0.00     0.022 A 
BRANCH  74  78
ATOM     78  S   UNL     1      12.165  11.705   3.193  1.00  0.00     0.124 S 
ATOM     79  O   UNL     1      11.822  12.524   4.350  1.00  0.00    -0.237 OA
ATOM     80  O   UNL     1      13.414  10.957   3.271  1.00  0.00    -0.237 OA
ATOM     81  O   UNL     1      11.919  12.344   1.898  1.00  0.00    -0.744 OA
ENDBRANCH  74  78
ENDBRANCH  47  71
BRANCH  59  82
ATOM     82  C   UNL     1      11.926   4.799   9.158  1.00  0.00     0.023 A 
ATOM     83  C   UNL     1      10.699   5.464   9.390  1.00  0.00     0.031 A 
ATOM     84  C   UNL     1      12.734   4.522  10.276  1.00  0.00     0.131 A 
ATOM     85  C   UNL     1      10.335   5.835  10.702  1.00  0.00     0.055 A 
ATOM     86  C   UNL     1      12.360   4.868  11.573  1.00  0.00     0.041 A 
ATOM     87  F   UNL     1      13.904   3.877  10.130  1.00  0.00    -0.206 F 
ATOM     88  C   UNL     1      11.161   5.534  11.790  1.00  0.00     0.022 A 
BRANCH  85  89
ATOM     89  S   UNL     1       8.791   6.749  11.024  1.00  0.00     0.124 S 
ATOM     90  O   UNL     1       8.780   7.782   9.995  1.00  0.00    -0.237 OA
ATOM     91  O   UNL     1       7.775   5.707  10.894  1.00  0.00    -0.237 OA
ATOM     92  O   UNL     1       8.972   7.251  12.388  1.00  0.00    -0.744 OA
ENDBRANCH  85  89
ENDBRANCH  59  82
ENDBRANCH  33  34
ENDBRANCH  25  28
ENDBRANCH  23  24
ENDBRANCH   1  23
TORSDOF 16
