REMARK SMILES CC[C@](O)(C(=O)NCCCNC(=O)c1ccc(-c2c3nc(c(-c4cc(S(=O)(=O)[O-])ccc4F)c4ccc([nH]4)c(-c4cc(S(=O)(=O)[O-])ccc4F)c4nc(c(-c5cc(S(=O)(=O)[O-])ccc5F)c5ccc2[nH]5)C=C4)C=C3)cc1)[C@@H](C)c1ccc2c(c1)OCCO2
REMARK SMILES IDX 9 1 8 2 7 3 5 4 6 5 3 7 2 8 1 9 77 10 78 11 79 12 80 13
REMARK SMILES IDX 84 14 81 15 83 16 82 17 85 18 88 19 86 20 87 21 4 22 10 24
REMARK SMILES IDX 11 25 12 26 13 28 14 29 15 30 76 31 16 32 75 33 17 34 18 35
REMARK SMILES IDX 19 36 69 37 20 38 74 39 68 40 70 41 21 42 73 43 67 44 66 45
REMARK SMILES IDX 22 47 54 48 34 49 53 50 35 51 38 52 52 53 71 54 36 55 37 56
REMARK SMILES IDX 51 58 72 59 39 60 23 61 24 62 32 63 25 64 31 65 33 66 30 67
REMARK SMILES IDX 26 68 27 69 28 70 29 71 55 72 56 73 64 74 57 75 63 76 65 77
REMARK SMILES IDX 62 78 58 79 59 80 60 81 61 82 40 83 41 84 49 85 42 86 48 87
REMARK SMILES IDX 50 88 47 89 43 90 44 91 45 92 46 93
REMARK H PARENT 7 6 4 23 11 27 70 46 38 57
REMARK Flexibility Score: inf
ROOT
ATOM      1  C   UNL     1      -2.938   2.878  -0.762  1.00  0.00     0.042 C 
ENDROOT
BRANCH   1   2
ATOM      2  C   UNL     1      -2.208   2.423  -2.007  1.00  0.00     0.117 C 
BRANCH   2   3
ATOM      3  N   UNL     1      -1.128   3.307  -2.400  1.00  0.00    -0.354 N 
ATOM      4  C   UNL     1       0.212   3.025  -2.455  1.00  0.00     0.252 C 
ATOM      5  O   UNL     1       0.942   3.843  -3.018  1.00  0.00    -0.272 OA
ATOM      6  H   UNL     1      -1.389   4.220  -2.659  1.00  0.00     0.163 HD
BRANCH   4   7
ATOM      7  C   UNL     1       0.724   1.665  -1.891  1.00  0.00     0.149 C 
BRANCH   7   8
ATOM      8  C   UNL     1       0.260   0.565  -2.904  1.00  0.00     0.043 C 
ATOM      9  C   UNL     1      -0.244  -0.748  -2.315  1.00  0.00     0.007 C 
ENDBRANCH   7   8
BRANCH   7  10
ATOM     10  C   UNL     1       2.276   1.678  -1.768  1.00  0.00     0.058 C 
ATOM     11  C   UNL     1       2.858   2.871  -0.969  1.00  0.00     0.016 C 
BRANCH  10  12
ATOM     12  C   UNL     1       2.829   0.374  -1.186  1.00  0.00    -0.038 A 
ATOM     13  C   UNL     1       3.294  -0.642  -2.044  1.00  0.00     0.008 A 
ATOM     14  C   UNL     1       3.027   0.248   0.196  1.00  0.00     0.054 A 
ATOM     15  C   UNL     1       4.094  -1.671  -1.555  1.00  0.00     0.051 A 
ATOM     16  C   UNL     1       3.938  -0.683   0.653  1.00  0.00     0.161 A 
ATOM     17  C   UNL     1       4.501  -1.604  -0.232  1.00  0.00     0.161 A 
ATOM     18  O   UNL     1       4.395  -0.522   1.931  1.00  0.00    -0.486 OA
ATOM     19  O   UNL     1       5.643  -2.281   0.131  1.00  0.00    -0.486 OA
ATOM     20  C   UNL     1       5.805  -0.776   2.034  1.00  0.00     0.271 C 
ATOM     21  C   UNL     1       6.464  -1.274   0.747  1.00  0.00     0.271 C 
ENDBRANCH  10  12
ENDBRANCH   7  10
BRANCH   7  22
ATOM     22  O   UNL     1       0.151   1.503  -0.584  1.00  0.00    -0.379 OA
ATOM     23  H   UNL     1       0.472   2.209  -0.001  1.00  0.00     0.212 HD
ENDBRANCH   7  22
ENDBRANCH   4   7
ENDBRANCH   2   3
ENDBRANCH   1   2
BRANCH   1  24
ATOM     24  C   UNL     1      -3.683   4.183  -0.963  1.00  0.00     0.118 C 
BRANCH  24  25
ATOM     25  N   UNL     1      -4.606   4.126  -2.093  1.00  0.00    -0.352 N 
ATOM     26  C   UNL     1      -5.974   4.173  -2.123  1.00  0.00     0.251 C 
ATOM     27  H   UNL     1      -4.176   4.039  -2.974  1.00  0.00     0.163 HD
ATOM     28  O   UNL     1      -6.566   3.843  -3.153  1.00  0.00    -0.269 OA
BRANCH  26  29
ATOM     29  C   UNL     1      -6.726   4.599  -0.928  1.00  0.00     0.039 A 
ATOM     30  C   UNL     1      -7.940   3.980  -0.627  1.00  0.00     0.014 A 
ATOM     31  C   UNL     1      -6.233   5.614  -0.105  1.00  0.00     0.014 A 
ATOM     32  C   UNL     1      -8.621   4.338   0.537  1.00  0.00     0.010 A 
ATOM     33  C   UNL     1      -6.845   5.877   1.112  1.00  0.00     0.010 A 
ATOM     34  C   UNL     1      -8.058   5.258   1.437  1.00  0.00    -0.014 A 
BRANCH  34  35
ATOM     35  C   UNL     1      -8.738   5.606   2.709  1.00  0.00     0.031 A 
ATOM     36  C   UNL     1      -9.152   7.029   2.974  1.00  0.00     0.074 A 
ATOM     37  C   UNL     1      -8.938   4.650   3.637  1.00  0.00     0.049 A 
ATOM     38  N   UNL     1      -9.716   7.542   4.037  1.00  0.00    -0.248 NA
ATOM     39  C   UNL     1      -8.860   8.013   1.919  1.00  0.00     0.031 C 
ATOM     40  C   UNL     1      -8.522   3.250   3.512  1.00  0.00     0.029 A 
ATOM     41  N   UNL     1      -9.538   4.707   4.869  1.00  0.00    -0.354 N 
ATOM     42  C   UNL     1      -9.841   8.903   3.780  1.00  0.00     0.074 A 
ATOM     43  C   UNL     1      -9.214   9.148   2.500  1.00  0.00     0.031 C 
ATOM     44  C   UNL     1      -8.917   2.575   4.603  1.00  0.00     0.029 A 
ATOM     45  C   UNL     1      -9.565   3.499   5.527  1.00  0.00     0.049 A 
ATOM     46  H   UNL     1      -9.914   5.535   5.246  1.00  0.00     0.167 HD
ATOM     47  C   UNL     1     -10.457   9.854   4.524  1.00  0.00     0.034 A 
ATOM     48  C   UNL     1     -10.051   3.176   6.741  1.00  0.00     0.034 A 
ATOM     49  C   UNL     1     -11.082   9.587   5.796  1.00  0.00     0.049 A 
ATOM     50  C   UNL     1     -10.711   4.255   7.562  1.00  0.00     0.074 A 
ATOM     51  C   UNL     1     -11.766  10.461   6.621  1.00  0.00     0.029 A 
ATOM     52  N   UNL     1     -11.094   8.350   6.430  1.00  0.00    -0.354 N 
ATOM     53  N   UNL     1     -10.872   5.528   7.279  1.00  0.00    -0.248 NA
ATOM     54  C   UNL     1     -11.272   3.850   8.856  1.00  0.00     0.031 C 
ATOM     55  C   UNL     1     -12.129   9.772   7.784  1.00  0.00     0.029 A 
ATOM     56  C   UNL     1     -11.750   8.446   7.648  1.00  0.00     0.049 A 
ATOM     57  H   UNL     1     -10.696   7.526   6.068  1.00  0.00     0.167 HD
ATOM     58  C   UNL     1     -11.579   6.068   8.350  1.00  0.00     0.074 A 
ATOM     59  C   UNL     1     -11.834   4.976   9.267  1.00  0.00     0.031 C 
ATOM     60  C   UNL     1     -11.983   7.348   8.558  1.00  0.00     0.034 A 
BRANCH  47  61
ATOM     61  C   UNL     1     -10.465  11.264   3.980  1.00  0.00     0.023 A 
ATOM     62  C   UNL     1     -11.083  11.577   2.755  1.00  0.00     0.031 A 
ATOM     63  C   UNL     1      -9.822  12.304   4.673  1.00  0.00     0.131 A 
ATOM     64  C   UNL     1     -10.975  12.871   2.224  1.00  0.00     0.055 A 
ATOM     65  C   UNL     1      -9.796  13.611   4.182  1.00  0.00     0.041 A 
ATOM     66  F   UNL     1      -9.193  12.065   5.835  1.00  0.00    -0.206 F 
ATOM     67  C   UNL     1     -10.361  13.898   2.942  1.00  0.00     0.022 A 
BRANCH  64  68
ATOM     68  S   UNL     1     -11.515  13.152   0.515  1.00  0.00     0.124 S 
ATOM     69  O   UNL     1     -10.670  12.213  -0.219  1.00  0.00    -0.237 OA
ATOM     70  O   UNL     1     -12.934  12.823   0.574  1.00  0.00    -0.237 OA
ATOM     71  O   UNL     1     -11.209  14.563   0.287  1.00  0.00    -0.744 OA
ENDBRANCH  64  68
ENDBRANCH  47  61
BRANCH  48  72
ATOM     72  C   UNL     1      -9.927   1.783   7.260  1.00  0.00     0.023 A 
ATOM     73  C   UNL     1     -11.064   1.006   7.536  1.00  0.00     0.031 A 
ATOM     74  C   UNL     1      -8.666   1.222   7.530  1.00  0.00     0.131 A 
ATOM     75  C   UNL     1     -10.920  -0.264   8.117  1.00  0.00     0.055 A 
ATOM     76  C   UNL     1      -8.526  -0.066   8.050  1.00  0.00     0.041 A 
ATOM     77  F   UNL     1      -7.545   1.918   7.280  1.00  0.00    -0.206 F 
ATOM     78  C   UNL     1      -9.658  -0.811   8.362  1.00  0.00     0.022 A 
BRANCH  75  79
ATOM     79  S   UNL     1     -12.411  -1.151   8.645  1.00  0.00     0.124 S 
ATOM     80  O   UNL     1     -13.021  -0.191   9.557  1.00  0.00    -0.237 OA
ATOM     81  O   UNL     1     -13.102  -1.362   7.377  1.00  0.00    -0.237 OA
ATOM     82  O   UNL     1     -11.882  -2.361   9.272  1.00  0.00    -0.744 OA
ENDBRANCH  75  79
ENDBRANCH  48  72
BRANCH  60  83
ATOM     83  C   UNL     1     -12.780   7.617   9.812  1.00  0.00     0.023 A 
ATOM     84  C   UNL     1     -12.223   7.457  11.092  1.00  0.00     0.031 A 
ATOM     85  C   UNL     1     -14.127   8.015   9.722  1.00  0.00     0.131 A 
ATOM     86  C   UNL     1     -13.027   7.622  12.230  1.00  0.00     0.055 A 
ATOM     87  C   UNL     1     -14.901   8.250  10.858  1.00  0.00     0.041 A 
ATOM     88  F   UNL     1     -14.713   8.180   8.526  1.00  0.00    -0.206 F 
ATOM     89  C   UNL     1     -14.357   8.037  12.122  1.00  0.00     0.022 A 
BRANCH  86  90
ATOM     90  S   UNL     1     -12.345   7.169  13.848  1.00  0.00     0.124 S 
ATOM     91  O   UNL     1     -11.967   5.776  13.638  1.00  0.00    -0.237 OA
ATOM     92  O   UNL     1     -11.243   8.114  13.997  1.00  0.00    -0.237 OA
ATOM     93  O   UNL     1     -13.467   7.377  14.763  1.00  0.00    -0.744 OA
ENDBRANCH  86  90
ENDBRANCH  60  83
ENDBRANCH  34  35
ENDBRANCH  26  29
ENDBRANCH  24  25
ENDBRANCH   1  24
TORSDOF 17
