REMARK SMILES C[NH2+]CC(=O)NC[C@H]1CC[C@H](C(=O)NCCCNC(=O)c2ccc(-c3c4nc(c(-c5cc(S(=O)(=O)[O-])ccc5F)c5ccc([nH]5)c(-c5cc(S(=O)(=O)[O-])ccc5F)c5nc(c(-c6cc(S(=O)(=O)[O-])ccc6F)c6ccc3[nH]6)C=C5)C=C4)cc2)O1
REMARK SMILES IDX 15 1 14 2 12 3 13 4 11 6 8 7 9 8 84 9 10 10 7 11 6 12 4 13
REMARK SMILES IDX 5 14 3 16 2 17 1 18 16 21 17 22 18 23 19 24 20 26 21 27
REMARK SMILES IDX 22 28 83 29 23 30 82 31 24 32 25 33 26 34 76 35 27 36 81 37
REMARK SMILES IDX 75 38 77 39 28 40 80 41 74 42 73 43 29 45 61 46 41 47 60 48
REMARK SMILES IDX 42 49 45 50 59 51 78 52 43 53 44 54 58 56 79 57 46 58 30 59
REMARK SMILES IDX 31 60 39 61 32 62 38 63 40 64 37 65 33 66 34 67 35 68 36 69
REMARK SMILES IDX 62 70 63 71 71 72 64 73 70 74 72 75 69 76 65 77 66 78 67 79
REMARK SMILES IDX 68 80 47 81 48 82 56 83 49 84 55 85 57 86 54 87 50 88 51 89
REMARK SMILES IDX 52 90 53 91
REMARK H PARENT 14 5 6 15 2 19 2 20 18 25 77 44 45 55
REMARK Flexibility Score: inf
ROOT
ATOM      1  C   UNL     1      -0.707   2.069  -2.082  1.00  0.00     0.117 C 
ENDROOT
BRANCH   1   2
ATOM      2  N   UNL     1       0.578   2.038  -2.749  1.00  0.00    -0.354 N 
ATOM      3  C   UNL     1       1.835   2.011  -2.222  1.00  0.00     0.249 C 
ATOM      4  O   UNL     1       2.782   1.954  -3.013  1.00  0.00    -0.272 OA
ATOM      5  H   UNL     1       0.537   2.036  -3.732  1.00  0.00     0.163 HD
BRANCH   3   6
ATOM      6  C   UNL     1       2.087   2.127  -0.702  1.00  0.00     0.207 C 
ATOM      7  C   UNL     1       0.810   2.037   1.262  1.00  0.00     0.138 C 
ATOM      8  C   UNL     1       0.818   3.484   0.813  1.00  0.00     0.037 C 
ATOM      9  O   UNL     1       1.329   1.268   0.160  1.00  0.00    -0.363 OA
ATOM     10  C   UNL     1       1.928   3.557  -0.205  1.00  0.00     0.045 C 
BRANCH   7  11
ATOM     11  C   UNL     1       1.599   1.773   2.561  1.00  0.00     0.148 C 
BRANCH  11  12
ATOM     12  N   UNL     1       3.002   1.485   2.327  1.00  0.00    -0.349 N 
ATOM     13  C   UNL     1       4.125   1.909   2.962  1.00  0.00     0.275 C 
ATOM     14  O   UNL     1       5.208   1.449   2.590  1.00  0.00    -0.269 OA
ATOM     15  H   UNL     1       3.170   0.873   1.574  1.00  0.00     0.163 HD
BRANCH  13  16
ATOM     16  C   UNL     1       4.061   2.976   4.059  1.00  0.00     0.361 C 
BRANCH  16  17
ATOM     17  N   UNL     1       4.561   4.266   3.548  1.00  0.00    -0.341 N 
ATOM     18  C   UNL     1       3.494   5.106   3.037  1.00  0.00     0.331 C 
ATOM     19  H   UNL     1       5.032   4.759   4.306  1.00  0.00     0.346 HD
ATOM     20  H   UNL     1       5.199   4.070   2.777  1.00  0.00     0.346 HD
ENDBRANCH  16  17
ENDBRANCH  13  16
ENDBRANCH  11  12
ENDBRANCH   7  11
ENDBRANCH   3   6
ENDBRANCH   1   2
BRANCH   1  21
ATOM     21  C   UNL     1      -1.293   3.476  -2.023  1.00  0.00     0.042 C 
BRANCH  21  22
ATOM     22  C   UNL     1      -2.002   3.900  -3.301  1.00  0.00     0.118 C 
BRANCH  22  23
ATOM     23  N   UNL     1      -3.232   3.150  -3.504  1.00  0.00    -0.352 N 
ATOM     24  C   UNL     1      -4.542   3.559  -3.476  1.00  0.00     0.251 C 
ATOM     25  H   UNL     1      -3.103   2.192  -3.693  1.00  0.00     0.163 HD
ATOM     26  O   UNL     1      -5.420   2.705  -3.386  1.00  0.00    -0.269 OA
BRANCH  24  27
ATOM     27  C   UNL     1      -4.905   4.995  -3.544  1.00  0.00     0.039 A 
ATOM     28  C   UNL     1      -6.040   5.434  -2.854  1.00  0.00     0.014 A 
ATOM     29  C   UNL     1      -4.187   5.896  -4.334  1.00  0.00     0.014 A 
ATOM     30  C   UNL     1      -6.427   6.776  -2.923  1.00  0.00     0.010 A 
ATOM     31  C   UNL     1      -4.523   7.248  -4.335  1.00  0.00     0.010 A 
ATOM     32  C   UNL     1      -5.656   7.701  -3.644  1.00  0.00    -0.014 A 
BRANCH  32  33
ATOM     33  C   UNL     1      -6.037   9.136  -3.720  1.00  0.00     0.031 A 
ATOM     34  C   UNL     1      -6.401   9.746  -5.049  1.00  0.00     0.074 A 
ATOM     35  C   UNL     1      -5.991   9.899  -2.611  1.00  0.00     0.049 A 
ATOM     36  N   UNL     1      -6.661  10.993  -5.345  1.00  0.00    -0.248 NA
ATOM     37  C   UNL     1      -6.447   8.834  -6.202  1.00  0.00     0.031 C 
ATOM     38  C   UNL     1      -5.618   9.428  -1.276  1.00  0.00     0.029 A 
ATOM     39  N   UNL     1      -6.248  11.235  -2.430  1.00  0.00    -0.354 N 
ATOM     40  C   UNL     1      -6.877  11.020  -6.720  1.00  0.00     0.074 A 
ATOM     41  C   UNL     1      -6.663   9.673  -7.203  1.00  0.00     0.031 C 
ATOM     42  C   UNL     1      -5.688  10.453  -0.412  1.00  0.00     0.029 A 
ATOM     43  C   UNL     1      -6.066  11.662  -1.135  1.00  0.00     0.049 A 
ATOM     44  H   UNL     1      -6.536  11.831  -3.159  1.00  0.00     0.167 HD
ATOM     45  C   UNL     1      -7.241  12.067  -7.502  1.00  0.00     0.034 A 
ATOM     46  C   UNL     1      -6.178  12.892  -0.596  1.00  0.00     0.034 A 
ATOM     47  C   UNL     1      -7.475  13.399  -6.997  1.00  0.00     0.049 A 
ATOM     48  C   UNL     1      -6.583  14.041  -1.484  1.00  0.00     0.074 A 
ATOM     49  C   UNL     1      -7.902  14.521  -7.687  1.00  0.00     0.029 A 
ATOM     50  N   UNL     1      -7.301  13.789  -5.675  1.00  0.00    -0.354 N 
ATOM     51  N   UNL     1      -6.825  14.040  -2.775  1.00  0.00    -0.248 NA
ATOM     52  C   UNL     1      -6.744  15.351  -0.841  1.00  0.00     0.031 C 
ATOM     53  C   UNL     1      -7.930  15.600  -6.795  1.00  0.00     0.029 A 
ATOM     54  C   UNL     1      -7.589  15.138  -5.534  1.00  0.00     0.049 A 
ATOM     55  H   UNL     1      -7.016  13.194  -4.945  1.00  0.00     0.167 HD
ATOM     56  C   UNL     1      -7.196  15.344  -3.091  1.00  0.00     0.074 A 
ATOM     57  C   UNL     1      -7.160  16.097  -1.853  1.00  0.00     0.031 C 
ATOM     58  C   UNL     1      -7.540  15.872  -4.293  1.00  0.00     0.034 A 
BRANCH  45  59
ATOM     59  C   UNL     1      -7.383  11.813  -8.984  1.00  0.00     0.023 A 
ATOM     60  C   UNL     1      -8.347  10.925  -9.493  1.00  0.00     0.031 A 
ATOM     61  C   UNL     1      -6.527  12.449  -9.901  1.00  0.00     0.131 A 
ATOM     62  C   UNL     1      -8.380  10.637 -10.867  1.00  0.00     0.055 A 
ATOM     63  C   UNL     1      -6.620  12.221 -11.276  1.00  0.00     0.041 A 
ATOM     64  F   UNL     1      -5.575  13.293  -9.475  1.00  0.00    -0.206 F 
ATOM     65  C   UNL     1      -7.540  11.299 -11.765  1.00  0.00     0.022 A 
BRANCH  62  66
ATOM     66  S   UNL     1      -9.442   9.285 -11.442  1.00  0.00     0.124 S 
ATOM     67  O   UNL     1      -8.896   8.148 -10.705  1.00  0.00    -0.237 OA
ATOM     68  O   UNL     1     -10.770   9.731 -11.037  1.00  0.00    -0.237 OA
ATOM     69  O   UNL     1      -9.207   9.254 -12.884  1.00  0.00    -0.744 OA
ENDBRANCH  62  66
ENDBRANCH  45  59
BRANCH  46  70
ATOM     70  C   UNL     1      -5.897  13.110   0.852  1.00  0.00     0.023 A 
ATOM     71  C   UNL     1      -6.915  13.511   1.732  1.00  0.00     0.031 A 
ATOM     72  C   UNL     1      -4.599  12.958   1.370  1.00  0.00     0.131 A 
ATOM     73  C   UNL     1      -6.609  13.791   3.073  1.00  0.00     0.055 A 
ATOM     74  C   UNL     1      -4.310  13.190   2.716  1.00  0.00     0.041 A 
ATOM     75  F   UNL     1      -3.591  12.568   0.573  1.00  0.00    -0.206 F 
ATOM     76  C   UNL     1      -5.316  13.622   3.574  1.00  0.00     0.022 A 
BRANCH  73  77
ATOM     77  S   UNL     1      -7.916  14.460   4.139  1.00  0.00     0.124 S 
ATOM     78  O   UNL     1      -8.314  15.656   3.406  1.00  0.00    -0.237 OA
ATOM     79  O   UNL     1      -8.881  13.366   4.155  1.00  0.00    -0.237 OA
ATOM     80  O   UNL     1      -7.229  14.703   5.406  1.00  0.00    -0.744 OA
ENDBRANCH  73  77
ENDBRANCH  46  70
BRANCH  58  81
ATOM     81  C   UNL     1      -7.949  17.323  -4.308  1.00  0.00     0.023 A 
ATOM     82  C   UNL     1      -7.029  18.354  -4.052  1.00  0.00     0.031 A 
ATOM     83  C   UNL     1      -9.286  17.676  -4.568  1.00  0.00     0.131 A 
ATOM     84  C   UNL     1      -7.468  19.686  -4.007  1.00  0.00     0.055 A 
ATOM     85  C   UNL     1      -9.704  19.006  -4.579  1.00  0.00     0.041 A 
ATOM     86  F   UNL     1     -10.205  16.730  -4.818  1.00  0.00    -0.206 F 
ATOM     87  C   UNL     1      -8.796  20.019  -4.285  1.00  0.00     0.022 A 
BRANCH  84  88
ATOM     88  S   UNL     1      -6.296  20.971  -3.496  1.00  0.00     0.124 S 
ATOM     89  O   UNL     1      -5.909  20.517  -2.164  1.00  0.00    -0.237 OA
ATOM     90  O   UNL     1      -5.264  20.881  -4.524  1.00  0.00    -0.237 OA
ATOM     91  O   UNL     1      -7.094  22.195  -3.526  1.00  0.00    -0.744 OA
ENDBRANCH  84  88
ENDBRANCH  58  81
ENDBRANCH  32  33
ENDBRANCH  24  27
ENDBRANCH  22  23
ENDBRANCH  21  22
ENDBRANCH   1  21
TORSDOF 17
