REMARK SMILES C[C@H](C(=O)NCCCNC(=O)c1ccc(-c2c3nc(c(-c4cc(S(=O)(=O)[O-])ccc4F)c4ccc([nH]4)c(-c4cc(S(=O)(=O)[O-])ccc4F)c4nc(c(-c5cc(S(=O)(=O)[O-])ccc5F)c5ccc2[nH]5)C=C4)C=C3)cc1)[N@@H+](C)C[C@@H]1CCC[N@H+]1C
REMARK SMILES IDX 7 1 6 2 5 3 3 4 4 5 2 7 1 8 75 9 76 10 77 12 78 13 79 14
REMARK SMILES IDX 82 15 80 16 81 17 83 18 8 20 9 21 10 22 11 24 12 25 13 26
REMARK SMILES IDX 74 27 14 28 73 29 15 30 16 31 17 32 67 33 18 34 72 35 66 36
REMARK SMILES IDX 68 37 19 38 71 39 65 40 64 41 20 43 52 44 32 45 51 46 33 47
REMARK SMILES IDX 36 48 50 49 69 50 34 51 35 52 49 54 70 55 37 56 21 57 22 58
REMARK SMILES IDX 30 59 23 60 29 61 31 62 28 63 24 64 25 65 26 66 27 67 53 68
REMARK SMILES IDX 54 69 62 70 55 71 61 72 63 73 60 74 56 75 57 76 58 77 59 78
REMARK SMILES IDX 38 79 39 80 47 81 40 82 46 83 48 84 45 85 41 86 42 87 43 88
REMARK SMILES IDX 44 89
REMARK H PARENT 5 6 75 11 82 19 9 23 68 42 36 53
REMARK Flexibility Score: inf
ROOT
ATOM      1  C   UNL     1      -1.793  -3.874  -7.174  1.00  0.00     0.042 C 
ENDROOT
BRANCH   1   2
ATOM      2  C   UNL     1      -2.363  -4.938  -6.248  1.00  0.00     0.118 C 
BRANCH   2   3
ATOM      3  N   UNL     1      -1.302  -5.522  -5.456  1.00  0.00    -0.351 N 
ATOM      4  C   UNL     1      -0.916  -5.162  -4.201  1.00  0.00     0.278 C 
ATOM      5  O   UNL     1       0.235  -5.433  -3.849  1.00  0.00    -0.268 OA
ATOM      6  H   UNL     1      -0.803  -6.262  -5.871  1.00  0.00     0.163 HD
BRANCH   4   7
ATOM      7  C   UNL     1      -1.969  -4.557  -3.259  1.00  0.00     0.270 C 
ATOM      8  C   UNL     1      -2.053  -5.589  -2.127  1.00  0.00     0.086 C 
BRANCH   7   9
ATOM      9  N   UNL     1      -1.622  -3.156  -3.010  1.00  0.00    -0.322 N 
ATOM     10  C   UNL     1      -2.515  -2.111  -3.455  1.00  0.00     0.333 C 
ATOM     11  H   UNL     1      -0.960  -3.133  -3.786  1.00  0.00     0.348 HD
BRANCH   9  12
ATOM     12  C   UNL     1      -0.717  -2.829  -1.922  1.00  0.00     0.328 C 
BRANCH  12  13
ATOM     13  C   UNL     1      -1.313  -2.606  -0.496  1.00  0.00     0.239 C 
ATOM     14  C   UNL     1      -0.189  -2.767   0.546  1.00  0.00     0.077 C 
ATOM     15  N   UNL     1      -2.339  -3.578  -0.080  1.00  0.00    -0.330 N 
ATOM     16  C   UNL     1      -0.536  -4.042   1.294  1.00  0.00     0.068 C 
ATOM     17  C   UNL     1      -2.048  -4.044   1.266  1.00  0.00     0.262 C 
ATOM     18  C   UNL     1      -3.718  -3.169  -0.264  1.00  0.00     0.333 C 
ATOM     19  H   UNL     1      -2.269  -4.361  -0.730  1.00  0.00     0.348 HD
ENDBRANCH  12  13
ENDBRANCH   9  12
ENDBRANCH   7   9
ENDBRANCH   4   7
ENDBRANCH   2   3
ENDBRANCH   1   2
BRANCH   1  20
ATOM     20  C   UNL     1      -0.653  -4.399  -8.039  1.00  0.00     0.118 C 
BRANCH  20  21
ATOM     21  N   UNL     1      -1.011  -5.637  -8.722  1.00  0.00    -0.352 N 
ATOM     22  C   UNL     1      -1.019  -5.922 -10.062  1.00  0.00     0.251 C 
ATOM     23  H   UNL     1      -1.289  -6.376  -8.134  1.00  0.00     0.163 HD
ATOM     24  O   UNL     1      -1.599  -6.919 -10.470  1.00  0.00    -0.269 OA
BRANCH  22  25
ATOM     25  C   UNL     1      -0.336  -5.004 -10.991  1.00  0.00     0.039 A 
ATOM     26  C   UNL     1      -0.951  -4.691 -12.202  1.00  0.00     0.014 A 
ATOM     27  C   UNL     1       0.901  -4.447 -10.654  1.00  0.00     0.014 A 
ATOM     28  C   UNL     1      -0.341  -3.775 -13.056  1.00  0.00     0.010 A 
ATOM     29  C   UNL     1       1.453  -3.458 -11.456  1.00  0.00     0.010 A 
ATOM     30  C   UNL     1       0.846  -3.125 -12.673  1.00  0.00    -0.014 A 
BRANCH  30  31
ATOM     31  C   UNL     1       1.464  -2.105 -13.554  1.00  0.00     0.031 A 
ATOM     32  C   UNL     1       2.837  -2.333 -14.123  1.00  0.00     0.074 A 
ATOM     33  C   UNL     1       0.791  -0.968 -13.816  1.00  0.00     0.049 A 
ATOM     34  N   UNL     1       3.538  -1.566 -14.918  1.00  0.00    -0.248 NA
ATOM     35  C   UNL     1       3.526  -3.570 -13.724  1.00  0.00     0.031 C 
ATOM     36  C   UNL     1      -0.522  -0.620 -13.266  1.00  0.00     0.029 A 
ATOM     37  N   UNL     1       1.109   0.100 -14.614  1.00  0.00    -0.354 N 
ATOM     38  C   UNL     1       4.745  -2.227 -15.115  1.00  0.00     0.074 A 
ATOM     39  C   UNL     1       4.713  -3.414 -14.289  1.00  0.00     0.031 C 
ATOM     40  C   UNL     1      -0.917   0.555 -13.781  1.00  0.00     0.029 A 
ATOM     41  C   UNL     1       0.132   1.067 -14.656  1.00  0.00     0.049 A 
ATOM     42  H   UNL     1       1.956   0.168 -15.110  1.00  0.00     0.167 HD
ATOM     43  C   UNL     1       5.770  -1.893 -15.936  1.00  0.00     0.034 A 
ATOM     44  C   UNL     1       0.089   2.237 -15.323  1.00  0.00     0.034 A 
ATOM     45  C   UNL     1       5.780  -0.702 -16.751  1.00  0.00     0.049 A 
ATOM     46  C   UNL     1       1.252   2.599 -16.212  1.00  0.00     0.074 A 
ATOM     47  C   UNL     1       6.744  -0.279 -17.647  1.00  0.00     0.029 A 
ATOM     48  N   UNL     1       4.779   0.263 -16.761  1.00  0.00    -0.354 N 
ATOM     49  N   UNL     1       2.362   1.932 -16.435  1.00  0.00    -0.248 NA
ATOM     50  C   UNL     1       1.147   3.862 -16.951  1.00  0.00     0.031 C 
ATOM     51  C   UNL     1       6.365   0.974 -18.140  1.00  0.00     0.029 A 
ATOM     52  C   UNL     1       5.119   1.294 -17.624  1.00  0.00     0.049 A 
ATOM     53  H   UNL     1       3.949   0.220 -16.233  1.00  0.00     0.167 HD
ATOM     54  C   UNL     1       3.075   2.685 -17.364  1.00  0.00     0.074 A 
ATOM     55  C   UNL     1       2.254   3.837 -17.676  1.00  0.00     0.031 C 
ATOM     56  C   UNL     1       4.297   2.448 -17.910  1.00  0.00     0.034 A 
BRANCH  43  57
ATOM     57  C   UNL     1       6.963  -2.819 -15.970  1.00  0.00     0.023 A 
ATOM     58  C   UNL     1       6.846  -4.159 -16.384  1.00  0.00     0.031 A 
ATOM     59  C   UNL     1       8.230  -2.370 -15.558  1.00  0.00     0.131 A 
ATOM     60  C   UNL     1       7.951  -5.019 -16.303  1.00  0.00     0.055 A 
ATOM     61  C   UNL     1       9.347  -3.209 -15.563  1.00  0.00     0.041 A 
ATOM     62  F   UNL     1       8.403  -1.110 -15.127  1.00  0.00    -0.206 F 
ATOM     63  C   UNL     1       9.208  -4.546 -15.922  1.00  0.00     0.022 A 
BRANCH  60  64
ATOM     64  S   UNL     1       7.686  -6.796 -16.555  1.00  0.00     0.124 S 
ATOM     65  O   UNL     1       6.702  -7.097 -15.518  1.00  0.00    -0.237 OA
ATOM     66  O   UNL     1       7.203  -6.851 -17.930  1.00  0.00    -0.237 OA
ATOM     67  O   UNL     1       9.010  -7.375 -16.334  1.00  0.00    -0.744 OA
ENDBRANCH  60  64
ENDBRANCH  43  57
BRANCH  44  68
ATOM     68  C   UNL     1      -1.082   3.149 -15.177  1.00  0.00     0.023 A 
ATOM     69  C   UNL     1      -1.897   3.470 -16.275  1.00  0.00     0.031 A 
ATOM     70  C   UNL     1      -1.379   3.749 -13.940  1.00  0.00     0.131 A 
ATOM     71  C   UNL     1      -2.933   4.405 -16.127  1.00  0.00     0.055 A 
ATOM     72  C   UNL     1      -2.450   4.630 -13.784  1.00  0.00     0.041 A 
ATOM     73  F   UNL     1      -0.636   3.474 -12.856  1.00  0.00    -0.206 F 
ATOM     74  C   UNL     1      -3.224   4.975 -14.886  1.00  0.00     0.022 A 
BRANCH  71  75
ATOM     75  S   UNL     1      -3.835   4.943 -17.607  1.00  0.00     0.124 S 
ATOM     76  O   UNL     1      -2.754   5.449 -18.445  1.00  0.00    -0.237 OA
ATOM     77  O   UNL     1      -4.462   3.701 -18.047  1.00  0.00    -0.237 OA
ATOM     78  O   UNL     1      -4.755   5.956 -17.093  1.00  0.00    -0.744 OA
ENDBRANCH  71  75
ENDBRANCH  44  68
BRANCH  56  79
ATOM     79  C   UNL     1       4.792   3.446 -18.930  1.00  0.00     0.023 A 
ATOM     80  C   UNL     1       5.053   4.784 -18.589  1.00  0.00     0.031 A 
ATOM     81  C   UNL     1       4.972   3.059 -20.270  1.00  0.00     0.131 A 
ATOM     82  C   UNL     1       5.400   5.705 -19.588  1.00  0.00     0.055 A 
ATOM     83  C   UNL     1       5.395   3.963 -21.246  1.00  0.00     0.041 A 
ATOM     84  F   UNL     1       4.735   1.795 -20.656  1.00  0.00    -0.206 F 
ATOM     85  C   UNL     1       5.593   5.299 -20.911  1.00  0.00     0.022 A 
BRANCH  82  86
ATOM     86  S   UNL     1       5.467   7.466 -19.159  1.00  0.00     0.124 S 
ATOM     87  O   UNL     1       4.130   7.698 -18.624  1.00  0.00    -0.237 OA
ATOM     88  O   UNL     1       6.558   7.510 -18.191  1.00  0.00    -0.237 OA
ATOM     89  O   UNL     1       5.745   8.120 -20.437  1.00  0.00    -0.744 OA
ENDBRANCH  82  86
ENDBRANCH  56  79
ENDBRANCH  30  31
ENDBRANCH  22  25
ENDBRANCH  20  21
ENDBRANCH   1  20
TORSDOF 16
