REMARK SMILES CCCCc1nc(C[N@H+]2CC[NH2+][C@H](C(=O)NCCCNC(=O)c3ccc(-c4c5nc(c(-c6cc(S(=O)(=O)[O-])ccc6F)c6ccc([nH]6)c(-c6cc(S(=O)(=O)[O-])ccc6F)c6nc(c(-c7cc(S(=O)(=O)[O-])ccc7F)c7ccc4[nH]7)C=C6)C=C5)cc3)C2)c(Cl)[nH]1
REMARK SMILES IDX 17 1 16 2 14 3 15 4 13 6 9 7 10 8 86 9 11 11 12 12 8 15 7 16
REMARK SMILES IDX 5 17 6 18 89 19 87 20 88 22 4 23 3 24 2 25 1 26 18 27 19 28
REMARK SMILES IDX 20 29 21 30 22 32 23 33 24 34 85 35 25 36 84 37 26 38 27 39
REMARK SMILES IDX 28 40 78 41 29 42 83 43 77 44 79 45 30 46 82 47 76 48 75 49
REMARK SMILES IDX 31 51 63 52 43 53 62 54 44 55 47 56 61 57 80 58 45 59 46 60
REMARK SMILES IDX 60 62 81 63 48 64 32 65 33 66 41 67 34 68 40 69 42 70 39 71
REMARK SMILES IDX 35 72 36 73 37 74 38 75 64 76 65 77 73 78 66 79 72 80 74 81
REMARK SMILES IDX 71 82 67 83 68 84 69 85 70 86 49 87 50 88 58 89 51 90 57 91
REMARK SMILES IDX 59 92 56 93 52 94 53 95 54 96 55 97
REMARK H PARENT 16 5 9 10 12 13 12 14 89 21 20 31 79 50 47 61
REMARK Flexibility Score: inf
ROOT
ATOM      1  C   UNL     1      -0.029  -0.239  -2.154  1.00  0.00     0.118 C 
ENDROOT
BRANCH   1   2
ATOM      2  N   UNL     1      -0.020  -1.201  -1.062  1.00  0.00    -0.351 N 
ATOM      3  C   UNL     1      -0.993  -1.506  -0.143  1.00  0.00     0.284 C 
ATOM      4  O   UNL     1      -0.866  -2.566   0.478  1.00  0.00    -0.268 OA
ATOM      5  H   UNL     1       0.815  -1.714  -0.967  1.00  0.00     0.163 HD
BRANCH   3   6
ATOM      6  C   UNL     1      -2.130  -0.509   0.170  1.00  0.00     0.328 C 
ATOM      7  N   UNL     1      -4.414  -0.366   1.383  1.00  0.00    -0.320 N 
ATOM      8  C   UNL     1      -4.904   0.313   0.180  1.00  0.00     0.324 C 
ATOM      9  C   UNL     1      -3.183  -1.155   1.127  1.00  0.00     0.339 C 
ATOM     10  H   UNL     1      -5.136  -1.048   1.617  1.00  0.00     0.348 HD
ATOM     11  C   UNL     1      -3.822   0.941  -0.717  1.00  0.00     0.323 C 
ATOM     12  N   UNL     1      -2.779  -0.021  -1.078  1.00  0.00    -0.327 N 
ATOM     13  H   UNL     1      -2.084   0.432  -1.673  1.00  0.00     0.347 HD
ATOM     14  H   UNL     1      -3.188  -0.804  -1.587  1.00  0.00     0.347 HD
BRANCH   7  15
ATOM     15  C   UNL     1      -4.363   0.472   2.594  1.00  0.00     0.323 C 
BRANCH  15  16
ATOM     16  C   UNL     1      -3.258   1.473   2.616  1.00  0.00     0.132 A 
ATOM     17  C   UNL     1      -1.209   2.160   2.780  1.00  0.00     0.107 A 
ATOM     18  N   UNL     1      -1.971   1.099   2.959  1.00  0.00    -0.231 NA
ATOM     19  N   UNL     1      -1.977   3.241   2.412  1.00  0.00    -0.333 N 
ATOM     20  C   UNL     1      -3.264   2.812   2.323  1.00  0.00     0.135 A 
ATOM     21  H   UNL     1      -1.654   4.155   2.243  1.00  0.00     0.169 HD
ATOM     22  Cl  UNL     1      -4.459   3.907   1.836  1.00  0.00    -0.062 Cl
BRANCH  17  23
ATOM     23  C   UNL     1       0.280   2.249   2.872  1.00  0.00     0.075 C 
BRANCH  23  24
ATOM     24  C   UNL     1       0.943   1.088   3.621  1.00  0.00     0.008 C 
BRANCH  24  25
ATOM     25  C   UNL     1       0.985  -0.254   2.880  1.00  0.00    -0.003 C 
ATOM     26  C   UNL     1       1.853  -0.214   1.637  1.00  0.00     0.004 C 
ENDBRANCH  24  25
ENDBRANCH  23  24
ENDBRANCH  17  23
ENDBRANCH  15  16
ENDBRANCH   7  15
ENDBRANCH   3   6
ENDBRANCH   1   2
BRANCH   1  27
ATOM     27  C   UNL     1       0.456   1.170  -1.806  1.00  0.00     0.042 C 
BRANCH  27  28
ATOM     28  C   UNL     1       1.977   1.279  -1.799  1.00  0.00     0.118 C 
BRANCH  28  29
ATOM     29  N   UNL     1       2.583   1.008  -3.101  1.00  0.00    -0.352 N 
ATOM     30  C   UNL     1       3.916   0.933  -3.455  1.00  0.00     0.251 C 
ATOM     31  H   UNL     1       1.945   0.855  -3.835  1.00  0.00     0.163 HD
ATOM     32  O   UNL     1       4.227   1.008  -4.637  1.00  0.00    -0.269 OA
BRANCH  30  33
ATOM     33  C   UNL     1       4.957   0.767  -2.417  1.00  0.00     0.039 A 
ATOM     34  C   UNL     1       6.228   1.331  -2.580  1.00  0.00     0.014 A 
ATOM     35  C   UNL     1       4.677  -0.001  -1.290  1.00  0.00     0.014 A 
ATOM     36  C   UNL     1       7.187   1.154  -1.581  1.00  0.00     0.010 A 
ATOM     37  C   UNL     1       5.563  -0.053  -0.244  1.00  0.00     0.010 A 
ATOM     38  C   UNL     1       6.842   0.459  -0.413  1.00  0.00    -0.014 A 
BRANCH  38  39
ATOM     39  C   UNL     1       7.750   0.366   0.726  1.00  0.00     0.031 A 
ATOM     40  C   UNL     1       8.061   1.689   1.329  1.00  0.00     0.074 A 
ATOM     41  C   UNL     1       8.024  -0.808   1.341  1.00  0.00     0.049 A 
ATOM     42  N   UNL     1       9.179   2.334   1.304  1.00  0.00    -0.248 NA
ATOM     43  C   UNL     1       6.932   2.493   1.837  1.00  0.00     0.031 C 
ATOM     44  C   UNL     1       7.484  -2.135   1.021  1.00  0.00     0.029 A 
ATOM     45  N   UNL     1       8.747  -1.055   2.468  1.00  0.00    -0.354 N 
ATOM     46  C   UNL     1       8.959   3.489   2.050  1.00  0.00     0.074 A 
ATOM     47  C   UNL     1       7.535   3.656   2.082  1.00  0.00     0.031 C 
ATOM     48  C   UNL     1       7.704  -2.979   2.054  1.00  0.00     0.029 A 
ATOM     49  C   UNL     1       8.522  -2.306   3.049  1.00  0.00     0.049 A 
ATOM     50  H   UNL     1       9.380  -0.402   2.845  1.00  0.00     0.167 HD
ATOM     51  C   UNL     1       9.942   4.012   2.838  1.00  0.00     0.034 A 
ATOM     52  C   UNL     1       8.941  -2.741   4.274  1.00  0.00     0.034 A 
ATOM     53  C   UNL     1      11.230   3.452   2.469  1.00  0.00     0.049 A 
ATOM     54  C   UNL     1      10.059  -1.847   4.675  1.00  0.00     0.074 A 
ATOM     55  C   UNL     1      11.951   3.385   1.291  1.00  0.00     0.029 A 
ATOM     56  N   UNL     1      11.772   2.477   3.282  1.00  0.00    -0.354 N 
ATOM     57  N   UNL     1      11.197  -1.797   4.037  1.00  0.00    -0.248 NA
ATOM     58  C   UNL     1       9.727  -0.654   5.440  1.00  0.00     0.031 C 
ATOM     59  C   UNL     1      12.502   2.069   1.272  1.00  0.00     0.029 A 
ATOM     60  C   UNL     1      12.191   1.444   2.481  1.00  0.00     0.049 A 
ATOM     61  H   UNL     1      11.844   2.515   4.263  1.00  0.00     0.167 HD
ATOM     62  C   UNL     1      11.498  -0.446   3.948  1.00  0.00     0.074 A 
ATOM     63  C   UNL     1      10.604   0.203   4.908  1.00  0.00     0.031 C 
ATOM     64  C   UNL     1      12.220   0.052   2.898  1.00  0.00     0.034 A 
BRANCH  51  65
ATOM     65  C   UNL     1       9.708   4.668   4.193  1.00  0.00     0.023 A 
ATOM     66  C   UNL     1      10.859   4.983   4.940  1.00  0.00     0.031 A 
ATOM     67  C   UNL     1       8.491   4.742   4.908  1.00  0.00     0.131 A 
ATOM     68  C   UNL     1      10.796   5.171   6.331  1.00  0.00     0.055 A 
ATOM     69  C   UNL     1       8.426   4.991   6.284  1.00  0.00     0.041 A 
ATOM     70  F   UNL     1       7.295   4.521   4.356  1.00  0.00    -0.206 F 
ATOM     71  C   UNL     1       9.586   5.164   7.014  1.00  0.00     0.022 A 
BRANCH  68  72
ATOM     72  S   UNL     1      12.353   5.225   7.250  1.00  0.00     0.124 S 
ATOM     73  O   UNL     1      12.988   3.989   6.805  1.00  0.00    -0.237 OA
ATOM     74  O   UNL     1      12.943   6.467   6.761  1.00  0.00    -0.237 OA
ATOM     75  O   UNL     1      11.921   5.244   8.644  1.00  0.00    -0.744 OA
ENDBRANCH  68  72
ENDBRANCH  51  65
BRANCH  52  76
ATOM     76  C   UNL     1       8.227  -3.643   5.234  1.00  0.00     0.023 A 
ATOM     77  C   UNL     1       8.863  -4.303   6.314  1.00  0.00     0.031 A 
ATOM     78  C   UNL     1       6.814  -3.667   5.235  1.00  0.00     0.131 A 
ATOM     79  C   UNL     1       8.093  -4.944   7.321  1.00  0.00     0.055 A 
ATOM     80  C   UNL     1       6.061  -4.299   6.230  1.00  0.00     0.041 A 
ATOM     81  F   UNL     1       6.107  -2.999   4.311  1.00  0.00    -0.206 F 
ATOM     82  C   UNL     1       6.697  -4.932   7.283  1.00  0.00     0.022 A 
BRANCH  79  83
ATOM     83  S   UNL     1       8.889  -5.743   8.760  1.00  0.00     0.124 S 
ATOM     84  O   UNL     1       9.561  -6.885   8.152  1.00  0.00    -0.237 OA
ATOM     85  O   UNL     1       9.747  -4.683   9.277  1.00  0.00    -0.237 OA
ATOM     86  O   UNL     1       7.762  -6.090   9.629  1.00  0.00    -0.744 OA
ENDBRANCH  79  83
ENDBRANCH  52  76
BRANCH  64  87
ATOM     87  C   UNL     1      12.952  -0.921   1.991  1.00  0.00     0.023 A 
ATOM     88  C   UNL     1      12.355  -1.978   1.264  1.00  0.00     0.031 A 
ATOM     89  C   UNL     1      14.318  -0.671   1.768  1.00  0.00     0.131 A 
ATOM     90  C   UNL     1      13.130  -2.741   0.364  1.00  0.00     0.055 A 
ATOM     91  C   UNL     1      15.073  -1.410   0.860  1.00  0.00     0.041 A 
ATOM     92  F   UNL     1      14.940   0.333   2.409  1.00  0.00    -0.206 F 
ATOM     93  C   UNL     1      14.483  -2.453   0.158  1.00  0.00     0.022 A 
BRANCH  90  94
ATOM     94  S   UNL     1      12.404  -4.146  -0.546  1.00  0.00     0.124 S 
ATOM     95  O   UNL     1      11.668  -4.875   0.479  1.00  0.00    -0.237 OA
ATOM     96  O   UNL     1      11.595  -3.479  -1.563  1.00  0.00    -0.237 OA
ATOM     97  O   UNL     1      13.576  -4.851  -1.072  1.00  0.00    -0.744 OA
ENDBRANCH  90  94
ENDBRANCH  64  87
ENDBRANCH  38  39
ENDBRANCH  30  33
ENDBRANCH  28  29
ENDBRANCH  27  28
ENDBRANCH   1  27
TORSDOF 18
