REMARK SMILES Cc1c(Cc2ccccc2)c(=O)oc2cc(OCC(=O)N[C@H](C)C(=O)NCCCNC(=O)c3ccc(-c4c5nc(c(-c6cc(S(=O)(=O)[O-])ccc6F)c6ccc([nH]6)c(-c6cc(S(=O)(=O)[O-])ccc6F)c6nc(c(-c7cc(S(=O)(=O)[O-])ccc7F)c7ccc4[nH]7)C=C6)C=C5)cc3)ccc12
REMARK SMILES IDX 24 1 25 2 26 3 22 5 23 6 21 7 19 8 20 9 18 11 17 12 16 13
REMARK SMILES IDX 1 14 2 15 3 16 98 17 11 18 14 19 97 20 12 21 13 22 15 23
REMARK SMILES IDX 96 24 4 25 5 26 6 27 10 28 7 29 9 30 8 31 27 32 28 33 29 34
REMARK SMILES IDX 30 35 31 36 32 38 33 39 34 40 95 41 35 42 94 43 36 44 37 45
REMARK SMILES IDX 38 46 88 47 39 48 93 49 87 50 89 51 40 52 92 53 86 54 85 55
REMARK SMILES IDX 41 57 73 58 53 59 72 60 54 61 57 62 71 63 90 64 55 65 56 66
REMARK SMILES IDX 70 68 91 69 58 70 42 71 43 72 51 73 44 74 50 75 52 76 49 77
REMARK SMILES IDX 45 78 46 79 47 80 48 81 74 82 75 83 83 84 76 85 82 86 84 87
REMARK SMILES IDX 81 88 77 89 78 90 79 91 80 92 59 93 60 94 68 95 61 96 67 97
REMARK SMILES IDX 69 98 66 99 62 100 63 101 64 102 65 103
REMARK H PARENT 26 4 21 10 30 37 89 56 57 67
REMARK Flexibility Score: inf
ROOT
ATOM      1  C   UNL     1       5.744   3.969  -3.420  1.00  0.00     0.242 C 
ATOM      2  O   UNL     1       6.609   4.428  -2.664  1.00  0.00    -0.273 OA
ATOM      3  N   UNL     1       5.749   4.429  -4.698  1.00  0.00    -0.354 N 
ATOM      4  H   UNL     1       6.430   5.115  -4.884  1.00  0.00     0.163 HD
ENDROOT
BRANCH   1   5
ATOM      5  C   UNL     1       4.640   3.043  -2.852  1.00  0.00     0.168 C 
ATOM      6  C   UNL     1       3.443   3.865  -2.410  1.00  0.00     0.041 C 
BRANCH   5   7
ATOM      7  N   UNL     1       4.392   1.792  -3.581  1.00  0.00    -0.342 N 
ATOM      8  C   UNL     1       3.449   1.304  -4.426  1.00  0.00     0.258 C 
ATOM      9  O   UNL     1       3.682   0.200  -4.931  1.00  0.00    -0.271 OA
ATOM     10  H   UNL     1       5.100   1.130  -3.411  1.00  0.00     0.164 HD
BRANCH   8  11
ATOM     11  C   UNL     1       2.177   2.067  -4.811  1.00  0.00     0.329 C 
BRANCH  11  12
ATOM     12  O   UNL     1       1.308   2.455  -3.775  1.00  0.00    -0.484 OA
BRANCH  12  13
ATOM     13  C   UNL     1       0.636   1.462  -3.135  1.00  0.00     0.123 A 
ATOM     14  C   UNL     1      -2.704  -0.857   0.010  1.00  0.00     0.046 C 
ATOM     15  C   UNL     1      -1.657  -1.387  -0.934  1.00  0.00    -0.029 A 
ATOM     16  C   UNL     1      -1.405  -2.693  -1.171  1.00  0.00     0.046 A 
ATOM     17  C   UNL     1      -0.858  -0.379  -1.640  1.00  0.00     0.021 A 
ATOM     18  C   UNL     1      -0.478  -3.118  -2.261  1.00  0.00     0.340 A 
ATOM     19  C   UNL     1      -0.100  -0.780  -2.730  1.00  0.00     0.142 A 
ATOM     20  C   UNL     1      -0.818   0.972  -1.272  1.00  0.00     0.016 A 
ATOM     21  O   UNL     1      -0.218  -4.298  -2.476  1.00  0.00    -0.246 OA
ATOM     22  O   UNL     1       0.011  -2.127  -3.092  1.00  0.00    -0.422 OA
ATOM     23  C   UNL     1       0.622   0.122  -3.500  1.00  0.00     0.094 A 
ATOM     24  C   UNL     1      -0.073   1.885  -2.014  1.00  0.00     0.047 A 
BRANCH  16  25
ATOM     25  C   UNL     1      -2.049  -3.846  -0.437  1.00  0.00     0.079 C 
BRANCH  25  26
ATOM     26  C   UNL     1      -1.327  -4.223   0.844  1.00  0.00    -0.043 A 
ATOM     27  C   UNL     1      -0.665  -5.453   0.953  1.00  0.00     0.004 A 
ATOM     28  C   UNL     1      -1.319  -3.364   1.953  1.00  0.00     0.004 A 
ATOM     29  C   UNL     1      -0.036  -5.816   2.148  1.00  0.00     0.000 A 
ATOM     30  C   UNL     1      -0.677  -3.718   3.139  1.00  0.00     0.000 A 
ATOM     31  C   UNL     1      -0.043  -4.950   3.240  1.00  0.00     0.000 A 
ENDBRANCH  25  26
ENDBRANCH  16  25
ENDBRANCH  12  13
ENDBRANCH  11  12
ENDBRANCH   8  11
ENDBRANCH   5   7
ENDBRANCH   1   5
BRANCH   3  32
ATOM     32  C   UNL     1       4.923   4.081  -5.827  1.00  0.00     0.117 C 
BRANCH  32  33
ATOM     33  C   UNL     1       3.804   5.087  -6.072  1.00  0.00     0.042 C 
BRANCH  33  34
ATOM     34  C   UNL     1       4.185   6.140  -7.096  1.00  0.00     0.118 C 
BRANCH  34  35
ATOM     35  N   UNL     1       4.405   5.541  -8.410  1.00  0.00    -0.352 N 
ATOM     36  C   UNL     1       3.786   5.767  -9.613  1.00  0.00     0.251 C 
ATOM     37  H   UNL     1       5.117   4.861  -8.436  1.00  0.00     0.163 HD
ATOM     38  O   UNL     1       3.958   4.969 -10.527  1.00  0.00    -0.269 OA
BRANCH  36  39
ATOM     39  C   UNL     1       2.913   6.945  -9.795  1.00  0.00     0.039 A 
ATOM     40  C   UNL     1       1.797   6.839 -10.629  1.00  0.00     0.014 A 
ATOM     41  C   UNL     1       3.202   8.156  -9.164  1.00  0.00     0.014 A 
ATOM     42  C   UNL     1       0.943   7.931 -10.779  1.00  0.00     0.010 A 
ATOM     43  C   UNL     1       2.290   9.201  -9.220  1.00  0.00     0.010 A 
ATOM     44  C   UNL     1       1.161   9.107 -10.044  1.00  0.00    -0.014 A 
BRANCH  44  45
ATOM     45  C   UNL     1       0.239  10.266 -10.139  1.00  0.00     0.031 A 
ATOM     46  C   UNL     1       0.759  11.595 -10.620  1.00  0.00     0.074 A 
ATOM     47  C   UNL     1      -1.036  10.136  -9.725  1.00  0.00     0.049 A 
ATOM     48  N   UNL     1       0.147  12.748 -10.683  1.00  0.00    -0.248 NA
ATOM     49  C   UNL     1       2.166  11.640 -11.052  1.00  0.00     0.031 C 
ATOM     50  C   UNL     1      -1.632   8.906  -9.195  1.00  0.00     0.029 A 
ATOM     51  N   UNL     1      -2.060  11.046  -9.674  1.00  0.00    -0.354 N 
ATOM     52  C   UNL     1       1.097  13.656 -11.138  1.00  0.00     0.074 A 
ATOM     53  C   UNL     1       2.343  12.933 -11.269  1.00  0.00     0.031 C 
ATOM     54  C   UNL     1      -2.922   9.132  -8.903  1.00  0.00     0.029 A 
ATOM     55  C   UNL     1      -3.232  10.532  -9.168  1.00  0.00     0.049 A 
ATOM     56  H   UNL     1      -1.966  11.980  -9.971  1.00  0.00     0.167 HD
ATOM     57  C   UNL     1       0.936  14.967 -11.443  1.00  0.00     0.034 A 
ATOM     58  C   UNL     1      -4.417  11.128  -8.928  1.00  0.00     0.034 A 
ATOM     59  C   UNL     1      -0.323  15.660 -11.325  1.00  0.00     0.049 A 
ATOM     60  C   UNL     1      -4.567  12.592  -9.262  1.00  0.00     0.074 A 
ATOM     61  C   UNL     1      -0.621  16.966 -11.669  1.00  0.00     0.029 A 
ATOM     62  N   UNL     1      -1.492  15.105 -10.819  1.00  0.00    -0.354 N 
ATOM     63  N   UNL     1      -3.674  13.424  -9.748  1.00  0.00    -0.248 NA
ATOM     64  C   UNL     1      -5.885  13.193  -9.027  1.00  0.00     0.031 C 
ATOM     65  C   UNL     1      -1.943  17.225 -11.295  1.00  0.00     0.029 A 
ATOM     66  C   UNL     1      -2.501  16.055 -10.805  1.00  0.00     0.049 A 
ATOM     67  H   UNL     1      -1.589  14.174 -10.514  1.00  0.00     0.167 HD
ATOM     68  C   UNL     1      -4.335  14.638  -9.909  1.00  0.00     0.074 A 
ATOM     69  C   UNL     1      -5.703  14.423  -9.483  1.00  0.00     0.031 C 
ATOM     70  C   UNL     1      -3.859  15.823 -10.370  1.00  0.00     0.034 A 
BRANCH  57  71
ATOM     71  C   UNL     1       2.153  15.735 -11.904  1.00  0.00     0.023 A 
ATOM     72  C   UNL     1       2.845  15.395 -13.080  1.00  0.00     0.031 A 
ATOM     73  C   UNL     1       2.637  16.817 -11.148  1.00  0.00     0.131 A 
ATOM     74  C   UNL     1       4.020  16.079 -13.425  1.00  0.00     0.055 A 
ATOM     75  C   UNL     1       3.758  17.550 -11.543  1.00  0.00     0.041 A 
ATOM     76  F   UNL     1       2.035  17.174 -10.002  1.00  0.00    -0.206 F 
ATOM     77  C   UNL     1       4.465  17.174 -12.681  1.00  0.00     0.022 A 
BRANCH  74  78
ATOM     78  S   UNL     1       5.037  15.428 -14.778  1.00  0.00     0.124 S 
ATOM     79  O   UNL     1       5.335  14.080 -14.300  1.00  0.00    -0.237 OA
ATOM     80  O   UNL     1       4.135  15.515 -15.921  1.00  0.00    -0.237 OA
ATOM     81  O   UNL     1       6.181  16.336 -14.815  1.00  0.00    -0.744 OA
ENDBRANCH  74  78
ENDBRANCH  57  71
BRANCH  58  82
ATOM     82  C   UNL     1      -5.546  10.358  -8.331  1.00  0.00     0.023 A 
ATOM     83  C   UNL     1      -6.748  10.171  -9.032  1.00  0.00     0.031 A 
ATOM     84  C   UNL     1      -5.458   9.834  -7.028  1.00  0.00     0.131 A 
ATOM     85  C   UNL     1      -7.830   9.531  -8.409  1.00  0.00     0.055 A 
ATOM     86  C   UNL     1      -6.516   9.142  -6.436  1.00  0.00     0.041 A 
ATOM     87  F   UNL     1      -4.331   9.979  -6.312  1.00  0.00    -0.206 F 
ATOM     88  C   UNL     1      -7.717   9.002  -7.122  1.00  0.00     0.022 A 
BRANCH  85  89
ATOM     89  S   UNL     1      -9.428   9.495  -9.268  1.00  0.00     0.124 S 
ATOM     90  O   UNL     1      -9.675  10.914  -9.493  1.00  0.00    -0.237 OA
ATOM     91  O   UNL     1      -9.116   8.701 -10.452  1.00  0.00    -0.237 OA
ATOM     92  O   UNL     1     -10.317   8.850  -8.304  1.00  0.00    -0.744 OA
ENDBRANCH  85  89
ENDBRANCH  58  82
BRANCH  70  93
ATOM     93  C   UNL     1      -4.843  16.962 -10.484  1.00  0.00     0.023 A 
ATOM     94  C   UNL     1      -5.449  17.536  -9.354  1.00  0.00     0.031 A 
ATOM     95  C   UNL     1      -5.181  17.476 -11.749  1.00  0.00     0.131 A 
ATOM     96  C   UNL     1      -6.407  18.548  -9.514  1.00  0.00     0.055 A 
ATOM     97  C   UNL     1      -6.081  18.531 -11.897  1.00  0.00     0.041 A 
ATOM     98  F   UNL     1      -4.636  16.963 -12.864  1.00  0.00    -0.206 F 
ATOM     99  C   UNL     1      -6.711  19.064 -10.777  1.00  0.00     0.022 A 
BRANCH  96 100
ATOM    100  S   UNL     1      -7.327  19.113  -8.057  1.00  0.00     0.124 S 
ATOM    101  O   UNL     1      -7.939  17.874  -7.587  1.00  0.00    -0.237 OA
ATOM    102  O   UNL     1      -6.271  19.662  -7.213  1.00  0.00    -0.237 OA
ATOM    103  O   UNL     1      -8.260  20.097  -8.602  1.00  0.00    -0.744 OA
ENDBRANCH  96 100
ENDBRANCH  70  93
ENDBRANCH  44  45
ENDBRANCH  36  39
ENDBRANCH  34  35
ENDBRANCH  33  34
ENDBRANCH  32  33
ENDBRANCH   3  32
TORSDOF 19
