REMARK SMILES O=C(COc1ccccc1[C@@H]1[NH2+]CCc2cc(O)c(O)cc21)NCCCNC(=O)c1ccc(-c2c3nc(c(-c4cc(S(=O)(=O)[O-])ccc4F)c4ccc([nH]4)c(-c4cc(S(=O)(=O)[O-])ccc4F)c4nc(c(-c5cc(S(=O)(=O)[O-])ccc5F)c5ccc2[nH]5)C=C4)C=C3)cc1
REMARK SMILES IDX 24 1 23 2 1 3 2 4 3 6 4 7 5 8 6 9 10 10 7 11 9 12 8 13 11 14
REMARK SMILES IDX 12 15 22 16 13 17 15 20 21 21 14 22 16 23 19 24 17 25 20 26
REMARK SMILES IDX 18 28 25 30 26 31 27 32 28 33 29 35 30 36 31 37 92 38 32 39
REMARK SMILES IDX 91 40 33 41 34 42 35 43 85 44 36 45 90 46 84 47 86 48 37 49
REMARK SMILES IDX 89 50 83 51 82 52 38 54 70 55 50 56 69 57 51 58 54 59 68 60
REMARK SMILES IDX 87 61 52 62 53 63 67 65 88 66 55 67 39 68 40 69 48 70 41 71
REMARK SMILES IDX 47 72 49 73 46 74 42 75 43 76 44 77 45 78 71 79 72 80 80 81
REMARK SMILES IDX 73 82 79 83 81 84 78 85 74 86 75 87 76 88 77 89 56 90 57 91
REMARK SMILES IDX 65 92 58 93 64 94 66 95 63 96 59 97 60 98 61 99 62 100
REMARK H PARENT 23 5 12 18 12 19 20 27 18 29 27 34 86 53 54 64
REMARK Flexibility Score: inf
ROOT
ATOM      1  C   UNL     1       2.462   2.502  -0.025  1.00  0.00     0.117 C 
ENDROOT
BRANCH   1   2
ATOM      2  N   UNL     1       3.329   1.342  -0.061  1.00  0.00    -0.353 N 
ATOM      3  O   UNL     1       2.609   0.431   1.917  1.00  0.00    -0.271 OA
ATOM      4  C   UNL     1       3.216   0.314   0.854  1.00  0.00     0.257 C 
ATOM      5  H   UNL     1       4.020   1.284  -0.759  1.00  0.00     0.163 HD
BRANCH   4   6
ATOM      6  C   UNL     1       3.889  -0.997   0.424  1.00  0.00     0.329 C 
BRANCH   6   7
ATOM      7  O   UNL     1       4.240  -1.200  -0.928  1.00  0.00    -0.483 OA
BRANCH   7   8
ATOM      8  C   UNL     1       3.412  -1.410  -1.994  1.00  0.00     0.129 A 
ATOM      9  C   UNL     1       4.180  -1.933  -3.058  1.00  0.00     0.047 A 
ATOM     10  C   UNL     1       2.050  -1.101  -2.224  1.00  0.00     0.056 A 
ATOM     11  C   UNL     1       3.683  -2.043  -4.352  1.00  0.00     0.004 A 
ATOM     12  C   UNL     1       1.605  -1.129  -3.572  1.00  0.00     0.014 A 
ATOM     13  C   UNL     1       2.407  -1.588  -4.620  1.00  0.00     0.001 A 
BRANCH  10  14
ATOM     14  C   UNL     1       1.039  -0.697  -1.155  1.00  0.00     0.249 C 
ATOM     15  N   UNL     1       1.106  -1.552   0.038  1.00  0.00    -0.336 N 
ATOM     16  C   UNL     1      -0.448  -0.561  -1.502  1.00  0.00     0.021 A 
ATOM     17  C   UNL     1       0.553  -2.896  -0.167  1.00  0.00     0.266 C 
ATOM     18  H   UNL     1       0.583  -1.100   0.788  1.00  0.00     0.347 HD
ATOM     19  H   UNL     1       2.093  -1.669   0.266  1.00  0.00     0.347 HD
ATOM     20  C   UNL     1      -1.230  -1.740  -1.476  1.00  0.00    -0.029 A 
ATOM     21  C   UNL     1      -1.072   0.691  -1.626  1.00  0.00     0.060 A 
ATOM     22  C   UNL     1      -0.493  -3.038  -1.285  1.00  0.00     0.097 C 
ATOM     23  C   UNL     1      -2.620  -1.667  -1.538  1.00  0.00     0.054 A 
ATOM     24  C   UNL     1      -2.461   0.749  -1.654  1.00  0.00     0.157 A 
ATOM     25  C   UNL     1      -3.222  -0.419  -1.595  1.00  0.00     0.157 A 
BRANCH  24  26
ATOM     26  O   UNL     1      -3.135   1.939  -1.684  1.00  0.00    -0.504 OA
ATOM     27  H   UNL     1      -4.072   1.947  -1.702  1.00  0.00     0.293 HD
ENDBRANCH  24  26
BRANCH  25  28
ATOM     28  O   UNL     1      -4.585  -0.338  -1.539  1.00  0.00    -0.504 OA
ATOM     29  H   UNL     1      -5.099  -1.119  -1.499  1.00  0.00     0.293 HD
ENDBRANCH  25  28
ENDBRANCH  10  14
ENDBRANCH   7   8
ENDBRANCH   6   7
ENDBRANCH   4   6
ENDBRANCH   1   2
BRANCH   1  30
ATOM     30  C   UNL     1       2.705   3.458   1.124  1.00  0.00     0.042 C 
BRANCH  30  31
ATOM     31  C   UNL     1       4.147   3.902   1.242  1.00  0.00     0.118 C 
BRANCH  31  32
ATOM     32  N   UNL     1       4.634   4.558   0.037  1.00  0.00    -0.352 N 
ATOM     33  C   UNL     1       5.298   5.752  -0.098  1.00  0.00     0.251 C 
ATOM     34  H   UNL     1       4.462   4.075  -0.803  1.00  0.00     0.163 HD
ATOM     35  O   UNL     1       5.485   6.214  -1.217  1.00  0.00    -0.269 OA
BRANCH  33  36
ATOM     36  C   UNL     1       5.747   6.481   1.108  1.00  0.00     0.039 A 
ATOM     37  C   UNL     1       5.627   7.871   1.138  1.00  0.00     0.014 A 
ATOM     38  C   UNL     1       6.277   5.801   2.208  1.00  0.00     0.014 A 
ATOM     39  C   UNL     1       5.994   8.569   2.289  1.00  0.00     0.010 A 
ATOM     40  C   UNL     1       6.532   6.483   3.391  1.00  0.00     0.010 A 
ATOM     41  C   UNL     1       6.423   7.879   3.435  1.00  0.00    -0.014 A 
BRANCH  41  42
ATOM     42  C   UNL     1       6.811   8.611   4.667  1.00  0.00     0.031 A 
ATOM     43  C   UNL     1       8.225   8.519   5.179  1.00  0.00     0.074 A 
ATOM     44  C   UNL     1       5.889   9.334   5.332  1.00  0.00     0.049 A 
ATOM     45  N   UNL     1       8.762   9.080   6.232  1.00  0.00    -0.248 NA
ATOM     46  C   UNL     1       9.148   7.654   4.427  1.00  0.00     0.031 C 
ATOM     47  C   UNL     1       4.476   9.448   4.962  1.00  0.00     0.029 A 
ATOM     48  N   UNL     1       6.000  10.114   6.454  1.00  0.00    -0.354 N 
ATOM     49  C   UNL     1      10.078   8.629   6.271  1.00  0.00     0.074 A 
ATOM     50  C   UNL     1      10.230   7.684   5.187  1.00  0.00     0.031 C 
ATOM     51  C   UNL     1       3.865  10.288   5.813  1.00  0.00     0.029 A 
ATOM     52  C   UNL     1       4.828  10.738   6.812  1.00  0.00     0.049 A 
ATOM     53  H   UNL     1       6.841  10.219   6.956  1.00  0.00     0.167 HD
ATOM     54  C   UNL     1      11.077   8.995   7.112  1.00  0.00     0.034 A 
ATOM     55  C   UNL     1       4.563  11.582   7.830  1.00  0.00     0.034 A 
ATOM     56  C   UNL     1      10.907   9.948   8.181  1.00  0.00     0.049 A 
ATOM     57  C   UNL     1       5.689  11.974   8.752  1.00  0.00     0.074 A 
ATOM     58  C   UNL     1      11.853  10.425   9.071  1.00  0.00     0.029 A 
ATOM     59  N   UNL     1       9.707  10.568   8.509  1.00  0.00    -0.354 N 
ATOM     60  N   UNL     1       6.944  11.584   8.742  1.00  0.00    -0.248 NA
ATOM     61  C   UNL     1       5.367  12.941   9.807  1.00  0.00     0.031 C 
ATOM     62  C   UNL     1      11.213  11.278   9.977  1.00  0.00     0.029 A 
ATOM     63  C   UNL     1       9.885  11.404   9.601  1.00  0.00     0.049 A 
ATOM     64  H   UNL     1       8.855  10.432   8.036  1.00  0.00     0.167 HD
ATOM     65  C   UNL     1       7.569  12.290   9.767  1.00  0.00     0.074 A 
ATOM     66  C   UNL     1       6.556  13.143  10.355  1.00  0.00     0.031 C 
ATOM     67  C   UNL     1       8.861  12.243  10.183  1.00  0.00     0.034 A 
BRANCH  54  68
ATOM     68  C   UNL     1      12.426   8.341   6.912  1.00  0.00     0.023 A 
ATOM     69  C   UNL     1      13.149   8.485   5.713  1.00  0.00     0.031 A 
ATOM     70  C   UNL     1      12.982   7.530   7.917  1.00  0.00     0.131 A 
ATOM     71  C   UNL     1      14.336   7.764   5.517  1.00  0.00     0.055 A 
ATOM     72  C   UNL     1      14.211   6.888   7.750  1.00  0.00     0.041 A 
ATOM     73  F   UNL     1      12.332   7.333   9.075  1.00  0.00    -0.206 F 
ATOM     74  C   UNL     1      14.888   6.989   6.538  1.00  0.00     0.022 A 
BRANCH  71  75
ATOM     75  S   UNL     1      15.065   7.730   3.856  1.00  0.00     0.124 S 
ATOM     76  O   UNL     1      13.973   7.165   3.066  1.00  0.00    -0.237 OA
ATOM     77  O   UNL     1      15.368   9.135   3.614  1.00  0.00    -0.237 OA
ATOM     78  O   UNL     1      16.227   6.857   4.009  1.00  0.00    -0.744 OA
ENDBRANCH  71  75
ENDBRANCH  54  68
BRANCH  55  79
ATOM     79  C   UNL     1       3.187  12.124   8.027  1.00  0.00     0.023 A 
ATOM     80  C   UNL     1       2.927  13.500   7.919  1.00  0.00     0.031 A 
ATOM     81  C   UNL     1       2.119  11.278   8.374  1.00  0.00     0.131 A 
ATOM     82  C   UNL     1       1.647  13.996   8.211  1.00  0.00     0.055 A 
ATOM     83  C   UNL     1       0.833  11.770   8.606  1.00  0.00     0.041 A 
ATOM     84  F   UNL     1       2.309   9.954   8.484  1.00  0.00    -0.206 F 
ATOM     85  C   UNL     1       0.595  13.139   8.541  1.00  0.00     0.022 A 
BRANCH  82  86
ATOM     86  S   UNL     1       1.398  15.793   8.247  1.00  0.00     0.124 S 
ATOM     87  O   UNL     1       2.379  16.209   9.243  1.00  0.00    -0.237 OA
ATOM     88  O   UNL     1       1.688  16.166   6.866  1.00  0.00    -0.237 OA
ATOM     89  O   UNL     1       0.000  15.935   8.648  1.00  0.00    -0.744 OA
ENDBRANCH  82  86
ENDBRANCH  55  79
BRANCH  67  90
ATOM     90  C   UNL     1       9.255  13.188  11.294  1.00  0.00     0.023 A 
ATOM     91  C   UNL     1       8.693  13.099  12.580  1.00  0.00     0.031 A 
ATOM     92  C   UNL     1      10.177  14.222  11.048  1.00  0.00     0.131 A 
ATOM     93  C   UNL     1       8.990  14.077  13.541  1.00  0.00     0.055 A 
ATOM     94  C   UNL     1      10.528  15.145  12.033  1.00  0.00     0.041 A 
ATOM     95  F   UNL     1      10.746  14.358   9.839  1.00  0.00    -0.206 F 
ATOM     96  C   UNL     1       9.918  15.088  13.282  1.00  0.00     0.022 A 
BRANCH  93  97
ATOM     97  S   UNL     1       8.037  14.092  15.085  1.00  0.00     0.124 S 
ATOM     98  O   UNL     1       6.664  14.139  14.594  1.00  0.00    -0.237 OA
ATOM     99  O   UNL     1       8.446  12.841  15.715  1.00  0.00    -0.237 OA
ATOM    100  O   UNL     1       8.497  15.306  15.759  1.00  0.00    -0.744 OA
ENDBRANCH  93  97
ENDBRANCH  67  90
ENDBRANCH  41  42
ENDBRANCH  33  36
ENDBRANCH  31  32
ENDBRANCH  30  31
ENDBRANCH   1  30
TORSDOF 18
