REMARK SMILES O=C(/C=C/c1ccc(O)cc1)NC[C@@H]1CC[C@H](C(=O)NCCCNC(=O)c2ccc(-c3c4nc(c(-c5cc(S(=O)(=O)[O-])ccc5F)c5ccc([nH]5)c(-c5cc(S(=O)(=O)[O-])ccc5F)c5nc(c(-c6cc(S(=O)(=O)[O-])ccc6F)c6ccc3[nH]6)C=C5)C=C4)cc2)O1
REMARK SMILES IDX 21 1 20 2 18 3 19 4 17 6 14 7 15 8 90 9 16 10 13 11 12 12
REMARK SMILES IDX 1 13 2 14 3 16 4 17 5 18 6 19 11 20 7 21 10 22 8 23 9 24
REMARK SMILES IDX 22 26 23 27 24 28 25 29 26 31 27 32 28 33 89 34 29 35 88 36
REMARK SMILES IDX 30 37 31 38 32 39 82 40 33 41 87 42 81 43 83 44 34 45 86 46
REMARK SMILES IDX 80 47 79 48 35 50 67 51 47 52 66 53 48 54 51 55 65 56 84 57
REMARK SMILES IDX 49 58 50 59 64 61 85 62 52 63 36 64 37 65 45 66 38 67 44 68
REMARK SMILES IDX 46 69 43 70 39 71 40 72 41 73 42 74 68 75 69 76 77 77 70 78
REMARK SMILES IDX 76 79 78 80 75 81 71 82 72 83 73 84 74 85 53 86 54 87 62 88
REMARK SMILES IDX 55 89 61 90 63 91 60 92 56 93 57 94 58 95 59 96
REMARK H PARENT 20 5 12 15 9 25 24 30 83 49 51 60
REMARK Flexibility Score: inf
ROOT
ATOM      1  C   UNL     1      -0.325   0.148  -2.553  1.00  0.00     0.117 C 
ENDROOT
BRANCH   1   2
ATOM      2  N   UNL     1      -0.855   0.178  -3.897  1.00  0.00    -0.354 N 
ATOM      3  C   UNL     1      -0.261  -0.200  -5.065  1.00  0.00     0.249 C 
ATOM      4  O   UNL     1      -0.938  -0.140  -6.097  1.00  0.00    -0.272 OA
ATOM      5  H   UNL     1      -1.774   0.520  -3.982  1.00  0.00     0.163 HD
BRANCH   3   6
ATOM      6  C   UNL     1       1.224  -0.636  -5.124  1.00  0.00     0.207 C 
ATOM      7  C   UNL     1       2.823  -1.300  -3.537  1.00  0.00     0.138 C 
ATOM      8  C   UNL     1       2.962   0.207  -3.693  1.00  0.00     0.037 C 
ATOM      9  O   UNL     1       1.610  -1.673  -4.220  1.00  0.00    -0.363 OA
ATOM     10  C   UNL     1       2.197   0.521  -4.957  1.00  0.00     0.045 C 
BRANCH   7  11
ATOM     11  C   UNL     1       2.781  -1.854  -2.093  1.00  0.00     0.148 C 
BRANCH  11  12
ATOM     12  N   UNL     1       3.295  -0.957  -1.072  1.00  0.00    -0.350 N 
ATOM     13  O   UNL     1       1.312  -0.724   0.054  1.00  0.00    -0.270 OA
ATOM     14  C   UNL     1       2.506  -0.469  -0.058  1.00  0.00     0.244 C 
ATOM     15  H   UNL     1       4.242  -0.690  -1.107  1.00  0.00     0.163 HD
BRANCH  14  16
ATOM     16  C   UNL     1       3.150   0.462   0.910  1.00  0.00     0.072 C 
ATOM     17  C   UNL     1       4.467   0.691   1.022  1.00  0.00     0.014 C 
BRANCH  17  18
ATOM     18  C   UNL     1       5.068   1.629   1.979  1.00  0.00    -0.025 A 
ATOM     19  C   UNL     1       4.710   1.661   3.333  1.00  0.00     0.012 A 
ATOM     20  C   UNL     1       6.105   2.459   1.529  1.00  0.00     0.012 A 
ATOM     21  C   UNL     1       5.378   2.511   4.223  1.00  0.00     0.047 A 
ATOM     22  C   UNL     1       6.772   3.304   2.416  1.00  0.00     0.047 A 
ATOM     23  C   UNL     1       6.407   3.321   3.755  1.00  0.00     0.115 A 
BRANCH  23  24
ATOM     24  O   UNL     1       7.106   4.144   4.584  1.00  0.00    -0.508 OA
ATOM     25  H   UNL     1       6.890   4.184   5.495  1.00  0.00     0.293 HD
ENDBRANCH  23  24
ENDBRANCH  17  18
ENDBRANCH  14  16
ENDBRANCH  11  12
ENDBRANCH   7  11
ENDBRANCH   3   6
ENDBRANCH   1   2
BRANCH   1  26
ATOM     26  C   UNL     1       0.008   1.538  -2.029  1.00  0.00     0.042 C 
BRANCH  26  27
ATOM     27  C   UNL     1      -1.135   2.160  -1.248  1.00  0.00     0.118 C 
BRANCH  27  28
ATOM     28  N   UNL     1      -1.440   1.421  -0.028  1.00  0.00    -0.352 N 
ATOM     29  C   UNL     1      -1.588   1.848   1.265  1.00  0.00     0.251 C 
ATOM     30  H   UNL     1      -1.562   0.453  -0.155  1.00  0.00     0.163 HD
ATOM     31  O   UNL     1      -1.728   1.019   2.164  1.00  0.00    -0.269 OA
BRANCH  29  32
ATOM     32  C   UNL     1      -1.529   3.285   1.596  1.00  0.00     0.039 A 
ATOM     33  C   UNL     1      -0.885   3.667   2.776  1.00  0.00     0.014 A 
ATOM     34  C   UNL     1      -2.092   4.254   0.763  1.00  0.00     0.014 A 
ATOM     35  C   UNL     1      -0.760   5.019   3.090  1.00  0.00     0.010 A 
ATOM     36  C   UNL     1      -1.870   5.601   1.020  1.00  0.00     0.010 A 
ATOM     37  C   UNL     1      -1.220   5.998   2.196  1.00  0.00    -0.014 A 
BRANCH  37  38
ATOM     38  C   UNL     1      -1.065   7.443   2.498  1.00  0.00     0.031 A 
ATOM     39  C   UNL     1      -2.287   8.308   2.650  1.00  0.00     0.074 A 
ATOM     40  C   UNL     1       0.169   7.974   2.595  1.00  0.00     0.049 A 
ATOM     41  N   UNL     1      -2.368   9.597   2.861  1.00  0.00    -0.248 NA
ATOM     42  C   UNL     1      -3.592   7.642   2.512  1.00  0.00     0.031 C 
ATOM     43  C   UNL     1       1.424   7.236   2.426  1.00  0.00     0.029 A 
ATOM     44  N   UNL     1       0.575   9.257   2.861  1.00  0.00    -0.354 N 
ATOM     45  C   UNL     1      -3.727   9.894   2.866  1.00  0.00     0.074 A 
ATOM     46  C   UNL     1      -4.427   8.667   2.560  1.00  0.00     0.031 C 
ATOM     47  C   UNL     1       2.456   8.069   2.630  1.00  0.00     0.029 A 
ATOM     48  C   UNL     1       1.942   9.410   2.890  1.00  0.00     0.049 A 
ATOM     49  H   UNL     1      -0.053   9.999   3.015  1.00  0.00     0.167 HD
ATOM     50  C   UNL     1      -4.334  11.076   3.131  1.00  0.00     0.034 A 
ATOM     51  C   UNL     1       2.694  10.509   3.095  1.00  0.00     0.034 A 
ATOM     52  C   UNL     1      -3.615  12.285   3.449  1.00  0.00     0.049 A 
ATOM     53  C   UNL     1       1.995  11.819   3.360  1.00  0.00     0.074 A 
ATOM     54  C   UNL     1      -4.122  13.527   3.785  1.00  0.00     0.029 A 
ATOM     55  N   UNL     1      -2.230  12.406   3.461  1.00  0.00    -0.354 N 
ATOM     56  N   UNL     1       0.707  12.074   3.416  1.00  0.00    -0.248 NA
ATOM     57  C   UNL     1       2.851  12.986   3.602  1.00  0.00     0.031 C 
ATOM     58  C   UNL     1      -3.050  14.415   3.923  1.00  0.00     0.029 A 
ATOM     59  C   UNL     1      -1.868  13.709   3.763  1.00  0.00     0.049 A 
ATOM     60  H   UNL     1      -1.598  11.672   3.281  1.00  0.00     0.167 HD
ATOM     61  C   UNL     1       0.601  13.426   3.730  1.00  0.00     0.074 A 
ATOM     62  C   UNL     1       1.955  13.923   3.873  1.00  0.00     0.031 C 
ATOM     63  C   UNL     1      -0.511  14.190   3.888  1.00  0.00     0.034 A 
BRANCH  50  64
ATOM     64  C   UNL     1      -5.843  11.115   3.063  1.00  0.00     0.023 A 
ATOM     65  C   UNL     1      -6.644  10.326   3.909  1.00  0.00     0.031 A 
ATOM     66  C   UNL     1      -6.493  11.928   2.117  1.00  0.00     0.131 A 
ATOM     67  C   UNL     1      -8.036  10.304   3.738  1.00  0.00     0.055 A 
ATOM     68  C   UNL     1      -7.886  11.969   2.013  1.00  0.00     0.041 A 
ATOM     69  F   UNL     1      -5.785  12.686   1.265  1.00  0.00    -0.206 F 
ATOM     70  C   UNL     1      -8.665  11.141   2.815  1.00  0.00     0.022 A 
BRANCH  67  71
ATOM     71  S   UNL     1      -8.998   9.051   4.631  1.00  0.00     0.124 S 
ATOM     72  O   UNL     1      -8.385   7.814   4.153  1.00  0.00    -0.237 OA
ATOM     73  O   UNL     1      -8.743   9.393   6.026  1.00  0.00    -0.237 OA
ATOM     74  O   UNL     1     -10.367   9.278   4.172  1.00  0.00    -0.744 OA
ENDBRANCH  67  71
ENDBRANCH  50  64
BRANCH  51  75
ATOM     75  C   UNL     1       4.183  10.429   3.053  1.00  0.00     0.023 A 
ATOM     76  C   UNL     1       4.956  10.725   4.186  1.00  0.00     0.031 A 
ATOM     77  C   UNL     1       4.859  10.099   1.864  1.00  0.00     0.131 A 
ATOM     78  C   UNL     1       6.357  10.738   4.096  1.00  0.00     0.055 A 
ATOM     79  C   UNL     1       6.252  10.054   1.794  1.00  0.00     0.041 A 
ATOM     80  F   UNL     1       4.170   9.804   0.750  1.00  0.00    -0.206 F 
ATOM     81  C   UNL     1       7.010  10.389   2.912  1.00  0.00     0.022 A 
BRANCH  78  82
ATOM     82  S   UNL     1       7.313  11.312   5.526  1.00  0.00     0.124 S 
ATOM     83  O   UNL     1       6.766  12.649   5.731  1.00  0.00    -0.237 OA
ATOM     84  O   UNL     1       6.973  10.317   6.537  1.00  0.00    -0.237 OA
ATOM     85  O   UNL     1       8.695  11.270   5.050  1.00  0.00    -0.744 OA
ENDBRANCH  78  82
ENDBRANCH  51  75
BRANCH  63  86
ATOM     86  C   UNL     1      -0.300  15.634   4.274  1.00  0.00     0.023 A 
ATOM     87  C   UNL     1       0.343  16.543   3.416  1.00  0.00     0.031 A 
ATOM     88  C   UNL     1      -0.733  16.102   5.528  1.00  0.00     0.131 A 
ATOM     89  C   UNL     1       0.596  17.853   3.849  1.00  0.00     0.055 A 
ATOM     90  C   UNL     1      -0.545  17.427   5.923  1.00  0.00     0.041 A 
ATOM     91  F   UNL     1      -1.349  15.278   6.390  1.00  0.00    -0.206 F 
ATOM     92  C   UNL     1       0.138  18.307   5.088  1.00  0.00     0.022 A 
BRANCH  89  93
ATOM     93  S   UNL     1       1.634  18.923   2.817  1.00  0.00     0.124 S 
ATOM     94  O   UNL     1       2.862  18.141   2.710  1.00  0.00    -0.237 OA
ATOM     95  O   UNL     1       0.845  19.040   1.595  1.00  0.00    -0.237 OA
ATOM     96  O   UNL     1       1.747  20.151   3.602  1.00  0.00    -0.744 OA
ENDBRANCH  89  93
ENDBRANCH  63  86
ENDBRANCH  37  38
ENDBRANCH  29  32
ENDBRANCH  27  28
ENDBRANCH  26  27
ENDBRANCH   1  26
TORSDOF 18
