REMARK SMILES C[C@]1(C(=O)N2CCC(CC(=O)NCCCNC(=O)c3ccc(-c4c5nc(c(-c6cc(S(=O)(=O)[O-])ccc6F)c6ccc([nH]6)c(-c6cc(S(=O)(=O)[O-])ccc6F)c6nc(c(-c7cc(S(=O)(=O)[O-])ccc7F)c7ccc4[nH]7)C=C6)C=C5)cc3)CC2)CCC[NH2+]C1
REMARK SMILES IDX 14 1 13 2 12 3 10 4 11 5 9 7 8 8 3 9 4 10 5 11 6 12 83 13
REMARK SMILES IDX 7 14 82 15 2 16 1 17 84 18 88 19 85 20 87 21 86 22 15 25
REMARK SMILES IDX 16 26 17 27 18 29 19 30 20 31 81 32 21 33 80 34 22 35 23 36
REMARK SMILES IDX 24 37 74 38 25 39 79 40 73 41 75 42 26 43 78 44 72 45 71 46
REMARK SMILES IDX 27 48 59 49 39 50 58 51 40 52 43 53 57 54 76 55 41 56 42 57
REMARK SMILES IDX 56 59 77 60 44 61 28 62 29 63 37 64 30 65 36 66 38 67 35 68
REMARK SMILES IDX 31 69 32 70 33 71 34 72 60 73 61 74 69 75 62 76 68 77 70 78
REMARK SMILES IDX 67 79 63 80 64 81 65 82 66 83 45 84 46 85 54 86 47 87 53 88
REMARK SMILES IDX 55 89 52 90 48 91 49 92 50 93 51 94
REMARK H PARENT 12 6 87 23 87 24 16 28 75 47 43 58
REMARK Flexibility Score: inf
ROOT
ATOM      1  C   UNL     1       3.907   4.870  -1.462  1.00  0.00     0.042 C 
ENDROOT
BRANCH   1   2
ATOM      2  C   UNL     1       3.114   5.212  -2.725  1.00  0.00     0.117 C 
BRANCH   2   3
ATOM      3  N   UNL     1       3.747   4.696  -3.934  1.00  0.00    -0.356 N 
ATOM      4  C   UNL     1       3.419   3.654  -4.754  1.00  0.00     0.220 C 
ATOM      5  O   UNL     1       4.159   3.407  -5.707  1.00  0.00    -0.275 OA
ATOM      6  H   UNL     1       4.556   5.187  -4.209  1.00  0.00     0.163 HD
BRANCH   4   7
ATOM      7  C   UNL     1       2.171   2.825  -4.510  1.00  0.00     0.103 C 
BRANCH   7   8
ATOM      8  C   UNL     1       2.417   1.464  -3.814  1.00  0.00     0.002 C 
ATOM      9  C   UNL     1       1.023  -0.092  -0.110  1.00  0.00     0.234 C 
ATOM     10  O   UNL     1       0.899  -1.291   0.151  1.00  0.00    -0.274 OA
ATOM     11  N   UNL     1       1.559   0.301  -1.319  1.00  0.00    -0.342 N 
ATOM     12  C   UNL     1       1.028  -0.287  -2.533  1.00  0.00     0.120 C 
ATOM     13  C   UNL     1       2.969   0.612  -1.416  1.00  0.00     0.120 C 
ATOM     14  C   UNL     1       1.052   0.755  -3.641  1.00  0.00     0.026 C 
ATOM     15  C   UNL     1       3.177   1.662  -2.492  1.00  0.00     0.026 C 
BRANCH   9  16
ATOM     16  C   UNL     1       0.365   1.008   0.772  1.00  0.00     0.095 C 
ATOM     17  C   UNL     1       0.464   0.496   2.231  1.00  0.00     0.028 C 
ATOM     18  C   UNL     1       0.995   2.419   0.740  1.00  0.00     0.028 C 
ATOM     19  C   UNL     1      -1.136   1.082   0.393  1.00  0.00     0.277 C 
ATOM     20  C   UNL     1       0.525   3.301  -0.416  1.00  0.00     0.063 C 
ATOM     21  N   UNL     1      -1.423   1.879  -0.809  1.00  0.00    -0.345 N 
ATOM     22  C   UNL     1      -0.978   3.256  -0.632  1.00  0.00     0.260 C 
ATOM     23  H   UNL     1      -0.936   1.469  -1.607  1.00  0.00     0.346 HD
ATOM     24  H   UNL     1      -2.430   1.878  -0.971  1.00  0.00     0.346 HD
ENDBRANCH   9  16
ENDBRANCH   7   8
ENDBRANCH   4   7
ENDBRANCH   2   3
ENDBRANCH   1   2
BRANCH   1  25
ATOM     25  C   UNL     1       5.178   5.682  -1.278  1.00  0.00     0.118 C 
BRANCH  25  26
ATOM     26  N   UNL     1       4.934   6.900  -0.529  1.00  0.00    -0.352 N 
ATOM     27  C   UNL     1       5.296   7.244   0.753  1.00  0.00     0.251 C 
ATOM     28  H   UNL     1       4.429   7.591  -1.016  1.00  0.00     0.163 HD
ATOM     29  O   UNL     1       4.752   8.221   1.265  1.00  0.00    -0.269 OA
BRANCH  27  30
ATOM     30  C   UNL     1       6.299   6.464   1.529  1.00  0.00     0.039 A 
ATOM     31  C   UNL     1       6.173   6.411   2.923  1.00  0.00     0.014 A 
ATOM     32  C   UNL     1       7.405   5.857   0.928  1.00  0.00     0.014 A 
ATOM     33  C   UNL     1       7.128   5.740   3.697  1.00  0.00     0.010 A 
ATOM     34  C   UNL     1       8.301   5.104   1.688  1.00  0.00     0.010 A 
ATOM     35  C   UNL     1       8.196   5.066   3.086  1.00  0.00    -0.014 A 
BRANCH  35  36
ATOM     36  C   UNL     1       9.261   4.400   3.889  1.00  0.00     0.031 A 
ATOM     37  C   UNL     1      10.684   4.897   3.800  1.00  0.00     0.074 A 
ATOM     38  C   UNL     1       8.972   3.337   4.663  1.00  0.00     0.049 A 
ATOM     39  N   UNL     1      11.773   4.409   4.340  1.00  0.00    -0.248 NA
ATOM     40  C   UNL     1      10.914   6.081   2.959  1.00  0.00     0.031 C 
ATOM     41  C   UNL     1       7.644   2.740   4.820  1.00  0.00     0.029 A 
ATOM     42  N   UNL     1       9.778   2.564   5.463  1.00  0.00    -0.354 N 
ATOM     43  C   UNL     1      12.816   5.211   3.884  1.00  0.00     0.074 A 
ATOM     44  C   UNL     1      12.235   6.169   2.969  1.00  0.00     0.031 C 
ATOM     45  C   UNL     1       7.723   1.714   5.684  1.00  0.00     0.029 A 
ATOM     46  C   UNL     1       9.110   1.551   6.111  1.00  0.00     0.049 A 
ATOM     47  H   UNL     1      10.745   2.721   5.563  1.00  0.00     0.167 HD
ATOM     48  C   UNL     1      14.132   5.174   4.216  1.00  0.00     0.034 A 
ATOM     49  C   UNL     1       9.563   0.596   6.948  1.00  0.00     0.034 A 
ATOM     50  C   UNL     1      14.696   4.232   5.152  1.00  0.00     0.049 A 
ATOM     51  C   UNL     1      11.030   0.566   7.300  1.00  0.00     0.074 A 
ATOM     52  C   UNL     1      16.004   4.128   5.592  1.00  0.00     0.029 A 
ATOM     53  N   UNL     1      13.981   3.230   5.798  1.00  0.00    -0.354 N 
ATOM     54  N   UNL     1      11.998   1.347   6.879  1.00  0.00    -0.248 NA
ATOM     55  C   UNL     1      11.460  -0.466   8.252  1.00  0.00     0.031 C 
ATOM     56  C   UNL     1      16.092   3.033   6.460  1.00  0.00     0.029 A 
ATOM     57  C   UNL     1      14.824   2.495   6.617  1.00  0.00     0.049 A 
ATOM     58  H   UNL     1      13.017   3.067   5.689  1.00  0.00     0.167 HD
ATOM     59  C   UNL     1      13.144   0.922   7.545  1.00  0.00     0.074 A 
ATOM     60  C   UNL     1      12.744  -0.177   8.400  1.00  0.00     0.031 C 
ATOM     61  C   UNL     1      14.412   1.401   7.464  1.00  0.00     0.034 A 
BRANCH  48  62
ATOM     62  C   UNL     1      15.044   6.172   3.539  1.00  0.00     0.023 A 
ATOM     63  C   UNL     1      14.870   7.559   3.704  1.00  0.00     0.031 A 
ATOM     64  C   UNL     1      16.067   5.738   2.679  1.00  0.00     0.131 A 
ATOM     65  C   UNL     1      15.637   8.457   2.946  1.00  0.00     0.055 A 
ATOM     66  C   UNL     1      16.890   6.639   1.998  1.00  0.00     0.041 A 
ATOM     67  F   UNL     1      16.272   4.428   2.466  1.00  0.00    -0.206 F 
ATOM     68  C   UNL     1      16.664   8.007   2.114  1.00  0.00     0.022 A 
BRANCH  65  69
ATOM     69  S   UNL     1      15.159  10.206   2.938  1.00  0.00     0.124 S 
ATOM     70  O   UNL     1      13.788  10.133   2.437  1.00  0.00    -0.237 OA
ATOM     71  O   UNL     1      15.309  10.582   4.338  1.00  0.00    -0.237 OA
ATOM     72  O   UNL     1      16.116  10.819   2.019  1.00  0.00    -0.744 OA
ENDBRANCH  65  69
ENDBRANCH  48  62
BRANCH  49  73
ATOM     73  C   UNL     1       8.627  -0.411   7.522  1.00  0.00     0.023 A 
ATOM     74  C   UNL     1       8.358  -0.443   8.900  1.00  0.00     0.031 A 
ATOM     75  C   UNL     1       8.017  -1.382   6.708  1.00  0.00     0.131 A 
ATOM     76  C   UNL     1       7.540  -1.452   9.431  1.00  0.00     0.055 A 
ATOM     77  C   UNL     1       7.165  -2.354   7.234  1.00  0.00     0.041 A 
ATOM     78  F   UNL     1       8.235  -1.391   5.384  1.00  0.00    -0.206 F 
ATOM     79  C   UNL     1       6.932  -2.401   8.606  1.00  0.00     0.022 A 
BRANCH  76  80
ATOM     80  S   UNL     1       7.342  -1.550  11.231  1.00  0.00     0.124 S 
ATOM     81  O   UNL     1       8.721  -1.714  11.674  1.00  0.00    -0.237 OA
ATOM     82  O   UNL     1       6.717  -0.267  11.537  1.00  0.00    -0.237 OA
ATOM     83  O   UNL     1       6.483  -2.718  11.415  1.00  0.00    -0.744 OA
ENDBRANCH  76  80
ENDBRANCH  49  73
BRANCH  61  84
ATOM     84  C   UNL     1      15.441   0.774   8.371  1.00  0.00     0.023 A 
ATOM     85  C   UNL     1      15.872  -0.553   8.202  1.00  0.00     0.031 A 
ATOM     86  C   UNL     1      15.989   1.518   9.432  1.00  0.00     0.131 A 
ATOM     87  C   UNL     1      16.781  -1.113   9.113  1.00  0.00     0.055 A 
ATOM     88  C   UNL     1      16.934   0.973  10.301  1.00  0.00     0.041 A 
ATOM     89  F   UNL     1      15.612   2.791   9.639  1.00  0.00    -0.206 F 
ATOM     90  C   UNL     1      17.325  -0.354  10.152  1.00  0.00     0.022 A 
BRANCH  87  91
ATOM     91  S   UNL     1      17.177  -2.878   8.975  1.00  0.00     0.124 S 
ATOM     92  O   UNL     1      15.861  -3.496   9.097  1.00  0.00    -0.237 OA
ATOM     93  O   UNL     1      17.799  -2.956   7.657  1.00  0.00    -0.237 OA
ATOM     94  O   UNL     1      18.080  -3.116  10.100  1.00  0.00    -0.744 OA
ENDBRANCH  87  91
ENDBRANCH  61  84
ENDBRANCH  35  36
ENDBRANCH  27  30
ENDBRANCH  25  26
ENDBRANCH   1  25
TORSDOF 15
