REMARK SMILES O=C(CCN1C(=O)/C(=C/c2c3ccccc3cc3ccccc23)SC1=S)NCCCNC(=O)c1ccc(-c2c3nc(c(-c4cc(S(=O)(=O)[O-])ccc4F)c4ccc([nH]4)c(-c4cc(S(=O)(=O)[O-])ccc4F)c4nc(c(-c5cc(S(=O)(=O)[O-])ccc5F)c5ccc2[nH]5)C=C4)C=C3)cc1
REMARK SMILES IDX 29 1 28 2 27 3 1 4 2 5 3 7 4 8 5 9 6 10 25 11 7 12 8 13
REMARK SMILES IDX 24 14 26 15 9 16 10 17 11 18 23 19 12 20 16 21 18 22 22 23
REMARK SMILES IDX 13 24 15 25 17 26 19 27 21 28 14 29 20 30 30 31 31 32 32 33
REMARK SMILES IDX 33 35 34 36 35 37 96 38 36 39 95 40 37 41 38 42 39 43 89 44
REMARK SMILES IDX 40 45 94 46 88 47 90 48 41 49 93 50 87 51 86 52 42 54 74 55
REMARK SMILES IDX 54 56 73 57 55 58 58 59 72 60 91 61 56 62 57 63 71 65 92 66
REMARK SMILES IDX 59 67 43 68 44 69 52 70 45 71 51 72 53 73 50 74 46 75 47 76
REMARK SMILES IDX 48 77 49 78 75 79 76 80 84 81 77 82 83 83 85 84 82 85 78 86
REMARK SMILES IDX 79 87 80 88 81 89 60 90 61 91 69 92 62 93 68 94 70 95 67 96
REMARK SMILES IDX 63 97 64 98 65 99 66 100
REMARK H PARENT 27 6 31 34 90 53 58 64
REMARK Flexibility Score: inf
ROOT
ATOM      1  C   UNL     1       2.078   2.491  -2.555  1.00  0.00     0.042 C 
ENDROOT
BRANCH   1   2
ATOM      2  C   UNL     1       1.879   1.028  -2.172  1.00  0.00     0.117 C 
BRANCH   2   3
ATOM      3  N   UNL     1       2.523   0.678  -0.922  1.00  0.00    -0.356 N 
ATOM      4  O   UNL     1       1.035  -0.972  -0.340  1.00  0.00    -0.275 OA
ATOM      5  C   UNL     1       2.055  -0.328  -0.112  1.00  0.00     0.221 C 
ATOM      6  H   UNL     1       3.323   1.178  -0.643  1.00  0.00     0.163 HD
BRANCH   5   7
ATOM      7  C   UNL     1       2.929  -0.629   1.085  1.00  0.00     0.122 C 
BRANCH   7   8
ATOM      8  C   UNL     1       3.958  -1.716   0.764  1.00  0.00     0.137 C 
BRANCH   8   9
ATOM      9  N   UNL     1       5.082  -1.417  -0.144  1.00  0.00    -0.292 N 
ATOM     10  C   UNL     1       5.523  -0.128  -0.379  1.00  0.00     0.266 C 
ATOM     11  C   UNL     1       5.833  -2.414  -0.752  1.00  0.00     0.148 C 
ATOM     12  O   UNL     1       5.096   0.897   0.127  1.00  0.00    -0.268 OA
ATOM     13  C   UNL     1       6.569  -0.118  -1.432  1.00  0.00     0.081 C 
ATOM     14  S   UNL     1       7.124  -1.706  -1.722  1.00  0.00    -0.054 SA
ATOM     15  S   UNL     1       5.631  -4.069  -0.639  1.00  0.00    -0.052 S 
ATOM     16  C   UNL     1       6.849   1.028  -2.065  1.00  0.00     0.030 C 
BRANCH  16  17
ATOM     17  C   UNL     1       7.726   1.287  -3.230  1.00  0.00    -0.009 A 
ATOM     18  C   UNL     1       7.444   0.702  -4.508  1.00  0.00    -0.010 A 
ATOM     19  C   UNL     1       8.764   2.264  -3.078  1.00  0.00    -0.010 A 
ATOM     20  C   UNL     1       6.365  -0.182  -4.782  1.00  0.00     0.009 A 
ATOM     21  C   UNL     1       8.256   1.062  -5.606  1.00  0.00    -0.017 A 
ATOM     22  C   UNL     1       9.546   2.599  -4.204  1.00  0.00    -0.017 A 
ATOM     23  C   UNL     1       9.050   2.952  -1.868  1.00  0.00     0.009 A 
ATOM     24  C   UNL     1       6.123  -0.701  -6.056  1.00  0.00     0.001 A 
ATOM     25  C   UNL     1       8.004   0.535  -6.885  1.00  0.00     0.009 A 
ATOM     26  C   UNL     1       9.295   1.985  -5.435  1.00  0.00     0.017 A 
ATOM     27  C   UNL     1      10.561   3.567  -4.104  1.00  0.00     0.009 A 
ATOM     28  C   UNL     1      10.050   3.925  -1.785  1.00  0.00     0.001 A 
ATOM     29  C   UNL     1       6.946  -0.341  -7.110  1.00  0.00     0.001 A 
ATOM     30  C   UNL     1      10.808   4.230  -2.904  1.00  0.00     0.001 A 
ENDBRANCH  16  17
ENDBRANCH   8   9
ENDBRANCH   7   8
ENDBRANCH   5   7
ENDBRANCH   2   3
ENDBRANCH   1   2
BRANCH   1  31
ATOM     31  C   UNL     1       3.501   2.859  -2.971  1.00  0.00     0.118 C 
BRANCH  31  32
ATOM     32  N   UNL     1       3.905   2.225  -4.215  1.00  0.00    -0.352 N 
ATOM     33  C   UNL     1       4.554   2.746  -5.309  1.00  0.00     0.251 C 
ATOM     34  H   UNL     1       3.678   1.270  -4.285  1.00  0.00     0.163 HD
ATOM     35  O   UNL     1       4.533   2.099  -6.355  1.00  0.00    -0.269 OA
BRANCH  33  36
ATOM     36  C   UNL     1       5.200   4.082  -5.279  1.00  0.00     0.039 A 
ATOM     37  C   UNL     1       5.202   4.823  -6.466  1.00  0.00     0.014 A 
ATOM     38  C   UNL     1       5.776   4.629  -4.129  1.00  0.00     0.014 A 
ATOM     39  C   UNL     1       5.657   6.141  -6.470  1.00  0.00     0.010 A 
ATOM     40  C   UNL     1       6.170   5.968  -4.114  1.00  0.00     0.010 A 
ATOM     41  C   UNL     1       6.074   6.747  -5.276  1.00  0.00    -0.014 A 
BRANCH  41  42
ATOM     42  C   UNL     1       6.293   8.215  -5.223  1.00  0.00     0.031 A 
ATOM     43  C   UNL     1       7.653   8.788  -4.959  1.00  0.00     0.074 A 
ATOM     44  C   UNL     1       5.227   9.028  -5.375  1.00  0.00     0.049 A 
ATOM     45  N   UNL     1       8.015  10.043  -4.880  1.00  0.00    -0.248 NA
ATOM     46  C   UNL     1       8.744   7.829  -4.737  1.00  0.00     0.031 C 
ATOM     47  C   UNL     1       3.849   8.575  -5.592  1.00  0.00     0.029 A 
ATOM     48  N   UNL     1       5.124  10.396  -5.374  1.00  0.00    -0.354 N 
ATOM     49  C   UNL     1       9.377  10.029  -4.607  1.00  0.00     0.074 A 
ATOM     50  C   UNL     1       9.761   8.638  -4.475  1.00  0.00     0.031 C 
ATOM     51  C   UNL     1       3.050   9.642  -5.736  1.00  0.00     0.029 A 
ATOM     52  C   UNL     1       3.841  10.855  -5.571  1.00  0.00     0.049 A 
ATOM     53  H   UNL     1       5.895  10.994  -5.245  1.00  0.00     0.167 HD
ATOM     54  C   UNL     1      10.227  11.082  -4.495  1.00  0.00     0.034 A 
ATOM     55  C   UNL     1       3.352  12.111  -5.602  1.00  0.00     0.034 A 
ATOM     56  C   UNL     1       9.814  12.462  -4.611  1.00  0.00     0.049 A 
ATOM     57  C   UNL     1       4.309  13.260  -5.423  1.00  0.00     0.074 A 
ATOM     58  C   UNL     1      10.597  13.603  -4.559  1.00  0.00     0.029 A 
ATOM     59  N   UNL     1       8.503  12.893  -4.782  1.00  0.00    -0.354 N 
ATOM     60  N   UNL     1       5.608  13.230  -5.232  1.00  0.00    -0.248 NA
ATOM     61  C   UNL     1       3.738  14.611  -5.473  1.00  0.00     0.031 C 
ATOM     62  C   UNL     1       9.755  14.718  -4.616  1.00  0.00     0.029 A 
ATOM     63  C   UNL     1       8.452  14.279  -4.793  1.00  0.00     0.049 A 
ATOM     64  H   UNL     1       7.724  12.299  -4.882  1.00  0.00     0.167 HD
ATOM     65  C   UNL     1       6.012  14.560  -5.166  1.00  0.00     0.074 A 
ATOM     66  C   UNL     1       4.822  15.364  -5.359  1.00  0.00     0.031 C 
ATOM     67  C   UNL     1       7.255  15.070  -4.967  1.00  0.00     0.034 A 
BRANCH  54  68
ATOM     68  C   UNL     1      11.677  10.776  -4.202  1.00  0.00     0.023 A 
ATOM     69  C   UNL     1      12.467  10.029  -5.093  1.00  0.00     0.031 A 
ATOM     70  C   UNL     1      12.274  11.215  -3.007  1.00  0.00     0.131 A 
ATOM     71  C   UNL     1      13.779   9.677  -4.742  1.00  0.00     0.055 A 
ATOM     72  C   UNL     1      13.608  10.936  -2.703  1.00  0.00     0.041 A 
ATOM     73  F   UNL     1      11.566  11.913  -2.104  1.00  0.00    -0.206 F 
ATOM     74  C   UNL     1      14.365  10.149  -3.566  1.00  0.00     0.022 A 
BRANCH  71  75
ATOM     75  S   UNL     1      14.653   8.464  -5.769  1.00  0.00     0.124 S 
ATOM     76  O   UNL     1      13.756   7.313  -5.692  1.00  0.00    -0.237 OA
ATOM     77  O   UNL     1      14.722   9.136  -7.061  1.00  0.00    -0.237 OA
ATOM     78  O   UNL     1      15.932   8.293  -5.084  1.00  0.00    -0.744 OA
ENDBRANCH  71  75
ENDBRANCH  54  68
BRANCH  55  79
ATOM     79  C   UNL     1       1.891  12.351  -5.792  1.00  0.00     0.023 A 
ATOM     80  C   UNL     1       1.409  13.045  -6.912  1.00  0.00     0.031 A 
ATOM     81  C   UNL     1       0.957  11.925  -4.830  1.00  0.00     0.131 A 
ATOM     82  C   UNL     1       0.039  13.336  -7.020  1.00  0.00     0.055 A 
ATOM     83  C   UNL     1      -0.411  12.164  -4.971  1.00  0.00     0.041 A 
ATOM     84  F   UNL     1       1.361  11.255  -3.739  1.00  0.00    -0.206 F 
ATOM     85  C   UNL     1      -0.875  12.887  -6.065  1.00  0.00     0.022 A 
BRANCH  82  86
ATOM     86  S   UNL     1      -0.519  14.396  -8.382  1.00  0.00     0.124 S 
ATOM     87  O   UNL     1       0.278  15.599  -8.167  1.00  0.00    -0.237 OA
ATOM     88  O   UNL     1      -0.171  13.596  -9.551  1.00  0.00    -0.237 OA
ATOM     89  O   UNL     1      -1.951  14.543  -8.133  1.00  0.00    -0.744 OA
ENDBRANCH  82  86
ENDBRANCH  55  79
BRANCH  67  90
ATOM     90  C   UNL     1       7.385  16.575  -4.982  1.00  0.00     0.023 A 
ATOM     91  C   UNL     1       6.790  17.379  -3.994  1.00  0.00     0.031 A 
ATOM     92  C   UNL     1       8.104  17.213  -6.008  1.00  0.00     0.131 A 
ATOM     93  C   UNL     1       6.876  18.776  -4.084  1.00  0.00     0.055 A 
ATOM     94  C   UNL     1       8.243  18.600  -6.055  1.00  0.00     0.041 A 
ATOM     95  F   UNL     1       8.689  16.496  -6.981  1.00  0.00    -0.206 F 
ATOM     96  C   UNL     1       7.615  19.391  -5.098  1.00  0.00     0.022 A 
BRANCH  93  97
ATOM     97  S   UNL     1       5.927  19.785  -2.913  1.00  0.00     0.124 S 
ATOM     98  O   UNL     1       4.561  19.341  -3.169  1.00  0.00    -0.237 OA
ATOM     99  O   UNL     1       6.495  19.391  -1.628  1.00  0.00    -0.237 OA
ATOM    100  O   UNL     1       6.221  21.157  -3.325  1.00  0.00    -0.744 OA
ENDBRANCH  93  97
ENDBRANCH  67  90
ENDBRANCH  41  42
ENDBRANCH  33  36
ENDBRANCH  31  32
ENDBRANCH   1  31
TORSDOF 16
