REMARK SMILES O=C(NCCCNC(=O)[C@H]1CS[C@@H](c2cccc(OCc3ccc(Cl)cc3Cl)c2)[NH2+]1)c1ccc(-c2c3nc(c(-c4cc(S(=O)(=O)[O-])ccc4F)c4ccc([nH]4)c(-c4cc(S(=O)(=O)[O-])ccc4F)c4nc(c(-c5cc(S(=O)(=O)[O-])ccc5F)c5ccc2[nH]5)C=C4)C=C3)cc1
REMARK SMILES IDX 5 1 4 2 3 3 1 4 2 5 31 7 32 8 93 9 33 10 92 11 34 12 35 13
REMARK SMILES IDX 36 14 86 15 37 16 91 17 85 18 87 19 38 20 90 21 84 22 83 23
REMARK SMILES IDX 39 25 71 26 51 27 70 28 52 29 55 30 69 31 88 32 53 33 54 34
REMARK SMILES IDX 68 36 89 37 56 38 40 39 41 40 49 41 42 42 48 43 50 44 47 45
REMARK SMILES IDX 43 46 44 47 45 48 46 49 72 50 73 51 81 52 74 53 80 54 82 55
REMARK SMILES IDX 79 56 75 57 76 58 77 59 78 60 57 61 58 62 66 63 59 64 65 65
REMARK SMILES IDX 67 66 64 67 60 68 61 69 62 70 63 71 6 72 7 73 8 74 9 76
REMARK SMILES IDX 10 77 11 78 30 79 12 80 13 81 14 84 15 85 29 86 16 87 18 88
REMARK SMILES IDX 17 89 19 90 20 91 21 92 22 93 27 94 23 95 26 96 28 97 24 98
REMARK SMILES IDX 25 99
REMARK H PARENT 3 6 87 24 55 35 7 75 30 82 30 83
REMARK Flexibility Score: inf
ROOT
ATOM      1  C   UNL     1       4.601  -1.756   1.877  1.00  0.00     0.042 C 
ENDROOT
BRANCH   1   2
ATOM      2  C   UNL     1       4.408  -1.295   0.436  1.00  0.00     0.118 C 
BRANCH   2   3
ATOM      3  N   UNL     1       3.005  -1.082   0.112  1.00  0.00    -0.352 N 
ATOM      4  O   UNL     1       1.095   0.070  -0.150  1.00  0.00    -0.269 OA
ATOM      5  C   UNL     1       2.322   0.084  -0.140  1.00  0.00     0.251 C 
ATOM      6  H   UNL     1       2.460  -1.901   0.066  1.00  0.00     0.163 HD
BRANCH   5   7
ATOM      7  C   UNL     1       3.053   1.345  -0.397  1.00  0.00     0.039 A 
ATOM      8  C   UNL     1       4.195   1.359  -1.200  1.00  0.00     0.014 A 
ATOM      9  C   UNL     1       2.554   2.542   0.125  1.00  0.00     0.014 A 
ATOM     10  C   UNL     1       4.910   2.540  -1.373  1.00  0.00     0.010 A 
ATOM     11  C   UNL     1       3.223   3.744  -0.125  1.00  0.00     0.010 A 
ATOM     12  C   UNL     1       4.420   3.750  -0.859  1.00  0.00    -0.014 A 
BRANCH  12  13
ATOM     13  C   UNL     1       5.141   5.016  -1.152  1.00  0.00     0.031 A 
ATOM     14  C   UNL     1       5.754   5.830  -0.048  1.00  0.00     0.074 A 
ATOM     15  C   UNL     1       5.247   5.421  -2.434  1.00  0.00     0.049 A 
ATOM     16  N   UNL     1       6.392   6.971  -0.119  1.00  0.00    -0.248 NA
ATOM     17  C   UNL     1       5.623   5.299   1.316  1.00  0.00     0.031 C 
ATOM     18  C   UNL     1       4.693   4.708  -3.588  1.00  0.00     0.029 A 
ATOM     19  N   UNL     1       5.860   6.516  -2.986  1.00  0.00    -0.354 N 
ATOM     20  C   UNL     1       6.729   7.303   1.189  1.00  0.00     0.074 A 
ATOM     21  C   UNL     1       6.186   6.260   2.035  1.00  0.00     0.031 C 
ATOM     22  C   UNL     1       5.023   5.362  -4.710  1.00  0.00     0.029 A 
ATOM     23  C   UNL     1       5.742   6.580  -4.355  1.00  0.00     0.049 A 
ATOM     24  H   UNL     1       6.339   7.192  -2.454  1.00  0.00     0.167 HD
ATOM     25  C   UNL     1       7.432   8.374   1.637  1.00  0.00     0.034 A 
ATOM     26  C   UNL     1       6.138   7.527  -5.228  1.00  0.00     0.034 A 
ATOM     27  C   UNL     1       7.956   9.408   0.772  1.00  0.00     0.049 A 
ATOM     28  C   UNL     1       6.857   8.738  -4.700  1.00  0.00     0.074 A 
ATOM     29  C   UNL     1       8.701  10.523   1.114  1.00  0.00     0.029 A 
ATOM     30  N   UNL     1       7.777   9.463  -0.606  1.00  0.00    -0.354 N 
ATOM     31  N   UNL     1       7.181   9.031  -3.462  1.00  0.00    -0.248 NA
ATOM     32  C   UNL     1       7.269   9.743  -5.687  1.00  0.00     0.031 C 
ATOM     33  C   UNL     1       8.902  11.290  -0.039  1.00  0.00     0.029 A 
ATOM     34  C   UNL     1       8.365  10.610  -1.120  1.00  0.00     0.049 A 
ATOM     35  H   UNL     1       7.302   8.785  -1.140  1.00  0.00     0.167 HD
ATOM     36  C   UNL     1       7.859  10.244  -3.525  1.00  0.00     0.074 A 
ATOM     37  C   UNL     1       7.911  10.617  -4.925  1.00  0.00     0.031 C 
ATOM     38  C   UNL     1       8.397  10.979  -2.518  1.00  0.00     0.034 A 
BRANCH  25  39
ATOM     39  C   UNL     1       7.627   8.505   3.131  1.00  0.00     0.023 A 
ATOM     40  C   UNL     1       8.334   7.544   3.875  1.00  0.00     0.031 A 
ATOM     41  C   UNL     1       7.069   9.592   3.829  1.00  0.00     0.131 A 
ATOM     42  C   UNL     1       8.395   7.643   5.274  1.00  0.00     0.055 A 
ATOM     43  C   UNL     1       7.208   9.732   5.211  1.00  0.00     0.041 A 
ATOM     44  F   UNL     1       6.364  10.532   3.180  1.00  0.00    -0.206 F 
ATOM     45  C   UNL     1       7.860   8.745   5.945  1.00  0.00     0.022 A 
BRANCH  42  46
ATOM     46  S   UNL     1       9.040   6.233   6.214  1.00  0.00     0.124 S 
ATOM     47  O   UNL     1       8.170   5.150   5.761  1.00  0.00    -0.237 OA
ATOM     48  O   UNL     1      10.427   6.164   5.770  1.00  0.00    -0.237 OA
ATOM     49  O   UNL     1       8.849   6.632   7.607  1.00  0.00    -0.744 OA
ENDBRANCH  42  46
ENDBRANCH  25  39
BRANCH  26  50
ATOM     50  C   UNL     1       5.826   7.383  -6.678  1.00  0.00     0.023 A 
ATOM     51  C   UNL     1       6.848   7.264  -7.633  1.00  0.00     0.031 A 
ATOM     52  C   UNL     1       4.495   7.381  -7.133  1.00  0.00     0.131 A 
ATOM     53  C   UNL     1       6.523   7.187  -8.996  1.00  0.00     0.055 A 
ATOM     54  C   UNL     1       4.175   7.244  -8.485  1.00  0.00     0.041 A 
ATOM     55  F   UNL     1       3.479   7.489  -6.262  1.00  0.00    -0.206 F 
ATOM     56  C   UNL     1       5.195   7.159  -9.427  1.00  0.00     0.022 A 
BRANCH  53  57
ATOM     57  S   UNL     1       7.870   7.204 -10.210  1.00  0.00     0.124 S 
ATOM     58  O   UNL     1       8.534   8.464  -9.898  1.00  0.00    -0.237 OA
ATOM     59  O   UNL     1       8.603   5.990  -9.867  1.00  0.00    -0.237 OA
ATOM     60  O   UNL     1       7.171   7.167 -11.493  1.00  0.00    -0.744 OA
ENDBRANCH  53  57
ENDBRANCH  26  50
BRANCH  38  61
ATOM     61  C   UNL     1       9.134  12.238  -2.908  1.00  0.00     0.023 A 
ATOM     62  C   UNL     1       8.474  13.340  -3.480  1.00  0.00     0.031 A 
ATOM     63  C   UNL     1      10.524  12.328  -2.715  1.00  0.00     0.131 A 
ATOM     64  C   UNL     1       9.213  14.460  -3.892  1.00  0.00     0.055 A 
ATOM     65  C   UNL     1      11.243  13.471  -3.065  1.00  0.00     0.041 A 
ATOM     66  F   UNL     1      11.207  11.304  -2.179  1.00  0.00    -0.206 F 
ATOM     67  C   UNL     1      10.590  14.540  -3.670  1.00  0.00     0.022 A 
BRANCH  64  68
ATOM     68  S   UNL     1       8.366  15.772  -4.814  1.00  0.00     0.124 S 
ATOM     69  O   UNL     1       7.840  15.043  -5.964  1.00  0.00    -0.237 OA
ATOM     70  O   UNL     1       7.377  16.244  -3.851  1.00  0.00    -0.237 OA
ATOM     71  O   UNL     1       9.435  16.722  -5.119  1.00  0.00    -0.744 OA
ENDBRANCH  64  68
ENDBRANCH  38  61
ENDBRANCH  12  13
ENDBRANCH   5   7
ENDBRANCH   2   3
ENDBRANCH   1   2
BRANCH   1  72
ATOM     72  C   UNL     1       4.070  -3.164   2.143  1.00  0.00     0.118 C 
BRANCH  72  73
ATOM     73  N   UNL     1       4.920  -4.172   1.538  1.00  0.00    -0.351 N 
ATOM     74  C   UNL     1       5.929  -4.938   2.030  1.00  0.00     0.279 C 
ATOM     75  H   UNL     1       4.728  -4.333   0.586  1.00  0.00     0.163 HD
ATOM     76  O   UNL     1       6.506  -5.659   1.206  1.00  0.00    -0.268 OA
BRANCH  74  77
ATOM     77  C   UNL     1       6.274  -5.056   3.534  1.00  0.00     0.283 C 
ATOM     78  C   UNL     1       6.304  -3.793   4.395  1.00  0.00     0.151 C 
ATOM     79  N   UNL     1       5.412  -6.108   4.128  1.00  0.00    -0.321 N 
ATOM     80  S   UNL     1       5.112  -4.085   5.732  1.00  0.00    -0.088 SA
ATOM     81  C   UNL     1       5.280  -5.859   5.564  1.00  0.00     0.274 C 
ATOM     82  H   UNL     1       5.837  -7.023   3.977  1.00  0.00     0.348 HD
ATOM     83  H   UNL     1       4.492  -6.090   3.689  1.00  0.00     0.348 HD
BRANCH  81  84
ATOM     84  C   UNL     1       4.192  -6.754   6.124  1.00  0.00     0.024 A 
ATOM     85  C   UNL     1       2.871  -6.351   6.366  1.00  0.00     0.011 A 
ATOM     86  C   UNL     1       4.498  -8.130   6.199  1.00  0.00     0.057 A 
ATOM     87  C   UNL     1       1.890  -7.296   6.684  1.00  0.00     0.004 A 
ATOM     88  C   UNL     1       3.493  -9.079   6.379  1.00  0.00     0.120 A 
ATOM     89  C   UNL     1       2.201  -8.655   6.688  1.00  0.00     0.046 A 
BRANCH  88  90
ATOM     90  O   UNL     1       3.598 -10.412   6.083  1.00  0.00    -0.489 OA
BRANCH  90  91
ATOM     91  C   UNL     1       4.806 -10.893   5.500  1.00  0.00     0.267 C 
BRANCH  91  92
ATOM     92  C   UNL     1       5.063 -10.796   3.994  1.00  0.00     0.008 A 
ATOM     93  C   UNL     1       6.027 -11.710   3.502  1.00  0.00     0.010 A 
ATOM     94  C   UNL     1       4.576  -9.841   3.082  1.00  0.00     0.049 A 
ATOM     95  C   UNL     1       6.533 -11.625   2.202  1.00  0.00     0.021 A 
ATOM     96  C   UNL     1       5.152  -9.702   1.809  1.00  0.00     0.041 A 
ATOM     97  Cl  UNL     1       3.177  -8.861   3.317  1.00  0.00    -0.084 Cl
ATOM     98  C   UNL     1       6.126 -10.589   1.376  1.00  0.00     0.042 A 
ATOM     99  Cl  UNL     1       6.800 -10.427  -0.196  1.00  0.00    -0.084 Cl
ENDBRANCH  91  92
ENDBRANCH  90  91
ENDBRANCH  88  90
ENDBRANCH  81  84
ENDBRANCH  74  77
ENDBRANCH  72  73
ENDBRANCH   1  72
TORSDOF 17
