REMARK SMILES COc1c(C(=O)NCCCNC(=O)c2ccc(-c3c4nc(c(-c5cc(S(=O)(=O)[O-])ccc5F)c5ccc([nH]5)c(-c5cc(S(=O)(=O)[O-])ccc5F)c5nc(c(-c6cc(S(=O)(=O)[O-])ccc6F)c6ccc3[nH]6)C=C5)C=C4)cc2)ccc(F)c1F
REMARK SMILES IDX 10 1 9 2 8 3 7 4 5 5 6 6 4 8 3 9 81 10 77 11 79 12 82 13
REMARK SMILES IDX 78 14 80 15 2 16 1 17 11 18 12 19 13 21 14 22 15 23 76 24
REMARK SMILES IDX 16 25 75 26 17 27 18 28 19 29 69 30 20 31 74 32 68 33 70 34
REMARK SMILES IDX 21 35 73 36 67 37 66 38 22 40 54 41 34 42 53 43 35 44 38 45
REMARK SMILES IDX 52 46 71 47 36 48 37 49 51 51 72 52 39 53 23 54 24 55 32 56
REMARK SMILES IDX 25 57 31 58 33 59 30 60 26 61 27 62 28 63 29 64 55 65 56 66
REMARK SMILES IDX 64 67 57 68 63 69 65 70 62 71 58 72 59 73 60 74 61 75 40 76
REMARK SMILES IDX 41 77 49 78 42 79 48 80 50 81 47 82 43 83 44 84 45 85 46 86
REMARK H PARENT 7 7 11 20 70 39 38 50
REMARK Flexibility Score: inf
ROOT
ATOM      1  C   UNL     1       6.955  -1.996   2.473  1.00  0.00     0.118 C 
ENDROOT
BRANCH   1   2
ATOM      2  C   UNL     1       5.843  -1.757   3.501  1.00  0.00     0.042 C 
BRANCH   2   3
ATOM      3  C   UNL     1       5.406  -0.295   3.600  1.00  0.00     0.118 C 
BRANCH   3   4
ATOM      4  N   UNL     1       4.736   0.140   2.390  1.00  0.00    -0.352 N 
ATOM      5  C   UNL     1       3.439   0.260   1.966  1.00  0.00     0.255 C 
ATOM      6  O   UNL     1       3.330   0.699   0.821  1.00  0.00    -0.269 OA
ATOM      7  H   UNL     1       5.376   0.420   1.696  1.00  0.00     0.163 HD
BRANCH   5   8
ATOM      8  C   UNL     1       2.220  -0.062   2.786  1.00  0.00     0.085 A 
ATOM      9  C   UNL     1       0.945   0.363   2.345  1.00  0.00     0.170 A 
ATOM     10  C   UNL     1      -0.185   0.217   3.162  1.00  0.00     0.201 A 
ATOM     11  C   UNL     1       2.267  -0.773   3.997  1.00  0.00     0.021 A 
ATOM     12  C   UNL     1      -0.086  -0.412   4.390  1.00  0.00     0.162 A 
ATOM     13  F   UNL     1      -1.379   0.669   2.747  1.00  0.00    -0.200 F 
ATOM     14  C   UNL     1       1.130  -0.932   4.803  1.00  0.00     0.043 A 
ATOM     15  F   UNL     1      -1.164  -0.548   5.173  1.00  0.00    -0.204 F 
BRANCH   9  16
ATOM     16  O   UNL     1       0.733   0.964   1.127  1.00  0.00    -0.493 OA
ATOM     17  C   UNL     1       0.528  -0.035   0.120  1.00  0.00     0.278 C 
ENDBRANCH   9  16
ENDBRANCH   5   8
ENDBRANCH   3   4
ENDBRANCH   2   3
ENDBRANCH   1   2
BRANCH   1  18
ATOM     18  N   UNL     1       8.178  -1.284   2.815  1.00  0.00    -0.352 N 
ATOM     19  C   UNL     1       9.412  -1.755   3.189  1.00  0.00     0.251 C 
ATOM     20  H   UNL     1       8.109  -0.303   2.771  1.00  0.00     0.163 HD
ATOM     21  O   UNL     1      10.213  -0.977   3.701  1.00  0.00    -0.269 OA
BRANCH  19  22
ATOM     22  C   UNL     1       9.781  -3.174   2.986  1.00  0.00     0.039 A 
ATOM     23  C   UNL     1      10.535  -3.821   3.970  1.00  0.00     0.014 A 
ATOM     24  C   UNL     1       9.449  -3.848   1.808  1.00  0.00     0.014 A 
ATOM     25  C   UNL     1      10.903  -5.158   3.800  1.00  0.00     0.010 A 
ATOM     26  C   UNL     1       9.764  -5.199   1.666  1.00  0.00     0.010 A 
ATOM     27  C   UNL     1      10.492  -5.869   2.661  1.00  0.00    -0.014 A 
BRANCH  27  28
ATOM     28  C   UNL     1      10.799  -7.315   2.502  1.00  0.00     0.031 A 
ATOM     29  C   UNL     1      11.695  -7.784   1.388  1.00  0.00     0.074 A 
ATOM     30  C   UNL     1      10.210  -8.209   3.321  1.00  0.00     0.049 A 
ATOM     31  N   UNL     1      12.000  -9.005   1.029  1.00  0.00    -0.248 NA
ATOM     32  C   UNL     1      12.305  -6.742   0.550  1.00  0.00     0.031 C 
ATOM     33  C   UNL     1       9.295  -7.874   4.415  1.00  0.00     0.029 A 
ATOM     34  N   UNL     1      10.278  -9.579   3.355  1.00  0.00    -0.354 N 
ATOM     35  C   UNL     1      12.825  -8.881  -0.084  1.00  0.00     0.074 A 
ATOM     36  C   UNL     1      12.929  -7.465  -0.369  1.00  0.00     0.031 C 
ATOM     37  C   UNL     1       8.899  -9.006   5.019  1.00  0.00     0.029 A 
ATOM     38  C   UNL     1       9.492 -10.147   4.331  1.00  0.00     0.049 A 
ATOM     39  H   UNL     1      10.838 -10.105   2.739  1.00  0.00     0.167 HD
ATOM     40  C   UNL     1      13.449  -9.857  -0.790  1.00  0.00     0.034 A 
ATOM     41  C   UNL     1       9.259 -11.441   4.626  1.00  0.00     0.034 A 
ATOM     42  C   UNL     1      13.343 -11.263  -0.483  1.00  0.00     0.049 A 
ATOM     43  C   UNL     1       9.950 -12.507   3.815  1.00  0.00     0.074 A 
ATOM     44  C   UNL     1      13.978 -12.331  -1.095  1.00  0.00     0.029 A 
ATOM     45  N   UNL     1      12.544 -11.802   0.518  1.00  0.00    -0.354 N 
ATOM     46  N   UNL     1      10.766 -12.370   2.795  1.00  0.00    -0.248 NA
ATOM     47  C   UNL     1       9.698 -13.901   4.203  1.00  0.00     0.031 C 
ATOM     48  C   UNL     1      13.515 -13.514  -0.509  1.00  0.00     0.029 A 
ATOM     49  C   UNL     1      12.646 -13.185   0.519  1.00  0.00     0.049 A 
ATOM     50  H   UNL     1      11.986 -11.277   1.136  1.00  0.00     0.167 HD
ATOM     51  C   UNL     1      11.145 -13.661   2.438  1.00  0.00     0.074 A 
ATOM     52  C   UNL     1      10.483 -14.558   3.362  1.00  0.00     0.031 C 
ATOM     53  C   UNL     1      11.968 -14.068   1.438  1.00  0.00     0.034 A 
BRANCH  40  54
ATOM     54  C   UNL     1      14.279  -9.434  -1.980  1.00  0.00     0.023 A 
ATOM     55  C   UNL     1      15.423  -8.630  -1.836  1.00  0.00     0.031 A 
ATOM     56  C   UNL     1      13.912  -9.828  -3.280  1.00  0.00     0.131 A 
ATOM     57  C   UNL     1      16.117  -8.188  -2.973  1.00  0.00     0.055 A 
ATOM     58  C   UNL     1      14.653  -9.449  -4.402  1.00  0.00     0.041 A 
ATOM     59  F   UNL     1      12.819 -10.580  -3.484  1.00  0.00    -0.206 F 
ATOM     60  C   UNL     1      15.755  -8.612  -4.253  1.00  0.00     0.022 A 
BRANCH  57  61
ATOM     61  S   UNL     1      17.419  -6.942  -2.763  1.00  0.00     0.124 S 
ATOM     62  O   UNL     1      16.676  -5.840  -2.155  1.00  0.00    -0.237 OA
ATOM     63  O   UNL     1      18.372  -7.625  -1.896  1.00  0.00    -0.237 OA
ATOM     64  O   UNL     1      17.881  -6.695  -4.127  1.00  0.00    -0.744 OA
ENDBRANCH  57  61
ENDBRANCH  40  54
BRANCH  41  65
ATOM     65  C   UNL     1       8.321 -11.808   5.725  1.00  0.00     0.023 A 
ATOM     66  C   UNL     1       8.777 -12.474   6.873  1.00  0.00     0.031 A 
ATOM     67  C   UNL     1       6.945 -11.534   5.624  1.00  0.00     0.131 A 
ATOM     68  C   UNL     1       7.861 -12.886   7.853  1.00  0.00     0.055 A 
ATOM     69  C   UNL     1       6.045 -11.899   6.627  1.00  0.00     0.041 A 
ATOM     70  F   UNL     1       6.457 -10.892   4.551  1.00  0.00    -0.206 F 
ATOM     71  C   UNL     1       6.500 -12.592   7.744  1.00  0.00     0.022 A 
BRANCH  68  72
ATOM     72  S   UNL     1       8.466 -13.890   9.237  1.00  0.00     0.124 S 
ATOM     73  O   UNL     1       9.069 -15.022   8.543  1.00  0.00    -0.237 OA
ATOM     74  O   UNL     1       9.390 -12.972   9.894  1.00  0.00    -0.237 OA
ATOM     75  O   UNL     1       7.252 -14.194   9.992  1.00  0.00    -0.744 OA
ENDBRANCH  68  72
ENDBRANCH  41  65
BRANCH  53  76
ATOM     76  C   UNL     1      12.223 -15.551   1.327  1.00  0.00     0.023 A 
ATOM     77  C   UNL     1      11.207 -16.449   0.957  1.00  0.00     0.031 A 
ATOM     78  C   UNL     1      13.496 -16.073   1.617  1.00  0.00     0.131 A 
ATOM     79  C   UNL     1      11.466 -17.828   0.941  1.00  0.00     0.055 A 
ATOM     80  C   UNL     1      13.763 -17.440   1.542  1.00  0.00     0.041 A 
ATOM     81  F   UNL     1      14.502 -15.260   1.978  1.00  0.00    -0.206 F 
ATOM     82  C   UNL     1      12.742 -18.328   1.215  1.00  0.00     0.022 A 
BRANCH  79  83
ATOM     83  S   UNL     1      10.087 -18.969   0.646  1.00  0.00     0.124 S 
ATOM     84  O   UNL     1       9.176 -18.632   1.735  1.00  0.00    -0.237 OA
ATOM     85  O   UNL     1       9.648 -18.590  -0.693  1.00  0.00    -0.237 OA
ATOM     86  O   UNL     1      10.708 -20.289   0.744  1.00  0.00    -0.744 OA
ENDBRANCH  79  83
ENDBRANCH  53  76
ENDBRANCH  27  28
ENDBRANCH  19  22
ENDBRANCH   1  18
TORSDOF 14
