REMARK SMILES CC[C@](C)(NS(=O)(=O)c1ccc(OC)c(F)c1)C(=O)NCCCNC(=O)c1ccc(-c2c3nc(c(-c4cc(S(=O)(=O)[O-])ccc4F)c4ccc([nH]4)c(-c4cc(S(=O)(=O)[O-])ccc4F)c4nc(c(-c5cc(S(=O)(=O)[O-])ccc5F)c5ccc2[nH]5)C=C4)C=C3)cc1
REMARK SMILES IDX 21 1 20 2 18 3 19 4 3 6 4 7 2 8 1 9 5 10 6 12 7 13 8 14 9 15
REMARK SMILES IDX 10 16 17 17 11 18 15 19 12 20 16 21 13 22 14 23 22 24 23 25
REMARK SMILES IDX 24 26 25 27 26 29 27 30 28 31 89 32 29 33 88 34 30 35 31 36
REMARK SMILES IDX 32 37 82 38 33 39 87 40 81 41 83 42 34 43 86 44 80 45 79 46
REMARK SMILES IDX 35 48 67 49 47 50 66 51 48 52 51 53 65 54 84 55 49 56 50 57
REMARK SMILES IDX 64 59 85 60 52 61 36 62 37 63 45 64 38 65 44 66 46 67 43 68
REMARK SMILES IDX 39 69 40 70 41 71 42 72 68 73 69 74 77 75 70 76 76 77 78 78
REMARK SMILES IDX 75 79 71 80 72 81 73 82 74 83 53 84 54 85 62 86 55 87 61 88
REMARK SMILES IDX 63 89 60 90 56 91 57 92 58 93 59 94
REMARK H PARENT 20 5 5 11 24 28 83 47 51 58
REMARK Flexibility Score: inf
ROOT
ATOM      1  C   UNL     1       1.816   2.971   4.564  1.00  0.00     0.117 C 
ENDROOT
BRANCH   1   2
ATOM      2  N   UNL     1       2.588   2.233   3.570  1.00  0.00    -0.354 N 
ATOM      3  C   UNL     1       2.369   1.247   2.647  1.00  0.00     0.241 C 
ATOM      4  O   UNL     1       3.325   1.078   1.872  1.00  0.00    -0.273 OA
ATOM      5  H   UNL     1       3.527   2.527   3.560  1.00  0.00     0.163 HD
BRANCH   3   6
ATOM      6  C   UNL     1       1.118   0.331   2.522  1.00  0.00     0.108 C 
ATOM      7  C   UNL     1       1.215  -0.363   1.121  1.00  0.00     0.040 C 
BRANCH   6   8
ATOM      8  C   UNL     1      -0.178   1.185   2.589  1.00  0.00     0.030 C 
ATOM      9  C   UNL     1      -1.349   0.804   1.681  1.00  0.00     0.006 C 
ENDBRANCH   6   8
BRANCH   6  10
ATOM     10  N   UNL     1       1.048  -0.847   3.419  1.00  0.00    -0.196 NA
ATOM     11  H   UNL     1       1.337  -1.625   2.826  1.00  0.00     0.142 HD
BRANCH  10  12
ATOM     12  S   UNL     1       1.794  -1.152   4.869  1.00  0.00     0.241 S 
ATOM     13  O   UNL     1       1.494  -0.037   5.745  1.00  0.00    -0.207 OA
ATOM     14  O   UNL     1       1.362  -2.482   5.217  1.00  0.00    -0.207 OA
BRANCH  12  15
ATOM     15  C   UNL     1       3.559  -1.219   4.637  1.00  0.00     0.085 A 
ATOM     16  C   UNL     1       4.276  -0.031   4.649  1.00  0.00     0.026 A 
ATOM     17  C   UNL     1       4.281  -2.407   4.682  1.00  0.00     0.065 A 
ATOM     18  C   UNL     1       5.658   0.028   4.582  1.00  0.00     0.051 A 
ATOM     19  C   UNL     1       5.690  -2.358   4.678  1.00  0.00     0.166 A 
ATOM     20  C   UNL     1       6.387  -1.144   4.613  1.00  0.00     0.154 A 
ATOM     21  F   UNL     1       6.352  -3.521   4.755  1.00  0.00    -0.203 F 
BRANCH  20  22
ATOM     22  O   UNL     1       7.731  -0.922   4.587  1.00  0.00    -0.494 OA
ATOM     23  C   UNL     1       8.569  -1.976   5.023  1.00  0.00     0.278 C 
ENDBRANCH  20  22
ENDBRANCH  12  15
ENDBRANCH  10  12
ENDBRANCH   6  10
ENDBRANCH   3   6
ENDBRANCH   1   2
BRANCH   1  24
ATOM     24  C   UNL     1       2.050   2.847   6.100  1.00  0.00     0.042 C 
BRANCH  24  25
ATOM     25  C   UNL     1       3.345   2.448   6.838  1.00  0.00     0.118 C 
BRANCH  25  26
ATOM     26  N   UNL     1       4.497   3.297   6.620  1.00  0.00    -0.352 N 
ATOM     27  C   UNL     1       5.624   3.425   7.412  1.00  0.00     0.251 C 
ATOM     28  H   UNL     1       4.476   3.852   5.807  1.00  0.00     0.163 HD
ATOM     29  O   UNL     1       6.416   4.333   7.165  1.00  0.00    -0.269 OA
BRANCH  27  30
ATOM     30  C   UNL     1       5.895   2.527   8.570  1.00  0.00     0.039 A 
ATOM     31  C   UNL     1       6.025   3.094   9.842  1.00  0.00     0.014 A 
ATOM     32  C   UNL     1       6.193   1.170   8.402  1.00  0.00     0.014 A 
ATOM     33  C   UNL     1       6.418   2.307  10.938  1.00  0.00     0.010 A 
ATOM     34  C   UNL     1       6.572   0.378   9.508  1.00  0.00     0.010 A 
ATOM     35  C   UNL     1       6.690   0.935  10.793  1.00  0.00    -0.014 A 
BRANCH  35  36
ATOM     36  C   UNL     1       7.059   0.121  11.999  1.00  0.00     0.031 A 
ATOM     37  C   UNL     1       8.459  -0.409  12.209  1.00  0.00     0.074 A 
ATOM     38  C   UNL     1       6.133  -0.102  12.957  1.00  0.00     0.049 A 
ATOM     39  N   UNL     1       8.963  -1.015  13.257  1.00  0.00    -0.248 NA
ATOM     40  C   UNL     1       9.411  -0.245  11.102  1.00  0.00     0.031 C 
ATOM     41  C   UNL     1       4.736   0.327  12.880  1.00  0.00     0.029 A 
ATOM     42  N   UNL     1       6.222  -0.713  14.187  1.00  0.00    -0.354 N 
ATOM     43  C   UNL     1      10.292  -1.290  12.946  1.00  0.00     0.074 A 
ATOM     44  C   UNL     1      10.500  -0.829  11.588  1.00  0.00     0.031 C 
ATOM     45  C   UNL     1       4.116   0.017  14.030  1.00  0.00     0.029 A 
ATOM     46  C   UNL     1       5.056  -0.663  14.919  1.00  0.00     0.049 A 
ATOM     47  H   UNL     1       7.044  -1.145  14.514  1.00  0.00     0.167 HD
ATOM     48  C   UNL     1      11.253  -1.854  13.722  1.00  0.00     0.034 A 
ATOM     49  C   UNL     1       4.765  -1.100  16.163  1.00  0.00     0.034 A 
ATOM     50  C   UNL     1      11.048  -2.310  15.077  1.00  0.00     0.049 A 
ATOM     51  C   UNL     1       5.837  -1.757  16.993  1.00  0.00     0.074 A 
ATOM     52  C   UNL     1      11.979  -2.845  15.953  1.00  0.00     0.029 A 
ATOM     53  N   UNL     1       9.835  -2.299  15.749  1.00  0.00    -0.354 N 
ATOM     54  N   UNL     1       7.095  -1.970  16.689  1.00  0.00    -0.248 NA
ATOM     55  C   UNL     1       5.456  -2.232  18.333  1.00  0.00     0.031 C 
ATOM     56  C   UNL     1      11.318  -3.221  17.125  1.00  0.00     0.029 A 
ATOM     57  C   UNL     1       9.988  -2.852  17.012  1.00  0.00     0.049 A 
ATOM     58  H   UNL     1       8.990  -1.950  15.385  1.00  0.00     0.167 HD
ATOM     59  C   UNL     1       7.658  -2.583  17.804  1.00  0.00     0.074 A 
ATOM     60  C   UNL     1       6.607  -2.709  18.791  1.00  0.00     0.031 C 
ATOM     61  C   UNL     1       8.937  -2.992  17.990  1.00  0.00     0.034 A 
BRANCH  48  62
ATOM     62  C   UNL     1      12.633  -2.026  13.132  1.00  0.00     0.023 A 
ATOM     63  C   UNL     1      13.456  -0.921  12.857  1.00  0.00     0.031 A 
ATOM     64  C   UNL     1      13.157  -3.313  12.907  1.00  0.00     0.131 A 
ATOM     65  C   UNL     1      14.745  -1.121  12.337  1.00  0.00     0.055 A 
ATOM     66  C   UNL     1      14.460  -3.507  12.446  1.00  0.00     0.041 A 
ATOM     67  F   UNL     1      12.413  -4.404  13.148  1.00  0.00    -0.206 F 
ATOM     68  C   UNL     1      15.260  -2.407  12.152  1.00  0.00     0.022 A 
BRANCH  65  69
ATOM     69  S   UNL     1      15.718   0.326  11.841  1.00  0.00     0.124 S 
ATOM     70  O   UNL     1      14.902   0.873  10.760  1.00  0.00    -0.237 OA
ATOM     71  O   UNL     1      15.765   1.113  13.067  1.00  0.00    -0.237 OA
ATOM     72  O   UNL     1      16.995  -0.247  11.419  1.00  0.00    -0.744 OA
ENDBRANCH  65  69
ENDBRANCH  48  62
BRANCH  49  73
ATOM     73  C   UNL     1       3.385  -0.924  16.703  1.00  0.00     0.023 A 
ATOM     74  C   UNL     1       3.120  -0.030  17.753  1.00  0.00     0.031 A 
ATOM     75  C   UNL     1       2.306  -1.643  16.158  1.00  0.00     0.131 A 
ATOM     76  C   UNL     1       1.808   0.116  18.232  1.00  0.00     0.055 A 
ATOM     77  C   UNL     1       0.998  -1.466  16.611  1.00  0.00     0.041 A 
ATOM     78  F   UNL     1       2.507  -2.507  15.151  1.00  0.00    -0.206 F 
ATOM     79  C   UNL     1       0.744  -0.585  17.657  1.00  0.00     0.022 A 
BRANCH  76  80
ATOM     80  S   UNL     1       1.504   1.223  19.637  1.00  0.00     0.124 S 
ATOM     81  O   UNL     1       2.248   0.561  20.703  1.00  0.00    -0.237 OA
ATOM     82  O   UNL     1       2.055   2.486  19.156  1.00  0.00    -0.237 OA
ATOM     83  O   UNL     1       0.050   1.198  19.782  1.00  0.00    -0.744 OA
ENDBRANCH  76  80
ENDBRANCH  49  73
BRANCH  61  84
ATOM     84  C   UNL     1       9.303  -3.601  19.319  1.00  0.00     0.023 A 
ATOM     85  C   UNL     1       8.921  -4.910  19.657  1.00  0.00     0.031 A 
ATOM     86  C   UNL     1      10.128  -2.895  20.212  1.00  0.00     0.131 A 
ATOM     87  C   UNL     1       9.363  -5.474  20.865  1.00  0.00     0.055 A 
ATOM     88  C   UNL     1      10.595  -3.474  21.393  1.00  0.00     0.041 A 
ATOM     89  F   UNL     1      10.524  -1.644  19.930  1.00  0.00    -0.206 F 
ATOM     90  C   UNL     1      10.214  -4.771  21.724  1.00  0.00     0.022 A 
BRANCH  87  91
ATOM     91  S   UNL     1       8.823  -7.149  21.302  1.00  0.00     0.124 S 
ATOM     92  O   UNL     1       7.397  -6.954  21.543  1.00  0.00    -0.237 OA
ATOM     93  O   UNL     1       9.169  -7.918  20.111  1.00  0.00    -0.237 OA
ATOM     94  O   UNL     1       9.615  -7.466  22.490  1.00  0.00    -0.744 OA
ENDBRANCH  87  91
ENDBRANCH  61  84
ENDBRANCH  35  36
ENDBRANCH  27  30
ENDBRANCH  25  26
ENDBRANCH  24  25
ENDBRANCH   1  24
TORSDOF 18
