REMARK SMILES N#Cc1ccc(/C=C/C(=O)N[C@H]2C=C[C@H](C(=O)NCCCNC(=O)c3ccc(-c4c5nc(c(-c6cc(S(=O)(=O)[O-])ccc6F)c6ccc([nH]6)c(-c6cc(S(=O)(=O)[O-])ccc6F)c6nc(c(-c7cc(S(=O)(=O)[O-])ccc7F)c7ccc4[nH]7)C=C6)C=C5)cc3)C2)cc1
REMARK SMILES IDX 19 1 18 2 16 3 17 4 15 6 12 7 13 8 88 9 14 10 11 11 9 12
REMARK SMILES IDX 10 13 8 15 7 16 6 17 3 18 4 19 90 20 5 21 89 22 2 23 1 24
REMARK SMILES IDX 20 25 21 26 22 27 23 28 24 30 25 31 26 32 87 33 27 34 86 35
REMARK SMILES IDX 28 36 29 37 30 38 80 39 31 40 85 41 79 42 81 43 32 44 84 45
REMARK SMILES IDX 78 46 77 47 33 49 65 50 45 51 64 52 46 53 49 54 63 55 82 56
REMARK SMILES IDX 47 57 48 58 62 60 83 61 50 62 34 63 35 64 43 65 36 66 42 67
REMARK SMILES IDX 44 68 41 69 37 70 38 71 39 72 40 73 66 74 67 75 75 76 68 77
REMARK SMILES IDX 74 78 76 79 73 80 69 81 70 82 71 83 72 84 51 85 52 86 60 87
REMARK SMILES IDX 53 88 59 89 61 90 58 91 54 92 55 93 56 94 57 95
REMARK H PARENT 18 5 11 14 22 29 81 48 49 59
REMARK Flexibility Score: inf
ROOT
ATOM      1  C   UNL     1       4.227  -6.065   2.316  1.00  0.00     0.117 C 
ENDROOT
BRANCH   1   2
ATOM      2  N   UNL     1       3.525  -4.880   1.886  1.00  0.00    -0.356 N 
ATOM      3  C   UNL     1       3.979  -3.609   1.768  1.00  0.00     0.227 C 
ATOM      4  O   UNL     1       3.151  -2.757   1.442  1.00  0.00    -0.274 OA
ATOM      5  H   UNL     1       2.580  -5.014   1.643  1.00  0.00     0.163 HD
BRANCH   3   6
ATOM      6  C   UNL     1       5.443  -3.261   2.074  1.00  0.00     0.103 C 
ATOM      7  C   UNL     1       6.021  -1.550   0.480  1.00  0.00     0.106 C 
ATOM      8  C   UNL     1       6.876  -2.746   0.249  1.00  0.00    -0.006 C 
ATOM      9  C   UNL     1       5.636  -1.744   1.947  1.00  0.00     0.047 C 
ATOM     10  C   UNL     1       6.461  -3.736   1.058  1.00  0.00    -0.016 C 
BRANCH   7  11
ATOM     11  N   UNL     1       6.621  -0.273   0.240  1.00  0.00    -0.346 N 
ATOM     12  C   UNL     1       6.011   0.946   0.126  1.00  0.00     0.244 C 
ATOM     13  O   UNL     1       6.730   1.948   0.082  1.00  0.00    -0.270 OA
ATOM     14  H   UNL     1       7.601  -0.272   0.146  1.00  0.00     0.164 HD
BRANCH  12  15
ATOM     15  C   UNL     1       4.520   1.159   0.057  1.00  0.00     0.072 C 
ATOM     16  C   UNL     1       3.536   0.252  -0.031  1.00  0.00     0.014 C 
BRANCH  16  17
ATOM     17  C   UNL     1       2.070   0.363  -0.109  1.00  0.00    -0.025 A 
ATOM     18  C   UNL     1      -0.745   0.290  -0.103  1.00  0.00     0.052 A 
ATOM     19  C   UNL     1      -0.058   1.508   0.000  1.00  0.00     0.020 A 
ATOM     20  C   UNL     1      -0.029  -0.893  -0.236  1.00  0.00     0.020 A 
ATOM     21  C   UNL     1       1.345   1.546   0.003  1.00  0.00     0.009 A 
ATOM     22  C   UNL     1       1.361  -0.848  -0.254  1.00  0.00     0.009 A 
BRANCH  18  23
ATOM     23  C   UNL     1      -2.178   0.246  -0.069  1.00  0.00     0.099 C 
ATOM     24  N   UNL     1      -3.335   0.202  -0.050  1.00  0.00    -0.192 NA
ENDBRANCH  18  23
ENDBRANCH  16  17
ENDBRANCH  12  15
ENDBRANCH   7  11
ENDBRANCH   3   6
ENDBRANCH   1   2
BRANCH   1  25
ATOM     25  C   UNL     1       3.779  -6.512   3.699  1.00  0.00     0.042 C 
BRANCH  25  26
ATOM     26  C   UNL     1       2.301  -6.878   3.792  1.00  0.00     0.118 C 
BRANCH  26  27
ATOM     27  N   UNL     1       1.933  -7.959   2.892  1.00  0.00    -0.352 N 
ATOM     28  C   UNL     1       1.449  -9.215   3.158  1.00  0.00     0.251 C 
ATOM     29  H   UNL     1       2.050  -7.756   1.935  1.00  0.00     0.163 HD
ATOM     30  O   UNL     1       1.419 -10.040   2.247  1.00  0.00    -0.269 OA
BRANCH  28  31
ATOM     31  C   UNL     1       0.990  -9.586   4.516  1.00  0.00     0.039 A 
ATOM     32  C   UNL     1       1.220 -10.887   4.968  1.00  0.00     0.014 A 
ATOM     33  C   UNL     1       0.294  -8.686   5.327  1.00  0.00     0.014 A 
ATOM     34  C   UNL     1       0.787 -11.269   6.239  1.00  0.00     0.010 A 
ATOM     35  C   UNL     1      -0.042  -9.035   6.633  1.00  0.00     0.010 A 
ATOM     36  C   UNL     1       0.174 -10.339   7.096  1.00  0.00    -0.014 A 
BRANCH  36  37
ATOM     37  C   UNL     1      -0.285 -10.745   8.453  1.00  0.00     0.031 A 
ATOM     38  C   UNL     1      -1.746 -10.671   8.815  1.00  0.00     0.074 A 
ATOM     39  C   UNL     1       0.612 -11.177   9.361  1.00  0.00     0.049 A 
ATOM     40  N   UNL     1      -2.337 -10.988   9.940  1.00  0.00    -0.248 NA
ATOM     41  C   UNL     1      -2.657 -10.145   7.788  1.00  0.00     0.031 C 
ATOM     42  C   UNL     1       2.058 -11.254   9.147  1.00  0.00     0.029 A 
ATOM     43  N   UNL     1       0.442 -11.640  10.642  1.00  0.00    -0.354 N 
ATOM     44  C   UNL     1      -3.686 -10.703   9.752  1.00  0.00     0.074 A 
ATOM     45  C   UNL     1      -3.806 -10.101   8.442  1.00  0.00     0.031 C 
ATOM     46  C   UNL     1       2.637 -11.775  10.239  1.00  0.00     0.029 A 
ATOM     47  C   UNL     1       1.615 -12.019  11.253  1.00  0.00     0.049 A 
ATOM     48  H   UNL     1      -0.437 -11.695  11.083  1.00  0.00     0.167 HD
ATOM     49  C   UNL     1      -4.734 -10.952  10.578  1.00  0.00     0.034 A 
ATOM     50  C   UNL     1       1.847 -12.499  12.491  1.00  0.00     0.034 A 
ATOM     51  C   UNL     1      -4.595 -11.539  11.889  1.00  0.00     0.049 A 
ATOM     52  C   UNL     1       0.676 -12.724  13.414  1.00  0.00     0.074 A 
ATOM     53  C   UNL     1      -5.587 -11.853  12.803  1.00  0.00     0.029 A 
ATOM     54  N   UNL     1      -3.388 -11.890  12.482  1.00  0.00    -0.354 N 
ATOM     55  N   UNL     1      -0.599 -12.485  13.207  1.00  0.00    -0.248 NA
ATOM     56  C   UNL     1       0.976 -13.302  14.728  1.00  0.00     0.031 C 
ATOM     57  C   UNL     1      -4.975 -12.307  13.976  1.00  0.00     0.029 A 
ATOM     58  C   UNL     1      -3.609 -12.386  13.759  1.00  0.00     0.049 A 
ATOM     59  H   UNL     1      -2.504 -11.800  12.058  1.00  0.00     0.167 HD
ATOM     60  C   UNL     1      -1.258 -12.924  14.354  1.00  0.00     0.074 A 
ATOM     61  C   UNL     1      -0.237 -13.452  15.236  1.00  0.00     0.031 C 
ATOM     62  C   UNL     1      -2.586 -12.900  14.644  1.00  0.00     0.034 A 
BRANCH  49  63
ATOM     63  C   UNL     1      -6.109 -10.557  10.087  1.00  0.00     0.023 A 
ATOM     64  C   UNL     1      -6.649 -11.089   8.902  1.00  0.00     0.031 A 
ATOM     65  C   UNL     1      -6.871  -9.598  10.777  1.00  0.00     0.131 A 
ATOM     66  C   UNL     1      -7.855 -10.587   8.390  1.00  0.00     0.055 A 
ATOM     67  C   UNL     1      -8.122  -9.179  10.317  1.00  0.00     0.041 A 
ATOM     68  F   UNL     1      -6.404  -9.031  11.901  1.00  0.00    -0.206 F 
ATOM     69  C   UNL     1      -8.611  -9.657   9.106  1.00  0.00     0.022 A 
BRANCH  66  70
ATOM     70  S   UNL     1      -8.316 -11.019   6.689  1.00  0.00     0.124 S 
ATOM     71  O   UNL     1      -7.147 -10.559   5.943  1.00  0.00    -0.237 OA
ATOM     72  O   UNL     1      -8.496 -12.463   6.768  1.00  0.00    -0.237 OA
ATOM     73  O   UNL     1      -9.536 -10.247   6.459  1.00  0.00    -0.744 OA
ENDBRANCH  66  70
ENDBRANCH  49  63
BRANCH  50  74
ATOM     74  C   UNL     1       3.243 -12.785  12.934  1.00  0.00     0.023 A 
ATOM     75  C   UNL     1       3.660 -14.085  13.265  1.00  0.00     0.031 A 
ATOM     76  C   UNL     1       4.179 -11.742  13.061  1.00  0.00     0.131 A 
ATOM     77  C   UNL     1       4.962 -14.300  13.746  1.00  0.00     0.055 A 
ATOM     78  C   UNL     1       5.490 -11.971  13.479  1.00  0.00     0.041 A 
ATOM     79  F   UNL     1       3.834 -10.480  12.759  1.00  0.00    -0.206 F 
ATOM     80  C   UNL     1       5.884 -13.255  13.837  1.00  0.00     0.022 A 
BRANCH  77  81
ATOM     81  S   UNL     1       5.411 -15.954  14.341  1.00  0.00     0.124 S 
ATOM     82  O   UNL     1       4.426 -16.168  15.395  1.00  0.00    -0.237 OA
ATOM     83  O   UNL     1       5.250 -16.764  13.137  1.00  0.00    -0.237 OA
ATOM     84  O   UNL     1       6.790 -15.788  14.797  1.00  0.00    -0.744 OA
ENDBRANCH  77  81
ENDBRANCH  50  74
BRANCH  62  85
ATOM     85  C   UNL     1      -3.017 -13.530  15.950  1.00  0.00     0.023 A 
ATOM     86  C   UNL     1      -2.578 -13.047  17.196  1.00  0.00     0.031 A 
ATOM     87  C   UNL     1      -3.852 -14.663  15.944  1.00  0.00     0.131 A 
ATOM     88  C   UNL     1      -2.896 -13.747  18.369  1.00  0.00     0.055 A 
ATOM     89  C   UNL     1      -4.239 -15.301  17.123  1.00  0.00     0.041 A 
ATOM     90  F   UNL     1      -4.300 -15.177  14.788  1.00  0.00    -0.206 F 
ATOM     91  C   UNL     1      -3.742 -14.857  18.344  1.00  0.00     0.022 A 
BRANCH  88  92
ATOM     92  S   UNL     1      -2.053 -13.286  19.909  1.00  0.00     0.124 S 
ATOM     93  O   UNL     1      -0.649 -13.372  19.521  1.00  0.00    -0.237 OA
ATOM     94  O   UNL     1      -2.566 -11.943  20.154  1.00  0.00    -0.237 OA
ATOM     95  O   UNL     1      -2.497 -14.304  20.860  1.00  0.00    -0.744 OA
ENDBRANCH  88  92
ENDBRANCH  62  85
ENDBRANCH  36  37
ENDBRANCH  28  31
ENDBRANCH  26  27
ENDBRANCH  25  26
ENDBRANCH   1  25
TORSDOF 17
