REMARK SMILES Cc1cc(F)cc(N[C@](C)(C(=O)NCCCNC(=O)c2ccc(-c3c4nc(c(-c5cc(S(=O)(=O)[O-])ccc5F)c5ccc([nH]5)c(-c5cc(S(=O)(=O)[O-])ccc5F)c5nc(c(-c6cc(S(=O)(=O)[O-])ccc6F)c6ccc3[nH]6)C=C5)C=C4)cc2)c2cccc(F)c2)c1
REMARK SMILES IDX 15 1 14 2 13 3 11 4 12 5 9 7 10 8 8 9 7 11 1 12 2 13 3 14
REMARK SMILES IDX 90 15 4 16 5 17 6 18 83 19 84 20 89 21 85 22 87 23 86 24
REMARK SMILES IDX 88 25 16 26 17 27 18 28 19 30 20 31 21 32 82 33 22 34 81 35
REMARK SMILES IDX 23 36 24 37 25 38 75 39 26 40 80 41 74 42 76 43 27 44 79 45
REMARK SMILES IDX 73 46 72 47 28 49 60 50 40 51 59 52 41 53 44 54 58 55 77 56
REMARK SMILES IDX 42 57 43 58 57 60 78 61 45 62 29 63 30 64 38 65 31 66 37 67
REMARK SMILES IDX 39 68 36 69 32 70 33 71 34 72 35 73 61 74 62 75 70 76 63 77
REMARK SMILES IDX 69 78 71 79 68 80 64 81 65 82 66 83 67 84 46 85 47 86 55 87
REMARK SMILES IDX 48 88 54 89 56 90 53 91 49 92 50 93 51 94 52 95
REMARK H PARENT 13 6 8 10 17 29 76 48 44 59
REMARK Flexibility Score: inf
ROOT
ATOM      1  C   UNL     1      -3.937  -6.401   1.268  1.00  0.00     0.042 C 
ENDROOT
BRANCH   1   2
ATOM      2  C   UNL     1      -3.844  -4.957   0.780  1.00  0.00     0.117 C 
BRANCH   2   3
ATOM      3  N   UNL     1      -2.824  -4.225   1.502  1.00  0.00    -0.354 N 
ATOM      4  C   UNL     1      -1.507  -4.000   1.251  1.00  0.00     0.250 C 
ATOM      5  O   UNL     1      -0.849  -3.655   2.247  1.00  0.00    -0.272 OA
ATOM      6  H   UNL     1      -3.146  -3.812   2.336  1.00  0.00     0.163 HD
BRANCH   4   7
ATOM      7  C   UNL     1      -0.801  -4.157  -0.169  1.00  0.00     0.139 C 
ATOM      8  C   UNL     1      -1.643  -3.861  -1.434  1.00  0.00     0.051 C 
BRANCH   7   9
ATOM      9  N   UNL     1       0.315  -3.148  -0.189  1.00  0.00    -0.368 N 
ATOM     10  H   UNL     1       1.227  -3.507  -0.280  1.00  0.00     0.161 HD
BRANCH   9  11
ATOM     11  C   UNL     1       0.204  -1.760  -0.093  1.00  0.00     0.038 A 
ATOM     12  C   UNL     1       2.686   1.167  -0.080  1.00  0.00     0.044 C 
ATOM     13  C   UNL     1       1.401   0.395  -0.059  1.00  0.00    -0.046 A 
ATOM     14  C   UNL     1       0.187   1.069   0.061  1.00  0.00     0.042 A 
ATOM     15  C   UNL     1       1.393  -1.008  -0.152  1.00  0.00     0.029 A 
ATOM     16  C   UNL     1      -0.993   0.341   0.099  1.00  0.00     0.125 A 
ATOM     17  F   UNL     1      -2.160   0.990   0.221  1.00  0.00    -0.207 F 
ATOM     18  C   UNL     1      -0.992  -1.051   0.025  1.00  0.00     0.065 A 
ENDBRANCH   9  11
ENDBRANCH   7   9
BRANCH   7  19
ATOM     19  C   UNL     1      -0.222  -5.609  -0.245  1.00  0.00    -0.011 A 
ATOM     20  C   UNL     1       1.091  -5.949   0.142  1.00  0.00     0.007 A 
ATOM     21  C   UNL     1      -1.051  -6.688  -0.619  1.00  0.00     0.046 A 
ATOM     22  C   UNL     1       1.539  -7.281   0.160  1.00  0.00     0.003 A 
ATOM     23  C   UNL     1      -0.608  -8.009  -0.579  1.00  0.00     0.123 A 
ATOM     24  C   UNL     1       0.682  -8.317  -0.191  1.00  0.00     0.039 A 
ATOM     25  F   UNL     1      -1.458  -8.992  -0.902  1.00  0.00    -0.207 F 
ENDBRANCH   7  19
ENDBRANCH   4   7
ENDBRANCH   2   3
ENDBRANCH   1   2
BRANCH   1  26
ATOM     26  C   UNL     1      -4.633  -6.552   2.615  1.00  0.00     0.118 C 
BRANCH  26  27
ATOM     27  N   UNL     1      -6.057  -6.279   2.523  1.00  0.00    -0.352 N 
ATOM     28  C   UNL     1      -7.135  -7.100   2.745  1.00  0.00     0.251 C 
ATOM     29  H   UNL     1      -6.286  -5.358   2.259  1.00  0.00     0.163 HD
ATOM     30  O   UNL     1      -8.242  -6.731   2.360  1.00  0.00    -0.269 OA
BRANCH  28  31
ATOM     31  C   UNL     1      -6.982  -8.411   3.422  1.00  0.00     0.039 A 
ATOM     32  C   UNL     1      -7.809  -9.468   3.030  1.00  0.00     0.014 A 
ATOM     33  C   UNL     1      -6.086  -8.594   4.480  1.00  0.00     0.014 A 
ATOM     34  C   UNL     1      -7.714 -10.707   3.670  1.00  0.00     0.010 A 
ATOM     35  C   UNL     1      -5.929  -9.853   5.057  1.00  0.00     0.010 A 
ATOM     36  C   UNL     1      -6.759 -10.917   4.676  1.00  0.00    -0.014 A 
BRANCH  36  37
ATOM     37  C   UNL     1      -6.648 -12.230   5.366  1.00  0.00     0.031 A 
ATOM     38  C   UNL     1      -6.938 -12.339   6.840  1.00  0.00     0.074 A 
ATOM     39  C   UNL     1      -6.249 -13.316   4.676  1.00  0.00     0.049 A 
ATOM     40  N   UNL     1      -6.876 -13.386   7.624  1.00  0.00    -0.248 NA
ATOM     41  C   UNL     1      -7.313 -11.096   7.528  1.00  0.00     0.031 C 
ATOM     42  C   UNL     1      -5.893 -13.329   3.255  1.00  0.00     0.029 A 
ATOM     43  N   UNL     1      -6.077 -14.618   5.073  1.00  0.00    -0.354 N 
ATOM     44  C   UNL     1      -7.188 -12.924   8.899  1.00  0.00     0.074 A 
ATOM     45  C   UNL     1      -7.360 -11.491   8.790  1.00  0.00     0.031 C 
ATOM     46  C   UNL     1      -5.587 -14.584   2.891  1.00  0.00     0.029 A 
ATOM     47  C   UNL     1      -5.684 -15.457   4.057  1.00  0.00     0.049 A 
ATOM     48  H   UNL     1      -6.221 -14.922   5.998  1.00  0.00     0.167 HD
ATOM     49  C   UNL     1      -7.345 -13.630  10.048  1.00  0.00     0.034 A 
ATOM     50  C   UNL     1      -5.436 -16.781   4.063  1.00  0.00     0.034 A 
ATOM     51  C   UNL     1      -7.181 -15.062  10.133  1.00  0.00     0.049 A 
ATOM     52  C   UNL     1      -5.601 -17.548   5.348  1.00  0.00     0.074 A 
ATOM     53  C   UNL     1      -7.374 -15.892  11.224  1.00  0.00     0.029 A 
ATOM     54  N   UNL     1      -6.771 -15.878   9.085  1.00  0.00    -0.354 N 
ATOM     55  N   UNL     1      -5.952 -17.108   6.535  1.00  0.00    -0.248 NA
ATOM     56  C   UNL     1      -5.346 -18.993   5.290  1.00  0.00     0.031 C 
ATOM     57  C   UNL     1      -7.019 -17.195  10.854  1.00  0.00     0.029 A 
ATOM     58  C   UNL     1      -6.675 -17.195   9.511  1.00  0.00     0.049 A 
ATOM     59  H   UNL     1      -6.578 -15.566   8.171  1.00  0.00     0.167 HD
ATOM     60  C   UNL     1      -5.989 -18.229   7.359  1.00  0.00     0.074 A 
ATOM     61  C   UNL     1      -5.633 -19.364   6.530  1.00  0.00     0.031 C 
ATOM     62  C   UNL     1      -6.298 -18.314   8.678  1.00  0.00     0.034 A 
BRANCH  49  63
ATOM     63  C   UNL     1      -7.685 -12.847  11.298  1.00  0.00     0.023 A 
ATOM     64  C   UNL     1      -8.852 -12.065  11.385  1.00  0.00     0.031 A 
ATOM     65  C   UNL     1      -6.801 -12.823  12.391  1.00  0.00     0.131 A 
ATOM     66  C   UNL     1      -9.046 -11.212  12.482  1.00  0.00     0.055 A 
ATOM     67  C   UNL     1      -7.050 -12.046  13.525  1.00  0.00     0.041 A 
ATOM     68  F   UNL     1      -5.662 -13.533  12.366  1.00  0.00    -0.206 F 
ATOM     69  C   UNL     1      -8.167 -11.216  13.565  1.00  0.00     0.022 A 
BRANCH  66  70
ATOM     70  S   UNL     1     -10.357  -9.960  12.378  1.00  0.00     0.124 S 
ATOM     71  O   UNL     1      -9.993  -9.254  11.152  1.00  0.00    -0.237 OA
ATOM     72  O   UNL     1     -11.565 -10.774  12.313  1.00  0.00    -0.237 OA
ATOM     73  O   UNL     1     -10.189  -9.186  13.606  1.00  0.00    -0.744 OA
ENDBRANCH  66  70
ENDBRANCH  49  63
BRANCH  50  74
ATOM     74  C   UNL     1      -5.027 -17.468   2.807  1.00  0.00     0.023 A 
ATOM     75  C   UNL     1      -5.881 -18.388   2.179  1.00  0.00     0.031 A 
ATOM     76  C   UNL     1      -3.776 -17.217   2.216  1.00  0.00     0.131 A 
ATOM     77  C   UNL     1      -5.464 -19.047   1.013  1.00  0.00     0.055 A 
ATOM     78  C   UNL     1      -3.382 -17.844   1.033  1.00  0.00     0.041 A 
ATOM     79  F   UNL     1      -2.927 -16.339   2.773  1.00  0.00    -0.206 F 
ATOM     80  C   UNL     1      -4.225 -18.771   0.428  1.00  0.00     0.022 A 
BRANCH  77  81
ATOM     81  S   UNL     1      -6.550 -20.307   0.290  1.00  0.00     0.124 S 
ATOM     82  O   UNL     1      -6.637 -21.280   1.372  1.00  0.00    -0.237 OA
ATOM     83  O   UNL     1      -7.762 -19.542   0.015  1.00  0.00    -0.237 OA
ATOM     84  O   UNL     1      -5.815 -20.751  -0.892  1.00  0.00    -0.744 OA
ENDBRANCH  77  81
ENDBRANCH  50  74
BRANCH  62  85
ATOM     85  C   UNL     1      -6.299 -19.693   9.291  1.00  0.00     0.023 A 
ATOM     86  C   UNL     1      -5.115 -20.433   9.451  1.00  0.00     0.031 A 
ATOM     87  C   UNL     1      -7.508 -20.279   9.708  1.00  0.00     0.131 A 
ATOM     88  C   UNL     1      -5.171 -21.739   9.962  1.00  0.00     0.055 A 
ATOM     89  C   UNL     1      -7.550 -21.556  10.269  1.00  0.00     0.041 A 
ATOM     90  F   UNL     1      -8.669 -19.618   9.576  1.00  0.00    -0.206 F 
ATOM     91  C   UNL     1      -6.379 -22.299  10.387  1.00  0.00     0.022 A 
BRANCH  88  92
ATOM     92  S   UNL     1      -3.654 -22.734   9.981  1.00  0.00     0.124 S 
ATOM     93  O   UNL     1      -3.284 -22.750   8.569  1.00  0.00    -0.237 OA
ATOM     94  O   UNL     1      -2.784 -21.960  10.860  1.00  0.00    -0.237 OA
ATOM     95  O   UNL     1      -4.094 -24.020  10.521  1.00  0.00    -0.744 OA
ENDBRANCH  88  92
ENDBRANCH  62  85
ENDBRANCH  36  37
ENDBRANCH  28  31
ENDBRANCH  26  27
ENDBRANCH   1  26
TORSDOF 16
