REMARK SMILES COc1ccc(CCn2cc(C(=O)NCCCNC(=O)c3ccc(-c4c5nc(c(-c6cc(S(=O)(=O)[O-])ccc6F)c6ccc([nH]6)c(-c6cc(S(=O)(=O)[O-])ccc6F)c6nc(c(-c7cc(S(=O)(=O)[O-])ccc7F)c7ccc4[nH]7)C=C6)C=C5)cc3)ccc2=O)cc1OC
REMARK SMILES IDX 15 1 14 2 12 3 13 4 11 6 9 7 10 8 86 9 85 10 87 11 84 12
REMARK SMILES IDX 8 13 7 14 6 15 3 16 4 17 89 18 5 19 88 20 2 21 1 22 90 23
REMARK SMILES IDX 91 24 16 25 17 26 18 27 19 28 20 30 21 31 22 32 83 33 23 34
REMARK SMILES IDX 82 35 24 36 25 37 26 38 76 39 27 40 81 41 75 42 77 43 28 44
REMARK SMILES IDX 80 45 74 46 73 47 29 49 61 50 41 51 60 52 42 53 45 54 59 55
REMARK SMILES IDX 78 56 43 57 44 58 58 60 79 61 46 62 30 63 31 64 39 65 32 66
REMARK SMILES IDX 38 67 40 68 37 69 33 70 34 71 35 72 36 73 62 74 63 75 71 76
REMARK SMILES IDX 64 77 70 78 72 79 69 80 65 81 66 82 67 83 68 84 47 85 48 86
REMARK SMILES IDX 56 87 49 88 55 89 57 90 54 91 50 92 51 93 52 94 53 95
REMARK H PARENT 14 5 18 29 77 48 45 59
REMARK Flexibility Score: inf
ROOT
ATOM      1  C   UNL     1      -0.468  -9.880  -4.954  1.00  0.00     0.118 C 
ENDROOT
BRANCH   1   2
ATOM      2  N   UNL     1      -1.801  -9.713  -4.398  1.00  0.00    -0.352 N 
ATOM      3  C   UNL     1      -2.504  -8.617  -4.005  1.00  0.00     0.252 C 
ATOM      4  O   UNL     1      -3.616  -8.794  -3.505  1.00  0.00    -0.269 OA
ATOM      5  H   UNL     1      -2.291 -10.559  -4.283  1.00  0.00     0.163 HD
BRANCH   3   6
ATOM      6  C   UNL     1      -2.031  -7.228  -4.303  1.00  0.00     0.056 A 
ATOM      7  N   UNL     1      -0.338  -5.590  -4.739  1.00  0.00    -0.314 N 
ATOM      8  C   UNL     1      -0.750  -6.827  -4.237  1.00  0.00     0.103 A 
ATOM      9  C   UNL     1      -1.247  -4.723  -5.356  1.00  0.00     0.250 A 
ATOM     10  C   UNL     1      -2.682  -5.043  -5.138  1.00  0.00     0.072 A 
ATOM     11  O   UNL     1      -0.965  -3.731  -6.011  1.00  0.00    -0.269 OA
ATOM     12  C   UNL     1      -3.032  -6.236  -4.650  1.00  0.00     0.021 A 
BRANCH   7  13
ATOM     13  C   UNL     1       1.110  -5.347  -4.843  1.00  0.00     0.130 C 
BRANCH  13  14
ATOM     14  C   UNL     1       1.632  -3.911  -4.668  1.00  0.00     0.057 C 
BRANCH  14  15
ATOM     15  C   UNL     1       1.500  -3.278  -3.301  1.00  0.00    -0.042 A 
ATOM     16  C   UNL     1       1.306  -1.874  -0.864  1.00  0.00     0.160 A 
ATOM     17  C   UNL     1       0.189  -2.518  -1.406  1.00  0.00     0.051 A 
ATOM     18  C   UNL     1       2.541  -1.952  -1.513  1.00  0.00     0.160 A 
ATOM     19  C   UNL     1       0.283  -3.200  -2.620  1.00  0.00     0.008 A 
ATOM     20  C   UNL     1       2.618  -2.649  -2.729  1.00  0.00     0.054 A 
BRANCH  16  21
ATOM     21  O   UNL     1       1.154  -1.222   0.330  1.00  0.00    -0.493 OA
ATOM     22  C   UNL     1       0.410  -0.014   0.167  1.00  0.00     0.278 C 
ENDBRANCH  16  21
BRANCH  18  23
ATOM     23  O   UNL     1       3.742  -1.414  -1.139  1.00  0.00    -0.493 OA
ATOM     24  C   UNL     1       3.792  -0.618   0.033  1.00  0.00     0.278 C 
ENDBRANCH  18  23
ENDBRANCH  14  15
ENDBRANCH  13  14
ENDBRANCH   7  13
ENDBRANCH   3   6
ENDBRANCH   1   2
BRANCH   1  25
ATOM     25  C   UNL     1       0.499 -10.357  -3.870  1.00  0.00     0.042 C 
BRANCH  25  26
ATOM     26  C   UNL     1       0.304 -11.830  -3.513  1.00  0.00     0.118 C 
BRANCH  26  27
ATOM     27  N   UNL     1       0.678 -12.697  -4.619  1.00  0.00    -0.352 N 
ATOM     28  C   UNL     1       1.556 -13.748  -4.661  1.00  0.00     0.251 C 
ATOM     29  H   UNL     1       0.229 -12.498  -5.472  1.00  0.00     0.163 HD
ATOM     30  O   UNL     1       1.926 -14.162  -5.757  1.00  0.00    -0.269 OA
BRANCH  28  31
ATOM     31  C   UNL     1       2.059 -14.371  -3.417  1.00  0.00     0.039 A 
ATOM     32  C   UNL     1       3.374 -14.844  -3.396  1.00  0.00     0.014 A 
ATOM     33  C   UNL     1       1.235 -14.556  -2.302  1.00  0.00     0.014 A 
ATOM     34  C   UNL     1       3.868 -15.471  -2.252  1.00  0.00     0.010 A 
ATOM     35  C   UNL     1       1.753 -15.113  -1.134  1.00  0.00     0.010 A 
ATOM     36  C   UNL     1       3.070 -15.591  -1.102  1.00  0.00    -0.014 A 
BRANCH  36  37
ATOM     37  C   UNL     1       3.618 -16.220   0.127  1.00  0.00     0.031 A 
ATOM     38  C   UNL     1       3.044 -17.509   0.650  1.00  0.00     0.074 A 
ATOM     39  C   UNL     1       4.631 -15.614   0.777  1.00  0.00     0.049 A 
ATOM     40  N   UNL     1       3.412 -18.219   1.686  1.00  0.00    -0.248 NA
ATOM     41  C   UNL     1       1.886 -18.059  -0.071  1.00  0.00     0.031 C 
ATOM     42  C   UNL     1       5.232 -14.334   0.392  1.00  0.00     0.029 A 
ATOM     43  N   UNL     1       5.343 -15.992   1.887  1.00  0.00    -0.354 N 
ATOM     44  C   UNL     1       2.534 -19.296   1.743  1.00  0.00     0.074 A 
ATOM     45  C   UNL     1       1.571 -19.105   0.679  1.00  0.00     0.031 C 
ATOM     46  C   UNL     1       6.248 -14.058   1.223  1.00  0.00     0.029 A 
ATOM     47  C   UNL     1       6.347 -15.115   2.224  1.00  0.00     0.049 A 
ATOM     48  H   UNL     1       5.152 -16.814   2.394  1.00  0.00     0.167 HD
ATOM     49  C   UNL     1       2.545 -20.358   2.588  1.00  0.00     0.034 A 
ATOM     50  C   UNL     1       7.248 -15.158   3.224  1.00  0.00     0.034 A 
ATOM     51  C   UNL     1       3.516 -20.530   3.643  1.00  0.00     0.049 A 
ATOM     52  C   UNL     1       7.237 -16.345   4.153  1.00  0.00     0.074 A 
ATOM     53  C   UNL     1       3.651 -21.584   4.530  1.00  0.00     0.029 A 
ATOM     54  N   UNL     1       4.515 -19.617   3.962  1.00  0.00    -0.354 N 
ATOM     55  N   UNL     1       6.437 -17.388   4.154  1.00  0.00    -0.248 NA
ATOM     56  C   UNL     1       8.263 -16.369   5.200  1.00  0.00     0.031 C 
ATOM     57  C   UNL     1       4.681 -21.277   5.426  1.00  0.00     0.029 A 
ATOM     58  C   UNL     1       5.248 -20.070   5.050  1.00  0.00     0.049 A 
ATOM     59  H   UNL     1       4.678 -18.771   3.486  1.00  0.00     0.167 HD
ATOM     60  C   UNL     1       6.884 -18.205   5.189  1.00  0.00     0.074 A 
ATOM     61  C   UNL     1       8.041 -17.547   5.762  1.00  0.00     0.031 C 
ATOM     62  C   UNL     1       6.385 -19.390   5.628  1.00  0.00     0.034 A 
BRANCH  49  63
ATOM     63  C   UNL     1       1.459 -21.397   2.415  1.00  0.00     0.023 A 
ATOM     64  C   UNL     1       1.326 -22.139   1.227  1.00  0.00     0.031 A 
ATOM     65  C   UNL     1       0.525 -21.633   3.440  1.00  0.00     0.131 A 
ATOM     66  C   UNL     1       0.244 -23.018   1.063  1.00  0.00     0.055 A 
ATOM     67  C   UNL     1      -0.500 -22.572   3.304  1.00  0.00     0.041 A 
ATOM     68  F   UNL     1       0.583 -20.942   4.590  1.00  0.00    -0.206 F 
ATOM     69  C   UNL     1      -0.655 -23.260   2.104  1.00  0.00     0.022 A 
BRANCH  66  70
ATOM     70  S   UNL     1      -0.059 -23.724  -0.580  1.00  0.00     0.124 S 
ATOM     71  O   UNL     1      -0.223 -22.520  -1.392  1.00  0.00    -0.237 OA
ATOM     72  O   UNL     1       1.155 -24.496  -0.820  1.00  0.00    -0.237 OA
ATOM     73  O   UNL     1      -1.275 -24.513  -0.396  1.00  0.00    -0.744 OA
ENDBRANCH  66  70
ENDBRANCH  49  63
BRANCH  50  74
ATOM     74  C   UNL     1       8.238 -14.057   3.400  1.00  0.00     0.023 A 
ATOM     75  C   UNL     1       9.616 -14.293   3.268  1.00  0.00     0.031 A 
ATOM     76  C   UNL     1       7.822 -12.758   3.743  1.00  0.00     0.131 A 
ATOM     77  C   UNL     1      10.531 -13.261   3.529  1.00  0.00     0.055 A 
ATOM     78  C   UNL     1       8.733 -11.720   3.945  1.00  0.00     0.041 A 
ATOM     79  F   UNL     1       6.516 -12.476   3.875  1.00  0.00    -0.206 F 
ATOM     80  C   UNL     1      10.098 -11.973   3.853  1.00  0.00     0.022 A 
BRANCH  77  81
ATOM     81  S   UNL     1      12.303 -13.650   3.528  1.00  0.00     0.124 S 
ATOM     82  O   UNL     1      12.376 -14.705   4.532  1.00  0.00    -0.237 OA
ATOM     83  O   UNL     1      12.521 -14.062   2.146  1.00  0.00    -0.237 OA
ATOM     84  O   UNL     1      12.929 -12.384   3.904  1.00  0.00    -0.744 OA
ENDBRANCH  77  81
ENDBRANCH  50  74
BRANCH  62  85
ATOM     85  C   UNL     1       7.122 -20.053   6.769  1.00  0.00     0.023 A 
ATOM     86  C   UNL     1       7.217 -19.450   8.036  1.00  0.00     0.031 A 
ATOM     87  C   UNL     1       7.786 -21.277   6.571  1.00  0.00     0.131 A 
ATOM     88  C   UNL     1       8.029 -20.023   9.025  1.00  0.00     0.055 A 
ATOM     89  C   UNL     1       8.529 -21.883   7.585  1.00  0.00     0.041 A 
ATOM     90  F   UNL     1       7.735 -21.900   5.383  1.00  0.00    -0.206 F 
ATOM     91  C   UNL     1       8.672 -21.245   8.814  1.00  0.00     0.022 A 
BRANCH  88  92
ATOM     92  S   UNL     1       8.353 -19.075  10.538  1.00  0.00     0.124 S 
ATOM     93  O   UNL     1       8.880 -17.823  10.003  1.00  0.00    -0.237 OA
ATOM     94  O   UNL     1       7.029 -19.000  11.147  1.00  0.00    -0.237 OA
ATOM     95  O   UNL     1       9.322 -19.899  11.258  1.00  0.00    -0.744 OA
ENDBRANCH  88  92
ENDBRANCH  62  85
ENDBRANCH  36  37
ENDBRANCH  28  31
ENDBRANCH  26  27
ENDBRANCH  25  26
ENDBRANCH   1  25
TORSDOF 18
