REMARK SMILES NC(=O)[C@H]1CN(C(=O)CSc2ccccc2C(=O)NCCCNC(=O)c2ccc(-c3c4nc(c(-c5cc(S(=O)(=O)[O-])ccc5F)c5ccc([nH]5)c(-c5cc(S(=O)(=O)[O-])ccc5F)c5nc(c(-c6cc(S(=O)(=O)[O-])ccc6F)c6ccc3[nH]6)C=C5)C=C4)cc2)c2ccccc2O1
REMARK SMILES IDX 20 1 19 2 17 3 18 4 16 6 11 7 12 8 13 9 15 10 14 11 10 12
REMARK SMILES IDX 9 13 7 14 8 15 6 16 4 17 5 18 95 19 94 20 89 21 93 22 90 23
REMARK SMILES IDX 92 24 91 25 2 26 1 27 3 30 21 31 22 32 23 33 24 34 25 36
REMARK SMILES IDX 26 37 27 38 88 39 28 40 87 41 29 42 30 43 31 44 81 45 32 46
REMARK SMILES IDX 86 47 80 48 82 49 33 50 85 51 79 52 78 53 34 55 66 56 46 57
REMARK SMILES IDX 65 58 47 59 50 60 64 61 83 62 48 63 49 64 63 66 84 67 51 68
REMARK SMILES IDX 35 69 36 70 44 71 37 72 43 73 45 74 42 75 38 76 39 77 40 78
REMARK SMILES IDX 41 79 67 80 68 81 76 82 69 83 75 84 77 85 74 86 70 87 71 88
REMARK SMILES IDX 72 89 73 90 52 91 53 92 61 93 54 94 60 95 62 96 59 97 55 98
REMARK SMILES IDX 56 99 57 100 58 101
REMARK H PARENT 19 5 1 28 1 29 23 35 82 54 50 65
REMARK Flexibility Score: inf
ROOT
ATOM      1  C   UNL     1       0.731   0.951  -0.956  1.00  0.00     0.118 C 
ENDROOT
BRANCH   1   2
ATOM      2  N   UNL     1       0.147  -0.379  -0.910  1.00  0.00    -0.352 N 
ATOM      3  C   UNL     1      -1.060  -0.792  -1.423  1.00  0.00     0.252 C 
ATOM      4  O   UNL     1      -1.450  -1.940  -1.238  1.00  0.00    -0.269 OA
ATOM      5  H   UNL     1       0.682  -1.069  -0.456  1.00  0.00     0.163 HD
BRANCH   3   6
ATOM      6  C   UNL     1      -1.969   0.179  -2.046  1.00  0.00     0.053 A 
ATOM      7  C   UNL     1      -1.718   0.943  -3.191  1.00  0.00     0.020 A 
ATOM      8  C   UNL     1      -2.606   2.019  -3.425  1.00  0.00     0.016 A 
ATOM      9  C   UNL     1      -3.740   2.249  -2.631  1.00  0.00     0.001 A 
ATOM     10  C   UNL     1      -3.158   0.354  -1.301  1.00  0.00     0.015 A 
ATOM     11  C   UNL     1      -4.045   1.381  -1.596  1.00  0.00     0.001 A 
BRANCH   7  12
ATOM     12  S   UNL     1      -0.474   0.785  -4.481  1.00  0.00    -0.115 SA
BRANCH  12  13
ATOM     13  C   UNL     1       0.537  -0.715  -4.184  1.00  0.00     0.175 C 
BRANCH  13  14
ATOM     14  C   UNL     1      -0.198  -2.045  -4.289  1.00  0.00     0.237 C 
ATOM     15  O   UNL     1      -1.235  -2.115  -4.955  1.00  0.00    -0.274 OA
BRANCH  14  16
ATOM     16  N   UNL     1       0.399  -3.158  -3.665  1.00  0.00    -0.304 N 
ATOM     17  C   UNL     1       0.921  -3.981  -1.421  1.00  0.00     0.281 C 
ATOM     18  C   UNL     1       1.402  -3.104  -2.576  1.00  0.00     0.181 C 
ATOM     19  O   UNL     1       0.907  -5.352  -1.809  1.00  0.00    -0.477 OA
ATOM     20  C   UNL     1       0.259  -5.536  -3.008  1.00  0.00     0.144 A 
ATOM     21  C   UNL     1      -0.018  -4.509  -3.940  1.00  0.00     0.086 A 
ATOM     22  C   UNL     1      -0.119  -6.856  -3.252  1.00  0.00     0.049 A 
ATOM     23  C   UNL     1      -0.646  -4.868  -5.137  1.00  0.00     0.030 A 
ATOM     24  C   UNL     1      -0.766  -7.184  -4.437  1.00  0.00     0.004 A 
ATOM     25  C   UNL     1      -1.017  -6.195  -5.383  1.00  0.00     0.002 A 
BRANCH  17  26
ATOM     26  C   UNL     1       1.791  -3.847  -0.179  1.00  0.00     0.260 C 
ATOM     27  N   UNL     1       1.304  -4.445   0.949  1.00  0.00    -0.366 N 
ATOM     28  H   UNL     1       1.814  -4.399   1.790  1.00  0.00     0.159 HD
ATOM     29  H   UNL     1       0.444  -4.922   0.921  1.00  0.00     0.159 HD
ATOM     30  O   UNL     1       2.831  -3.204  -0.127  1.00  0.00    -0.271 OA
ENDBRANCH  17  26
ENDBRANCH  14  16
ENDBRANCH  13  14
ENDBRANCH  12  13
ENDBRANCH   7  12
ENDBRANCH   3   6
ENDBRANCH   1   2
BRANCH   1  31
ATOM     31  C   UNL     1       2.073   1.069  -0.243  1.00  0.00     0.042 C 
BRANCH  31  32
ATOM     32  C   UNL     1       3.197   0.147  -0.714  1.00  0.00     0.118 C 
BRANCH  32  33
ATOM     33  N   UNL     1       3.552   0.213  -2.123  1.00  0.00    -0.352 N 
ATOM     34  C   UNL     1       4.718  -0.245  -2.717  1.00  0.00     0.251 C 
ATOM     35  H   UNL     1       2.891   0.628  -2.722  1.00  0.00     0.163 HD
ATOM     36  O   UNL     1       4.841  -0.217  -3.933  1.00  0.00    -0.269 OA
BRANCH  34  37
ATOM     37  C   UNL     1       5.844  -0.667  -1.847  1.00  0.00     0.039 A 
ATOM     38  C   UNL     1       7.029   0.070  -1.893  1.00  0.00     0.014 A 
ATOM     39  C   UNL     1       5.681  -1.670  -0.893  1.00  0.00     0.014 A 
ATOM     40  C   UNL     1       7.983  -0.098  -0.884  1.00  0.00     0.010 A 
ATOM     41  C   UNL     1       6.599  -1.790   0.150  1.00  0.00     0.010 A 
ATOM     42  C   UNL     1       7.733  -0.967   0.193  1.00  0.00    -0.014 A 
BRANCH  42  43
ATOM     43  C   UNL     1       8.573  -0.922   1.421  1.00  0.00     0.031 A 
ATOM     44  C   UNL     1       9.370  -2.115   1.864  1.00  0.00     0.074 A 
ATOM     45  C   UNL     1       8.539   0.187   2.191  1.00  0.00     0.049 A 
ATOM     46  N   UNL     1      10.111  -2.263   2.933  1.00  0.00    -0.248 NA
ATOM     47  C   UNL     1       9.304  -3.305   1.006  1.00  0.00     0.031 C 
ATOM     48  C   UNL     1       7.748   1.388   1.907  1.00  0.00     0.029 A 
ATOM     49  N   UNL     1       9.173   0.486   3.372  1.00  0.00    -0.354 N 
ATOM     50  C   UNL     1      10.602  -3.562   2.879  1.00  0.00     0.074 A 
ATOM     51  C   UNL     1      10.022  -4.176   1.701  1.00  0.00     0.031 C 
ATOM     52  C   UNL     1       7.967   2.300   2.866  1.00  0.00     0.029 A 
ATOM     53  C   UNL     1       8.878   1.740   3.858  1.00  0.00     0.049 A 
ATOM     54  H   UNL     1       9.783  -0.137   3.828  1.00  0.00     0.167 HD
ATOM     55  C   UNL     1      11.470  -4.178   3.721  1.00  0.00     0.034 A 
ATOM     56  C   UNL     1       9.286   2.368   4.978  1.00  0.00     0.034 A 
ATOM     57  C   UNL     1      12.034  -3.557   4.897  1.00  0.00     0.049 A 
ATOM     58  C   UNL     1      10.238   1.659   5.905  1.00  0.00     0.074 A 
ATOM     59  C   UNL     1      12.956  -4.076   5.791  1.00  0.00     0.029 A 
ATOM     60  N   UNL     1      11.723  -2.281   5.351  1.00  0.00    -0.354 N 
ATOM     61  N   UNL     1      10.741   0.451   5.804  1.00  0.00    -0.248 NA
ATOM     62  C   UNL     1      10.686   2.403   7.090  1.00  0.00     0.031 C 
ATOM     63  C   UNL     1      13.156  -3.140   6.813  1.00  0.00     0.029 A 
ATOM     64  C   UNL     1      12.412  -2.008   6.523  1.00  0.00     0.049 A 
ATOM     65  H   UNL     1      11.102  -1.660   4.904  1.00  0.00     0.167 HD
ATOM     66  C   UNL     1      11.589   0.303   6.898  1.00  0.00     0.074 A 
ATOM     67  C   UNL     1      11.539   1.548   7.636  1.00  0.00     0.031 C 
ATOM     68  C   UNL     1      12.345  -0.765   7.257  1.00  0.00     0.034 A 
BRANCH  55  69
ATOM     69  C   UNL     1      11.841  -5.607   3.403  1.00  0.00     0.023 A 
ATOM     70  C   UNL     1      12.520  -5.942   2.218  1.00  0.00     0.031 A 
ATOM     71  C   UNL     1      11.485  -6.653   4.273  1.00  0.00     0.131 A 
ATOM     72  C   UNL     1      12.748  -7.288   1.895  1.00  0.00     0.055 A 
ATOM     73  C   UNL     1      11.787  -7.986   3.985  1.00  0.00     0.041 A 
ATOM     74  F   UNL     1      10.820  -6.399   5.412  1.00  0.00    -0.206 F 
ATOM     75  C   UNL     1      12.407  -8.311   2.782  1.00  0.00     0.022 A 
BRANCH  72  76
ATOM     76  S   UNL     1      13.362  -7.687   0.236  1.00  0.00     0.124 S 
ATOM     77  O   UNL     1      12.314  -7.122  -0.610  1.00  0.00    -0.237 OA
ATOM     78  O   UNL     1      14.649  -7.002   0.203  1.00  0.00    -0.237 OA
ATOM     79  O   UNL     1      13.432  -9.147   0.239  1.00  0.00    -0.744 OA
ENDBRANCH  72  76
ENDBRANCH  55  69
BRANCH  56  80
ATOM     80  C   UNL     1       8.799   3.741   5.296  1.00  0.00     0.023 A 
ATOM     81  C   UNL     1       9.682   4.832   5.319  1.00  0.00     0.031 A 
ATOM     82  C   UNL     1       7.452   3.975   5.622  1.00  0.00     0.131 A 
ATOM     83  C   UNL     1       9.218   6.099   5.708  1.00  0.00     0.055 A 
ATOM     84  C   UNL     1       6.985   5.246   5.961  1.00  0.00     0.041 A 
ATOM     85  F   UNL     1       6.564   2.967   5.606  1.00  0.00    -0.206 F 
ATOM     86  C   UNL     1       7.874   6.315   6.018  1.00  0.00     0.022 A 
BRANCH  83  87
ATOM     87  S   UNL     1      10.419   7.447   5.882  1.00  0.00     0.124 S 
ATOM     88  O   UNL     1      11.351   6.892   6.857  1.00  0.00    -0.237 OA
ATOM     89  O   UNL     1      10.921   7.582   4.518  1.00  0.00    -0.237 OA
ATOM     90  O   UNL     1       9.607   8.565   6.359  1.00  0.00    -0.744 OA
ENDBRANCH  83  87
ENDBRANCH  56  80
BRANCH  68  91
ATOM     91  C   UNL     1      13.212  -0.606   8.481  1.00  0.00     0.023 A 
ATOM     92  C   UNL     1      12.660  -0.492   9.769  1.00  0.00     0.031 A 
ATOM     93  C   UNL     1      14.611  -0.547   8.352  1.00  0.00     0.131 A 
ATOM     94  C   UNL     1      13.499  -0.271  10.871  1.00  0.00     0.055 A 
ATOM     95  C   UNL     1      15.444  -0.382   9.458  1.00  0.00     0.041 A 
ATOM     96  F   UNL     1      15.190  -0.648   7.144  1.00  0.00    -0.206 F 
ATOM     97  C   UNL     1      14.889  -0.230  10.726  1.00  0.00     0.022 A 
BRANCH  94  98
ATOM     98  S   UNL     1      12.747   0.045  12.492  1.00  0.00     0.124 S 
ATOM     99  O   UNL     1      11.943   1.234  12.227  1.00  0.00    -0.237 OA
ATOM    100  O   UNL     1      12.002  -1.186  12.736  1.00  0.00    -0.237 OA
ATOM    101  O   UNL     1      13.897   0.257  13.369  1.00  0.00    -0.744 OA
ENDBRANCH  94  98
ENDBRANCH  68  91
ENDBRANCH  42  43
ENDBRANCH  34  37
ENDBRANCH  32  33
ENDBRANCH  31  32
ENDBRANCH   1  31
TORSDOF 18
