REMARK SMILES O=C(NCCCNC(=O)c1cccc(S(=O)(=O)Nc2ccccc2N2CCOCC2)c1)c1ccc(-c2c3nc(c(-c4cc(S(=O)(=O)[O-])ccc4F)c4ccc([nH]4)c(-c4cc(S(=O)(=O)[O-])ccc4F)c4nc(c(-c5cc(S(=O)(=O)[O-])ccc5F)c5ccc2[nH]5)C=C4)C=C3)cc1
REMARK SMILES IDX 5 1 4 2 3 3 1 4 2 5 32 7 33 8 94 9 34 10 93 11 35 12 36 13
REMARK SMILES IDX 37 14 87 15 38 16 92 17 86 18 88 19 39 20 91 21 85 22 84 23
REMARK SMILES IDX 40 25 72 26 52 27 71 28 53 29 56 30 70 31 89 32 54 33 55 34
REMARK SMILES IDX 69 36 90 37 57 38 41 39 42 40 50 41 43 42 49 43 51 44 48 45
REMARK SMILES IDX 44 46 45 47 46 48 47 49 73 50 74 51 82 52 75 53 81 54 83 55
REMARK SMILES IDX 80 56 76 57 77 58 78 59 79 60 58 61 59 62 67 63 60 64 66 65
REMARK SMILES IDX 68 66 65 67 61 68 62 69 63 70 64 71 6 72 7 73 8 74 9 76
REMARK SMILES IDX 10 77 11 78 31 79 12 80 14 81 13 82 15 83 16 84 17 85 18 86
REMARK SMILES IDX 19 88 20 89 24 90 21 91 23 92 22 93 25 94 26 95 30 96 27 97
REMARK SMILES IDX 29 98 28 99
REMARK H PARENT 3 6 88 24 56 35 7 75 18 87
REMARK Flexibility Score: inf
ROOT
ATOM      1  C   UNL     1       5.135  -1.185  -1.312  1.00  0.00     0.042 C 
ENDROOT
BRANCH   1   2
ATOM      2  C   UNL     1       4.565   0.217  -1.226  1.00  0.00     0.118 C 
BRANCH   2   3
ATOM      3  N   UNL     1       3.108   0.226  -1.111  1.00  0.00    -0.352 N 
ATOM      4  O   UNL     1       1.101  -0.004  -0.107  1.00  0.00    -0.269 OA
ATOM      5  C   UNL     1       2.306   0.196   0.010  1.00  0.00     0.251 C 
ATOM      6  H   UNL     1       2.624   0.260  -1.967  1.00  0.00     0.163 HD
BRANCH   5   7
ATOM      7  C   UNL     1       2.918   0.370   1.344  1.00  0.00     0.039 A 
ATOM      8  C   UNL     1       3.939   1.298   1.510  1.00  0.00     0.014 A 
ATOM      9  C   UNL     1       2.509  -0.413   2.425  1.00  0.00     0.014 A 
ATOM     10  C   UNL     1       4.729   1.253   2.642  1.00  0.00     0.010 A 
ATOM     11  C   UNL     1       3.191  -0.314   3.645  1.00  0.00     0.010 A 
ATOM     12  C   UNL     1       4.336   0.490   3.750  1.00  0.00    -0.014 A 
BRANCH  12  13
ATOM     13  C   UNL     1       5.110   0.644   5.010  1.00  0.00     0.031 A 
ATOM     14  C   UNL     1       5.780  -0.528   5.670  1.00  0.00     0.074 A 
ATOM     15  C   UNL     1       5.253   1.888   5.514  1.00  0.00     0.049 A 
ATOM     16  N   UNL     1       6.495  -0.553   6.765  1.00  0.00    -0.248 NA
ATOM     17  C   UNL     1       5.620  -1.842   5.030  1.00  0.00     0.031 C 
ATOM     18  C   UNL     1       4.647   3.099   4.948  1.00  0.00     0.029 A 
ATOM     19  N   UNL     1       5.975   2.356   6.580  1.00  0.00    -0.354 N 
ATOM     20  C   UNL     1       6.846  -1.884   6.966  1.00  0.00     0.074 A 
ATOM     21  C   UNL     1       6.241  -2.639   5.889  1.00  0.00     0.031 C 
ATOM     22  C   UNL     1       5.090   4.171   5.614  1.00  0.00     0.029 A 
ATOM     23  C   UNL     1       5.907   3.722   6.730  1.00  0.00     0.049 A 
ATOM     24  H   UNL     1       6.493   1.772   7.180  1.00  0.00     0.167 HD
ATOM     25  C   UNL     1       7.602  -2.416   7.959  1.00  0.00     0.034 A 
ATOM     26  C   UNL     1       6.407   4.529   7.684  1.00  0.00     0.034 A 
ATOM     27  C   UNL     1       8.201  -1.633   9.016  1.00  0.00     0.049 A 
ATOM     28  C   UNL     1       7.202   3.905   8.793  1.00  0.00     0.074 A 
ATOM     29  C   UNL     1       9.004  -2.064  10.058  1.00  0.00     0.029 A 
ATOM     30  N   UNL     1       8.059  -0.258   9.172  1.00  0.00    -0.354 N 
ATOM     31  N   UNL     1       7.516   2.643   8.971  1.00  0.00    -0.248 NA
ATOM     32  C   UNL     1       7.707   4.810   9.829  1.00  0.00     0.031 C 
ATOM     33  C   UNL     1       9.280  -0.968  10.883  1.00  0.00     0.029 A 
ATOM     34  C   UNL     1       8.728   0.166  10.311  1.00  0.00     0.049 A 
ATOM     35  H   UNL     1       7.556   0.329   8.562  1.00  0.00     0.167 HD
ATOM     36  C   UNL     1       8.271   2.604  10.137  1.00  0.00     0.074 A 
ATOM     37  C   UNL     1       8.388   3.974  10.599  1.00  0.00     0.031 C 
ATOM     38  C   UNL     1       8.818   1.534  10.769  1.00  0.00     0.034 A 
BRANCH  25  39
ATOM     39  C   UNL     1       7.775  -3.918   7.982  1.00  0.00     0.023 A 
ATOM     40  C   UNL     1       8.442  -4.611   6.957  1.00  0.00     0.031 A 
ATOM     41  C   UNL     1       7.252  -4.672   9.049  1.00  0.00     0.131 A 
ATOM     42  C   UNL     1       8.513  -6.013   6.988  1.00  0.00     0.055 A 
ATOM     43  C   UNL     1       7.395  -6.060   9.114  1.00  0.00     0.041 A 
ATOM     44  F   UNL     1       6.585  -4.072  10.048  1.00  0.00    -0.206 F 
ATOM     45  C   UNL     1       8.017  -6.740   8.073  1.00  0.00     0.022 A 
BRANCH  42  46
ATOM     46  S   UNL     1       9.142  -6.884   5.526  1.00  0.00     0.124 S 
ATOM     47  O   UNL     1       8.232  -6.409   4.486  1.00  0.00    -0.237 OA
ATOM     48  O   UNL     1      10.516  -6.403   5.439  1.00  0.00    -0.237 OA
ATOM     49  O   UNL     1       8.994  -8.295   5.877  1.00  0.00    -0.744 OA
ENDBRANCH  42  46
ENDBRANCH  25  39
BRANCH  26  50
ATOM     50  C   UNL     1       6.113   5.990   7.658  1.00  0.00     0.023 A 
ATOM     51  C   UNL     1       7.140   6.937   7.539  1.00  0.00     0.031 A 
ATOM     52  C   UNL     1       4.791   6.462   7.767  1.00  0.00     0.131 A 
ATOM     53  C   UNL     1       6.833   8.307   7.572  1.00  0.00     0.055 A 
ATOM     54  C   UNL     1       4.485   7.822   7.734  1.00  0.00     0.041 A 
ATOM     55  F   UNL     1       3.768   5.599   7.880  1.00  0.00    -0.206 F 
ATOM     56  C   UNL     1       5.512   8.755   7.650  1.00  0.00     0.022 A 
BRANCH  53  57
ATOM     57  S   UNL     1       8.197   9.500   7.601  1.00  0.00     0.124 S 
ATOM     58  O   UNL     1       8.941   9.071   8.780  1.00  0.00    -0.237 OA
ATOM     59  O   UNL     1       8.839   9.258   6.314  1.00  0.00    -0.237 OA
ATOM     60  O   UNL     1       7.519  10.788   7.725  1.00  0.00    -0.744 OA
ENDBRANCH  53  57
ENDBRANCH  26  50
BRANCH  38  61
ATOM     61  C   UNL     1       9.625   1.825  12.010  1.00  0.00     0.023 A 
ATOM     62  C   UNL     1       9.030   2.345  13.173  1.00  0.00     0.031 A 
ATOM     63  C   UNL     1      11.014   1.610  12.014  1.00  0.00     0.131 A 
ATOM     64  C   UNL     1       9.832   2.695  14.268  1.00  0.00     0.055 A 
ATOM     65  C   UNL     1      11.797   1.895  13.133  1.00  0.00     0.041 A 
ATOM     66  F   UNL     1      11.634   1.122  10.928  1.00  0.00    -0.206 F 
ATOM     67  C   UNL     1      11.209   2.456  14.263  1.00  0.00     0.022 A 
BRANCH  64  68
ATOM     68  S   UNL     1       9.068   3.574  15.659  1.00  0.00     0.124 S 
ATOM     69  O   UNL     1       8.520   4.758  15.003  1.00  0.00    -0.237 OA
ATOM     70  O   UNL     1       8.091   2.604  16.142  1.00  0.00    -0.237 OA
ATOM     71  O   UNL     1      10.189   3.828  16.562  1.00  0.00    -0.744 OA
ENDBRANCH  64  68
ENDBRANCH  38  61
ENDBRANCH  12  13
ENDBRANCH   5   7
ENDBRANCH   2   3
ENDBRANCH   1   2
BRANCH   1  72
ATOM     72  C   UNL     1       4.836  -1.826  -2.646  1.00  0.00     0.118 C 
BRANCH  72  73
ATOM     73  N   UNL     1       5.435  -1.082  -3.754  1.00  0.00    -0.352 N 
ATOM     74  C   UNL     1       6.354  -1.482  -4.687  1.00  0.00     0.251 C 
ATOM     75  H   UNL     1       5.131  -0.150  -3.842  1.00  0.00     0.163 HD
ATOM     76  O   UNL     1       6.896  -0.653  -5.414  1.00  0.00    -0.269 OA
BRANCH  74  77
ATOM     77  C   UNL     1       6.620  -2.920  -4.895  1.00  0.00     0.041 A 
ATOM     78  C   UNL     1       7.869  -3.369  -5.316  1.00  0.00     0.014 A 
ATOM     79  C   UNL     1       5.560  -3.816  -4.811  1.00  0.00     0.036 A 
ATOM     80  C   UNL     1       8.045  -4.725  -5.610  1.00  0.00     0.002 A 
ATOM     81  C   UNL     1       5.705  -5.150  -5.147  1.00  0.00     0.088 A 
ATOM     82  C   UNL     1       6.964  -5.620  -5.526  1.00  0.00     0.022 A 
BRANCH  81  83
ATOM     83  S   UNL     1       4.305  -6.217  -4.947  1.00  0.00     0.261 S 
ATOM     84  O   UNL     1       4.634  -7.484  -5.575  1.00  0.00    -0.201 OA
ATOM     85  O   UNL     1       3.927  -6.170  -3.552  1.00  0.00    -0.201 OA
BRANCH  83  86
ATOM     86  N   UNL     1       2.976  -5.620  -5.840  1.00  0.00    -0.278 N 
ATOM     87  H   UNL     1       2.503  -6.209  -6.471  1.00  0.00     0.180 HD
BRANCH  86  88
ATOM     88  C   UNL     1       2.546  -4.248  -5.668  1.00  0.00     0.072 A 
ATOM     89  C   UNL     1       1.795  -3.883  -4.544  1.00  0.00     0.029 A 
ATOM     90  C   UNL     1       2.992  -3.266  -6.595  1.00  0.00     0.061 A 
ATOM     91  C   UNL     1       1.472  -2.541  -4.328  1.00  0.00     0.002 A 
ATOM     92  C   UNL     1       2.687  -1.923  -6.329  1.00  0.00     0.028 A 
ATOM     93  C   UNL     1       1.925  -1.563  -5.213  1.00  0.00     0.002 A 
BRANCH  90  94
ATOM     94  N   UNL     1       3.726  -3.630  -7.707  1.00  0.00    -0.365 N 
ATOM     95  C   UNL     1       3.103  -4.513  -8.698  1.00  0.00     0.145 C 
ATOM     96  C   UNL     1       4.889  -2.889  -8.201  1.00  0.00     0.145 C 
ATOM     97  C   UNL     1       4.171  -5.459  -9.258  1.00  0.00     0.181 C 
ATOM     98  C   UNL     1       5.887  -3.898  -8.806  1.00  0.00     0.181 C 
ATOM     99  O   UNL     1       5.274  -4.720  -9.819  1.00  0.00    -0.378 OA
ENDBRANCH  90  94
ENDBRANCH  86  88
ENDBRANCH  83  86
ENDBRANCH  81  83
ENDBRANCH  74  77
ENDBRANCH  72  73
ENDBRANCH   1  72
TORSDOF 17
