REMARK SMILES O=C(NCCCNC(=O)[C@]1(CCc2cccnc2)CCC[NH2+]C1)c1ccc(-c2c3nc(c(-c4cc(S(=O)(=O)[O-])ccc4F)c4ccc([nH]4)c(-c4cc(S(=O)(=O)[O-])ccc4F)c4nc(c(-c5cc(S(=O)(=O)[O-])ccc5F)c5ccc2[nH]5)C=C4)C=C3)cc1
REMARK SMILES IDX 5 1 4 2 3 3 1 4 2 5 24 7 25 8 86 9 26 10 85 11 27 12 28 13
REMARK SMILES IDX 29 14 79 15 30 16 84 17 78 18 80 19 31 20 83 21 77 22 76 23
REMARK SMILES IDX 32 25 64 26 44 27 63 28 45 29 48 30 62 31 81 32 46 33 47 34
REMARK SMILES IDX 61 36 82 37 49 38 33 39 34 40 42 41 35 42 41 43 43 44 40 45
REMARK SMILES IDX 36 46 37 47 38 48 39 49 65 50 66 51 74 52 67 53 73 54 75 55
REMARK SMILES IDX 72 56 68 57 69 58 70 59 71 60 50 61 51 62 59 63 52 64 58 65
REMARK SMILES IDX 60 66 57 67 53 68 54 69 55 70 56 71 6 72 7 73 8 74 9 76
REMARK SMILES IDX 10 77 19 78 23 79 20 80 22 81 21 82 11 85 12 86 13 87 14 88
REMARK SMILES IDX 18 89 15 90 17 91 16 92
REMARK H PARENT 3 6 80 24 48 35 7 75 22 83 22 84
REMARK Flexibility Score: inf
ROOT
ATOM      1  C   UNL     1       4.681  -2.205  -0.938  1.00  0.00     0.042 C 
ENDROOT
BRANCH   1   2
ATOM      2  C   UNL     1       4.382  -0.780  -1.375  1.00  0.00     0.118 C 
BRANCH   2   3
ATOM      3  N   UNL     1       2.979  -0.422  -1.206  1.00  0.00    -0.352 N 
ATOM      4  O   UNL     1       1.099   0.239  -0.175  1.00  0.00    -0.269 OA
ATOM      5  C   UNL     1       2.326   0.224  -0.183  1.00  0.00     0.251 C 
ATOM      6  H   UNL     1       2.398  -0.690  -1.955  1.00  0.00     0.163 HD
BRANCH   5   7
ATOM      7  C   UNL     1       3.079   0.873   0.916  1.00  0.00     0.039 A 
ATOM      8  C   UNL     1       4.253   1.581   0.671  1.00  0.00     0.014 A 
ATOM      9  C   UNL     1       2.575   0.808   2.221  1.00  0.00     0.014 A 
ATOM     10  C   UNL     1       5.017   2.051   1.732  1.00  0.00     0.010 A 
ATOM     11  C   UNL     1       3.286   1.391   3.278  1.00  0.00     0.010 A 
ATOM     12  C   UNL     1       4.538   1.980   3.049  1.00  0.00    -0.014 A 
BRANCH  12  13
ATOM     13  C   UNL     1       5.355   2.567   4.147  1.00  0.00     0.031 A 
ATOM     14  C   UNL     1       5.884   1.712   5.268  1.00  0.00     0.074 A 
ATOM     15  C   UNL     1       5.663   3.880   4.097  1.00  0.00     0.049 A 
ATOM     16  N   UNL     1       6.654   2.049   6.272  1.00  0.00    -0.248 NA
ATOM     17  C   UNL     1       5.488   0.296   5.269  1.00  0.00     0.031 C 
ATOM     18  C   UNL     1       5.202   4.811   3.063  1.00  0.00     0.029 A 
ATOM     19  N   UNL     1       6.457   4.653   4.905  1.00  0.00    -0.354 N 
ATOM     20  C   UNL     1       6.817   0.898   7.036  1.00  0.00     0.074 A 
ATOM     21  C   UNL     1       6.032  -0.138   6.397  1.00  0.00     0.031 C 
ATOM     22  C   UNL     1       5.777   6.006   3.258  1.00  0.00     0.029 A 
ATOM     23  C   UNL     1       6.582   5.954   4.472  1.00  0.00     0.049 A 
ATOM     24  H   UNL     1       6.896   4.311   5.716  1.00  0.00     0.167 HD
ATOM     25  C   UNL     1       7.560   0.721   8.159  1.00  0.00     0.034 A 
ATOM     26  C   UNL     1       7.256   6.995   4.997  1.00  0.00     0.034 A 
ATOM     27  C   UNL     1       8.343   1.767   8.777  1.00  0.00     0.049 A 
ATOM     28  C   UNL     1       8.042   6.780   6.263  1.00  0.00     0.074 A 
ATOM     29  C   UNL     1       9.160   1.688   9.892  1.00  0.00     0.029 A 
ATOM     30  N   UNL     1       8.400   3.087   8.342  1.00  0.00    -0.354 N 
ATOM     31  N   UNL     1       8.204   5.677   6.958  1.00  0.00    -0.248 NA
ATOM     32  C   UNL     1       8.738   7.949   6.811  1.00  0.00     0.031 C 
ATOM     33  C   UNL     1       9.646   2.970  10.176  1.00  0.00     0.029 A 
ATOM     34  C   UNL     1       9.208   3.836   9.187  1.00  0.00     0.049 A 
ATOM     35  H   UNL     1       7.936   3.439   7.548  1.00  0.00     0.167 HD
ATOM     36  C   UNL     1       9.049   6.016   8.011  1.00  0.00     0.074 A 
ATOM     37  C   UNL     1       9.375   7.419   7.844  1.00  0.00     0.031 C 
ATOM     38  C   UNL     1       9.515   5.238   9.021  1.00  0.00     0.034 A 
BRANCH  25  39
ATOM     39  C   UNL     1       7.515  -0.639   8.819  1.00  0.00     0.023 A 
ATOM     40  C   UNL     1       7.977  -1.800   8.173  1.00  0.00     0.031 A 
ATOM     41  C   UNL     1       6.978  -0.781  10.112  1.00  0.00     0.131 A 
ATOM     42  C   UNL     1       7.824  -3.054   8.786  1.00  0.00     0.055 A 
ATOM     43  C   UNL     1       6.906  -2.020  10.751  1.00  0.00     0.041 A 
ATOM     44  F   UNL     1       6.501   0.285  10.775  1.00  0.00    -0.206 F 
ATOM     45  C   UNL     1       7.315  -3.169  10.082  1.00  0.00     0.022 A 
BRANCH  42  46
ATOM     46  S   UNL     1       8.156  -4.546   7.808  1.00  0.00     0.124 S 
ATOM     47  O   UNL     1       7.256  -4.364   6.671  1.00  0.00    -0.237 OA
ATOM     48  O   UNL     1       9.580  -4.425   7.519  1.00  0.00    -0.237 OA
ATOM     49  O   UNL     1       7.792  -5.637   8.710  1.00  0.00    -0.744 OA
ENDBRANCH  42  46
ENDBRANCH  25  39
BRANCH  26  50
ATOM     50  C   UNL     1       7.202   8.335   4.346  1.00  0.00     0.023 A 
ATOM     51  C   UNL     1       8.362   8.944   3.841  1.00  0.00     0.031 A 
ATOM     52  C   UNL     1       5.991   9.045   4.251  1.00  0.00     0.131 A 
ATOM     53  C   UNL     1       8.295  10.239   3.306  1.00  0.00     0.055 A 
ATOM     54  C   UNL     1       5.919  10.308   3.662  1.00  0.00     0.041 A 
ATOM     55  F   UNL     1       4.851   8.510   4.717  1.00  0.00    -0.206 F 
ATOM     56  C   UNL     1       7.079  10.919   3.198  1.00  0.00     0.022 A 
BRANCH  53  57
ATOM     57  S   UNL     1       9.840  11.065   2.836  1.00  0.00     0.124 S 
ATOM     58  O   UNL     1      10.584  11.038   4.090  1.00  0.00    -0.237 OA
ATOM     59  O   UNL     1      10.337  10.197   1.774  1.00  0.00    -0.237 OA
ATOM     60  O   UNL     1       9.398  12.389   2.400  1.00  0.00    -0.744 OA
ENDBRANCH  53  57
ENDBRANCH  26  50
BRANCH  38  61
ATOM     61  C   UNL     1      10.471   5.888   9.993  1.00  0.00     0.023 A 
ATOM     62  C   UNL     1      10.074   6.943  10.834  1.00  0.00     0.031 A 
ATOM     63  C   UNL     1      11.813   5.469  10.050  1.00  0.00     0.131 A 
ATOM     64  C   UNL     1      11.023   7.590  11.640  1.00  0.00     0.055 A 
ATOM     65  C   UNL     1      12.736   6.070  10.905  1.00  0.00     0.041 A 
ATOM     66  F   UNL     1      12.250   4.469   9.267  1.00  0.00    -0.206 F 
ATOM     67  C   UNL     1      12.348   7.149  11.694  1.00  0.00     0.022 A 
BRANCH  64  68
ATOM     68  S   UNL     1      10.532   9.095  12.527  1.00  0.00     0.124 S 
ATOM     69  O   UNL     1      10.056   9.945  11.441  1.00  0.00    -0.237 OA
ATOM     70  O   UNL     1       9.510   8.598  13.442  1.00  0.00    -0.237 OA
ATOM     71  O   UNL     1      11.771   9.537  13.164  1.00  0.00    -0.744 OA
ENDBRANCH  64  68
ENDBRANCH  38  61
ENDBRANCH  12  13
ENDBRANCH   5   7
ENDBRANCH   2   3
ENDBRANCH   1   2
BRANCH   1  72
ATOM     72  C   UNL     1       4.041  -3.275  -1.815  1.00  0.00     0.117 C 
BRANCH  72  73
ATOM     73  N   UNL     1       4.350  -3.139  -3.229  1.00  0.00    -0.355 N 
ATOM     74  C   UNL     1       5.134  -3.811  -4.110  1.00  0.00     0.231 C 
ATOM     75  H   UNL     1       3.880  -2.380  -3.646  1.00  0.00     0.163 HD
ATOM     76  O   UNL     1       5.049  -3.415  -5.281  1.00  0.00    -0.274 OA
BRANCH  74  77
ATOM     77  C   UNL     1       6.096  -4.960  -3.723  1.00  0.00     0.098 C 
ATOM     78  C   UNL     1       6.849  -5.489  -4.983  1.00  0.00     0.028 C 
ATOM     79  C   UNL     1       5.307  -6.173  -3.158  1.00  0.00     0.277 C 
ATOM     80  C   UNL     1       5.947  -6.246  -5.963  1.00  0.00     0.063 C 
ATOM     81  N   UNL     1       4.392  -6.786  -4.126  1.00  0.00    -0.345 N 
ATOM     82  C   UNL     1       5.119  -7.321  -5.272  1.00  0.00     0.260 C 
ATOM     83  H   UNL     1       3.884  -7.545  -3.671  1.00  0.00     0.346 HD
ATOM     84  H   UNL     1       3.745  -6.071  -4.458  1.00  0.00     0.346 HD
BRANCH  77  85
ATOM     85  C   UNL     1       7.144  -4.480  -2.669  1.00  0.00     0.028 C 
BRANCH  85  86
ATOM     86  C   UNL     1       8.268  -3.514  -3.111  1.00  0.00     0.038 C 
BRANCH  86  87
ATOM     87  C   UNL     1       7.881  -2.101  -3.451  1.00  0.00    -0.030 A 
ATOM     88  C   UNL     1       7.506  -1.733  -4.745  1.00  0.00     0.007 A 
ATOM     89  C   UNL     1       7.917  -1.085  -2.501  1.00  0.00     0.114 A 
ATOM     90  C   UNL     1       7.138  -0.420  -5.026  1.00  0.00     0.020 A 
ATOM     91  N   UNL     1       7.567   0.201  -2.743  1.00  0.00    -0.264 NA
ATOM     92  C   UNL     1       7.187   0.504  -4.001  1.00  0.00     0.111 A 
ENDBRANCH  86  87
ENDBRANCH  85  86
ENDBRANCH  77  85
ENDBRANCH  74  77
ENDBRANCH  72  73
ENDBRANCH   1  72
TORSDOF 16
