REMARK SMILES O=C(NCCCNC(=O)[C@H]1C[C@H](O)CN1C(=O)[C@@H]1CC(=O)N(C2CC2)C1)c1ccc(-c2c3nc(c(-c4cc(S(=O)(=O)[O-])ccc4F)c4ccc([nH]4)c(-c4cc(S(=O)(=O)[O-])ccc4F)c4nc(c(-c5cc(S(=O)(=O)[O-])ccc5F)c5ccc2[nH]5)C=C4)C=C3)cc1
REMARK SMILES IDX 5 1 4 2 3 3 1 4 2 5 27 7 28 8 89 9 29 10 88 11 30 12 31 13
REMARK SMILES IDX 32 14 82 15 33 16 87 17 81 18 83 19 34 20 86 21 80 22 79 23
REMARK SMILES IDX 35 25 67 26 47 27 66 28 48 29 51 30 65 31 84 32 49 33 50 34
REMARK SMILES IDX 64 36 85 37 52 38 36 39 37 40 45 41 38 42 44 43 46 44 43 45
REMARK SMILES IDX 39 46 40 47 41 48 42 49 68 50 69 51 77 52 70 53 76 54 78 55
REMARK SMILES IDX 75 56 71 57 72 58 73 59 74 60 53 61 54 62 62 63 55 64 61 65
REMARK SMILES IDX 63 66 60 67 56 68 57 69 58 70 59 71 6 72 7 73 8 74 9 76
REMARK SMILES IDX 10 77 11 78 15 79 12 80 14 81 16 82 17 83 18 84 19 85 26 86
REMARK SMILES IDX 20 87 22 88 21 89 23 90 24 91 25 92 13 93
REMARK H PARENT 3 6 83 24 51 35 7 75 13 94
REMARK Flexibility Score: inf
ROOT
ATOM      1  C   UNL     1       5.198   2.216   0.498  1.00  0.00     0.042 C 
ENDROOT
BRANCH   1   2
ATOM      2  C   UNL     1       4.658   0.909   1.046  1.00  0.00     0.118 C 
BRANCH   2   3
ATOM      3  N   UNL     1       3.216   0.776   0.880  1.00  0.00    -0.352 N 
ATOM      4  O   UNL     1       1.280   0.138  -0.073  1.00  0.00    -0.269 OA
ATOM      5  C   UNL     1       2.491  -0.031   0.036  1.00  0.00     0.251 C 
ATOM      6  H   UNL     1       2.675   1.356   1.465  1.00  0.00     0.163 HD
BRANCH   5   7
ATOM      7  C   UNL     1       3.172  -1.083  -0.749  1.00  0.00     0.039 A 
ATOM      8  C   UNL     1       4.181  -1.853  -0.171  1.00  0.00     0.014 A 
ATOM      9  C   UNL     1       2.785  -1.319  -2.072  1.00  0.00     0.014 A 
ATOM     10  C   UNL     1       4.921  -2.726  -0.953  1.00  0.00     0.010 A 
ATOM     11  C   UNL     1       3.446  -2.295  -2.824  1.00  0.00     0.010 A 
ATOM     12  C   UNL     1       4.532  -2.993  -2.274  1.00  0.00    -0.014 A 
BRANCH  12  13
ATOM     13  C   UNL     1       5.194  -4.107  -2.995  1.00  0.00     0.031 A 
ATOM     14  C   UNL     1       5.991  -3.870  -4.245  1.00  0.00     0.074 A 
ATOM     15  C   UNL     1       5.072  -5.347  -2.476  1.00  0.00     0.049 A 
ATOM     16  N   UNL     1       6.614  -4.741  -4.994  1.00  0.00    -0.248 NA
ATOM     17  C   UNL     1       6.098  -2.483  -4.722  1.00  0.00     0.031 C 
ATOM     18  C   UNL     1       4.310  -5.679  -1.266  1.00  0.00     0.029 A 
ATOM     19  N   UNL     1       5.587  -6.551  -2.877  1.00  0.00    -0.354 N 
ATOM     20  C   UNL     1       7.167  -4.019  -6.045  1.00  0.00     0.074 A 
ATOM     21  C   UNL     1       6.795  -2.634  -5.842  1.00  0.00     0.031 C 
ATOM     22  C   UNL     1       4.443  -6.985  -1.002  1.00  0.00     0.029 A 
ATOM     23  C   UNL     1       5.216  -7.602  -2.069  1.00  0.00     0.049 A 
ATOM     24  H   UNL     1       6.165  -6.655  -3.667  1.00  0.00     0.167 HD
ATOM     25  C   UNL     1       7.910  -4.480  -7.080  1.00  0.00     0.034 A 
ATOM     26  C   UNL     1       5.432  -8.924  -2.196  1.00  0.00     0.034 A 
ATOM     27  C   UNL     1       8.280  -5.866  -7.246  1.00  0.00     0.049 A 
ATOM     28  C   UNL     1       6.223  -9.403  -3.380  1.00  0.00     0.074 A 
ATOM     29  C   UNL     1       9.097  -6.428  -8.212  1.00  0.00     0.029 A 
ATOM     30  N   UNL     1       7.843  -6.910  -6.441  1.00  0.00    -0.354 N 
ATOM     31  N   UNL     1       6.779  -8.697  -4.338  1.00  0.00    -0.248 NA
ATOM     32  C   UNL     1       6.410 -10.852  -3.508  1.00  0.00     0.031 C 
ATOM     33  C   UNL     1       9.093  -7.816  -8.036  1.00  0.00     0.029 A 
ATOM     34  C   UNL     1       8.331  -8.117  -6.919  1.00  0.00     0.049 A 
ATOM     35  H   UNL     1       7.270  -6.808  -5.646  1.00  0.00     0.167 HD
ATOM     36  C   UNL     1       7.386  -9.620  -5.181  1.00  0.00     0.074 A 
ATOM     37  C   UNL     1       7.158 -10.927  -4.598  1.00  0.00     0.031 C 
ATOM     38  C   UNL     1       8.064  -9.410  -6.337  1.00  0.00     0.034 A 
BRANCH  25  39
ATOM     39  C   UNL     1       8.333  -3.500  -8.146  1.00  0.00     0.023 A 
ATOM     40  C   UNL     1       9.275  -2.487  -7.902  1.00  0.00     0.031 A 
ATOM     41  C   UNL     1       7.807  -3.614  -9.446  1.00  0.00     0.131 A 
ATOM     42  C   UNL     1       9.638  -1.607  -8.935  1.00  0.00     0.055 A 
ATOM     43  C   UNL     1       8.215  -2.773 -10.483  1.00  0.00     0.041 A 
ATOM     44  F   UNL     1       6.889  -4.551  -9.730  1.00  0.00    -0.206 F 
ATOM     45  C   UNL     1       9.132  -1.758 -10.229  1.00  0.00     0.022 A 
BRANCH  42  46
ATOM     46  S   UNL     1      10.726  -0.207  -8.548  1.00  0.00     0.124 S 
ATOM     47  O   UNL     1       9.932   0.522  -7.562  1.00  0.00    -0.237 OA
ATOM     48  O   UNL     1      11.923  -0.867  -8.041  1.00  0.00    -0.237 OA
ATOM     49  O   UNL     1      10.885   0.470  -9.834  1.00  0.00    -0.744 OA
ENDBRANCH  42  46
ENDBRANCH  25  39
BRANCH  26  50
ATOM     50  C   UNL     1       4.830  -9.884  -1.227  1.00  0.00     0.023 A 
ATOM     51  C   UNL     1       5.631 -10.729  -0.447  1.00  0.00     0.031 A 
ATOM     52  C   UNL     1       3.432 -10.001  -1.103  1.00  0.00     0.131 A 
ATOM     53  C   UNL     1       5.032 -11.687   0.385  1.00  0.00     0.055 A 
ATOM     54  C   UNL     1       2.841 -10.910  -0.226  1.00  0.00     0.041 A 
ATOM     55  F   UNL     1       2.616  -9.217  -1.826  1.00  0.00    -0.206 F 
ATOM     56  C   UNL     1       3.643 -11.773   0.513  1.00  0.00     0.022 A 
BRANCH  53  57
ATOM     57  S   UNL     1       6.095 -12.899   1.214  1.00  0.00     0.124 S 
ATOM     58  O   UNL     1       6.858 -13.441   0.096  1.00  0.00    -0.237 OA
ATOM     59  O   UNL     1       6.836 -12.059   2.149  1.00  0.00    -0.237 OA
ATOM     60  O   UNL     1       5.143 -13.823   1.827  1.00  0.00    -0.744 OA
ENDBRANCH  53  57
ENDBRANCH  26  50
BRANCH  38  61
ATOM     61  C   UNL     1       8.606 -10.634  -7.025  1.00  0.00     0.023 A 
ATOM     62  C   UNL     1       7.747 -11.579  -7.612  1.00  0.00     0.031 A 
ATOM     63  C   UNL     1       9.990 -10.876  -7.066  1.00  0.00     0.131 A 
ATOM     64  C   UNL     1       8.277 -12.753  -8.166  1.00  0.00     0.055 A 
ATOM     65  C   UNL     1      10.515 -12.017  -7.672  1.00  0.00     0.041 A 
ATOM     66  F   UNL     1      10.852 -10.006  -6.515  1.00  0.00    -0.206 F 
ATOM     67  C   UNL     1       9.657 -12.970  -8.215  1.00  0.00     0.022 A 
BRANCH  64  68
ATOM     68  S   UNL     1       7.132 -14.033  -8.747  1.00  0.00     0.124 S 
ATOM     69  O   UNL     1       6.421 -14.381  -7.521  1.00  0.00    -0.237 OA
ATOM     70  O   UNL     1       6.354 -13.323  -9.757  1.00  0.00    -0.237 OA
ATOM     71  O   UNL     1       8.018 -15.073  -9.267  1.00  0.00    -0.744 OA
ENDBRANCH  64  68
ENDBRANCH  38  61
ENDBRANCH  12  13
ENDBRANCH   5   7
ENDBRANCH   2   3
ENDBRANCH   1   2
BRANCH   1  72
ATOM     72  C   UNL     1       4.629   3.448   1.167  1.00  0.00     0.117 C 
BRANCH  72  73
ATOM     73  N   UNL     1       4.758   3.452   2.615  1.00  0.00    -0.354 N 
ATOM     74  C   UNL     1       5.255   4.435   3.428  1.00  0.00     0.242 C 
ATOM     75  H   UNL     1       4.446   2.638   3.073  1.00  0.00     0.163 HD
ATOM     76  O   UNL     1       5.084   4.333   4.644  1.00  0.00    -0.273 OA
BRANCH  74  77
ATOM     77  C   UNL     1       5.980   5.627   2.777  1.00  0.00     0.177 C 
ATOM     78  C   UNL     1       5.011   6.491   1.964  1.00  0.00     0.069 C 
ATOM     79  N   UNL     1       6.543   6.554   3.769  1.00  0.00    -0.328 N 
ATOM     80  C   UNL     1       4.533   7.531   2.957  1.00  0.00     0.136 C 
ATOM     81  C   UNL     1       5.777   7.787   3.793  1.00  0.00     0.152 C 
BRANCH  79  82
ATOM     82  C   UNL     1       7.686   6.226   4.456  1.00  0.00     0.228 C 
ATOM     83  O   UNL     1       8.261   5.156   4.221  1.00  0.00    -0.274 OA
BRANCH  82  84
ATOM     84  C   UNL     1       8.343   7.186   5.449  1.00  0.00     0.107 C 
ATOM     85  C   UNL     1       7.487   7.732   6.582  1.00  0.00     0.115 C 
ATOM     86  C   UNL     1       8.928   8.400   4.763  1.00  0.00     0.133 C 
ATOM     87  C   UNL     1       7.251   9.179   6.213  1.00  0.00     0.223 C 
ATOM     88  N   UNL     1       8.035   9.482   5.100  1.00  0.00    -0.339 N 
ATOM     89  O   UNL     1       6.455   9.908   6.787  1.00  0.00    -0.275 OA
BRANCH  88  90
ATOM     90  C   UNL     1       7.922  10.624   4.241  1.00  0.00     0.085 C 
ATOM     91  C   UNL     1       6.575  11.227   3.918  1.00  0.00     0.027 C 
ATOM     92  C   UNL     1       7.585  12.009   4.707  1.00  0.00     0.027 C 
ENDBRANCH  88  90
ENDBRANCH  82  84
ENDBRANCH  79  82
BRANCH  80  93
ATOM     93  O   UNL     1       4.067   8.692   2.288  1.00  0.00    -0.391 OA
ATOM     94  H   UNL     1       4.770   9.041   1.718  1.00  0.00     0.211 HD
ENDBRANCH  80  93
ENDBRANCH  74  77
ENDBRANCH  72  73
ENDBRANCH   1  72
TORSDOF 17
