REMARK SMILES Cc1nonc1C[C@@]1(C(=O)NCCCNC(=O)c2ccc(-c3c4nc(c(-c5cc(S(=O)(=O)[O-])ccc5F)c5ccc([nH]5)c(-c5cc(S(=O)(=O)[O-])ccc5F)c5nc(c(-c6cc(S(=O)(=O)[O-])ccc6F)c6ccc3[nH]6)C=C5)C=C4)cc2)CCC[NH2+]C1
REMARK SMILES IDX 13 1 12 2 11 3 9 4 10 5 8 7 81 8 85 9 82 10 84 11 83 12 7 15
REMARK SMILES IDX 6 16 1 17 2 18 3 19 4 20 5 21 14 22 15 23 16 24 17 26 18 27
REMARK SMILES IDX 19 28 80 29 20 30 79 31 21 32 22 33 23 34 73 35 24 36 78 37
REMARK SMILES IDX 72 38 74 39 25 40 77 41 71 42 70 43 26 45 58 46 38 47 57 48
REMARK SMILES IDX 39 49 42 50 56 51 75 52 40 53 41 54 55 56 76 57 43 58 27 59
REMARK SMILES IDX 28 60 36 61 29 62 35 63 37 64 34 65 30 66 31 67 32 68 33 69
REMARK SMILES IDX 59 70 60 71 68 72 61 73 67 74 69 75 66 76 62 77 63 78 64 79
REMARK SMILES IDX 65 80 44 81 45 82 53 83 46 84 52 85 54 86 51 87 47 88 48 89
REMARK SMILES IDX 49 90 50 91
REMARK H PARENT 11 6 84 13 84 14 15 25 74 44 42 55
REMARK Flexibility Score: inf
ROOT
ATOM      1  C   UNL     1       3.273   4.552   0.332  1.00  0.00     0.042 C 
ENDROOT
BRANCH   1   2
ATOM      2  C   UNL     1       2.648   3.417  -0.469  1.00  0.00     0.117 C 
BRANCH   2   3
ATOM      3  N   UNL     1       1.519   2.837   0.230  1.00  0.00    -0.355 N 
ATOM      4  C   UNL     1       0.183   2.786  -0.005  1.00  0.00     0.232 C 
ATOM      5  O   UNL     1      -0.479   2.269   0.902  1.00  0.00    -0.274 OA
ATOM      6  H   UNL     1       1.778   2.377   1.061  1.00  0.00     0.163 HD
BRANCH   4   7
ATOM      7  C   UNL     1      -0.478   3.310  -1.299  1.00  0.00     0.104 C 
ATOM      8  C   UNL     1      -2.014   3.030  -1.252  1.00  0.00     0.029 C 
ATOM      9  C   UNL     1       0.083   2.562  -2.541  1.00  0.00     0.277 C 
ATOM     10  C   UNL     1      -2.367   1.548  -1.415  1.00  0.00     0.063 C 
ATOM     11  N   UNL     1      -0.249   1.138  -2.598  1.00  0.00    -0.345 N 
ATOM     12  C   UNL     1      -1.692   0.931  -2.631  1.00  0.00     0.260 C 
ATOM     13  H   UNL     1       0.164   0.733  -3.438  1.00  0.00     0.346 HD
ATOM     14  H   UNL     1       0.122   0.687  -1.761  1.00  0.00     0.346 HD
BRANCH   7  15
ATOM     15  C   UNL     1      -0.243   4.834  -1.503  1.00  0.00     0.085 C 
BRANCH  15  16
ATOM     16  C   UNL     1      -0.470   5.766  -0.358  1.00  0.00     0.109 A 
ATOM     17  C   UNL     1       1.122   7.786  -0.895  1.00  0.00     0.073 C 
ATOM     18  C   UNL     1       0.116   7.030  -0.119  1.00  0.00     0.105 A 
ATOM     19  N   UNL     1      -0.398   7.554   0.995  1.00  0.00    -0.055 NA
ATOM     20  O   UNL     1      -1.311   6.613   1.450  1.00  0.00    -0.244 OA
ATOM     21  N   UNL     1      -1.371   5.522   0.594  1.00  0.00    -0.055 NA
ENDBRANCH  15  16
ENDBRANCH   7  15
ENDBRANCH   4   7
ENDBRANCH   2   3
ENDBRANCH   1   2
BRANCH   1  22
ATOM     22  C   UNL     1       3.895   4.106   1.650  1.00  0.00     0.118 C 
BRANCH  22  23
ATOM     23  N   UNL     1       5.029   3.214   1.455  1.00  0.00    -0.352 N 
ATOM     24  C   UNL     1       6.343   3.368   1.824  1.00  0.00     0.251 C 
ATOM     25  H   UNL     1       4.823   2.372   0.988  1.00  0.00     0.163 HD
ATOM     26  O   UNL     1       7.187   2.594   1.378  1.00  0.00    -0.269 OA
BRANCH  24  27
ATOM     27  C   UNL     1       6.743   4.473   2.724  1.00  0.00     0.039 A 
ATOM     28  C   UNL     1       7.920   5.174   2.452  1.00  0.00     0.014 A 
ATOM     29  C   UNL     1       5.968   4.816   3.835  1.00  0.00     0.014 A 
ATOM     30  C   UNL     1       8.278   6.263   3.249  1.00  0.00     0.010 A 
ATOM     31  C   UNL     1       6.278   5.955   4.574  1.00  0.00     0.010 A 
ATOM     32  C   UNL     1       7.438   6.691   4.291  1.00  0.00    -0.014 A 
BRANCH  32  33
ATOM     33  C   UNL     1       7.755   7.905   5.089  1.00  0.00     0.031 A 
ATOM     34  C   UNL     1       7.998   7.796   6.571  1.00  0.00     0.074 A 
ATOM     35  C   UNL     1       7.769   9.113   4.489  1.00  0.00     0.049 A 
ATOM     36  N   UNL     1       8.220   8.743   7.446  1.00  0.00    -0.248 NA
ATOM     37  C   UNL     1       7.957   6.444   7.149  1.00  0.00     0.031 C 
ATOM     38  C   UNL     1       7.513   9.351   3.067  1.00  0.00     0.029 A 
ATOM     39  N   UNL     1       8.001  10.367   4.997  1.00  0.00    -0.354 N 
ATOM     40  C   UNL     1       8.335   8.106   8.676  1.00  0.00     0.074 A 
ATOM     41  C   UNL     1       8.092   6.698   8.441  1.00  0.00     0.031 C 
ATOM     42  C   UNL     1       7.631  10.664   2.812  1.00  0.00     0.029 A 
ATOM     43  C   UNL     1       7.915  11.370   4.057  1.00  0.00     0.049 A 
ATOM     44  H   UNL     1       8.210  10.534   5.944  1.00  0.00     0.167 HD
ATOM     45  C   UNL     1       8.638   8.641   9.885  1.00  0.00     0.034 A 
ATOM     46  C   UNL     1       8.033  12.707   4.186  1.00  0.00     0.034 A 
ATOM     47  C   UNL     1       8.880  10.047  10.101  1.00  0.00     0.049 A 
ATOM     48  C   UNL     1       8.328  13.283   5.548  1.00  0.00     0.074 A 
ATOM     49  C   UNL     1       9.244  10.688  11.272  1.00  0.00     0.029 A 
ATOM     50  N   UNL     1       8.771  11.034   9.128  1.00  0.00    -0.354 N 
ATOM     51  N   UNL     1       8.486  12.659   6.693  1.00  0.00    -0.248 NA
ATOM     52  C   UNL     1       8.470  14.742   5.633  1.00  0.00     0.031 C 
ATOM     53  C   UNL     1       9.275  12.065  11.028  1.00  0.00     0.029 A 
ATOM     54  C   UNL     1       9.024  12.280   9.682  1.00  0.00     0.049 A 
ATOM     55  H   UNL     1       8.548  10.872   8.183  1.00  0.00     0.167 HD
ATOM     56  C   UNL     1       8.780  13.649   7.627  1.00  0.00     0.074 A 
ATOM     57  C   UNL     1       8.794  14.906   6.907  1.00  0.00     0.031 C 
ATOM     58  C   UNL     1       9.024  13.530   8.957  1.00  0.00     0.034 A 
BRANCH  45  59
ATOM     59  C   UNL     1       8.695   7.702  11.069  1.00  0.00     0.023 A 
ATOM     60  C   UNL     1       9.620   6.645  11.131  1.00  0.00     0.031 A 
ATOM     61  C   UNL     1       7.800   7.853  12.142  1.00  0.00     0.131 A 
ATOM     62  C   UNL     1       9.578   5.737  12.200  1.00  0.00     0.055 A 
ATOM     63  C   UNL     1       7.821   6.998  13.246  1.00  0.00     0.041 A 
ATOM     64  F   UNL     1       6.878   8.829  12.133  1.00  0.00    -0.206 F 
ATOM     65  C   UNL     1       8.703   5.922  13.272  1.00  0.00     0.022 A 
BRANCH  62  66
ATOM     66  S   UNL     1      10.578   4.228  12.093  1.00  0.00     0.124 S 
ATOM     67  O   UNL     1      10.080   3.630  10.856  1.00  0.00    -0.237 OA
ATOM     68  O   UNL     1      11.938   4.753  12.046  1.00  0.00    -0.237 OA
ATOM     69  O   UNL     1      10.232   3.500  13.312  1.00  0.00    -0.744 OA
ENDBRANCH  62  66
ENDBRANCH  45  59
BRANCH  46  70
ATOM     70  C   UNL     1       7.858  13.599   3.002  1.00  0.00     0.023 A 
ATOM     71  C   UNL     1       8.912  14.402   2.538  1.00  0.00     0.031 A 
ATOM     72  C   UNL     1       6.617  13.698   2.346  1.00  0.00     0.131 A 
ATOM     73  C   UNL     1       8.693  15.305   1.485  1.00  0.00     0.055 A 
ATOM     74  C   UNL     1       6.421  14.553   1.261  1.00  0.00     0.041 A 
ATOM     75  F   UNL     1       5.576  12.951   2.746  1.00  0.00    -0.206 F 
ATOM     76  C   UNL     1       7.459  15.374   0.833  1.00  0.00     0.022 A 
BRANCH  73  77
ATOM     77  S   UNL     1      10.019  16.460   1.041  1.00  0.00     0.124 S 
ATOM     78  O   UNL     1      10.243  17.154   2.304  1.00  0.00    -0.237 OA
ATOM     79  O   UNL     1      11.077  15.553   0.609  1.00  0.00    -0.237 OA
ATOM     80  O   UNL     1       9.423  17.269  -0.020  1.00  0.00    -0.744 OA
ENDBRANCH  73  77
ENDBRANCH  46  70
BRANCH  58  81
ATOM     81  C   UNL     1       9.376  14.792   9.710  1.00  0.00     0.023 A 
ATOM     82  C   UNL     1       8.456  15.843   9.872  1.00  0.00     0.031 A 
ATOM     83  C   UNL     1      10.659  14.946  10.265  1.00  0.00     0.131 A 
ATOM     84  C   UNL     1       8.852  17.024  10.519  1.00  0.00     0.055 A 
ATOM     85  C   UNL     1      11.024  16.095  10.969  1.00  0.00     0.041 A 
ATOM     86  F   UNL     1      11.581  13.979  10.137  1.00  0.00    -0.206 F 
ATOM     87  C   UNL     1      10.122  17.148  11.086  1.00  0.00     0.022 A 
BRANCH  84  88
ATOM     88  S   UNL     1       7.717  18.439  10.519  1.00  0.00     0.124 S 
ATOM     89  O   UNL     1       7.509  18.660   9.092  1.00  0.00    -0.237 OA
ATOM     90  O   UNL     1       6.570  17.921  11.258  1.00  0.00    -0.237 OA
ATOM     91  O   UNL     1       8.473  19.486  11.204  1.00  0.00    -0.744 OA
ENDBRANCH  84  88
ENDBRANCH  58  81
ENDBRANCH  32  33
ENDBRANCH  24  27
ENDBRANCH  22  23
ENDBRANCH   1  22
TORSDOF 15
