REMARK SMILES [NH3+][C@@H](Cc1c[nH]c2ccccc12)C(=O)N[C@@H](CS)C(=O)N[C@@H](CO)C(=O)NCCCNC(=O)c1ccc(-c2c3nc(c(-c4cc(S(=O)(=O)[O-])ccc4F)c4ccc([nH]4)c(-c4cc(S(=O)(=O)[O-])ccc4F)c4nc(c(-c5cc(S(=O)(=O)[O-])ccc5F)c5ccc2[nH]5)C=C4)C=C3)cc1
REMARK SMILES IDX 25 1 26 2 27 3 22 5 21 6 19 7 20 8 16 10 15 11 13 12 14 13
REMARK SMILES IDX 2 15 1 16 3 20 4 21 5 22 12 23 6 24 7 25 11 26 8 28 10 29
REMARK SMILES IDX 9 30 17 31 18 32 23 34 24 35 28 37 29 38 30 39 31 40 32 41
REMARK SMILES IDX 33 43 34 44 35 45 96 46 36 47 95 48 37 49 38 50 39 51 89 52
REMARK SMILES IDX 40 53 94 54 88 55 90 56 41 57 93 58 87 59 86 60 42 62 74 63
REMARK SMILES IDX 54 64 73 65 55 66 58 67 72 68 91 69 56 70 57 71 71 73 92 74
REMARK SMILES IDX 59 75 43 76 44 77 52 78 45 79 51 80 53 81 50 82 46 83 47 84
REMARK SMILES IDX 48 85 49 86 75 87 76 88 84 89 77 90 83 91 85 92 82 93 78 94
REMARK SMILES IDX 79 95 80 96 81 97 60 98 61 99 69 100 62 101 68 102 70 103
REMARK SMILES IDX 67 104 63 105 64 106 65 107 66 108
REMARK H PARENT 27 4 21 9 15 14 1 17 1 18 1 19 6 27 18 33 24 36 31 42 90 61
REMARK H PARENT 58 72
REMARK Flexibility Score: inf
ROOT
ATOM      1  C   UNL     1      -5.422   0.945   4.019  1.00  0.00     0.244 C 
ATOM      2  O   UNL     1      -5.829   2.043   3.626  1.00  0.00    -0.273 OA
ATOM      3  N   UNL     1      -5.756   0.569   5.279  1.00  0.00    -0.354 N 
ATOM      4  H   UNL     1      -6.154   1.285   5.824  1.00  0.00     0.163 HD
ENDROOT
BRANCH   1   5
ATOM      5  C   UNL     1      -4.629   0.045   3.070  1.00  0.00     0.197 C 
BRANCH   5   6
ATOM      6  N   UNL     1      -3.397  -0.450   3.663  1.00  0.00    -0.340 N 
ATOM      7  C   UNL     1      -2.295  -0.832   2.981  1.00  0.00     0.244 C 
ATOM      8  O   UNL     1      -1.861  -1.947   3.285  1.00  0.00    -0.273 OA
ATOM      9  H   UNL     1      -3.363  -0.511   4.644  1.00  0.00     0.164 HD
BRANCH   7  10
ATOM     10  C   UNL     1      -1.708  -0.015   1.806  1.00  0.00     0.181 C 
BRANCH  10  11
ATOM     11  N   UNL     1      -1.922  -0.748   0.575  1.00  0.00    -0.338 N 
ATOM     12  C   UNL     1      -1.045  -1.633   0.003  1.00  0.00     0.279 C 
ATOM     13  O   UNL     1      -1.546  -2.543  -0.669  1.00  0.00    -0.268 OA
ATOM     14  H   UNL     1      -2.775  -0.597   0.107  1.00  0.00     0.164 HD
BRANCH  12  15
ATOM     15  C   UNL     1       0.505  -1.445   0.064  1.00  0.00     0.275 C 
BRANCH  15  16
ATOM     16  N   UNL     1       0.861  -0.110  -0.462  1.00  0.00    -0.347 N 
ATOM     17  H   UNL     1       1.873   0.013  -0.422  1.00  0.00     0.345 HD
ATOM     18  H   UNL     1       0.409   0.610   0.102  1.00  0.00     0.345 HD
ATOM     19  H   UNL     1       0.547  -0.031  -1.429  1.00  0.00     0.345 HD
ENDBRANCH  15  16
BRANCH  15  20
ATOM     20  C   UNL     1       1.322  -1.961   1.281  1.00  0.00     0.113 C 
BRANCH  20  21
ATOM     21  C   UNL     1       1.317  -1.233   2.605  1.00  0.00    -0.016 A 
ATOM     22  C   UNL     1       1.005  -1.844   3.809  1.00  0.00     0.087 A 
ATOM     23  C   UNL     1       1.563   0.153   2.927  1.00  0.00     0.003 A 
ATOM     24  N   UNL     1       0.856  -0.883   4.770  1.00  0.00    -0.361 N 
ATOM     25  C   UNL     1       1.094   0.356   4.230  1.00  0.00     0.046 A 
ATOM     26  C   UNL     1       2.008   1.286   2.215  1.00  0.00     0.010 A 
ATOM     27  H   UNL     1       0.615  -1.055   5.709  1.00  0.00     0.166 HD
ATOM     28  C   UNL     1       0.919   1.627   4.793  1.00  0.00     0.026 A 
ATOM     29  C   UNL     1       1.840   2.566   2.760  1.00  0.00     0.001 A 
ATOM     30  C   UNL     1       1.272   2.733   4.018  1.00  0.00     0.002 A 
ENDBRANCH  20  21
ENDBRANCH  15  20
ENDBRANCH  12  15
ENDBRANCH  10  11
BRANCH  10  31
ATOM     31  C   UNL     1      -1.876   1.513   1.802  1.00  0.00     0.101 C 
BRANCH  31  32
ATOM     32  S   UNL     1      -2.865   2.272   0.468  1.00  0.00    -0.177 SA
ATOM     33  H   UNL     1      -2.247   2.068  -0.726  1.00  0.00     0.102 HD
ENDBRANCH  31  32
ENDBRANCH  10  31
ENDBRANCH   7  10
ENDBRANCH   5   6
BRANCH   5  34
ATOM     34  C   UNL     1      -5.473  -1.076   2.438  1.00  0.00     0.191 C 
BRANCH  34  35
ATOM     35  O   UNL     1      -5.664  -2.204   3.286  1.00  0.00    -0.394 OA
ATOM     36  H   UNL     1      -4.805  -2.609   3.483  1.00  0.00     0.210 HD
ENDBRANCH  34  35
ENDBRANCH   5  34
ENDBRANCH   1   5
BRANCH   3  37
ATOM     37  C   UNL     1      -5.629  -0.704   5.965  1.00  0.00     0.117 C 
BRANCH  37  38
ATOM     38  C   UNL     1      -4.819  -0.593   7.245  1.00  0.00     0.042 C 
BRANCH  38  39
ATOM     39  C   UNL     1      -5.403   0.390   8.246  1.00  0.00     0.118 C 
BRANCH  39  40
ATOM     40  N   UNL     1      -6.798   0.103   8.554  1.00  0.00    -0.352 N 
ATOM     41  C   UNL     1      -7.373  -0.334   9.723  1.00  0.00     0.251 C 
ATOM     42  H   UNL     1      -7.426   0.243   7.809  1.00  0.00     0.163 HD
ATOM     43  O   UNL     1      -8.521  -0.761   9.711  1.00  0.00    -0.269 OA
BRANCH  41  44
ATOM     44  C   UNL     1      -6.590  -0.302  10.974  1.00  0.00     0.039 A 
ATOM     45  C   UNL     1      -6.678  -1.373  11.864  1.00  0.00     0.014 A 
ATOM     46  C   UNL     1      -5.760   0.784  11.258  1.00  0.00     0.014 A 
ATOM     47  C   UNL     1      -5.875  -1.384  13.005  1.00  0.00     0.010 A 
ATOM     48  C   UNL     1      -4.880   0.717  12.328  1.00  0.00     0.010 A 
ATOM     49  C   UNL     1      -4.938  -0.360  13.223  1.00  0.00    -0.014 A 
BRANCH  49  50
ATOM     50  C   UNL     1      -4.028  -0.374  14.395  1.00  0.00     0.031 A 
ATOM     51  C   UNL     1      -4.086   0.747  15.397  1.00  0.00     0.074 A 
ATOM     52  C   UNL     1      -3.112  -1.354  14.518  1.00  0.00     0.049 A 
ATOM     53  N   UNL     1      -3.326   0.970  16.437  1.00  0.00    -0.248 NA
ATOM     54  C   UNL     1      -5.112   1.778  15.172  1.00  0.00     0.031 C 
ATOM     55  C   UNL     1      -2.937  -2.472  13.588  1.00  0.00     0.029 A 
ATOM     56  N   UNL     1      -2.155  -1.569  15.477  1.00  0.00    -0.354 N 
ATOM     57  C   UNL     1      -3.776   2.167  16.983  1.00  0.00     0.074 A 
ATOM     58  C   UNL     1      -4.811   2.666  16.104  1.00  0.00     0.031 C 
ATOM     59  C   UNL     1      -1.966  -3.277  14.047  1.00  0.00     0.029 A 
ATOM     60  C   UNL     1      -1.411  -2.708  15.270  1.00  0.00     0.049 A 
ATOM     61  H   UNL     1      -2.014  -0.965  16.241  1.00  0.00     0.167 HD
ATOM     62  C   UNL     1      -3.388   2.776  18.131  1.00  0.00     0.034 A 
ATOM     63  C   UNL     1      -0.394  -3.228  15.983  1.00  0.00     0.034 A 
ATOM     64  C   UNL     1      -2.358   2.257  18.997  1.00  0.00     0.049 A 
ATOM     65  C   UNL     1       0.058  -2.506  17.228  1.00  0.00     0.074 A 
ATOM     66  C   UNL     1      -1.907   2.764  20.202  1.00  0.00     0.029 A 
ATOM     67  N   UNL     1      -1.612   1.112  18.744  1.00  0.00    -0.354 N 
ATOM     68  N   UNL     1      -0.406  -1.397  17.757  1.00  0.00    -0.248 NA
ATOM     69  C   UNL     1       1.166  -3.113  17.976  1.00  0.00     0.031 C 
ATOM     70  C   UNL     1      -0.840   1.971  20.639  1.00  0.00     0.029 A 
ATOM     71  C   UNL     1      -0.681   0.917  19.753  1.00  0.00     0.049 A 
ATOM     72  H   UNL     1      -1.728   0.524  17.963  1.00  0.00     0.167 HD
ATOM     73  C   UNL     1       0.330  -1.196  18.922  1.00  0.00     0.074 A 
ATOM     74  C   UNL     1       1.258  -2.304  19.021  1.00  0.00     0.031 C 
ATOM     75  C   UNL     1       0.244  -0.190  19.831  1.00  0.00     0.034 A 
BRANCH  62  76
ATOM     76  C   UNL     1      -4.072   4.077  18.488  1.00  0.00     0.023 A 
ATOM     77  C   UNL     1      -5.463   4.147  18.687  1.00  0.00     0.031 A 
ATOM     78  C   UNL     1      -3.338   5.273  18.575  1.00  0.00     0.131 A 
ATOM     79  C   UNL     1      -6.087   5.391  18.858  1.00  0.00     0.055 A 
ATOM     80  C   UNL     1      -3.954   6.497  18.846  1.00  0.00     0.041 A 
ATOM     81  F   UNL     1      -2.011   5.279  18.372  1.00  0.00    -0.206 F 
ATOM     82  C   UNL     1      -5.339   6.565  18.968  1.00  0.00     0.022 A 
BRANCH  79  83
ATOM     83  S   UNL     1      -7.896   5.471  18.745  1.00  0.00     0.124 S 
ATOM     84  O   UNL     1      -8.131   4.910  17.416  1.00  0.00    -0.237 OA
ATOM     85  O   UNL     1      -8.319   4.647  19.871  1.00  0.00    -0.237 OA
ATOM     86  O   UNL     1      -8.184   6.898  18.870  1.00  0.00    -0.744 OA
ENDBRANCH  79  83
ENDBRANCH  62  76
BRANCH  63  87
ATOM     87  C   UNL     1       0.262  -4.496  15.555  1.00  0.00     0.023 A 
ATOM     88  C   UNL     1       0.204  -5.642  16.364  1.00  0.00     0.031 A 
ATOM     89  C   UNL     1       0.989  -4.574  14.354  1.00  0.00     0.131 A 
ATOM     90  C   UNL     1       0.901  -6.800  15.989  1.00  0.00     0.055 A 
ATOM     91  C   UNL     1       1.634  -5.748  13.957  1.00  0.00     0.041 A 
ATOM     92  F   UNL     1       1.073  -3.510  13.539  1.00  0.00    -0.206 F 
ATOM     93  C   UNL     1       1.604  -6.866  14.784  1.00  0.00     0.022 A 
BRANCH  90  94
ATOM     94  S   UNL     1       0.953  -8.194  17.149  1.00  0.00     0.124 S 
ATOM     95  O   UNL     1       1.550  -7.575  18.327  1.00  0.00    -0.237 OA
ATOM     96  O   UNL     1      -0.458  -8.550  17.256  1.00  0.00    -0.237 OA
ATOM     97  O   UNL     1       1.792  -9.174  16.464  1.00  0.00    -0.744 OA
ENDBRANCH  90  94
ENDBRANCH  63  87
BRANCH  75  98
ATOM     98  C   UNL     1       1.148  -0.277  21.037  1.00  0.00     0.023 A 
ATOM     99  C   UNL     1       2.546  -0.187  20.925  1.00  0.00     0.031 A 
ATOM    100  C   UNL     1       0.599  -0.465  22.318  1.00  0.00     0.131 A 
ATOM    101  C   UNL     1       3.350  -0.345  22.064  1.00  0.00     0.055 A 
ATOM    102  C   UNL     1       1.400  -0.551  23.457  1.00  0.00     0.041 A 
ATOM    103  F   UNL     1      -0.730  -0.562  22.485  1.00  0.00    -0.206 F 
ATOM    104  C   UNL     1       2.785  -0.506  23.332  1.00  0.00     0.022 A 
BRANCH 101 105
ATOM    105  S   UNL     1       5.149  -0.441  21.852  1.00  0.00     0.124 S 
ATOM    106  O   UNL     1       5.287  -1.577  20.947  1.00  0.00    -0.237 OA
ATOM    107  O   UNL     1       5.466   0.866  21.286  1.00  0.00    -0.237 OA
ATOM    108  O   UNL     1       5.642  -0.665  23.210  1.00  0.00    -0.744 OA
ENDBRANCH 101 105
ENDBRANCH  75  98
ENDBRANCH  49  50
ENDBRANCH  41  44
ENDBRANCH  39  40
ENDBRANCH  38  39
ENDBRANCH  37  38
ENDBRANCH   3  37
TORSDOF 24
