REMARK SMILES C[C@@](COc1ccccc1)(NC(=O)CN1CSCC1=O)C(=O)NCCCNC(=O)c1ccc(-c2c3nc(c(-c4cc(S(=O)(=O)[O-])ccc4F)c4ccc([nH]4)c(-c4cc(S(=O)(=O)[O-])ccc4F)c4nc(c(-c5cc(S(=O)(=O)[O-])ccc5F)c5ccc2[nH]5)C=C4)C=C3)cc1
REMARK SMILES IDX 25 1 24 2 23 3 21 4 22 5 2 7 1 8 3 9 4 10 5 11 6 12 10 13
REMARK SMILES IDX 7 14 9 15 8 16 11 17 12 18 13 20 14 21 15 22 16 23 19 24
REMARK SMILES IDX 17 25 18 26 20 27 26 28 27 29 28 30 29 32 30 33 31 34 92 35
REMARK SMILES IDX 32 36 91 37 33 38 34 39 35 40 85 41 36 42 90 43 84 44 86 45
REMARK SMILES IDX 37 46 89 47 83 48 82 49 38 51 70 52 50 53 69 54 51 55 54 56
REMARK SMILES IDX 68 57 87 58 52 59 53 60 67 62 88 63 55 64 39 65 40 66 48 67
REMARK SMILES IDX 41 68 47 69 49 70 46 71 42 72 43 73 44 74 45 75 71 76 72 77
REMARK SMILES IDX 80 78 73 79 79 80 81 81 78 82 74 83 75 84 76 85 77 86 56 87
REMARK SMILES IDX 57 88 65 89 58 90 64 91 66 92 63 93 59 94 60 95 61 96 62 97
REMARK H PARENT 23 6 11 19 27 31 86 50 54 61
REMARK Flexibility Score: inf
ROOT
ATOM      1  C   UNL     1      -1.387   4.340   2.702  1.00  0.00     0.042 C 
ENDROOT
BRANCH   1   2
ATOM      2  C   UNL     1      -0.179   4.262   1.775  1.00  0.00     0.117 C 
BRANCH   2   3
ATOM      3  N   UNL     1       0.883   3.378   2.227  1.00  0.00    -0.354 N 
ATOM      4  C   UNL     1       1.389   2.225   1.709  1.00  0.00     0.249 C 
ATOM      5  O   UNL     1       2.526   1.909   2.078  1.00  0.00    -0.272 OA
ATOM      6  H   UNL     1       1.317   3.667   3.062  1.00  0.00     0.163 HD
BRANCH   4   7
ATOM      7  C   UNL     1       0.680   1.434   0.584  1.00  0.00     0.150 C 
ATOM      8  C   UNL     1       1.266   0.005   0.522  1.00  0.00     0.049 C 
BRANCH   7   9
ATOM      9  C   UNL     1       1.032   2.177  -0.750  1.00  0.00     0.267 C 
BRANCH   9  10
ATOM     10  O   UNL     1       0.058   1.890  -1.780  1.00  0.00    -0.491 OA
BRANCH  10  11
ATOM     11  C   UNL     1       0.517   0.959  -2.667  1.00  0.00     0.119 A 
ATOM     12  C   UNL     1       1.343   1.337  -3.721  1.00  0.00     0.046 A 
ATOM     13  C   UNL     1       0.096  -0.362  -2.534  1.00  0.00     0.046 A 
ATOM     14  C   UNL     1       1.818   0.365  -4.602  1.00  0.00     0.004 A 
ATOM     15  C   UNL     1       0.597  -1.337  -3.393  1.00  0.00     0.004 A 
ATOM     16  C   UNL     1       1.463  -0.974  -4.423  1.00  0.00     0.000 A 
ENDBRANCH  10  11
ENDBRANCH   9  10
ENDBRANCH   7   9
BRANCH   7  17
ATOM     17  N   UNL     1      -0.800   1.372   0.701  1.00  0.00    -0.338 N 
ATOM     18  C   UNL     1      -1.641   0.846   1.629  1.00  0.00     0.240 C 
ATOM     19  H   UNL     1      -1.269   1.802  -0.050  1.00  0.00     0.164 HD
ATOM     20  O   UNL     1      -2.789   0.582   1.259  1.00  0.00    -0.273 OA
BRANCH  18  21
ATOM     21  C   UNL     1      -1.254   0.693   3.098  1.00  0.00     0.220 C 
BRANCH  21  22
ATOM     22  N   UNL     1      -0.257  -0.307   3.411  1.00  0.00    -0.323 N 
ATOM     23  C   UNL     1      -0.497  -1.684   3.078  1.00  0.00     0.190 C 
ATOM     24  C   UNL     1       0.806  -0.017   4.248  1.00  0.00     0.233 C 
ATOM     25  S   UNL     1       0.879  -2.640   3.726  1.00  0.00    -0.130 SA
ATOM     26  C   UNL     1       1.715  -1.205   4.446  1.00  0.00     0.171 C 
ATOM     27  O   UNL     1       1.008   1.080   4.751  1.00  0.00    -0.274 OA
ENDBRANCH  21  22
ENDBRANCH  18  21
ENDBRANCH   7  17
ENDBRANCH   4   7
ENDBRANCH   2   3
ENDBRANCH   1   2
BRANCH   1  28
ATOM     28  C   UNL     1      -1.063   4.474   4.186  1.00  0.00     0.118 C 
BRANCH  28  29
ATOM     29  N   UNL     1      -0.406   5.729   4.503  1.00  0.00    -0.352 N 
ATOM     30  C   UNL     1      -0.857   6.800   5.235  1.00  0.00     0.251 C 
ATOM     31  H   UNL     1       0.502   5.829   4.136  1.00  0.00     0.163 HD
ATOM     32  O   UNL     1      -0.221   7.850   5.211  1.00  0.00    -0.269 OA
BRANCH  30  33
ATOM     33  C   UNL     1      -2.110   6.706   6.020  1.00  0.00     0.039 A 
ATOM     34  C   UNL     1      -2.999   7.783   5.994  1.00  0.00     0.014 A 
ATOM     35  C   UNL     1      -2.401   5.584   6.802  1.00  0.00     0.014 A 
ATOM     36  C   UNL     1      -4.202   7.712   6.702  1.00  0.00     0.010 A 
ATOM     37  C   UNL     1      -3.636   5.482   7.443  1.00  0.00     0.010 A 
ATOM     38  C   UNL     1      -4.549   6.547   7.406  1.00  0.00    -0.014 A 
BRANCH  38  39
ATOM     39  C   UNL     1      -5.853   6.439   8.115  1.00  0.00     0.031 A 
ATOM     40  C   UNL     1      -5.893   6.282   9.612  1.00  0.00     0.074 A 
ATOM     41  C   UNL     1      -7.002   6.443   7.408  1.00  0.00     0.049 A 
ATOM     42  N   UNL     1      -6.926   6.122  10.401  1.00  0.00    -0.248 NA
ATOM     43  C   UNL     1      -4.599   6.277  10.310  1.00  0.00     0.031 C 
ATOM     44  C   UNL     1      -7.094   6.558   5.950  1.00  0.00     0.029 A 
ATOM     45  N   UNL     1      -8.310   6.346   7.814  1.00  0.00    -0.354 N 
ATOM     46  C   UNL     1      -6.407   5.990  11.685  1.00  0.00     0.074 A 
ATOM     47  C   UNL     1      -4.965   6.023  11.557  1.00  0.00     0.031 C 
ATOM     48  C   UNL     1      -8.387   6.553   5.590  1.00  0.00     0.029 A 
ATOM     49  C   UNL     1      -9.216   6.383   6.779  1.00  0.00     0.049 A 
ATOM     50  H   UNL     1      -8.574   6.257   8.758  1.00  0.00     0.167 HD
ATOM     51  C   UNL     1      -7.070   5.874  12.863  1.00  0.00     0.034 A 
ATOM     52  C   UNL     1     -10.561   6.279   6.783  1.00  0.00     0.034 A 
ATOM     53  C   UNL     1      -8.509   5.848  12.975  1.00  0.00     0.049 A 
ATOM     54  C   UNL     1     -11.274   6.110   8.101  1.00  0.00     0.074 A 
ATOM     55  C   UNL     1      -9.283   5.785  14.121  1.00  0.00     0.029 A 
ATOM     56  N   UNL     1      -9.393   5.873  11.903  1.00  0.00    -0.354 N 
ATOM     57  N   UNL     1     -10.770   6.035   9.312  1.00  0.00    -0.248 NA
ATOM     58  C   UNL     1     -12.740   6.022   8.055  1.00  0.00     0.031 C 
ATOM     59  C   UNL     1     -10.626   5.692  13.741  1.00  0.00     0.029 A 
ATOM     60  C   UNL     1     -10.700   5.789  12.361  1.00  0.00     0.049 A 
ATOM     61  H   UNL     1      -9.130   5.941  10.957  1.00  0.00     0.167 HD
ATOM     62  C   UNL     1     -11.860   5.925  10.171  1.00  0.00     0.074 A 
ATOM     63  C   UNL     1     -13.047   5.960   9.342  1.00  0.00     0.031 C 
ATOM     64  C   UNL     1     -11.878   5.812  11.524  1.00  0.00     0.034 A 
BRANCH  51  65
ATOM     65  C   UNL     1      -6.240   5.738  14.120  1.00  0.00     0.023 A 
ATOM     66  C   UNL     1      -5.362   6.752  14.540  1.00  0.00     0.031 A 
ATOM     67  C   UNL     1      -6.312   4.569  14.898  1.00  0.00     0.131 A 
ATOM     68  C   UNL     1      -4.536   6.548  15.656  1.00  0.00     0.055 A 
ATOM     69  C   UNL     1      -5.551   4.407  16.058  1.00  0.00     0.041 A 
ATOM     70  F   UNL     1      -7.117   3.556  14.539  1.00  0.00    -0.206 F 
ATOM     71  C   UNL     1      -4.644   5.393  16.434  1.00  0.00     0.022 A 
BRANCH  68  72
ATOM     72  S   UNL     1      -3.215   7.745  15.988  1.00  0.00     0.124 S 
ATOM     73  O   UNL     1      -2.456   7.700  14.740  1.00  0.00    -0.237 OA
ATOM     74  O   UNL     1      -3.959   8.974  16.239  1.00  0.00    -0.237 OA
ATOM     75  O   UNL     1      -2.526   7.184  17.148  1.00  0.00    -0.744 OA
ENDBRANCH  68  72
ENDBRANCH  51  65
BRANCH  52  76
ATOM     76  C   UNL     1     -11.326   6.314   5.503  1.00  0.00     0.023 A 
ATOM     77  C   UNL     1     -12.248   7.339   5.237  1.00  0.00     0.031 A 
ATOM     78  C   UNL     1     -11.182   5.295   4.545  1.00  0.00     0.131 A 
ATOM     79  C   UNL     1     -13.025   7.297   4.068  1.00  0.00     0.055 A 
ATOM     80  C   UNL     1     -11.914   5.289   3.356  1.00  0.00     0.041 A 
ATOM     81  F   UNL     1     -10.314   4.290   4.747  1.00  0.00    -0.206 F 
ATOM     82  C   UNL     1     -12.853   6.287   3.119  1.00  0.00     0.022 A 
BRANCH  79  83
ATOM     83  S   UNL     1     -14.334   8.534   3.849  1.00  0.00     0.124 S 
ATOM     84  O   UNL     1     -15.149   8.317   5.039  1.00  0.00    -0.237 OA
ATOM     85  O   UNL     1     -13.572   9.778   3.811  1.00  0.00    -0.237 OA
ATOM     86  O   UNL     1     -14.958   8.148   2.585  1.00  0.00    -0.744 OA
ENDBRANCH  79  83
ENDBRANCH  52  76
BRANCH  64  87
ATOM     87  C   UNL     1     -13.232   5.767  12.193  1.00  0.00     0.023 A 
ATOM     88  C   UNL     1     -14.122   4.696  11.999  1.00  0.00     0.031 A 
ATOM     89  C   UNL     1     -13.640   6.820  13.031  1.00  0.00     0.131 A 
ATOM     90  C   UNL     1     -15.397   4.730  12.586  1.00  0.00     0.055 A 
ATOM     91  C   UNL     1     -14.883   6.817  13.666  1.00  0.00     0.041 A 
ATOM     92  F   UNL     1     -12.834   7.872  13.250  1.00  0.00    -0.206 F 
ATOM     93  C   UNL     1     -15.775   5.775  13.434  1.00  0.00     0.022 A 
BRANCH  90  94
ATOM     94  S   UNL     1     -16.593   3.439  12.149  1.00  0.00     0.124 S 
ATOM     95  O   UNL     1     -16.678   3.583  10.699  1.00  0.00    -0.237 OA
ATOM     96  O   UNL     1     -15.938   2.228  12.632  1.00  0.00    -0.237 OA
ATOM     97  O   UNL     1     -17.798   3.825  12.882  1.00  0.00    -0.744 OA
ENDBRANCH  90  94
ENDBRANCH  64  87
ENDBRANCH  38  39
ENDBRANCH  30  33
ENDBRANCH  28  29
ENDBRANCH   1  28
TORSDOF 19
