REMARK SMILES O=C(C[C@H]1C[C@H]2CC[C@@H](C1)N2C(=O)NCCC1CC1)NCCCNC(=O)c1ccc(-c2c3nc(c(-c4cc(S(=O)(=O)[O-])ccc4F)c4ccc([nH]4)c(-c4cc(S(=O)(=O)[O-])ccc4F)c4nc(c(-c5cc(S(=O)(=O)[O-])ccc5F)c5ccc2[nH]5)C=C4)C=C3)cc1
REMARK SMILES IDX 21 1 20 2 1 3 2 4 3 6 4 7 5 8 10 9 6 10 9 11 7 12 11 13 8 14
REMARK SMILES IDX 12 15 13 16 14 17 15 19 16 20 17 21 18 22 19 23 22 24 23 25
REMARK SMILES IDX 24 26 25 27 26 29 27 30 28 31 89 32 29 33 88 34 30 35 31 36
REMARK SMILES IDX 32 37 82 38 33 39 87 40 81 41 83 42 34 43 86 44 80 45 79 46
REMARK SMILES IDX 35 48 67 49 47 50 66 51 48 52 51 53 65 54 84 55 49 56 50 57
REMARK SMILES IDX 64 59 85 60 52 61 36 62 37 63 45 64 38 65 44 66 46 67 43 68
REMARK SMILES IDX 39 69 40 70 41 71 42 72 68 73 69 74 77 75 70 76 76 77 78 78
REMARK SMILES IDX 75 79 71 80 72 81 73 82 74 83 53 84 54 85 62 86 55 87 61 88
REMARK SMILES IDX 63 89 60 90 56 91 57 92 58 93 59 94
REMARK H PARENT 20 5 14 18 24 28 83 47 51 58
REMARK Flexibility Score: inf
ROOT
ATOM      1  C   UNL     1       1.700   0.589  -2.749  1.00  0.00     0.117 C 
ENDROOT
BRANCH   1   2
ATOM      2  N   UNL     1       2.258   0.107  -1.502  1.00  0.00    -0.356 N 
ATOM      3  O   UNL     1       0.458  -1.062  -0.739  1.00  0.00    -0.275 OA
ATOM      4  C   UNL     1       1.607  -0.657  -0.571  1.00  0.00     0.220 C 
ATOM      5  H   UNL     1       3.192   0.350  -1.307  1.00  0.00     0.163 HD
BRANCH   4   6
ATOM      6  C   UNL     1       2.307  -0.819   0.787  1.00  0.00     0.103 C 
BRANCH   6   7
ATOM      7  C   UNL     1       3.783  -1.275   0.941  1.00  0.00     0.002 C 
ATOM      8  C   UNL     1       4.820  -0.815  -0.090  1.00  0.00     0.029 C 
ATOM      9  C   UNL     1       4.348  -0.930   2.357  1.00  0.00     0.029 C 
ATOM     10  C   UNL     1       5.357   0.601   0.179  1.00  0.00     0.087 C 
ATOM     11  C   UNL     1       5.110   0.427   2.465  1.00  0.00     0.087 C 
ATOM     12  C   UNL     1       4.341   1.699   0.567  1.00  0.00     0.027 C 
ATOM     13  N   UNL     1       6.121   0.520   1.416  1.00  0.00    -0.319 N 
ATOM     14  C   UNL     1       4.223   1.617   2.099  1.00  0.00     0.027 C 
BRANCH  13  15
ATOM     15  C   UNL     1       7.403   0.963   1.377  1.00  0.00     0.317 C 
ATOM     16  O   UNL     1       7.981   1.154   0.302  1.00  0.00    -0.249 OA
ATOM     17  N   UNL     1       8.127   1.264   2.459  1.00  0.00    -0.338 N 
ATOM     18  H   UNL     1       8.916   1.806   2.231  1.00  0.00     0.165 HD
BRANCH  17  19
ATOM     19  C   UNL     1       8.051   1.001   3.880  1.00  0.00     0.118 C 
BRANCH  19  20
ATOM     20  C   UNL     1       8.573  -0.397   4.214  1.00  0.00     0.025 C 
BRANCH  20  21
ATOM     21  C   UNL     1      10.057  -0.415   4.484  1.00  0.00    -0.009 C 
ATOM     22  C   UNL     1      10.960  -1.327   3.689  1.00  0.00     0.004 C 
ATOM     23  C   UNL     1      11.076   0.159   3.527  1.00  0.00     0.004 C 
ENDBRANCH  20  21
ENDBRANCH  19  20
ENDBRANCH  17  19
ENDBRANCH  13  15
ENDBRANCH   6   7
ENDBRANCH   4   6
ENDBRANCH   1   2
BRANCH   1  24
ATOM     24  C   UNL     1       2.184   2.011  -3.059  1.00  0.00     0.042 C 
BRANCH  24  25
ATOM     25  C   UNL     1       3.698   2.195  -3.210  1.00  0.00     0.118 C 
BRANCH  25  26
ATOM     26  N   UNL     1       4.286   1.391  -4.264  1.00  0.00    -0.352 N 
ATOM     27  C   UNL     1       5.036   1.766  -5.356  1.00  0.00     0.251 C 
ATOM     28  H   UNL     1       4.123   0.423  -4.187  1.00  0.00     0.163 HD
ATOM     29  O   UNL     1       5.329   0.919  -6.192  1.00  0.00    -0.269 OA
BRANCH  27  30
ATOM     30  C   UNL     1       5.450   3.177  -5.553  1.00  0.00     0.039 A 
ATOM     31  C   UNL     1       5.307   3.735  -6.827  1.00  0.00     0.014 A 
ATOM     32  C   UNL     1       5.999   3.942  -4.521  1.00  0.00     0.014 A 
ATOM     33  C   UNL     1       5.643   5.075  -7.048  1.00  0.00     0.010 A 
ATOM     34  C   UNL     1       6.274   5.298  -4.728  1.00  0.00     0.010 A 
ATOM     35  C   UNL     1       6.090   5.883  -5.991  1.00  0.00    -0.014 A 
BRANCH  35  36
ATOM     36  C   UNL     1       6.352   7.338  -6.194  1.00  0.00     0.031 A 
ATOM     37  C   UNL     1       7.738   7.899  -6.016  1.00  0.00     0.074 A 
ATOM     38  C   UNL     1       5.331   8.167  -6.494  1.00  0.00     0.049 A 
ATOM     39  N   UNL     1       8.142   9.143  -6.076  1.00  0.00    -0.248 NA
ATOM     40  C   UNL     1       8.805   6.936  -5.711  1.00  0.00     0.031 C 
ATOM     41  C   UNL     1       3.937   7.756  -6.677  1.00  0.00     0.029 A 
ATOM     42  N   UNL     1       5.300   9.527  -6.691  1.00  0.00    -0.354 N 
ATOM     43  C   UNL     1       9.507   9.115  -5.808  1.00  0.00     0.074 A 
ATOM     44  C   UNL     1       9.846   7.735  -5.529  1.00  0.00     0.031 C 
ATOM     45  C   UNL     1       3.196   8.833  -6.980  1.00  0.00     0.029 A 
ATOM     46  C   UNL     1       4.043  10.021  -6.958  1.00  0.00     0.049 A 
ATOM     47  H   UNL     1       6.103  10.095  -6.645  1.00  0.00     0.167 HD
ATOM     48  C   UNL     1      10.398  10.140  -5.810  1.00  0.00     0.034 A 
ATOM     49  C   UNL     1       3.613  11.287  -7.143  1.00  0.00     0.034 A 
ATOM     50  C   UNL     1      10.047  11.513  -6.090  1.00  0.00     0.049 A 
ATOM     51  C   UNL     1       4.612  12.416  -7.082  1.00  0.00     0.074 A 
ATOM     52  C   UNL     1      10.881  12.617  -6.161  1.00  0.00     0.029 A 
ATOM     53  N   UNL     1       8.760  11.978  -6.332  1.00  0.00    -0.354 N 
ATOM     54  N   UNL     1       5.906  12.366  -6.865  1.00  0.00    -0.248 NA
ATOM     55  C   UNL     1       4.093  13.773  -7.300  1.00  0.00     0.031 C 
ATOM     56  C   UNL     1      10.092  13.754  -6.362  1.00  0.00     0.029 A 
ATOM     57  C   UNL     1       8.775  13.354  -6.512  1.00  0.00     0.049 A 
ATOM     58  H   UNL     1       7.955  11.412  -6.371  1.00  0.00     0.167 HD
ATOM     59  C   UNL     1       6.358  13.681  -6.956  1.00  0.00     0.074 A 
ATOM     60  C   UNL     1       5.202  14.496  -7.262  1.00  0.00     0.031 C 
ATOM     61  C   UNL     1       7.617  14.167  -6.807  1.00  0.00     0.034 A 
BRANCH  48  62
ATOM     62  C   UNL     1      11.834   9.817  -5.466  1.00  0.00     0.023 A 
ATOM     63  C   UNL     1      12.608   8.950  -6.256  1.00  0.00     0.031 A 
ATOM     64  C   UNL     1      12.435  10.373  -4.322  1.00  0.00     0.131 A 
ATOM     65  C   UNL     1      13.907   8.604  -5.853  1.00  0.00     0.055 A 
ATOM     66  C   UNL     1      13.758  10.092  -3.973  1.00  0.00     0.041 A 
ATOM     67  F   UNL     1      11.742  11.192  -3.515  1.00  0.00    -0.206 F 
ATOM     68  C   UNL     1      14.497   9.190  -4.731  1.00  0.00     0.022 A 
BRANCH  65  69
ATOM     69  S   UNL     1      14.758   7.263  -6.730  1.00  0.00     0.124 S 
ATOM     70  O   UNL     1      13.819   6.157  -6.559  1.00  0.00    -0.237 OA
ATOM     71  O   UNL     1      14.878   7.797  -8.081  1.00  0.00    -0.237 OA
ATOM     72  O   UNL     1      16.016   7.121  -6.000  1.00  0.00    -0.744 OA
ENDBRANCH  65  69
ENDBRANCH  48  62
BRANCH  49  73
ATOM     73  C   UNL     1       2.166  11.569  -7.377  1.00  0.00     0.023 A 
ATOM     74  C   UNL     1       1.725  12.153  -8.575  1.00  0.00     0.031 A 
ATOM     75  C   UNL     1       1.207  11.309  -6.380  1.00  0.00     0.131 A 
ATOM     76  C   UNL     1       0.375  12.507  -8.726  1.00  0.00     0.055 A 
ATOM     77  C   UNL     1      -0.145  11.605  -6.561  1.00  0.00     0.041 A 
ATOM     78  F   UNL     1       1.572  10.752  -5.214  1.00  0.00    -0.206 F 
ATOM     79  C   UNL     1      -0.566  12.222  -7.734  1.00  0.00     0.022 A 
BRANCH  76  80
ATOM     80  S   UNL     1      -0.118  13.440 -10.202  1.00  0.00     0.124 S 
ATOM     81  O   UNL     1       0.733  14.621 -10.103  1.00  0.00    -0.237 OA
ATOM     82  O   UNL     1       0.203  12.505 -11.274  1.00  0.00    -0.237 OA
ATOM     83  O   UNL     1      -1.545  13.679  -9.992  1.00  0.00    -0.744 OA
ENDBRANCH  76  80
ENDBRANCH  49  73
BRANCH  61  84
ATOM     84  C   UNL     1       7.817  15.649  -7.026  1.00  0.00     0.023 A 
ATOM     85  C   UNL     1       7.240  16.613  -6.179  1.00  0.00     0.031 A 
ATOM     86  C   UNL     1       8.591  16.104  -8.109  1.00  0.00     0.131 A 
ATOM     87  C   UNL     1       7.398  17.979  -6.462  1.00  0.00     0.055 A 
ATOM     88  C   UNL     1       8.801  17.463  -8.347  1.00  0.00     0.041 A 
ATOM     89  F   UNL     1       9.161  15.232  -8.956  1.00  0.00    -0.206 F 
ATOM     90  C   UNL     1       8.191  18.410  -7.529  1.00  0.00     0.022 A 
BRANCH  87  91
ATOM     91  S   UNL     1       6.470  19.187  -5.478  1.00  0.00     0.124 S 
ATOM     92  O   UNL     1       5.092  18.759  -5.693  1.00  0.00    -0.237 OA
ATOM     93  O   UNL     1       7.003  18.973  -4.136  1.00  0.00    -0.237 OA
ATOM     94  O   UNL     1       6.823  20.469  -6.086  1.00  0.00    -0.744 OA
ENDBRANCH  87  91
ENDBRANCH  61  84
ENDBRANCH  35  36
ENDBRANCH  27  30
ENDBRANCH  25  26
ENDBRANCH  24  25
ENDBRANCH   1  24
TORSDOF 18
