REMARK SMILES CC(C)COC(=O)c1ccc(NC(=O)[C@H]2[C@@H](C(=O)NCCCNC(=O)c3ccc(-c4c5nc(c(-c6cc(S(=O)(=O)[O-])ccc6F)c6ccc([nH]6)c(-c6cc(S(=O)(=O)[O-])ccc6F)c6nc(c(-c7cc(S(=O)(=O)[O-])ccc7F)c7ccc4[nH]7)C=C6)C=C5)cc3)[C@@H]3C=C[C@H]2C3)cc1
REMARK SMILES IDX 17 1 18 2 19 3 16 5 15 6 92 7 89 8 91 9 93 10 90 11 13 12
REMARK SMILES IDX 12 13 14 15 11 16 8 17 9 18 95 19 10 20 94 21 6 22 7 23 5 24
REMARK SMILES IDX 4 25 2 26 1 27 3 28 20 29 21 30 22 31 23 32 24 33 25 35
REMARK SMILES IDX 26 36 27 37 88 38 28 39 87 40 29 41 30 42 31 43 81 44 32 45
REMARK SMILES IDX 86 46 80 47 82 48 33 49 85 50 79 51 78 52 34 54 66 55 46 56
REMARK SMILES IDX 65 57 47 58 50 59 64 60 83 61 48 62 49 63 63 65 84 66 51 67
REMARK SMILES IDX 35 68 36 69 44 70 37 71 43 72 45 73 42 74 38 75 39 76 40 77
REMARK SMILES IDX 41 78 67 79 68 80 76 81 69 82 75 83 77 84 74 85 70 86 71 87
REMARK SMILES IDX 72 88 73 89 52 90 53 91 61 92 54 93 60 94 62 95 59 96 55 97
REMARK SMILES IDX 56 98 57 99 58 100
REMARK H PARENT 19 4 12 14 23 34 82 53 50 64
REMARK Flexibility Score: inf
ROOT
ATOM      1  C   UNL     1       0.639  -6.621   2.615  1.00  0.00     0.224 C 
ATOM      2  O   UNL     1       0.964  -7.134   1.535  1.00  0.00    -0.275 OA
ATOM      3  N   UNL     1       1.378  -5.552   2.990  1.00  0.00    -0.356 N 
ATOM      4  H   UNL     1       2.155  -5.401   2.405  1.00  0.00     0.163 HD
ENDROOT
BRANCH   1   5
ATOM      5  C   UNL     1      -0.462  -7.294   3.429  1.00  0.00     0.098 C 
ATOM      6  C   UNL     1      -1.431  -6.516   4.358  1.00  0.00     0.099 C 
ATOM      7  C   UNL     1      -1.000  -7.064   5.766  1.00  0.00     0.025 C 
ATOM      8  C   UNL     1       0.143  -8.377   4.363  1.00  0.00     0.025 C 
ATOM      9  C   UNL     1      -1.628  -8.444   5.844  1.00  0.00    -0.027 C 
ATOM     10  C   UNL     1       0.450  -7.556   5.606  1.00  0.00     0.017 C 
ATOM     11  C   UNL     1      -0.973  -9.218   4.962  1.00  0.00    -0.027 C 
BRANCH   6  12
ATOM     12  C   UNL     1      -1.603  -5.007   4.258  1.00  0.00     0.228 C 
ATOM     13  N   UNL     1      -1.756  -4.377   3.049  1.00  0.00    -0.326 N 
ATOM     14  H   UNL     1      -1.771  -3.394   3.094  1.00  0.00     0.169 HD
ATOM     15  O   UNL     1      -1.591  -4.301   5.271  1.00  0.00    -0.274 OA
BRANCH  13  16
ATOM     16  C   UNL     1      -1.892  -4.910   1.762  1.00  0.00     0.041 A 
ATOM     17  C   UNL     1      -1.976  -6.003  -0.802  1.00  0.00     0.060 A 
ATOM     18  C   UNL     1      -2.775  -6.538   0.212  1.00  0.00     0.018 A 
ATOM     19  C   UNL     1      -1.170  -4.890  -0.557  1.00  0.00     0.018 A 
ATOM     20  C   UNL     1      -2.727  -5.994   1.495  1.00  0.00     0.027 A 
ATOM     21  C   UNL     1      -1.159  -4.322   0.722  1.00  0.00     0.027 A 
BRANCH  17  22
ATOM     22  C   UNL     1      -2.081  -6.595  -2.143  1.00  0.00     0.338 C 
ATOM     23  O   UNL     1      -3.144  -6.675  -2.741  1.00  0.00    -0.246 OA
BRANCH  22  24
ATOM     24  O   UNL     1      -0.886  -7.112  -2.517  1.00  0.00    -0.462 OA
BRANCH  24  25
ATOM     25  C   UNL     1      -0.898  -7.819  -3.767  1.00  0.00     0.236 C 
BRANCH  25  26
ATOM     26  C   UNL     1      -1.009  -9.345  -3.588  1.00  0.00     0.021 C 
ATOM     27  C   UNL     1      -2.070  -9.775  -2.574  1.00  0.00     0.011 C 
ATOM     28  C   UNL     1      -1.288 -10.004  -4.941  1.00  0.00     0.011 C 
ENDBRANCH  25  26
ENDBRANCH  24  25
ENDBRANCH  22  24
ENDBRANCH  17  22
ENDBRANCH  13  16
ENDBRANCH   6  12
ENDBRANCH   1   5
BRANCH   3  29
ATOM     29  C   UNL     1       1.279  -4.577   4.065  1.00  0.00     0.117 C 
BRANCH  29  30
ATOM     30  C   UNL     1       2.619  -3.987   4.445  1.00  0.00     0.042 C 
BRANCH  30  31
ATOM     31  C   UNL     1       3.092  -2.974   3.416  1.00  0.00     0.118 C 
BRANCH  31  32
ATOM     32  N   UNL     1       2.292  -1.750   3.410  1.00  0.00    -0.352 N 
ATOM     33  C   UNL     1       2.648  -0.462   3.740  1.00  0.00     0.251 C 
ATOM     34  H   UNL     1       1.356  -1.864   3.127  1.00  0.00     0.163 HD
ATOM     35  O   UNL     1       1.788   0.409   3.823  1.00  0.00    -0.269 OA
BRANCH  33  36
ATOM     36  C   UNL     1       4.063  -0.162   4.032  1.00  0.00     0.039 A 
ATOM     37  C   UNL     1       4.390   0.581   5.165  1.00  0.00     0.014 A 
ATOM     38  C   UNL     1       5.065  -0.703   3.227  1.00  0.00     0.014 A 
ATOM     39  C   UNL     1       5.729   0.687   5.547  1.00  0.00     0.010 A 
ATOM     40  C   UNL     1       6.371  -0.723   3.689  1.00  0.00     0.010 A 
ATOM     41  C   UNL     1       6.724  -0.018   4.848  1.00  0.00    -0.014 A 
BRANCH  41  42
ATOM     42  C   UNL     1       8.141  -0.019   5.297  1.00  0.00     0.031 A 
ATOM     43  C   UNL     1       9.224   0.449   4.359  1.00  0.00     0.074 A 
ATOM     44  C   UNL     1       8.458  -0.510   6.513  1.00  0.00     0.049 A 
ATOM     45  N   UNL     1      10.521   0.454   4.527  1.00  0.00    -0.248 NA
ATOM     46  C   UNL     1       8.794   0.922   3.033  1.00  0.00     0.031 C 
ATOM     47  C   UNL     1       7.506  -1.072   7.477  1.00  0.00     0.029 A 
ATOM     48  N   UNL     1       9.668  -0.617   7.150  1.00  0.00    -0.354 N 
ATOM     49  C   UNL     1      11.056   0.902   3.323  1.00  0.00     0.074 A 
ATOM     50  C   UNL     1       9.950   1.067   2.408  1.00  0.00     0.031 C 
ATOM     51  C   UNL     1       8.162  -1.412   8.599  1.00  0.00     0.029 A 
ATOM     52  C   UNL     1       9.583  -1.137   8.421  1.00  0.00     0.049 A 
ATOM     53  H   UNL     1      10.519  -0.346   6.736  1.00  0.00     0.167 HD
ATOM     54  C   UNL     1      12.345   1.191   3.020  1.00  0.00     0.034 A 
ATOM     55  C   UNL     1      10.543  -1.363   9.340  1.00  0.00     0.034 A 
ATOM     56  C   UNL     1      13.428   1.061   3.962  1.00  0.00     0.049 A 
ATOM     57  C   UNL     1      11.965  -1.000   8.995  1.00  0.00     0.074 A 
ATOM     58  C   UNL     1      14.761   1.389   3.796  1.00  0.00     0.029 A 
ATOM     59  N   UNL     1      13.299   0.563   5.253  1.00  0.00    -0.354 N 
ATOM     60  N   UNL     1      12.445  -0.511   7.874  1.00  0.00    -0.248 NA
ATOM     61  C   UNL     1      12.970  -1.203  10.045  1.00  0.00     0.031 C 
ATOM     62  C   UNL     1      15.447   1.037   4.964  1.00  0.00     0.029 A 
ATOM     63  C   UNL     1      14.531   0.556   5.887  1.00  0.00     0.049 A 
ATOM     64  H   UNL     1      12.454   0.260   5.659  1.00  0.00     0.167 HD
ATOM     65  C   UNL     1      13.807  -0.325   8.096  1.00  0.00     0.074 A 
ATOM     66  C   UNL     1      14.061  -0.728   9.464  1.00  0.00     0.031 C 
ATOM     67  C   UNL     1      14.763   0.135   7.248  1.00  0.00     0.034 A 
BRANCH  54  68
ATOM     68  C   UNL     1      12.638   1.666   1.615  1.00  0.00     0.023 A 
ATOM     69  C   UNL     1      12.067   2.844   1.100  1.00  0.00     0.031 A 
ATOM     70  C   UNL     1      13.459   0.909   0.761  1.00  0.00     0.131 A 
ATOM     71  C   UNL     1      12.246   3.180  -0.250  1.00  0.00     0.055 A 
ATOM     72  C   UNL     1      13.709   1.299  -0.557  1.00  0.00     0.041 A 
ATOM     73  F   UNL     1      14.017  -0.236   1.186  1.00  0.00    -0.206 F 
ATOM     74  C   UNL     1      13.086   2.431  -1.075  1.00  0.00     0.022 A 
BRANCH  71  75
ATOM     75  S   UNL     1      11.238   4.517  -0.949  1.00  0.00     0.124 S 
ATOM     76  O   UNL     1       9.885   4.010  -0.728  1.00  0.00    -0.237 OA
ATOM     77  O   UNL     1      11.629   5.664  -0.139  1.00  0.00    -0.237 OA
ATOM     78  O   UNL     1      11.657   4.566  -2.348  1.00  0.00    -0.744 OA
ENDBRANCH  71  75
ENDBRANCH  54  68
BRANCH  55  79
ATOM     79  C   UNL     1      10.201  -1.940  10.672  1.00  0.00     0.023 A 
ATOM     80  C   UNL     1      10.383  -1.196  11.850  1.00  0.00     0.031 A 
ATOM     81  C   UNL     1       9.727  -3.258  10.794  1.00  0.00     0.131 A 
ATOM     82  C   UNL     1      10.142  -1.789  13.099  1.00  0.00     0.055 A 
ATOM     83  C   UNL     1       9.438  -3.827  12.036  1.00  0.00     0.041 A 
ATOM     84  F   UNL     1       9.526  -4.011   9.700  1.00  0.00    -0.206 F 
ATOM     85  C   UNL     1       9.659  -3.096  13.199  1.00  0.00     0.022 A 
BRANCH  82  86
ATOM     86  S   UNL     1      10.551  -0.854  14.598  1.00  0.00     0.124 S 
ATOM     87  O   UNL     1      11.968  -0.573  14.396  1.00  0.00    -0.237 OA
ATOM     88  O   UNL     1       9.649   0.288  14.497  1.00  0.00    -0.237 OA
ATOM     89  O   UNL     1      10.248  -1.792  15.677  1.00  0.00    -0.744 OA
ENDBRANCH  82  86
ENDBRANCH  55  79
BRANCH  67  90
ATOM     90  C   UNL     1      16.161   0.254   7.803  1.00  0.00     0.023 A 
ATOM     91  C   UNL     1      16.898  -0.879   8.189  1.00  0.00     0.031 A 
ATOM     92  C   UNL     1      16.750   1.518   7.976  1.00  0.00     0.131 A 
ATOM     93  C   UNL     1      18.153  -0.723   8.793  1.00  0.00     0.055 A 
ATOM     94  C   UNL     1      18.028   1.664   8.515  1.00  0.00     0.041 A 
ATOM     95  F   UNL     1      16.091   2.634   7.625  1.00  0.00    -0.206 F 
ATOM     96  C   UNL     1      18.730   0.541   8.943  1.00  0.00     0.022 A 
BRANCH  93  97
ATOM     97  S   UNL     1      18.971  -2.186   9.485  1.00  0.00     0.124 S 
ATOM     98  O   UNL     1      17.966  -2.681  10.421  1.00  0.00    -0.237 OA
ATOM     99  O   UNL     1      19.197  -3.006   8.300  1.00  0.00    -0.237 OA
ATOM    100  O   UNL     1      20.179  -1.643  10.103  1.00  0.00    -0.744 OA
ENDBRANCH  93  97
ENDBRANCH  67  90
ENDBRANCH  41  42
ENDBRANCH  33  36
ENDBRANCH  31  32
ENDBRANCH  30  31
ENDBRANCH  29  30
ENDBRANCH   3  29
TORSDOF 19
