REMARK SMILES O=C(CSc1ccc(Cl)cc1)Nc1cccc(C(=O)Nc2ccc(C(=O)NCCCNC(=O)c3ccc(-c4c5nc(c(-c6cc(S(=O)(=O)[O-])ccc6F)c6ccc([nH]6)c(-c6cc(S(=O)(=O)[O-])ccc6F)c6nc(c(-c7cc(S(=O)(=O)[O-])ccc7F)c7ccc4[nH]7)C=C6)C=C5)cc3)cc2)c1
REMARK SMILES IDX 25 1 26 2 27 3 24 5 21 6 22 7 98 8 23 9 97 10 20 11 18 12
REMARK SMILES IDX 19 13 17 15 13 16 14 17 99 18 15 19 16 20 12 21 1 22 2 23
REMARK SMILES IDX 3 25 4 26 5 27 6 28 11 29 7 30 10 31 8 32 9 33 28 34 29 35
REMARK SMILES IDX 30 36 31 37 32 38 33 40 34 41 35 42 96 43 36 44 95 45 37 46
REMARK SMILES IDX 38 47 39 48 89 49 40 50 94 51 88 52 90 53 41 54 93 55 87 56
REMARK SMILES IDX 86 57 42 59 74 60 54 61 73 62 55 63 58 64 72 65 91 66 56 67
REMARK SMILES IDX 57 68 71 70 92 71 59 72 43 73 44 74 52 75 45 76 51 77 53 78
REMARK SMILES IDX 50 79 46 80 47 81 48 82 49 83 75 84 76 85 84 86 77 87 83 88
REMARK SMILES IDX 85 89 82 90 78 91 79 92 80 93 81 94 60 95 61 96 69 97 62 98
REMARK SMILES IDX 68 99 70 100 67 101 63 102 64 103 65 104 66 105
REMARK H PARENT 27 4 20 14 12 24 31 39 90 58 58 69
REMARK Flexibility Score: inf
ROOT
ATOM      1  C   UNL     1       1.747  -1.188  -3.085  1.00  0.00     0.251 C 
ATOM      2  O   UNL     1       1.181  -0.594  -4.003  1.00  0.00    -0.269 OA
ATOM      3  N   UNL     1       3.073  -0.909  -2.871  1.00  0.00    -0.352 N 
ATOM      4  H   UNL     1       3.458  -0.306  -3.548  1.00  0.00     0.163 HD
ENDROOT
BRANCH   1   5
ATOM      5  C   UNL     1       0.958  -2.091  -2.210  1.00  0.00     0.039 A 
ATOM      6  C   UNL     1      -0.531  -3.414  -0.258  1.00  0.00     0.041 A 
ATOM      7  C   UNL     1      -1.153  -2.457  -1.057  1.00  0.00     0.027 A 
ATOM      8  C   UNL     1       0.765  -3.841  -0.557  1.00  0.00     0.027 A 
ATOM      9  C   UNL     1      -0.393  -1.768  -2.004  1.00  0.00     0.016 A 
ATOM     10  C   UNL     1       1.492  -3.208  -1.569  1.00  0.00     0.016 A 
BRANCH   6  11
ATOM     11  N   UNL     1      -1.192  -3.828   0.906  1.00  0.00    -0.322 N 
ATOM     12  C   UNL     1      -0.695  -3.855   2.200  1.00  0.00     0.255 C 
ATOM     13  O   UNL     1      -1.322  -4.441   3.082  1.00  0.00    -0.269 OA
ATOM     14  H   UNL     1      -2.119  -4.137   0.792  1.00  0.00     0.170 HD
BRANCH  12  15
ATOM     15  C   UNL     1       0.531  -3.082   2.579  1.00  0.00     0.042 A 
ATOM     16  C   UNL     1       2.065  -1.211   2.243  1.00  0.00     0.041 A 
ATOM     17  C   UNL     1       2.860  -1.697   3.285  1.00  0.00     0.026 A 
ATOM     18  C   UNL     1       0.877  -1.877   1.946  1.00  0.00     0.040 A 
ATOM     19  C   UNL     1       2.469  -2.832   4.005  1.00  0.00     0.003 A 
ATOM     20  C   UNL     1       1.315  -3.532   3.645  1.00  0.00     0.014 A 
BRANCH  16  21
ATOM     21  N   UNL     1       2.528  -0.094   1.513  1.00  0.00    -0.325 N 
ATOM     22  O   UNL     1       0.662   0.468   0.242  1.00  0.00    -0.274 OA
ATOM     23  C   UNL     1       1.842   0.628   0.547  1.00  0.00     0.234 C 
ATOM     24  H   UNL     1       3.443   0.207   1.713  1.00  0.00     0.169 HD
BRANCH  23  25
ATOM     25  C   UNL     1       2.670   1.668  -0.198  1.00  0.00     0.175 C 
BRANCH  25  26
ATOM     26  S   UNL     1       4.005   2.385   0.813  1.00  0.00    -0.116 SA
BRANCH  26  27
ATOM     27  C   UNL     1       3.052   3.683   1.568  1.00  0.00     0.008 A 
ATOM     28  C   UNL     1       3.273   5.005   1.177  1.00  0.00     0.016 A 
ATOM     29  C   UNL     1       2.037   3.387   2.484  1.00  0.00     0.016 A 
ATOM     30  C   UNL     1       2.458   6.025   1.673  1.00  0.00     0.021 A 
ATOM     31  C   UNL     1       1.218   4.404   2.973  1.00  0.00     0.021 A 
ATOM     32  C   UNL     1       1.428   5.718   2.560  1.00  0.00     0.041 A 
ATOM     33  Cl  UNL     1       0.401   6.968   3.144  1.00  0.00    -0.084 Cl
ENDBRANCH  26  27
ENDBRANCH  25  26
ENDBRANCH  23  25
ENDBRANCH  16  21
ENDBRANCH  12  15
ENDBRANCH   6  11
ENDBRANCH   1   5
BRANCH   3  34
ATOM     34  C   UNL     1       4.034  -1.316  -1.852  1.00  0.00     0.118 C 
BRANCH  34  35
ATOM     35  C   UNL     1       5.247  -1.991  -2.475  1.00  0.00     0.042 C 
BRANCH  35  36
ATOM     36  C   UNL     1       6.132  -1.012  -3.246  1.00  0.00     0.118 C 
BRANCH  36  37
ATOM     37  N   UNL     1       6.848  -0.086  -2.372  1.00  0.00    -0.352 N 
ATOM     38  C   UNL     1       8.203   0.049  -2.155  1.00  0.00     0.251 C 
ATOM     39  H   UNL     1       6.278   0.534  -1.862  1.00  0.00     0.163 HD
ATOM     40  O   UNL     1       8.609   0.762  -1.250  1.00  0.00    -0.269 OA
BRANCH  38  41
ATOM     41  C   UNL     1       9.149  -0.708  -3.002  1.00  0.00     0.039 A 
ATOM     42  C   UNL     1      10.153  -1.464  -2.393  1.00  0.00     0.014 A 
ATOM     43  C   UNL     1       9.001  -0.719  -4.391  1.00  0.00     0.014 A 
ATOM     44  C   UNL     1      10.931  -2.326  -3.170  1.00  0.00     0.010 A 
ATOM     45  C   UNL     1       9.719  -1.637  -5.150  1.00  0.00     0.010 A 
ATOM     46  C   UNL     1      10.672  -2.470  -4.544  1.00  0.00    -0.014 A 
BRANCH  46  47
ATOM     47  C   UNL     1      11.332  -3.526  -5.358  1.00  0.00     0.031 A 
ATOM     48  C   UNL     1      12.175  -3.148  -6.545  1.00  0.00     0.074 A 
ATOM     49  C   UNL     1      11.065  -4.823  -5.097  1.00  0.00     0.049 A 
ATOM     50  N   UNL     1      12.703  -3.917  -7.460  1.00  0.00    -0.248 NA
ATOM     51  C   UNL     1      12.425  -1.712  -6.749  1.00  0.00     0.031 C 
ATOM     52  C   UNL     1      10.211  -5.310  -4.008  1.00  0.00     0.029 A 
ATOM     53  N   UNL     1      11.455  -5.971  -5.742  1.00  0.00    -0.354 N 
ATOM     54  C   UNL     1      13.322  -3.062  -8.365  1.00  0.00     0.074 A 
ATOM     55  C   UNL     1      13.070  -1.712  -7.907  1.00  0.00     0.031 C 
ATOM     56  C   UNL     1      10.149  -6.649  -4.059  1.00  0.00     0.029 A 
ATOM     57  C   UNL     1      10.910  -7.119  -5.212  1.00  0.00     0.049 A 
ATOM     58  H   UNL     1      12.069  -5.973  -6.513  1.00  0.00     0.167 HD
ATOM     59  C   UNL     1      14.043  -3.378  -9.468  1.00  0.00     0.034 A 
ATOM     60  C   UNL     1      10.985  -8.401  -5.623  1.00  0.00     0.034 A 
ATOM     61  C   UNL     1      14.318  -4.730  -9.885  1.00  0.00     0.049 A 
ATOM     62  C   UNL     1      11.793  -8.721  -6.856  1.00  0.00     0.074 A 
ATOM     63  C   UNL     1      15.143  -5.162 -10.909  1.00  0.00     0.029 A 
ATOM     64  N   UNL     1      13.765  -5.867  -9.313  1.00  0.00    -0.354 N 
ATOM     65  N   UNL     1      12.453  -7.903  -7.643  1.00  0.00    -0.248 NA
ATOM     66  C   UNL     1      11.868 -10.133  -7.255  1.00  0.00     0.031 C 
ATOM     67  C   UNL     1      15.033  -6.553 -11.003  1.00  0.00     0.029 A 
ATOM     68  C   UNL     1      14.192  -6.996  -9.995  1.00  0.00     0.049 A 
ATOM     69  H   UNL     1      13.159  -5.871  -8.538  1.00  0.00     0.167 HD
ATOM     70  C   UNL     1      13.034  -8.706  -8.620  1.00  0.00     0.074 A 
ATOM     71  C   UNL     1      12.668 -10.072  -8.309  1.00  0.00     0.031 C 
ATOM     72  C   UNL     1      13.801  -8.348  -9.680  1.00  0.00     0.034 A 
BRANCH  59  73
ATOM     73  C   UNL     1      14.570  -2.247 -10.315  1.00  0.00     0.023 A 
ATOM     74  C   UNL     1      15.544  -1.355  -9.840  1.00  0.00     0.031 A 
ATOM     75  C   UNL     1      14.098  -2.073 -11.629  1.00  0.00     0.131 A 
ATOM     76  C   UNL     1      15.979  -0.297 -10.653  1.00  0.00     0.055 A 
ATOM     77  C   UNL     1      14.584  -1.060 -12.456  1.00  0.00     0.041 A 
ATOM     78  F   UNL     1      13.154  -2.886 -12.128  1.00  0.00    -0.206 F 
ATOM     79  C   UNL     1      15.524  -0.158 -11.966  1.00  0.00     0.022 A 
BRANCH  76  80
ATOM     80  S   UNL     1      17.077   0.955  -9.934  1.00  0.00     0.124 S 
ATOM     81  O   UNL     1      16.245   1.494  -8.861  1.00  0.00    -0.237 OA
ATOM     82  O   UNL     1      18.227   0.163  -9.514  1.00  0.00    -0.237 OA
ATOM     83  O   UNL     1      17.323   1.873 -11.044  1.00  0.00    -0.744 OA
ENDBRANCH  76  80
ENDBRANCH  59  73
BRANCH  60  84
ATOM     84  C   UNL     1      10.244  -9.479  -4.903  1.00  0.00     0.023 A 
ATOM     85  C   UNL     1      10.928 -10.533  -4.277  1.00  0.00     0.031 A 
ATOM     86  C   UNL     1       8.838  -9.505  -4.887  1.00  0.00     0.131 A 
ATOM     87  C   UNL     1      10.207 -11.597  -3.712  1.00  0.00     0.055 A 
ATOM     88  C   UNL     1       8.125 -10.537  -4.273  1.00  0.00     0.041 A 
ATOM     89  F   UNL     1       8.133  -8.520  -5.466  1.00  0.00    -0.206 F 
ATOM     90  C   UNL     1       8.811 -11.600  -3.695  1.00  0.00     0.022 A 
BRANCH  87  91
ATOM     91  S   UNL     1      11.126 -13.033  -3.092  1.00  0.00     0.124 S 
ATOM     92  O   UNL     1      11.914 -13.409  -4.261  1.00  0.00    -0.237 OA
ATOM     93  O   UNL     1      11.867 -12.457  -1.976  1.00  0.00    -0.237 OA
ATOM     94  O   UNL     1      10.073 -13.975  -2.720  1.00  0.00    -0.744 OA
ENDBRANCH  87  91
ENDBRANCH  60  84
BRANCH  72  95
ATOM     95  C   UNL     1      14.306  -9.460 -10.563  1.00  0.00     0.023 A 
ATOM     96  C   UNL     1      13.435 -10.197 -11.383  1.00  0.00     0.031 A 
ATOM     97  C   UNL     1      15.674  -9.784 -10.584  1.00  0.00     0.131 A 
ATOM     98  C   UNL     1      13.934 -11.253 -12.158  1.00  0.00     0.055 A 
ATOM     99  C   UNL     1      16.173 -10.800 -11.400  1.00  0.00     0.041 A 
ATOM    100  F   UNL     1      16.548  -9.112  -9.818  1.00  0.00    -0.206 F 
ATOM    101  C   UNL     1      15.300 -11.548 -12.185  1.00  0.00     0.022 A 
BRANCH  98 102
ATOM    102  S   UNL     1      12.763 -12.282 -13.085  1.00  0.00     0.124 S 
ATOM    103  O   UNL     1      11.953 -12.856 -12.016  1.00  0.00    -0.237 OA
ATOM    104  O   UNL     1      12.094 -11.305 -13.938  1.00  0.00    -0.237 OA
ATOM    105  O   UNL     1      13.624 -13.231 -13.790  1.00  0.00    -0.744 OA
ENDBRANCH  98 102
ENDBRANCH  72  95
ENDBRANCH  46  47
ENDBRANCH  38  41
ENDBRANCH  36  37
ENDBRANCH  35  36
ENDBRANCH  34  35
ENDBRANCH   3  34
TORSDOF 19
