REMARK SMILES C[C@@H](NC(=O)NCCC(=O)NC1CC1)C(=O)NCCCNC(=O)c1ccc(-c2c3nc(c(-c4cc(S(=O)(=O)[O-])ccc4F)c4ccc([nH]4)c(-c4cc(S(=O)(=O)[O-])ccc4F)c4nc(c(-c5cc(S(=O)(=O)[O-])ccc5F)c5ccc2[nH]5)C=C4)C=C3)cc1
REMARK SMILES IDX 18 1 17 2 15 3 16 4 2 6 1 7 3 8 4 9 5 11 6 12 7 14 8 15 9 16
REMARK SMILES IDX 10 17 11 18 12 20 13 21 14 22 19 23 20 24 21 25 22 26 23 28
REMARK SMILES IDX 24 29 25 30 86 31 26 32 85 33 27 34 28 35 29 36 79 37 30 38
REMARK SMILES IDX 84 39 78 40 80 41 31 42 83 43 77 44 76 45 32 47 64 48 44 49
REMARK SMILES IDX 63 50 45 51 48 52 62 53 81 54 46 55 47 56 61 58 82 59 49 60
REMARK SMILES IDX 33 61 34 62 42 63 35 64 41 65 43 66 40 67 36 68 37 69 38 70
REMARK SMILES IDX 39 71 65 72 66 73 74 74 67 75 73 76 75 77 72 78 68 79 69 80
REMARK SMILES IDX 70 81 71 82 50 83 51 84 59 85 52 86 58 87 60 88 57 89 53 90
REMARK SMILES IDX 54 91 55 92 56 93
REMARK H PARENT 17 5 3 10 6 13 11 19 21 27 80 46 48 57
REMARK Flexibility Score: inf
ROOT
ATOM      1  C   UNL     1      -0.754  -1.385   1.545  1.00  0.00     0.117 C 
ENDROOT
BRANCH   1   2
ATOM      2  N   UNL     1      -1.082  -0.155   0.846  1.00  0.00    -0.354 N 
ATOM      3  C   UNL     1      -0.522   0.370  -0.275  1.00  0.00     0.242 C 
ATOM      4  O   UNL     1      -0.968   1.446  -0.687  1.00  0.00    -0.273 OA
ATOM      5  H   UNL     1      -1.813   0.373   1.240  1.00  0.00     0.163 HD
BRANCH   3   6
ATOM      6  C   UNL     1       0.723  -0.252  -0.929  1.00  0.00     0.170 C 
ATOM      7  C   UNL     1       1.928   0.366  -0.208  1.00  0.00     0.041 C 
BRANCH   6   8
ATOM      8  N   UNL     1       0.858  -1.704  -0.899  1.00  0.00    -0.327 N 
ATOM      9  C   UNL     1       0.110  -2.719  -1.318  1.00  0.00     0.315 C 
ATOM     10  H   UNL     1       1.694  -1.999  -0.471  1.00  0.00     0.166 HD
ATOM     11  O   UNL     1       0.591  -3.852  -1.243  1.00  0.00    -0.249 OA
ATOM     12  N   UNL     1      -1.150  -2.619  -1.730  1.00  0.00    -0.338 N 
ATOM     13  H   UNL     1      -1.553  -3.508  -1.857  1.00  0.00     0.165 HD
BRANCH  12  14
ATOM     14  C   UNL     1      -2.098  -1.566  -2.044  1.00  0.00     0.127 C 
BRANCH  14  15
ATOM     15  C   UNL     1      -2.975  -1.905  -3.243  1.00  0.00     0.121 C 
BRANCH  15  16
ATOM     16  C   UNL     1      -4.112  -2.869  -2.970  1.00  0.00     0.221 C 
ATOM     17  O   UNL     1      -5.245  -2.446  -2.726  1.00  0.00    -0.275 OA
ATOM     18  N   UNL     1      -3.923  -4.224  -3.026  1.00  0.00    -0.353 N 
ATOM     19  H   UNL     1      -4.749  -4.759  -3.019  1.00  0.00     0.163 HD
BRANCH  18  20
ATOM     20  C   UNL     1      -2.720  -4.982  -3.094  1.00  0.00     0.082 C 
ATOM     21  C   UNL     1      -2.516  -6.063  -4.117  1.00  0.00     0.027 C 
ATOM     22  C   UNL     1      -1.696  -4.812  -4.182  1.00  0.00     0.027 C 
ENDBRANCH  18  20
ENDBRANCH  15  16
ENDBRANCH  14  15
ENDBRANCH  12  14
ENDBRANCH   6   8
ENDBRANCH   3   6
ENDBRANCH   1   2
BRANCH   1  23
ATOM     23  C   UNL     1      -1.219  -1.348   2.987  1.00  0.00     0.042 C 
BRANCH  23  24
ATOM     24  C   UNL     1      -2.733  -1.414   3.114  1.00  0.00     0.118 C 
BRANCH  24  25
ATOM     25  N   UNL     1      -3.257  -2.765   2.972  1.00  0.00    -0.352 N 
ATOM     26  C   UNL     1      -4.077  -3.455   3.837  1.00  0.00     0.251 C 
ATOM     27  H   UNL     1      -2.991  -3.246   2.155  1.00  0.00     0.163 HD
ATOM     28  O   UNL     1      -4.309  -4.646   3.648  1.00  0.00    -0.269 OA
BRANCH  26  29
ATOM     29  C   UNL     1      -4.628  -2.754   5.017  1.00  0.00     0.039 A 
ATOM     30  C   UNL     1      -4.519  -3.350   6.273  1.00  0.00     0.014 A 
ATOM     31  C   UNL     1      -5.178  -1.474   4.890  1.00  0.00     0.014 A 
ATOM     32  C   UNL     1      -4.893  -2.629   7.409  1.00  0.00     0.010 A 
ATOM     33  C   UNL     1      -5.442  -0.720   6.029  1.00  0.00     0.010 A 
ATOM     34  C   UNL     1      -5.314  -1.292   7.303  1.00  0.00    -0.014 A 
BRANCH  34  35
ATOM     35  C   UNL     1      -5.635  -0.495   8.518  1.00  0.00     0.031 A 
ATOM     36  C   UNL     1      -7.022   0.057   8.719  1.00  0.00     0.074 A 
ATOM     37  C   UNL     1      -4.669  -0.245   9.425  1.00  0.00     0.049 A 
ATOM     38  N   UNL     1      -7.500   0.749   9.721  1.00  0.00    -0.248 NA
ATOM     39  C   UNL     1      -7.990  -0.167   7.634  1.00  0.00     0.031 C 
ATOM     40  C   UNL     1      -3.268  -0.659   9.305  1.00  0.00     0.029 A 
ATOM     41  N   UNL     1      -4.715   0.407  10.632  1.00  0.00    -0.354 N 
ATOM     42  C   UNL     1      -8.817   1.046   9.384  1.00  0.00     0.074 A 
ATOM     43  C   UNL     1      -9.032   0.533   8.049  1.00  0.00     0.031 C 
ATOM     44  C   UNL     1      -2.604  -0.299  10.416  1.00  0.00     0.029 A 
ATOM     45  C   UNL     1      -3.518   0.402  11.311  1.00  0.00     0.049 A 
ATOM     46  H   UNL     1      -5.529   0.837  10.980  1.00  0.00     0.167 HD
ATOM     47  C   UNL     1      -9.771   1.656  10.132  1.00  0.00     0.034 A 
ATOM     48  C   UNL     1      -3.196   0.898  12.523  1.00  0.00     0.034 A 
ATOM     49  C   UNL     1      -9.542   2.149  11.468  1.00  0.00     0.049 A 
ATOM     50  C   UNL     1      -4.275   1.558  13.342  1.00  0.00     0.074 A 
ATOM     51  C   UNL     1     -10.444   2.736  12.338  1.00  0.00     0.029 A 
ATOM     52  N   UNL     1      -8.319   2.117  12.128  1.00  0.00    -0.354 N 
ATOM     53  N   UNL     1      -5.537   1.764  13.039  1.00  0.00    -0.248 NA
ATOM     54  C   UNL     1      -3.892   2.031  14.678  1.00  0.00     0.031 C 
ATOM     55  C   UNL     1      -9.754   3.119  13.494  1.00  0.00     0.029 A 
ATOM     56  C   UNL     1      -8.439   2.697  13.382  1.00  0.00     0.049 A 
ATOM     57  H   UNL     1      -7.489   1.738  11.759  1.00  0.00     0.167 HD
ATOM     58  C   UNL     1      -6.103   2.364  14.160  1.00  0.00     0.074 A 
ATOM     59  C   UNL     1      -5.051   2.457  15.153  1.00  0.00     0.031 C 
ATOM     60  C   UNL     1      -7.375   2.800  14.355  1.00  0.00     0.034 A 
BRANCH  47  61
ATOM     61  C   UNL     1     -11.136   1.831   9.505  1.00  0.00     0.023 A 
ATOM     62  C   UNL     1     -11.913   0.727   9.107  1.00  0.00     0.031 A 
ATOM     63  C   UNL     1     -11.655   3.115   9.269  1.00  0.00     0.131 A 
ATOM     64  C   UNL     1     -13.120   0.928   8.421  1.00  0.00     0.055 A 
ATOM     65  C   UNL     1     -12.900   3.308   8.665  1.00  0.00     0.041 A 
ATOM     66  F   UNL     1     -10.953   4.209   9.605  1.00  0.00    -0.206 F 
ATOM     67  C   UNL     1     -13.633   2.211   8.222  1.00  0.00     0.022 A 
BRANCH  64  68
ATOM     68  S   UNL     1     -13.933  -0.505   7.661  1.00  0.00     0.124 S 
ATOM     69  O   UNL     1     -12.893  -0.987   6.755  1.00  0.00    -0.237 OA
ATOM     70  O   UNL     1     -14.221  -1.353   8.812  1.00  0.00    -0.237 OA
ATOM     71  O   UNL     1     -15.102   0.074   7.003  1.00  0.00    -0.744 OA
ENDBRANCH  64  68
ENDBRANCH  47  61
BRANCH  48  72
ATOM     72  C   UNL     1      -1.804   0.777  13.049  1.00  0.00     0.023 A 
ATOM     73  C   UNL     1      -1.526   0.022  14.201  1.00  0.00     0.031 A 
ATOM     74  C   UNL     1      -0.736   1.454  12.433  1.00  0.00     0.131 A 
ATOM     75  C   UNL     1      -0.226   0.006  14.732  1.00  0.00     0.055 A 
ATOM     76  C   UNL     1       0.566   1.389  12.933  1.00  0.00     0.041 A 
ATOM     77  F   UNL     1      -0.943   2.184  11.326  1.00  0.00    -0.206 F 
ATOM     78  C   UNL     1       0.824   0.673  14.098  1.00  0.00     0.022 A 
BRANCH  75  79
ATOM     79  S   UNL     1       0.055  -0.830  16.317  1.00  0.00     0.124 S 
ATOM     80  O   UNL     1      -0.876  -0.128  17.193  1.00  0.00    -0.237 OA
ATOM     81  O   UNL     1      -0.284  -2.212  15.995  1.00  0.00    -0.237 OA
ATOM     82  O   UNL     1       1.471  -0.584  16.584  1.00  0.00    -0.744 OA
ENDBRANCH  75  79
ENDBRANCH  48  72
BRANCH  60  83
ATOM     83  C   UNL     1      -7.695   3.379  15.713  1.00  0.00     0.023 A 
ATOM     84  C   UNL     1      -7.074   4.551  16.181  1.00  0.00     0.031 A 
ATOM     85  C   UNL     1      -8.598   2.724  16.569  1.00  0.00     0.131 A 
ATOM     86  C   UNL     1      -7.298   4.984  17.496  1.00  0.00     0.055 A 
ATOM     87  C   UNL     1      -8.875   3.203  17.851  1.00  0.00     0.041 A 
ATOM     88  F   UNL     1      -9.220   1.601  16.178  1.00  0.00    -0.206 F 
ATOM     89  C   UNL     1      -8.208   4.327  18.328  1.00  0.00     0.022 A 
BRANCH  86  90
ATOM     90  S   UNL     1      -6.278   6.334  18.150  1.00  0.00     0.124 S 
ATOM     91  O   UNL     1      -4.927   5.832  17.921  1.00  0.00    -0.237 OA
ATOM     92  O   UNL     1      -6.688   7.463  17.322  1.00  0.00    -0.237 OA
ATOM     93  O   UNL     1      -6.678   6.417  19.554  1.00  0.00    -0.744 OA
ENDBRANCH  86  90
ENDBRANCH  60  83
ENDBRANCH  34  35
ENDBRANCH  26  29
ENDBRANCH  24  25
ENDBRANCH  23  24
ENDBRANCH   1  23
TORSDOF 18
