REMARK SMILES CC(C)(C)OC(=O)N1CCC[C@H]1C(=O)N1CCC[C@H]1C(=O)N1CCC[C@@H]1C(=O)NCCCNC(=O)c1ccc(-c2c3nc(c(-c4cc(S(=O)(=O)[O-])ccc4F)c4ccc([nH]4)c(-c4cc(S(=O)(=O)[O-])ccc4F)c4nc(c(-c5cc(S(=O)(=O)[O-])ccc5F)c5ccc2[nH]5)C=C4)C=C3)cc1
REMARK SMILES IDX 27 1 28 2 29 3 26 5 22 6 23 7 24 8 25 9 20 10 21 11 19 12
REMARK SMILES IDX 15 13 16 14 17 15 18 16 13 17 14 18 12 19 8 20 9 21 10 22
REMARK SMILES IDX 11 23 6 24 7 25 5 26 2 27 1 28 3 29 4 30 30 31 31 32 32 33
REMARK SMILES IDX 33 34 34 35 35 37 36 38 37 39 98 40 38 41 97 42 39 43 40 44
REMARK SMILES IDX 41 45 91 46 42 47 96 48 90 49 92 50 43 51 95 52 89 53 88 54
REMARK SMILES IDX 44 56 76 57 56 58 75 59 57 60 60 61 74 62 93 63 58 64 59 65
REMARK SMILES IDX 73 67 94 68 61 69 45 70 46 71 54 72 47 73 53 74 55 75 52 76
REMARK SMILES IDX 48 77 49 78 50 79 51 80 77 81 78 82 86 83 79 84 85 85 87 86
REMARK SMILES IDX 84 87 80 88 81 89 82 90 83 91 62 92 63 93 71 94 64 95 70 96
REMARK SMILES IDX 72 97 69 98 65 99 66 100 67 101 68 102
REMARK H PARENT 29 4 33 36 92 55 60 66
REMARK Flexibility Score: inf
ROOT
ATOM      1  C   UNL     1      -0.719   1.372   8.062  1.00  0.00     0.242 C 
ATOM      2  O   UNL     1       0.236   2.145   8.211  1.00  0.00    -0.273 OA
ATOM      3  N   UNL     1      -1.073   1.050   6.783  1.00  0.00    -0.354 N 
ATOM      4  H   UNL     1      -0.488   1.431   6.088  1.00  0.00     0.163 HD
ENDROOT
BRANCH   1   5
ATOM      5  C   UNL     1      -1.598   0.995   9.278  1.00  0.00     0.174 C 
ATOM      6  N   UNL     1      -2.141  -0.357   9.241  1.00  0.00    -0.329 N 
ATOM      7  C   UNL     1      -3.576  -0.370   9.456  1.00  0.00     0.120 C 
ATOM      8  C   UNL     1      -4.037   1.030   9.087  1.00  0.00     0.024 C 
ATOM      9  C   UNL     1      -2.822   1.919   9.353  1.00  0.00     0.037 C 
BRANCH   6  10
ATOM     10  C   UNL     1      -1.296  -1.454   9.294  1.00  0.00     0.246 C 
ATOM     11  O   UNL     1      -0.276  -1.470   9.980  1.00  0.00    -0.272 OA
BRANCH  10  12
ATOM     12  C   UNL     1      -1.711  -2.635   8.384  1.00  0.00     0.174 C 
ATOM     13  N   UNL     1      -0.611  -3.299   7.654  1.00  0.00    -0.329 N 
ATOM     14  C   UNL     1      -0.448  -4.657   8.121  1.00  0.00     0.120 C 
ATOM     15  C   UNL     1      -1.814  -5.039   8.655  1.00  0.00     0.024 C 
ATOM     16  C   UNL     1      -2.357  -3.740   9.232  1.00  0.00     0.037 C 
BRANCH  13  17
ATOM     17  C   UNL     1       0.195  -2.602   6.758  1.00  0.00     0.246 C 
ATOM     18  O   UNL     1       0.429  -1.408   6.948  1.00  0.00    -0.272 OA
BRANCH  17  19
ATOM     19  C   UNL     1       0.609  -3.282   5.410  1.00  0.00     0.178 C 
ATOM     20  N   UNL     1       1.492  -2.475   4.536  1.00  0.00    -0.296 N 
ATOM     21  C   UNL     1       2.745  -3.148   4.270  1.00  0.00     0.124 C 
ATOM     22  C   UNL     1       2.366  -4.606   4.388  1.00  0.00     0.024 C 
ATOM     23  C   UNL     1       1.381  -4.598   5.551  1.00  0.00     0.037 C 
BRANCH  20  24
ATOM     24  C   UNL     1       1.027  -1.408   3.798  1.00  0.00     0.410 C 
ATOM     25  O   UNL     1      -0.051  -0.867   4.006  1.00  0.00    -0.224 OA
BRANCH  24  26
ATOM     26  O   UNL     1       1.859  -1.102   2.761  1.00  0.00    -0.444 OA
BRANCH  26  27
ATOM     27  C   UNL     1       1.449  -0.207   1.690  1.00  0.00     0.106 C 
ATOM     28  C   UNL     1       2.471  -0.388   0.559  1.00  0.00     0.056 C 
ATOM     29  C   UNL     1       1.476   1.246   2.169  1.00  0.00     0.056 C 
ATOM     30  C   UNL     1       0.087  -0.596   1.120  1.00  0.00     0.056 C 
ENDBRANCH  26  27
ENDBRANCH  24  26
ENDBRANCH  20  24
ENDBRANCH  17  19
ENDBRANCH  13  17
ENDBRANCH  10  12
ENDBRANCH   6  10
ENDBRANCH   1   5
BRANCH   3  31
ATOM     31  C   UNL     1      -2.161   0.244   6.274  1.00  0.00     0.117 C 
BRANCH  31  32
ATOM     32  C   UNL     1      -3.152   1.038   5.440  1.00  0.00     0.042 C 
BRANCH  32  33
ATOM     33  C   UNL     1      -2.835   0.959   3.961  1.00  0.00     0.118 C 
BRANCH  33  34
ATOM     34  N   UNL     1      -3.014  -0.386   3.432  1.00  0.00    -0.352 N 
ATOM     35  C   UNL     1      -3.247  -0.833   2.159  1.00  0.00     0.251 C 
ATOM     36  H   UNL     1      -2.957  -1.099   4.108  1.00  0.00     0.163 HD
ATOM     37  O   UNL     1      -3.391  -2.043   1.984  1.00  0.00    -0.269 OA
BRANCH  35  38
ATOM     38  C   UNL     1      -3.322   0.097   1.004  1.00  0.00     0.039 A 
ATOM     39  C   UNL     1      -4.045  -0.317  -0.121  1.00  0.00     0.014 A 
ATOM     40  C   UNL     1      -2.656   1.329   0.974  1.00  0.00     0.014 A 
ATOM     41  C   UNL     1      -4.179   0.533  -1.217  1.00  0.00     0.010 A 
ATOM     42  C   UNL     1      -2.822   2.197  -0.090  1.00  0.00     0.010 A 
ATOM     43  C   UNL     1      -3.611   1.812  -1.173  1.00  0.00    -0.014 A 
BRANCH  43  44
ATOM     44  C   UNL     1      -3.966   2.847  -2.156  1.00  0.00     0.031 A 
ATOM     45  C   UNL     1      -2.965   3.328  -3.155  1.00  0.00     0.074 A 
ATOM     46  C   UNL     1      -5.158   3.447  -1.986  1.00  0.00     0.049 A 
ATOM     47  N   UNL     1      -3.091   4.268  -4.051  1.00  0.00    -0.248 NA
ATOM     48  C   UNL     1      -1.640   2.691  -3.122  1.00  0.00     0.031 C 
ATOM     49  C   UNL     1      -6.133   3.095  -0.946  1.00  0.00     0.029 A 
ATOM     50  N   UNL     1      -5.738   4.494  -2.643  1.00  0.00    -0.354 N 
ATOM     51  C   UNL     1      -1.868   4.328  -4.707  1.00  0.00     0.074 A 
ATOM     52  C   UNL     1      -0.995   3.372  -4.059  1.00  0.00     0.031 C 
ATOM     53  C   UNL     1      -7.187   3.918  -1.034  1.00  0.00     0.029 A 
ATOM     54  C   UNL     1      -6.954   4.861  -2.118  1.00  0.00     0.049 A 
ATOM     55  H   UNL     1      -5.326   4.941  -3.417  1.00  0.00     0.167 HD
ATOM     56  C   UNL     1      -1.531   5.103  -5.767  1.00  0.00     0.034 A 
ATOM     57  C   UNL     1      -7.783   5.855  -2.476  1.00  0.00     0.034 A 
ATOM     58  C   UNL     1      -2.433   6.072  -6.346  1.00  0.00     0.049 A 
ATOM     59  C   UNL     1      -7.394   6.694  -3.659  1.00  0.00     0.074 A 
ATOM     60  C   UNL     1      -2.251   6.871  -7.460  1.00  0.00     0.029 A 
ATOM     61  N   UNL     1      -3.688   6.389  -5.833  1.00  0.00    -0.354 N 
ATOM     62  N   UNL     1      -6.283   6.659  -4.362  1.00  0.00    -0.248 NA
ATOM     63  C   UNL     1      -8.377   7.676  -4.120  1.00  0.00     0.031 C 
ATOM     64  C   UNL     1      -3.363   7.713  -7.582  1.00  0.00     0.029 A 
ATOM     65  C   UNL     1      -4.276   7.392  -6.588  1.00  0.00     0.049 A 
ATOM     66  H   UNL     1      -4.100   5.962  -5.047  1.00  0.00     0.167 HD
ATOM     67  C   UNL     1      -6.446   7.597  -5.372  1.00  0.00     0.074 A 
ATOM     68  C   UNL     1      -7.770   8.166  -5.192  1.00  0.00     0.031 C 
ATOM     69  C   UNL     1      -5.589   7.954  -6.363  1.00  0.00     0.034 A 
BRANCH  56  70
ATOM     70  C   UNL     1      -0.142   4.941  -6.339  1.00  0.00     0.023 A 
ATOM     71  C   UNL     1       0.293   3.715  -6.878  1.00  0.00     0.031 A 
ATOM     72  C   UNL     1       0.769   6.012  -6.336  1.00  0.00     0.131 A 
ATOM     73  C   UNL     1       1.615   3.571  -7.327  1.00  0.00     0.055 A 
ATOM     74  C   UNL     1       2.060   5.884  -6.854  1.00  0.00     0.041 A 
ATOM     75  F   UNL     1       0.424   7.201  -5.816  1.00  0.00    -0.206 F 
ATOM     76  C   UNL     1       2.495   4.654  -7.341  1.00  0.00     0.022 A 
BRANCH  73  77
ATOM     77  S   UNL     1       2.204   1.915  -7.776  1.00  0.00     0.124 S 
ATOM     78  O   UNL     1       2.008   1.182  -6.527  1.00  0.00    -0.237 OA
ATOM     79  O   UNL     1       1.317   1.551  -8.875  1.00  0.00    -0.237 OA
ATOM     80  O   UNL     1       3.600   2.135  -8.147  1.00  0.00    -0.744 OA
ENDBRANCH  73  77
ENDBRANCH  56  70
BRANCH  57  81
ATOM     81  C   UNL     1      -9.058   6.062  -1.741  1.00  0.00     0.023 A 
ATOM     82  C   UNL     1     -10.290   5.791  -2.352  1.00  0.00     0.031 A 
ATOM     83  C   UNL     1      -9.064   6.505  -0.406  1.00  0.00     0.131 A 
ATOM     84  C   UNL     1     -11.483   6.001  -1.644  1.00  0.00     0.055 A 
ATOM     85  C   UNL     1     -10.251   6.672   0.309  1.00  0.00     0.041 A 
ATOM     86  F   UNL     1      -7.909   6.753   0.233  1.00  0.00    -0.206 F 
ATOM     87  C   UNL     1     -11.472   6.429  -0.315  1.00  0.00     0.022 A 
BRANCH  84  88
ATOM     88  S   UNL     1     -13.056   5.757  -2.511  1.00  0.00     0.124 S 
ATOM     89  O   UNL     1     -12.910   6.651  -3.654  1.00  0.00    -0.237 OA
ATOM     90  O   UNL     1     -13.021   4.328  -2.804  1.00  0.00    -0.237 OA
ATOM     91  O   UNL     1     -14.054   6.164  -1.524  1.00  0.00    -0.744 OA
ENDBRANCH  84  88
ENDBRANCH  57  81
BRANCH  69  92
ATOM     92  C   UNL     1      -6.092   8.992  -7.332  1.00  0.00     0.023 A 
ATOM     93  C   UNL     1      -6.330  10.317  -6.929  1.00  0.00     0.031 A 
ATOM     94  C   UNL     1      -6.372   8.639  -8.663  1.00  0.00     0.131 A 
ATOM     95  C   UNL     1      -6.900  11.225  -7.831  1.00  0.00     0.055 A 
ATOM     96  C   UNL     1      -6.877   9.565  -9.574  1.00  0.00     0.041 A 
ATOM     97  F   UNL     1      -6.166   7.385  -9.096  1.00  0.00    -0.206 F 
ATOM     98  C   UNL     1      -7.159  10.863  -9.156  1.00  0.00     0.022 A 
BRANCH  95  99
ATOM     99  S   UNL     1      -7.399  12.856  -7.217  1.00  0.00     0.124 S 
ATOM    100  O   UNL     1      -8.356  12.505  -6.172  1.00  0.00    -0.237 OA
ATOM    101  O   UNL     1      -6.133  13.419  -6.760  1.00  0.00    -0.237 OA
ATOM    102  O   UNL     1      -7.976  13.503  -8.394  1.00  0.00    -0.744 OA
ENDBRANCH  95  99
ENDBRANCH  69  92
ENDBRANCH  43  44
ENDBRANCH  35  38
ENDBRANCH  33  34
ENDBRANCH  32  33
ENDBRANCH  31  32
ENDBRANCH   3  31
TORSDOF 20
