REMARK SMILES C[C@H](C(=O)NCCCNC(=O)c1ccc(-c2c3nc(c(-c4cc(S(=O)(=O)[O-])ccc4F)c4ccc([nH]4)c(-c4cc(S(=O)(=O)[O-])ccc4F)c4nc(c(-c5cc(S(=O)(=O)[O-])ccc5F)c5ccc2[nH]5)C=C4)C=C3)cc1)N1C(=O)C[C@@H](N2C(=O)/C(=C/c3ccccc3)SC2=S)C1=O
REMARK SMILES IDX 7 1 6 2 5 3 3 4 4 5 2 7 1 8 75 9 76 10 94 11 77 12 78 13
REMARK SMILES IDX 79 14 95 15 80 16 81 17 92 18 82 19 83 20 91 21 93 22 84 23
REMARK SMILES IDX 85 24 86 25 90 26 87 27 89 28 88 29 8 30 9 31 10 32 11 34
REMARK SMILES IDX 12 35 13 36 74 37 14 38 73 39 15 40 16 41 17 42 67 43 18 44
REMARK SMILES IDX 72 45 66 46 68 47 19 48 71 49 65 50 64 51 20 53 52 54 32 55
REMARK SMILES IDX 51 56 33 57 36 58 50 59 69 60 34 61 35 62 49 64 70 65 37 66
REMARK SMILES IDX 21 67 22 68 30 69 23 70 29 71 31 72 28 73 24 74 25 75 26 76
REMARK SMILES IDX 27 77 53 78 54 79 62 80 55 81 61 82 63 83 60 84 56 85 57 86
REMARK SMILES IDX 58 87 59 88 38 89 39 90 47 91 40 92 46 93 48 94 45 95 41 96
REMARK SMILES IDX 42 97 43 98 44 99
REMARK H PARENT 5 6 9 33 68 52 36 63
REMARK Flexibility Score: inf
ROOT
ATOM      1  C   UNL     1       0.109  -1.986  -2.781  1.00  0.00     0.042 C 
ENDROOT
BRANCH   1   2
ATOM      2  C   UNL     1      -0.264  -1.560  -1.370  1.00  0.00     0.117 C 
BRANCH   2   3
ATOM      3  N   UNL     1       0.857  -1.230  -0.514  1.00  0.00    -0.354 N 
ATOM      4  C   UNL     1       1.077  -0.171   0.312  1.00  0.00     0.243 C 
ATOM      5  O   UNL     1       2.058  -0.270   1.064  1.00  0.00    -0.273 OA
ATOM      6  H   UNL     1       1.589  -1.888  -0.533  1.00  0.00     0.163 HD
BRANCH   4   7
ATOM      7  C   UNL     1       0.369   1.200   0.187  1.00  0.00     0.179 C 
ATOM      8  C   UNL     1       1.016   1.874  -1.040  1.00  0.00     0.042 C 
BRANCH   7   9
ATOM      9  N   UNL     1      -1.093   1.304   0.132  1.00  0.00    -0.268 N 
ATOM     10  C   UNL     1      -1.720   2.521   0.044  1.00  0.00     0.232 C 
ATOM     11  C   UNL     1      -1.984   0.362   0.558  1.00  0.00     0.253 C 
ATOM     12  O   UNL     1      -1.194   3.625   0.055  1.00  0.00    -0.274 OA
ATOM     13  C   UNL     1      -3.209   2.341   0.107  1.00  0.00     0.136 C 
ATOM     14  C   UNL     1      -3.381   0.837   0.207  1.00  0.00     0.191 C 
ATOM     15  O   UNL     1      -1.736  -0.722   1.065  1.00  0.00    -0.272 OA
BRANCH  14  16
ATOM     16  N   UNL     1      -3.889   0.173  -1.013  1.00  0.00    -0.280 N 
ATOM     17  C   UNL     1      -3.361   0.495  -2.254  1.00  0.00     0.266 C 
ATOM     18  C   UNL     1      -4.876  -0.795  -1.020  1.00  0.00     0.149 C 
ATOM     19  O   UNL     1      -2.412   1.242  -2.450  1.00  0.00    -0.268 OA
ATOM     20  C   UNL     1      -4.104  -0.180  -3.342  1.00  0.00     0.081 C 
ATOM     21  S   UNL     1      -5.258  -1.256  -2.676  1.00  0.00    -0.054 SA
ATOM     22  S   UNL     1      -5.683  -1.452   0.282  1.00  0.00    -0.052 S 
ATOM     23  C   UNL     1      -3.869   0.115  -4.627  1.00  0.00     0.029 C 
BRANCH  23  24
ATOM     24  C   UNL     1      -4.633  -0.370  -5.779  1.00  0.00    -0.024 A 
ATOM     25  C   UNL     1      -4.010  -1.144  -6.759  1.00  0.00     0.008 A 
ATOM     26  C   UNL     1      -5.974   0.004  -5.948  1.00  0.00     0.008 A 
ATOM     27  C   UNL     1      -4.732  -1.554  -7.881  1.00  0.00     0.001 A 
ATOM     28  C   UNL     1      -6.689  -0.409  -7.074  1.00  0.00     0.001 A 
ATOM     29  C   UNL     1      -6.067  -1.191  -8.040  1.00  0.00     0.000 A 
ENDBRANCH  23  24
ENDBRANCH  14  16
ENDBRANCH   7   9
ENDBRANCH   4   7
ENDBRANCH   2   3
ENDBRANCH   1   2
BRANCH   1  30
ATOM     30  C   UNL     1       1.149  -3.093  -2.899  1.00  0.00     0.118 C 
BRANCH  30  31
ATOM     31  N   UNL     1       0.739  -4.366  -2.327  1.00  0.00    -0.352 N 
ATOM     32  C   UNL     1       0.543  -5.601  -2.906  1.00  0.00     0.251 C 
ATOM     33  H   UNL     1       0.571  -4.341  -1.357  1.00  0.00     0.163 HD
ATOM     34  O   UNL     1       0.132  -6.524  -2.205  1.00  0.00    -0.269 OA
BRANCH  32  35
ATOM     35  C   UNL     1       0.759  -5.824  -4.357  1.00  0.00     0.039 A 
ATOM     36  C   UNL     1      -0.181  -6.589  -5.058  1.00  0.00     0.014 A 
ATOM     37  C   UNL     1       1.857  -5.298  -5.040  1.00  0.00     0.014 A 
ATOM     38  C   UNL     1      -0.086  -6.719  -6.448  1.00  0.00     0.010 A 
ATOM     39  C   UNL     1       1.907  -5.359  -6.434  1.00  0.00     0.010 A 
ATOM     40  C   UNL     1       0.919  -6.044  -7.158  1.00  0.00    -0.014 A 
BRANCH  40  41
ATOM     41  C   UNL     1       0.914  -5.979  -8.647  1.00  0.00     0.031 A 
ATOM     42  C   UNL     1       2.061  -6.528  -9.451  1.00  0.00     0.074 A 
ATOM     43  C   UNL     1      -0.086  -5.330  -9.279  1.00  0.00     0.049 A 
ATOM     44  N   UNL     1       2.287  -6.431 -10.736  1.00  0.00    -0.248 NA
ATOM     45  C   UNL     1       3.097  -7.263  -8.711  1.00  0.00     0.031 C 
ATOM     46  C   UNL     1      -1.249  -4.726  -8.625  1.00  0.00     0.029 A 
ATOM     47  N   UNL     1      -0.276  -5.046 -10.611  1.00  0.00    -0.354 N 
ATOM     48  C   UNL     1       3.495  -7.080 -10.962  1.00  0.00     0.074 A 
ATOM     49  C   UNL     1       3.973  -7.531  -9.671  1.00  0.00     0.031 C 
ATOM     50  C   UNL     1      -2.023  -4.148  -9.555  1.00  0.00     0.029 A 
ATOM     51  C   UNL     1      -1.389  -4.276 -10.859  1.00  0.00     0.049 A 
ATOM     52  H   UNL     1       0.327  -5.365 -11.321  1.00  0.00     0.167 HD
ATOM     53  C   UNL     1       4.136  -7.295 -12.137  1.00  0.00     0.034 A 
ATOM     54  C   UNL     1      -1.839  -3.701 -11.991  1.00  0.00     0.034 A 
ATOM     55  C   UNL     1       3.641  -6.872 -13.425  1.00  0.00     0.049 A 
ATOM     56  C   UNL     1      -1.082  -3.912 -13.272  1.00  0.00     0.074 A 
ATOM     57  C   UNL     1       4.163  -7.146 -14.678  1.00  0.00     0.029 A 
ATOM     58  N   UNL     1       2.524  -6.075 -13.629  1.00  0.00    -0.354 N 
ATOM     59  N   UNL     1       0.026  -4.584 -13.471  1.00  0.00    -0.248 NA
ATOM     60  C   UNL     1      -1.641  -3.294 -14.482  1.00  0.00     0.031 C 
ATOM     61  C   UNL     1       3.401  -6.463 -15.633  1.00  0.00     0.029 A 
ATOM     62  C   UNL     1       2.368  -5.811 -14.982  1.00  0.00     0.049 A 
ATOM     63  H   UNL     1       1.929  -5.745 -12.917  1.00  0.00     0.167 HD
ATOM     64  C   UNL     1       0.284  -4.486 -14.834  1.00  0.00     0.074 A 
ATOM     65  C   UNL     1      -0.790  -3.703 -15.409  1.00  0.00     0.031 C 
ATOM     66  C   UNL     1       1.315  -5.004 -15.546  1.00  0.00     0.034 A 
BRANCH  53  67
ATOM     67  C   UNL     1       5.462  -8.008 -12.088  1.00  0.00     0.023 A 
ATOM     68  C   UNL     1       5.557  -9.364 -11.732  1.00  0.00     0.031 A 
ATOM     69  C   UNL     1       6.643  -7.325 -12.425  1.00  0.00     0.131 A 
ATOM     70  C   UNL     1       6.815  -9.982 -11.673  1.00  0.00     0.055 A 
ATOM     71  C   UNL     1       7.885  -7.963 -12.425  1.00  0.00     0.041 A 
ATOM     72  F   UNL     1       6.609  -6.026 -12.758  1.00  0.00    -0.206 F 
ATOM     73  C   UNL     1       7.977  -9.297 -12.039  1.00  0.00     0.022 A 
BRANCH  70  74
ATOM     74  S   UNL     1       6.922 -11.672 -11.027  1.00  0.00     0.124 S 
ATOM     75  O   UNL     1       6.448 -11.494  -9.657  1.00  0.00    -0.237 OA
ATOM     76  O   UNL     1       6.035 -12.409 -11.919  1.00  0.00    -0.237 OA
ATOM     77  O   UNL     1       8.342 -11.998 -11.152  1.00  0.00    -0.744 OA
ENDBRANCH  70  74
ENDBRANCH  53  67
BRANCH  54  78
ATOM     78  C   UNL     1      -3.031  -2.807 -11.972  1.00  0.00     0.023 A 
ATOM     79  C   UNL     1      -4.220  -3.165 -12.624  1.00  0.00     0.031 A 
ATOM     80  C   UNL     1      -2.961  -1.538 -11.368  1.00  0.00     0.131 A 
ATOM     81  C   UNL     1      -5.275  -2.243 -12.704  1.00  0.00     0.055 A 
ATOM     82  C   UNL     1      -4.029  -0.641 -11.415  1.00  0.00     0.041 A 
ATOM     83  F   UNL     1      -1.850  -1.157 -10.718  1.00  0.00    -0.206 F 
ATOM     84  C   UNL     1      -5.190  -0.987 -12.098  1.00  0.00     0.022 A 
BRANCH  81  85
ATOM     85  S   UNL     1      -6.733  -2.679 -13.690  1.00  0.00     0.124 S 
ATOM     86  O   UNL     1      -6.143  -2.930 -15.000  1.00  0.00    -0.237 OA
ATOM     87  O   UNL     1      -7.237  -3.848 -12.977  1.00  0.00    -0.237 OA
ATOM     88  O   UNL     1      -7.573  -1.486 -13.598  1.00  0.00    -0.744 OA
ENDBRANCH  81  85
ENDBRANCH  54  78
BRANCH  66  89
ATOM     89  C   UNL     1       1.304  -4.754 -17.030  1.00  0.00     0.023 A 
ATOM     90  C   UNL     1       1.518  -3.469 -17.558  1.00  0.00     0.031 A 
ATOM     91  C   UNL     1       1.034  -5.804 -17.925  1.00  0.00     0.131 A 
ATOM     92  C   UNL     1       1.406  -3.255 -18.939  1.00  0.00     0.055 A 
ATOM     93  C   UNL     1       0.977  -5.596 -19.303  1.00  0.00     0.041 A 
ATOM     94  F   UNL     1       0.814  -7.049 -17.471  1.00  0.00    -0.206 F 
ATOM     95  C   UNL     1       1.151  -4.313 -19.817  1.00  0.00     0.022 A 
BRANCH  92  96
ATOM     96  S   UNL     1       1.517  -1.558 -19.569  1.00  0.00     0.124 S 
ATOM     97  O   UNL     1       0.380  -0.918 -18.915  1.00  0.00    -0.237 OA
ATOM     98  O   UNL     1       2.836  -1.138 -19.108  1.00  0.00    -0.237 OA
ATOM     99  O   UNL     1       1.390  -1.720 -21.016  1.00  0.00    -0.744 OA
ENDBRANCH  92  96
ENDBRANCH  66  89
ENDBRANCH  40  41
ENDBRANCH  32  35
ENDBRANCH  30  31
ENDBRANCH   1  30
TORSDOF 16
