REMARK SMILES C[NH2+]C[C@H](C)C(=O)NC[C@](C)(O)C(=O)NCCCNC(=O)c1ccc(-c2c3nc(c(-c4cc(S(=O)(=O)[O-])ccc4F)c4ccc([nH]4)c(-c4cc(S(=O)(=O)[O-])ccc4F)c4nc(c(-c5cc(S(=O)(=O)[O-])ccc5F)c5ccc2[nH]5)C=C4)C=C3)cc1
REMARK SMILES IDX 16 1 15 2 13 3 14 4 10 6 11 7 9 8 8 9 6 10 7 11 4 13 5 14
REMARK SMILES IDX 3 15 2 16 1 17 12 20 17 22 18 23 19 24 20 25 21 27 22 28
REMARK SMILES IDX 23 29 84 30 24 31 83 32 25 33 26 34 27 35 77 36 28 37 82 38
REMARK SMILES IDX 76 39 78 40 29 41 81 42 75 43 74 44 30 46 62 47 42 48 61 49
REMARK SMILES IDX 43 50 46 51 60 52 79 53 44 54 45 55 59 57 80 58 47 59 31 60
REMARK SMILES IDX 32 61 40 62 33 63 39 64 41 65 38 66 34 67 35 68 36 69 37 70
REMARK SMILES IDX 63 71 64 72 72 73 65 74 71 75 73 76 70 77 66 78 67 79 68 80
REMARK SMILES IDX 69 81 48 82 49 83 57 84 50 85 56 86 58 87 55 88 51 89 52 90
REMARK SMILES IDX 53 91 54 92
REMARK H PARENT 15 5 8 12 2 18 2 19 12 21 19 26 78 45 46 56
REMARK Flexibility Score: inf
ROOT
ATOM      1  C   UNL     1      -3.055  -4.255   3.396  1.00  0.00     0.117 C 
ENDROOT
BRANCH   1   2
ATOM      2  N   UNL     1      -2.385  -3.220   2.650  1.00  0.00    -0.353 N 
ATOM      3  C   UNL     1      -2.581  -2.880   1.337  1.00  0.00     0.253 C 
ATOM      4  O   UNL     1      -2.205  -1.760   0.983  1.00  0.00    -0.272 OA
ATOM      5  H   UNL     1      -1.708  -2.699   3.139  1.00  0.00     0.163 HD
BRANCH   3   6
ATOM      6  C   UNL     1      -3.271  -3.876   0.356  1.00  0.00     0.157 C 
ATOM      7  C   UNL     1      -3.089  -3.363  -1.078  1.00  0.00     0.055 C 
BRANCH   6   8
ATOM      8  C   UNL     1      -4.791  -4.034   0.683  1.00  0.00     0.160 C 
BRANCH   8   9
ATOM      9  N   UNL     1      -5.212  -5.436   0.628  1.00  0.00    -0.352 N 
ATOM     10  C   UNL     1      -6.121  -6.168   1.317  1.00  0.00     0.228 C 
ATOM     11  O   UNL     1      -6.241  -7.348   0.967  1.00  0.00    -0.275 OA
ATOM     12  H   UNL     1      -4.732  -5.958  -0.055  1.00  0.00     0.163 HD
BRANCH  10  13
ATOM     13  C   UNL     1      -6.977  -5.636   2.463  1.00  0.00     0.130 C 
ATOM     14  C   UNL     1      -6.191  -5.244   3.706  1.00  0.00     0.024 C 
BRANCH  13  15
ATOM     15  C   UNL     1      -7.939  -4.520   2.030  1.00  0.00     0.273 C 
BRANCH  15  16
ATOM     16  N   UNL     1      -9.323  -4.969   1.827  1.00  0.00    -0.348 N 
ATOM     17  C   UNL     1      -9.996  -5.290   3.082  1.00  0.00     0.330 C 
ATOM     18  H   UNL     1      -9.843  -4.228   1.357  1.00  0.00     0.346 HD
ATOM     19  H   UNL     1      -9.294  -5.820   1.264  1.00  0.00     0.346 HD
ENDBRANCH  15  16
ENDBRANCH  13  15
ENDBRANCH  10  13
ENDBRANCH   8   9
ENDBRANCH   6   8
BRANCH   6  20
ATOM     20  O   UNL     1      -2.604  -5.152   0.360  1.00  0.00    -0.378 OA
ATOM     21  H   UNL     1      -1.664  -5.025   0.154  1.00  0.00     0.212 HD
ENDBRANCH   6  20
ENDBRANCH   3   6
ENDBRANCH   1   2
BRANCH   1  22
ATOM     22  C   UNL     1      -2.189  -5.037   4.357  1.00  0.00     0.042 C 
BRANCH  22  23
ATOM     23  C   UNL     1      -2.074  -4.394   5.730  1.00  0.00     0.118 C 
BRANCH  23  24
ATOM     24  N   UNL     1      -3.360  -4.221   6.406  1.00  0.00    -0.352 N 
ATOM     25  C   UNL     1      -3.791  -4.621   7.649  1.00  0.00     0.251 C 
ATOM     26  H   UNL     1      -4.035  -3.735   5.879  1.00  0.00     0.163 HD
ATOM     27  O   UNL     1      -4.973  -4.458   7.946  1.00  0.00    -0.269 OA
BRANCH  25  28
ATOM     28  C   UNL     1      -2.863  -5.273   8.598  1.00  0.00     0.039 A 
ATOM     29  C   UNL     1      -3.333  -6.318   9.398  1.00  0.00     0.014 A 
ATOM     30  C   UNL     1      -1.528  -4.879   8.686  1.00  0.00     0.014 A 
ATOM     31  C   UNL     1      -2.439  -7.030  10.202  1.00  0.00     0.010 A 
ATOM     32  C   UNL     1      -0.621  -5.663   9.385  1.00  0.00     0.010 A 
ATOM     33  C   UNL     1      -1.065  -6.748  10.153  1.00  0.00    -0.014 A 
BRANCH  33  34
ATOM     34  C   UNL     1      -0.071  -7.580  10.881  1.00  0.00     0.031 A 
ATOM     35  C   UNL     1       0.850  -6.949  11.890  1.00  0.00     0.074 A 
ATOM     36  C   UNL     1       0.073  -8.878  10.551  1.00  0.00     0.049 A 
ATOM     37  N   UNL     1       1.849  -7.480  12.549  1.00  0.00    -0.248 NA
ATOM     38  C   UNL     1       0.655  -5.516  12.151  1.00  0.00     0.031 C 
ATOM     39  C   UNL     1      -0.696  -9.580   9.520  1.00  0.00     0.029 A 
ATOM     40  N   UNL     1       0.930  -9.836  11.031  1.00  0.00    -0.354 N 
ATOM     41  C   UNL     1       2.417  -6.440  13.277  1.00  0.00     0.074 A 
ATOM     42  C   UNL     1       1.701  -5.237  12.912  1.00  0.00     0.031 C 
ATOM     43  C   UNL     1      -0.293 -10.859   9.462  1.00  0.00     0.029 A 
ATOM     44  C   UNL     1       0.789 -11.059  10.418  1.00  0.00     0.049 A 
ATOM     45  H   UNL     1       1.583  -9.664  11.747  1.00  0.00     0.167 HD
ATOM     46  C   UNL     1       3.421  -6.489  14.189  1.00  0.00     0.034 A 
ATOM     47  C   UNL     1       1.464 -12.211  10.597  1.00  0.00     0.034 A 
ATOM     48  C   UNL     1       4.105  -7.707  14.553  1.00  0.00     0.049 A 
ATOM     49  C   UNL     1       2.548 -12.260  11.639  1.00  0.00     0.074 A 
ATOM     50  C   UNL     1       5.070  -7.900  15.525  1.00  0.00     0.029 A 
ATOM     51  N   UNL     1       3.903  -8.943  13.947  1.00  0.00    -0.354 N 
ATOM     52  N   UNL     1       3.016 -11.289  12.389  1.00  0.00    -0.248 NA
ATOM     53  C   UNL     1       3.180 -13.563  11.870  1.00  0.00     0.031 C 
ATOM     54  C   UNL     1       5.498  -9.232  15.462  1.00  0.00     0.029 A 
ATOM     55  C   UNL     1       4.748  -9.893  14.502  1.00  0.00     0.049 A 
ATOM     56  H   UNL     1       3.253  -9.119  13.229  1.00  0.00     0.167 HD
ATOM     57  C   UNL     1       3.993 -11.868  13.193  1.00  0.00     0.074 A 
ATOM     58  C   UNL     1       4.023 -13.278  12.853  1.00  0.00     0.031 C 
ATOM     59  C   UNL     1       4.791 -11.290  14.127  1.00  0.00     0.034 A 
BRANCH  46  60
ATOM     60  C   UNL     1       3.839  -5.182  14.826  1.00  0.00     0.023 A 
ATOM     61  C   UNL     1       2.931  -4.391  15.555  1.00  0.00     0.031 A 
ATOM     62  C   UNL     1       5.141  -4.681  14.646  1.00  0.00     0.131 A 
ATOM     63  C   UNL     1       3.297  -3.102  15.970  1.00  0.00     0.055 A 
ATOM     64  C   UNL     1       5.529  -3.438  15.152  1.00  0.00     0.041 A 
ATOM     65  F   UNL     1       6.051  -5.376  13.947  1.00  0.00    -0.206 F 
ATOM     66  C   UNL     1       4.598  -2.629  15.797  1.00  0.00     0.022 A 
BRANCH  63  67
ATOM     67  S   UNL     1       1.992  -1.984  16.557  1.00  0.00     0.124 S 
ATOM     68  O   UNL     1       1.069  -1.988  15.424  1.00  0.00    -0.237 OA
ATOM     69  O   UNL     1       1.524  -2.653  17.765  1.00  0.00    -0.237 OA
ATOM     70  O   UNL     1       2.695  -0.721  16.773  1.00  0.00    -0.744 OA
ENDBRANCH  63  67
ENDBRANCH  46  60
BRANCH  47  71
ATOM     71  C   UNL     1       1.134 -13.402   9.766  1.00  0.00     0.023 A 
ATOM     72  C   UNL     1       0.525 -14.535  10.327  1.00  0.00     0.031 A 
ATOM     73  C   UNL     1       1.417 -13.417   8.388  1.00  0.00     0.131 A 
ATOM     74  C   UNL     1       0.245 -15.649   9.520  1.00  0.00     0.055 A 
ATOM     75  C   UNL     1       1.098 -14.510   7.582  1.00  0.00     0.041 A 
ATOM     76  F   UNL     1       1.984 -12.351   7.801  1.00  0.00    -0.206 F 
ATOM     77  C   UNL     1       0.516 -15.639   8.149  1.00  0.00     0.022 A 
BRANCH  74  78
ATOM     78  S   UNL     1      -0.444 -17.136  10.298  1.00  0.00     0.124 S 
ATOM     79  O   UNL     1       0.606 -17.491  11.246  1.00  0.00    -0.237 OA
ATOM     80  O   UNL     1      -1.684 -16.629  10.875  1.00  0.00    -0.237 OA
ATOM     81  O   UNL     1      -0.613 -18.059   9.178  1.00  0.00    -0.744 OA
ENDBRANCH  74  78
ENDBRANCH  47  71
BRANCH  59  82
ATOM     82  C   UNL     1       5.753 -12.199  14.853  1.00  0.00     0.023 A 
ATOM     83  C   UNL     1       6.814 -12.833  14.182  1.00  0.00     0.031 A 
ATOM     84  C   UNL     1       5.589 -12.459  16.225  1.00  0.00     0.131 A 
ATOM     85  C   UNL     1       7.629 -13.746  14.868  1.00  0.00     0.055 A 
ATOM     86  C   UNL     1       6.443 -13.318  16.917  1.00  0.00     0.041 A 
ATOM     87  F   UNL     1       4.591 -11.884  16.915  1.00  0.00    -0.206 F 
ATOM     88  C   UNL     1       7.460 -13.980  16.236  1.00  0.00     0.022 A 
BRANCH  85  89
ATOM     89  S   UNL     1       8.840 -14.712  13.924  1.00  0.00     0.124 S 
ATOM     90  O   UNL     1       7.996 -15.369  12.932  1.00  0.00    -0.237 OA
ATOM     91  O   UNL     1       9.735 -13.677  13.416  1.00  0.00    -0.237 OA
ATOM     92  O   UNL     1       9.425 -15.601  14.926  1.00  0.00    -0.744 OA
ENDBRANCH  85  89
ENDBRANCH  59  82
ENDBRANCH  33  34
ENDBRANCH  25  28
ENDBRANCH  23  24
ENDBRANCH  22  23
ENDBRANCH   1  22
TORSDOF 19
