REMARK SMILES Cc1ccc(NC(=O)N[C@@H]2C=C[C@@H](C(=O)NCCCNC(=O)c3ccc(-c4c5nc(c(-c6cc(S(=O)(=O)[O-])ccc6F)c6ccc([nH]6)c(-c6cc(S(=O)(=O)[O-])ccc6F)c6nc(c(-c7cc(S(=O)(=O)[O-])ccc7F)c7ccc4[nH]7)C=C6)C=C5)cc3)C2)c(F)c1
REMARK SMILES IDX 18 1 17 2 16 3 14 4 15 5 13 7 10 8 11 9 86 10 12 11 9 12
REMARK SMILES IDX 6 13 7 14 8 16 5 18 1 19 2 20 3 21 89 22 4 23 87 24 88 25
REMARK SMILES IDX 19 26 20 27 21 28 22 30 23 31 24 32 85 33 25 34 84 35 26 36
REMARK SMILES IDX 27 37 28 38 78 39 29 40 83 41 77 42 79 43 30 44 82 45 76 46
REMARK SMILES IDX 75 47 31 49 63 50 43 51 62 52 44 53 47 54 61 55 80 56 45 57
REMARK SMILES IDX 46 58 60 60 81 61 48 62 32 63 33 64 41 65 34 66 40 67 42 68
REMARK SMILES IDX 39 69 35 70 36 71 37 72 38 73 64 74 65 75 73 76 66 77 72 78
REMARK SMILES IDX 74 79 71 80 67 81 68 82 69 83 70 84 49 85 50 86 58 87 51 88
REMARK SMILES IDX 57 89 59 90 56 91 52 92 53 93 54 94 55 95
REMARK H PARENT 16 6 6 15 9 17 20 29 79 48 47 59
REMARK Flexibility Score: inf
ROOT
ATOM      1  C   UNL     1      -3.892  -0.164   3.909  1.00  0.00     0.042 C 
ENDROOT
BRANCH   1   2
ATOM      2  C   UNL     1      -2.903   0.909   3.482  1.00  0.00     0.117 C 
BRANCH   2   3
ATOM      3  N   UNL     1      -1.567   0.668   3.985  1.00  0.00    -0.356 N 
ATOM      4  C   UNL     1      -0.358   0.495   3.405  1.00  0.00     0.227 C 
ATOM      5  O   UNL     1       0.589   0.381   4.197  1.00  0.00    -0.274 OA
ATOM      6  H   UNL     1      -1.531   0.620   4.968  1.00  0.00     0.163 HD
BRANCH   4   7
ATOM      7  C   UNL     1      -0.054   0.530   1.901  1.00  0.00     0.103 C 
ATOM      8  C   UNL     1      -1.574   1.425   0.201  1.00  0.00     0.107 C 
ATOM      9  C   UNL     1      -0.480   2.386   0.524  1.00  0.00    -0.006 C 
ATOM     10  C   UNL     1      -1.063   0.113   0.826  1.00  0.00     0.047 C 
ATOM     11  C   UNL     1       0.323   1.921   1.484  1.00  0.00    -0.016 C 
BRANCH   8  12
ATOM     12  N   UNL     1      -1.846   1.374  -1.216  1.00  0.00    -0.332 N 
ATOM     13  N   UNL     1      -2.753   3.522  -1.706  1.00  0.00    -0.305 N 
ATOM     14  C   UNL     1      -2.363   2.279  -2.080  1.00  0.00     0.319 C 
ATOM     15  H   UNL     1      -2.730   4.191  -2.428  1.00  0.00     0.171 HD
ATOM     16  O   UNL     1      -2.323   2.010  -3.284  1.00  0.00    -0.248 OA
ATOM     17  H   UNL     1      -1.610   0.514  -1.635  1.00  0.00     0.165 HD
BRANCH  13  18
ATOM     18  C   UNL     1      -3.185   4.020  -0.468  1.00  0.00     0.078 A 
ATOM     19  C   UNL     1      -3.501   5.044   3.677  1.00  0.00     0.044 C 
ATOM     20  C   UNL     1      -3.550   4.805   2.196  1.00  0.00    -0.048 A 
ATOM     21  C   UNL     1      -2.761   5.574   1.330  1.00  0.00     0.006 A 
ATOM     22  C   UNL     1      -4.274   3.727   1.677  1.00  0.00     0.045 A 
ATOM     23  C   UNL     1      -2.614   5.209  -0.012  1.00  0.00     0.029 A 
ATOM     24  C   UNL     1      -4.091   3.344   0.351  1.00  0.00     0.147 A 
ATOM     25  F   UNL     1      -4.724   2.248  -0.093  1.00  0.00    -0.205 F 
ENDBRANCH  13  18
ENDBRANCH   8  12
ENDBRANCH   4   7
ENDBRANCH   2   3
ENDBRANCH   1   2
BRANCH   1  26
ATOM     26  C   UNL     1      -4.192  -0.166   5.401  1.00  0.00     0.118 C 
BRANCH  26  27
ATOM     27  N   UNL     1      -4.971   0.990   5.831  1.00  0.00    -0.352 N 
ATOM     28  C   UNL     1      -6.188   1.038   6.474  1.00  0.00     0.251 C 
ATOM     29  H   UNL     1      -4.566   1.865   5.632  1.00  0.00     0.163 HD
ATOM     30  O   UNL     1      -6.750   2.121   6.620  1.00  0.00    -0.269 OA
BRANCH  28  31
ATOM     31  C   UNL     1      -6.827  -0.211   6.947  1.00  0.00     0.039 A 
ATOM     32  C   UNL     1      -8.194  -0.405   6.733  1.00  0.00     0.014 A 
ATOM     33  C   UNL     1      -6.073  -1.207   7.569  1.00  0.00     0.014 A 
ATOM     34  C   UNL     1      -8.780  -1.634   7.056  1.00  0.00     0.010 A 
ATOM     35  C   UNL     1      -6.631  -2.462   7.788  1.00  0.00     0.010 A 
ATOM     36  C   UNL     1      -7.992  -2.692   7.538  1.00  0.00    -0.014 A 
BRANCH  36  37
ATOM     37  C   UNL     1      -8.560  -4.042   7.809  1.00  0.00     0.031 A 
ATOM     38  C   UNL     1      -8.454  -4.633   9.192  1.00  0.00     0.074 A 
ATOM     39  C   UNL     1      -9.079  -4.774   6.802  1.00  0.00     0.049 A 
ATOM     40  N   UNL     1      -8.735  -5.843   9.604  1.00  0.00    -0.248 NA
ATOM     41  C   UNL     1      -7.907  -3.756  10.238  1.00  0.00     0.031 C 
ATOM     42  C   UNL     1      -9.189  -4.341   5.407  1.00  0.00     0.029 A 
ATOM     43  N   UNL     1      -9.598  -6.045   6.793  1.00  0.00    -0.354 N 
ATOM     44  C   UNL     1      -8.362  -5.882  10.944  1.00  0.00     0.074 A 
ATOM     45  C   UNL     1      -7.771  -4.596  11.250  1.00  0.00     0.031 C 
ATOM     46  C   UNL     1      -9.766  -5.317   4.686  1.00  0.00     0.029 A 
ATOM     47  C   UNL     1     -10.023  -6.462   5.553  1.00  0.00     0.049 A 
ATOM     48  H   UNL     1      -9.660  -6.606   7.600  1.00  0.00     0.167 HD
ATOM     49  C   UNL     1      -8.521  -6.885  11.844  1.00  0.00     0.034 A 
ATOM     50  C   UNL     1     -10.550  -7.638   5.155  1.00  0.00     0.034 A 
ATOM     51  C   UNL     1      -9.151  -8.145  11.532  1.00  0.00     0.049 A 
ATOM     52  C   UNL     1     -10.749  -8.728   6.177  1.00  0.00     0.074 A 
ATOM     53  C   UNL     1      -9.424  -9.207  12.376  1.00  0.00     0.029 A 
ATOM     54  N   UNL     1      -9.615  -8.510  10.274  1.00  0.00    -0.354 N 
ATOM     55  N   UNL     1     -10.427  -8.736   7.450  1.00  0.00    -0.248 NA
ATOM     56  C   UNL     1     -11.395  -9.962   5.711  1.00  0.00     0.031 C 
ATOM     57  C   UNL     1     -10.005 -10.232  11.620  1.00  0.00     0.029 A 
ATOM     58  C   UNL     1     -10.157  -9.785  10.317  1.00  0.00     0.049 A 
ATOM     59  H   UNL     1      -9.565  -7.945   9.469  1.00  0.00     0.167 HD
ATOM     60  C   UNL     1     -10.863  -9.963   7.943  1.00  0.00     0.074 A 
ATOM     61  C   UNL     1     -11.479 -10.661   6.833  1.00  0.00     0.031 C 
ATOM     62  C   UNL     1     -10.767 -10.466   9.200  1.00  0.00     0.034 A 
BRANCH  49  63
ATOM     63  C   UNL     1      -7.987  -6.654  13.239  1.00  0.00     0.023 A 
ATOM     64  C   UNL     1      -8.470  -5.612  14.051  1.00  0.00     0.031 A 
ATOM     65  C   UNL     1      -6.944  -7.449  13.746  1.00  0.00     0.131 A 
ATOM     66  C   UNL     1      -7.847  -5.330  15.275  1.00  0.00     0.055 A 
ATOM     67  C   UNL     1      -6.391  -7.221  15.009  1.00  0.00     0.041 A 
ATOM     68  F   UNL     1      -6.426  -8.448  13.014  1.00  0.00    -0.206 F 
ATOM     69  C   UNL     1      -6.828  -6.143  15.773  1.00  0.00     0.022 A 
BRANCH  66  70
ATOM     70  S   UNL     1      -8.273  -3.783  16.122  1.00  0.00     0.124 S 
ATOM     71  O   UNL     1      -7.914  -2.788  15.114  1.00  0.00    -0.237 OA
ATOM     72  O   UNL     1      -9.699  -3.946  16.379  1.00  0.00    -0.237 OA
ATOM     73  O   UNL     1      -7.419  -3.794  17.308  1.00  0.00    -0.744 OA
ENDBRANCH  66  70
ENDBRANCH  49  63
BRANCH  50  74
ATOM     74  C   UNL     1     -10.934  -7.851   3.731  1.00  0.00     0.023 A 
ATOM     75  C   UNL     1     -12.280  -8.016   3.366  1.00  0.00     0.031 A 
ATOM     76  C   UNL     1      -9.962  -7.928   2.719  1.00  0.00     0.131 A 
ATOM     77  C   UNL     1     -12.614  -8.296   2.032  1.00  0.00     0.055 A 
ATOM     78  C   UNL     1     -10.303  -8.158   1.385  1.00  0.00     0.041 A 
ATOM     79  F   UNL     1      -8.662  -7.766   3.013  1.00  0.00    -0.206 F 
ATOM     80  C   UNL     1     -11.636  -8.356   1.037  1.00  0.00     0.022 A 
BRANCH  77  81
ATOM     81  S   UNL     1     -14.346  -8.654   1.628  1.00  0.00     0.124 S 
ATOM     82  O   UNL     1     -14.619  -9.803   2.483  1.00  0.00    -0.237 OA
ATOM     83  O   UNL     1     -15.007  -7.407   1.997  1.00  0.00    -0.237 OA
ATOM     84  O   UNL     1     -14.309  -8.937   0.195  1.00  0.00    -0.744 OA
ENDBRANCH  77  81
ENDBRANCH  50  74
BRANCH  62  85
ATOM     85  C   UNL     1     -11.398 -11.814   9.447  1.00  0.00     0.023 A 
ATOM     86  C   UNL     1     -10.883 -12.990   8.875  1.00  0.00     0.031 A 
ATOM     87  C   UNL     1     -12.541 -11.916  10.259  1.00  0.00     0.131 A 
ATOM     88  C   UNL     1     -11.544 -14.211   9.079  1.00  0.00     0.055 A 
ATOM     89  C   UNL     1     -13.161 -13.141  10.504  1.00  0.00     0.041 A 
ATOM     90  F   UNL     1     -13.074 -10.823  10.829  1.00  0.00    -0.206 F 
ATOM     91  C   UNL     1     -12.670 -14.296   9.902  1.00  0.00     0.022 A 
BRANCH  88  92
ATOM     92  S   UNL     1     -10.963 -15.676   8.181  1.00  0.00     0.124 S 
ATOM     93  O   UNL     1     -11.070 -15.244   6.792  1.00  0.00    -0.237 OA
ATOM     94  O   UNL     1      -9.607 -15.840   8.696  1.00  0.00    -0.237 OA
ATOM     95  O   UNL     1     -11.906 -16.719   8.580  1.00  0.00    -0.744 OA
ENDBRANCH  88  92
ENDBRANCH  62  85
ENDBRANCH  36  37
ENDBRANCH  28  31
ENDBRANCH  26  27
ENDBRANCH   1  26
TORSDOF 15
