REMARK SMILES O=C(NCCCNC(=O)[C@@H]1CC2(CC[NH2+]CC2)C[N@H+]1Cc1cccc2nonc12)c1ccc(-c2c3nc(c(-c4cc(S(=O)(=O)[O-])ccc4F)c4ccc([nH]4)c(-c4cc(S(=O)(=O)[O-])ccc4F)c4nc(c(-c5cc(S(=O)(=O)[O-])ccc5F)c5ccc2[nH]5)C=C4)C=C3)cc1
REMARK SMILES IDX 4 1 3 2 1 3 2 4 30 6 31 7 92 8 32 9 91 10 33 11 34 12 35 13
REMARK SMILES IDX 85 14 36 15 90 16 84 17 86 18 37 19 89 20 83 21 82 22 38 24
REMARK SMILES IDX 70 25 50 26 69 27 51 28 54 29 68 30 87 31 52 32 53 33 67 35
REMARK SMILES IDX 88 36 55 37 39 38 40 39 48 40 41 41 47 42 49 43 46 44 42 45
REMARK SMILES IDX 43 46 44 47 45 48 71 49 72 50 80 51 73 52 79 53 81 54 78 55
REMARK SMILES IDX 74 56 75 57 76 58 77 59 56 60 57 61 65 62 58 63 64 64 66 65
REMARK SMILES IDX 63 66 59 67 60 68 61 69 62 70 5 71 6 72 7 73 8 74 9 76 10 77
REMARK SMILES IDX 11 78 19 79 12 80 18 81 13 83 17 84 14 85 16 86 15 87 20 90
REMARK SMILES IDX 21 91 22 92 29 93 23 94 25 95 28 96 24 97 26 98 27 99
REMARK H PARENT 3 5 86 23 54 34 7 75 19 82 15 88 15 89
REMARK Flexibility Score: inf
ROOT
ATOM      1  C   UNL     1       4.021   1.541   0.001  1.00  0.00     0.118 C 
ENDROOT
BRANCH   1   2
ATOM      2  N   UNL     1       2.678   0.985  -0.102  1.00  0.00    -0.352 N 
ATOM      3  O   UNL     1       1.054  -0.520   0.103  1.00  0.00    -0.269 OA
ATOM      4  C   UNL     1       2.042   0.009   0.616  1.00  0.00     0.251 C 
ATOM      5  H   UNL     1       2.130   1.383  -0.816  1.00  0.00     0.163 HD
BRANCH   4   6
ATOM      6  C   UNL     1       2.481  -0.413   1.968  1.00  0.00     0.039 A 
ATOM      7  C   UNL     1       2.034  -1.662   2.428  1.00  0.00     0.014 A 
ATOM      8  C   UNL     1       3.203   0.416   2.831  1.00  0.00     0.014 A 
ATOM      9  C   UNL     1       2.327  -2.083   3.722  1.00  0.00     0.010 A 
ATOM     10  C   UNL     1       3.530  -0.019   4.114  1.00  0.00     0.010 A 
ATOM     11  C   UNL     1       3.092  -1.268   4.563  1.00  0.00    -0.014 A 
BRANCH  11  12
ATOM     12  C   UNL     1       3.412  -1.770   5.910  1.00  0.00     0.031 A 
ATOM     13  C   UNL     1       4.875  -1.813   6.226  1.00  0.00     0.074 A 
ATOM     14  C   UNL     1       2.526  -1.591   6.913  1.00  0.00     0.049 A 
ATOM     15  N   UNL     1       5.562  -0.742   6.502  1.00  0.00    -0.248 NA
ATOM     16  C   UNL     1       5.702  -2.994   5.986  1.00  0.00     0.031 C 
ATOM     17  C   UNL     1       1.611  -0.441   6.985  1.00  0.00     0.029 A 
ATOM     18  N   UNL     1       2.411  -2.193   8.144  1.00  0.00    -0.354 N 
ATOM     19  C   UNL     1       6.903  -1.080   6.441  1.00  0.00     0.074 A 
ATOM     20  C   UNL     1       6.940  -2.491   6.121  1.00  0.00     0.031 C 
ATOM     21  C   UNL     1       1.174  -0.313   8.253  1.00  0.00     0.029 A 
ATOM     22  C   UNL     1       1.648  -1.445   9.042  1.00  0.00     0.049 A 
ATOM     23  H   UNL     1       2.822  -3.059   8.368  1.00  0.00     0.167 HD
ATOM     24  C   UNL     1       7.901  -0.181   6.658  1.00  0.00     0.034 A 
ATOM     25  C   UNL     1       1.865  -1.413  10.386  1.00  0.00     0.034 A 
ATOM     26  C   UNL     1       7.463   1.141   7.006  1.00  0.00     0.049 A 
ATOM     27  C   UNL     1       3.137  -0.597  10.442  1.00  0.00     0.074 A 
ATOM     28  C   UNL     1       7.260   2.347   6.372  1.00  0.00     0.029 A 
ATOM     29  N   UNL     1       7.049   1.357   8.300  1.00  0.00    -0.354 N 
ATOM     30  N   UNL     1       3.220   0.704  10.318  1.00  0.00    -0.248 NA
ATOM     31  C   UNL     1       4.407  -1.302  10.265  1.00  0.00     0.031 C 
ATOM     32  C   UNL     1       6.333   3.062   7.197  1.00  0.00     0.029 A 
ATOM     33  C   UNL     1       5.984   2.222   8.256  1.00  0.00     0.049 A 
ATOM     34  H   UNL     1       7.445   0.962   9.111  1.00  0.00     0.167 HD
ATOM     35  C   UNL     1       4.481   0.949   9.764  1.00  0.00     0.074 A 
ATOM     36  C   UNL     1       5.167  -0.327   9.786  1.00  0.00     0.031 C 
ATOM     37  C   UNL     1       4.840   2.115   9.145  1.00  0.00     0.034 A 
BRANCH  24  38
ATOM     38  C   UNL     1       9.339  -0.528   6.756  1.00  0.00     0.023 A 
ATOM     39  C   UNL     1      10.182  -0.665   5.644  1.00  0.00     0.031 A 
ATOM     40  C   UNL     1       9.910  -0.559   8.043  1.00  0.00     0.131 A 
ATOM     41  C   UNL     1      11.566  -0.806   5.850  1.00  0.00     0.055 A 
ATOM     42  C   UNL     1      11.282  -0.683   8.240  1.00  0.00     0.041 A 
ATOM     43  F   UNL     1       9.130  -0.431   9.130  1.00  0.00    -0.206 F 
ATOM     44  C   UNL     1      12.118  -0.800   7.138  1.00  0.00     0.022 A 
BRANCH  41  45
ATOM     45  S   UNL     1      12.720  -0.965   4.457  1.00  0.00     0.124 S 
ATOM     46  O   UNL     1      13.627   0.164   4.676  1.00  0.00    -0.237 OA
ATOM     47  O   UNL     1      13.304  -2.285   4.702  1.00  0.00    -0.237 OA
ATOM     48  O   UNL     1      11.871  -0.867   3.283  1.00  0.00    -0.744 OA
ENDBRANCH  41  45
ENDBRANCH  24  38
BRANCH  25  49
ATOM     49  C   UNL     1       1.667  -2.743  11.050  1.00  0.00     0.023 A 
ATOM     50  C   UNL     1       2.651  -3.460  11.740  1.00  0.00     0.031 A 
ATOM     51  C   UNL     1       0.408  -3.373  10.905  1.00  0.00     0.131 A 
ATOM     52  C   UNL     1       2.438  -4.807  12.077  1.00  0.00     0.055 A 
ATOM     53  C   UNL     1       0.174  -4.692  11.303  1.00  0.00     0.041 A 
ATOM     54  F   UNL     1      -0.620  -2.714  10.342  1.00  0.00    -0.206 F 
ATOM     55  C   UNL     1       1.208  -5.430  11.861  1.00  0.00     0.022 A 
BRANCH  52  56
ATOM     56  S   UNL     1       3.803  -5.817  12.716  1.00  0.00     0.124 S 
ATOM     57  O   UNL     1       3.180  -6.507  13.842  1.00  0.00    -0.237 OA
ATOM     58  O   UNL     1       4.112  -6.647  11.556  1.00  0.00    -0.237 OA
ATOM     59  O   UNL     1       4.816  -4.828  13.069  1.00  0.00    -0.744 OA
ENDBRANCH  52  56
ENDBRANCH  25  49
BRANCH  37  60
ATOM     60  C   UNL     1       3.862   3.249   9.227  1.00  0.00     0.023 A 
ATOM     61  C   UNL     1       3.312   3.816   8.060  1.00  0.00     0.031 A 
ATOM     62  C   UNL     1       3.553   3.844  10.460  1.00  0.00     0.131 A 
ATOM     63  C   UNL     1       2.552   4.988   8.141  1.00  0.00     0.055 A 
ATOM     64  C   UNL     1       2.736   4.974  10.541  1.00  0.00     0.041 A 
ATOM     65  F   UNL     1       4.082   3.372  11.601  1.00  0.00    -0.206 F 
ATOM     66  C   UNL     1       2.246   5.562   9.378  1.00  0.00     0.022 A 
BRANCH  63  67
ATOM     67  S   UNL     1       2.014   5.855   6.641  1.00  0.00     0.124 S 
ATOM     68  O   UNL     1       0.590   6.064   6.890  1.00  0.00    -0.237 OA
ATOM     69  O   UNL     1       2.836   7.063   6.682  1.00  0.00    -0.237 OA
ATOM     70  O   UNL     1       2.327   4.925   5.560  1.00  0.00    -0.744 OA
ENDBRANCH  63  67
ENDBRANCH  37  60
ENDBRANCH  11  12
ENDBRANCH   4   6
ENDBRANCH   1   2
BRANCH   1  71
ATOM     71  C   UNL     1       4.708   1.488  -1.358  1.00  0.00     0.042 C 
BRANCH  71  72
ATOM     72  C   UNL     1       4.087   2.381  -2.434  1.00  0.00     0.118 C 
BRANCH  72  73
ATOM     73  N   UNL     1       4.886   3.522  -2.836  1.00  0.00    -0.351 N 
ATOM     74  C   UNL     1       5.440   3.842  -4.040  1.00  0.00     0.278 C 
ATOM     75  H   UNL     1       5.057   4.175  -2.119  1.00  0.00     0.163 HD
ATOM     76  O   UNL     1       5.460   5.049  -4.321  1.00  0.00    -0.268 OA
BRANCH  74  77
ATOM     77  C   UNL     1       6.107   2.847  -5.019  1.00  0.00     0.275 C 
ATOM     78  C   UNL     1       5.281   1.731  -5.667  1.00  0.00     0.089 C 
ATOM     79  N   UNL     1       7.263   2.142  -4.422  1.00  0.00    -0.320 N 
ATOM     80  C   UNL     1       6.090   0.425  -5.432  1.00  0.00     0.036 C 
ATOM     81  C   UNL     1       7.515   0.980  -5.270  1.00  0.00     0.270 C 
ATOM     82  H   UNL     1       7.043   1.837  -3.474  1.00  0.00     0.349 HD
ATOM     83  C   UNL     1       5.968  -0.597  -6.570  1.00  0.00     0.074 C 
ATOM     84  C   UNL     1       5.659  -0.309  -4.147  1.00  0.00     0.074 C 
ATOM     85  C   UNL     1       4.568  -1.221  -6.625  1.00  0.00     0.261 C 
ATOM     86  C   UNL     1       4.247  -0.884  -4.252  1.00  0.00     0.261 C 
ATOM     87  N   UNL     1       4.161  -1.835  -5.360  1.00  0.00    -0.346 N 
ATOM     88  H   UNL     1       4.772  -2.629  -5.164  1.00  0.00     0.346 HD
ATOM     89  H   UNL     1       3.191  -2.138  -5.448  1.00  0.00     0.346 HD
BRANCH  79  90
ATOM     90  C   UNL     1       8.431   2.989  -4.161  1.00  0.00     0.302 C 
BRANCH  90  91
ATOM     91  C   UNL     1       8.400   3.415  -2.719  1.00  0.00     0.038 A 
ATOM     92  C   UNL     1       8.408   2.444  -1.682  1.00  0.00     0.012 A 
ATOM     93  C   UNL     1       8.217   4.734  -2.251  1.00  0.00     0.144 A 
ATOM     94  C   UNL     1       8.163   2.739  -0.317  1.00  0.00     0.003 A 
ATOM     95  C   UNL     1       7.951   5.034  -0.847  1.00  0.00     0.135 A 
ATOM     96  N   UNL     1       8.217   5.890  -2.929  1.00  0.00    -0.049 NA
ATOM     97  C   UNL     1       7.894   4.038   0.144  1.00  0.00     0.034 A 
ATOM     98  N   UNL     1       7.763   6.354  -0.729  1.00  0.00    -0.050 NA
ATOM     99  O   UNL     1       7.923   6.873  -2.001  1.00  0.00    -0.243 OA
ENDBRANCH  90  91
ENDBRANCH  79  90
ENDBRANCH  74  77
ENDBRANCH  72  73
ENDBRANCH  71  72
ENDBRANCH   1  71
TORSDOF 15
