REMARK SMILES CC(C)[C@H](NC(N)=O)C(=O)N[C@H](C)C(=O)NCCCNC(=O)c1ccc(-c2c3nc(c(-c4cc(S(=O)(=O)[O-])ccc4F)c4ccc([nH]4)c(-c4cc(S(=O)(=O)[O-])ccc4F)c4nc(c(-c5cc(S(=O)(=O)[O-])ccc5F)c5ccc2[nH]5)C=C4)C=C3)cc1
REMARK SMILES IDX 18 1 17 2 16 3 14 4 15 5 12 7 13 8 11 9 9 10 10 11 4 13 2 14
REMARK SMILES IDX 1 15 3 16 5 17 6 18 7 20 8 21 19 24 20 25 21 26 22 28 23 29
REMARK SMILES IDX 24 30 85 31 25 32 84 33 26 34 27 35 28 36 78 37 29 38 83 39
REMARK SMILES IDX 77 40 79 41 30 42 82 43 76 44 75 45 31 47 63 48 43 49 62 50
REMARK SMILES IDX 44 51 47 52 61 53 80 54 45 55 46 56 60 58 81 59 48 60 32 61
REMARK SMILES IDX 33 62 41 63 34 64 40 65 42 66 39 67 35 68 36 69 37 70 38 71
REMARK SMILES IDX 64 72 65 73 73 74 66 75 72 76 74 77 71 78 67 79 68 80 69 81
REMARK SMILES IDX 70 82 49 83 50 84 58 85 51 86 57 87 59 88 56 89 52 90 53 91
REMARK SMILES IDX 54 92 55 93
REMARK H PARENT 16 6 11 12 5 19 7 22 7 23 20 27 79 46 47 57
REMARK Flexibility Score: inf
ROOT
ATOM      1  C   UNL     1      -2.269   5.680   4.448  1.00  0.00     0.042 C 
ENDROOT
BRANCH   1   2
ATOM      2  C   UNL     1      -0.984   4.959   4.841  1.00  0.00     0.117 C 
BRANCH   2   3
ATOM      3  N   UNL     1      -1.170   3.554   5.179  1.00  0.00    -0.354 N 
ATOM      4  C   UNL     1      -0.901   2.413   4.475  1.00  0.00     0.242 C 
ATOM      5  O   UNL     1      -1.144   1.331   5.018  1.00  0.00    -0.273 OA
ATOM      6  H   UNL     1      -1.556   3.399   6.072  1.00  0.00     0.163 HD
BRANCH   4   7
ATOM      7  C   UNL     1      -0.443   2.463   2.997  1.00  0.00     0.168 C 
ATOM      8  C   UNL     1      -1.668   2.817   2.168  1.00  0.00     0.041 C 
BRANCH   7   9
ATOM      9  N   UNL     1       0.748   3.315   2.882  1.00  0.00    -0.343 N 
ATOM     10  C   UNL     1       1.484   3.818   1.856  1.00  0.00     0.243 C 
ATOM     11  O   UNL     1       2.497   4.454   2.171  1.00  0.00    -0.273 OA
ATOM     12  H   UNL     1       1.098   3.588   3.761  1.00  0.00     0.164 HD
BRANCH  10  13
ATOM     13  C   UNL     1       1.055   3.723   0.380  1.00  0.00     0.175 C 
BRANCH  13  14
ATOM     14  C   UNL     1      -0.030   4.761  -0.028  1.00  0.00     0.015 C 
ATOM     15  C   UNL     1      -0.179   5.954   0.928  1.00  0.00     0.010 C 
ATOM     16  C   UNL     1       0.278   5.343  -1.417  1.00  0.00     0.010 C 
ENDBRANCH  13  14
BRANCH  13  17
ATOM     17  N   UNL     1       0.784   2.300   0.132  1.00  0.00    -0.326 N 
ATOM     18  C   UNL     1      -0.017   1.760  -0.820  1.00  0.00     0.312 C 
ATOM     19  H   UNL     1       1.238   1.662   0.729  1.00  0.00     0.166 HD
ATOM     20  N   UNL     1      -0.102   0.410  -0.709  1.00  0.00    -0.352 N 
ATOM     21  O   UNL     1      -0.664   2.358  -1.658  1.00  0.00    -0.249 OA
ATOM     22  H   UNL     1       0.427  -0.062  -0.026  1.00  0.00     0.161 HD
ATOM     23  H   UNL     1      -0.693  -0.097  -1.312  1.00  0.00     0.161 HD
ENDBRANCH  13  17
ENDBRANCH  10  13
ENDBRANCH   7   9
ENDBRANCH   4   7
ENDBRANCH   2   3
ENDBRANCH   1   2
BRANCH   1  24
ATOM     24  C   UNL     1      -3.261   5.870   5.587  1.00  0.00     0.118 C 
BRANCH  24  25
ATOM     25  N   UNL     1      -2.721   6.682   6.666  1.00  0.00    -0.352 N 
ATOM     26  C   UNL     1      -3.172   7.862   7.203  1.00  0.00     0.251 C 
ATOM     27  H   UNL     1      -1.899   6.329   7.077  1.00  0.00     0.163 HD
ATOM     28  O   UNL     1      -2.439   8.482   7.969  1.00  0.00    -0.269 OA
BRANCH  26  29
ATOM     29  C   UNL     1      -4.509   8.394   6.857  1.00  0.00     0.039 A 
ATOM     30  C   UNL     1      -4.663   9.775   6.700  1.00  0.00     0.014 A 
ATOM     31  C   UNL     1      -5.617   7.553   6.721  1.00  0.00     0.014 A 
ATOM     32  C   UNL     1      -5.908  10.301   6.349  1.00  0.00     0.010 A 
ATOM     33  C   UNL     1      -6.835   8.069   6.287  1.00  0.00     0.010 A 
ATOM     34  C   UNL     1      -6.997   9.450   6.102  1.00  0.00    -0.014 A 
BRANCH  34  35
ATOM     35  C   UNL     1      -8.307   9.988   5.649  1.00  0.00     0.031 A 
ATOM     36  C   UNL     1      -9.537   9.808   6.496  1.00  0.00     0.074 A 
ATOM     37  C   UNL     1      -8.398  10.584   4.444  1.00  0.00     0.049 A 
ATOM     38  N   UNL     1     -10.775  10.145   6.242  1.00  0.00    -0.248 NA
ATOM     39  C   UNL     1      -9.352   9.130   7.788  1.00  0.00     0.031 C 
ATOM     40  C   UNL     1      -7.283  10.780   3.514  1.00  0.00     0.029 A 
ATOM     41  N   UNL     1      -9.474  11.127   3.788  1.00  0.00    -0.354 N 
ATOM     42  C   UNL     1     -11.520   9.709   7.333  1.00  0.00     0.074 A 
ATOM     43  C   UNL     1     -10.600   9.025   8.217  1.00  0.00     0.031 C 
ATOM     44  C   UNL     1      -7.728  11.421   2.423  1.00  0.00     0.029 A 
ATOM     45  C   UNL     1      -9.166  11.634   2.547  1.00  0.00     0.049 A 
ATOM     46  H   UNL     1     -10.381  11.152   4.170  1.00  0.00     0.167 HD
ATOM     47  C   UNL     1     -12.842   9.883   7.583  1.00  0.00     0.034 A 
ATOM     48  C   UNL     1      -9.953  12.191   1.605  1.00  0.00     0.034 A 
ATOM     49  C   UNL     1     -13.741  10.570   6.686  1.00  0.00     0.049 A 
ATOM     50  C   UNL     1     -11.426  12.343   1.885  1.00  0.00     0.074 A 
ATOM     51  C   UNL     1     -15.083  10.858   6.864  1.00  0.00     0.029 A 
ATOM     52  N   UNL     1     -13.396  11.061   5.432  1.00  0.00    -0.354 N 
ATOM     53  N   UNL     1     -12.106  11.980   2.949  1.00  0.00    -0.248 NA
ATOM     54  C   UNL     1     -12.234  12.988   0.844  1.00  0.00     0.031 C 
ATOM     55  C   UNL     1     -15.568  11.441   5.689  1.00  0.00     0.029 A 
ATOM     56  C   UNL     1     -14.510  11.608   4.809  1.00  0.00     0.049 A 
ATOM     57  H   UNL     1     -12.493  11.026   5.042  1.00  0.00     0.167 HD
ATOM     58  C   UNL     1     -13.419  12.377   2.714  1.00  0.00     0.074 A 
ATOM     59  C   UNL     1     -13.430  13.021   1.415  1.00  0.00     0.031 C 
ATOM     60  C   UNL     1     -14.515  12.228   3.503  1.00  0.00     0.034 A 
BRANCH  47  61
ATOM     61  C   UNL     1     -13.393   9.286   8.860  1.00  0.00     0.023 A 
ATOM     62  C   UNL     1     -12.914   9.671  10.125  1.00  0.00     0.031 A 
ATOM     63  C   UNL     1     -14.380   8.285   8.811  1.00  0.00     0.131 A 
ATOM     64  C   UNL     1     -13.349   8.995  11.276  1.00  0.00     0.055 A 
ATOM     65  C   UNL     1     -14.879   7.684   9.969  1.00  0.00     0.041 A 
ATOM     66  F   UNL     1     -14.863   7.856   7.635  1.00  0.00    -0.206 F 
ATOM     67  C   UNL     1     -14.348   8.023  11.210  1.00  0.00     0.022 A 
BRANCH  64  68
ATOM     68  S   UNL     1     -12.458   9.277  12.831  1.00  0.00     0.124 S 
ATOM     69  O   UNL     1     -11.087   8.941  12.451  1.00  0.00    -0.237 OA
ATOM     70  O   UNL     1     -12.721  10.687  13.094  1.00  0.00    -0.237 OA
ATOM     71  O   UNL     1     -13.085   8.339  13.761  1.00  0.00    -0.744 OA
ENDBRANCH  64  68
ENDBRANCH  47  61
BRANCH  48  72
ATOM     72  C   UNL     1      -9.368  12.629   0.306  1.00  0.00     0.023 A 
ATOM     73  C   UNL     1      -9.345  13.983  -0.063  1.00  0.00     0.031 A 
ATOM     74  C   UNL     1      -8.830  11.691  -0.595  1.00  0.00     0.131 A 
ATOM     75  C   UNL     1      -8.828  14.359  -1.313  1.00  0.00     0.055 A 
ATOM     76  C   UNL     1      -8.267  12.075  -1.813  1.00  0.00     0.041 A 
ATOM     77  F   UNL     1      -8.823  10.384  -0.289  1.00  0.00    -0.206 F 
ATOM     78  C   UNL     1      -8.273  13.416  -2.183  1.00  0.00     0.022 A 
BRANCH  75  79
ATOM     79  S   UNL     1      -8.951  16.096  -1.819  1.00  0.00     0.124 S 
ATOM     80  O   UNL     1     -10.393  16.313  -1.787  1.00  0.00    -0.237 OA
ATOM     81  O   UNL     1      -8.177  16.770  -0.782  1.00  0.00    -0.237 OA
ATOM     82  O   UNL     1      -8.347  16.106  -3.150  1.00  0.00    -0.744 OA
ENDBRANCH  75  79
ENDBRANCH  48  72
BRANCH  60  83
ATOM     83  C   UNL     1     -15.813  12.810   2.994  1.00  0.00     0.023 A 
ATOM     84  C   UNL     1     -16.451  12.313   1.843  1.00  0.00     0.031 A 
ATOM     85  C   UNL     1     -16.418  13.886   3.669  1.00  0.00     0.131 A 
ATOM     86  C   UNL     1     -17.621  12.927   1.371  1.00  0.00     0.055 A 
ATOM     87  C   UNL     1     -17.619  14.448   3.234  1.00  0.00     0.041 A 
ATOM     88  F   UNL     1     -15.852  14.408   4.769  1.00  0.00    -0.206 F 
ATOM     89  C   UNL     1     -18.220  13.978   2.070  1.00  0.00     0.022 A 
BRANCH  86  90
ATOM     90  S   UNL     1     -18.295  12.403  -0.230  1.00  0.00     0.124 S 
ATOM     91  O   UNL     1     -17.170  12.649  -1.126  1.00  0.00    -0.237 OA
ATOM     92  O   UNL     1     -18.623  11.003   0.013  1.00  0.00    -0.237 OA
ATOM     93  O   UNL     1     -19.445  13.285  -0.423  1.00  0.00    -0.744 OA
ENDBRANCH  86  90
ENDBRANCH  60  83
ENDBRANCH  34  35
ENDBRANCH  26  29
ENDBRANCH  24  25
ENDBRANCH   1  24
TORSDOF 17
