REMARK SMILES Cc1cc(=O)oc2c(C[N@@H+]3CCC[C@H]3C(=O)NCCCNC(=O)c3ccc(-c4c5nc(c(-c6cc(S(=O)(=O)[O-])ccc6F)c6ccc([nH]6)c(-c6cc(S(=O)(=O)[O-])ccc6F)c6nc(c(-c7cc(S(=O)(=O)[O-])ccc7F)c7ccc4[nH]7)C=C6)C=C5)cc3)c(O)ccc12
REMARK SMILES IDX 19 1 18 2 17 3 15 4 16 5 14 7 10 8 11 9 12 11 13 12 9 13
REMARK SMILES IDX 8 14 1 15 2 16 3 17 91 18 4 19 7 20 90 21 5 22 6 23 89 24
REMARK SMILES IDX 87 25 88 26 20 28 21 29 22 30 23 32 24 33 25 34 86 35 26 36
REMARK SMILES IDX 85 37 27 38 28 39 29 40 79 41 30 42 84 43 78 44 80 45 31 46
REMARK SMILES IDX 83 47 77 48 76 49 32 51 64 52 44 53 63 54 45 55 48 56 62 57
REMARK SMILES IDX 81 58 46 59 47 60 61 62 82 63 49 64 33 65 34 66 42 67 35 68
REMARK SMILES IDX 41 69 43 70 40 71 36 72 37 73 38 74 39 75 65 76 66 77 74 78
REMARK SMILES IDX 67 79 73 80 75 81 72 82 68 83 69 84 70 85 71 86 50 87 51 88
REMARK SMILES IDX 59 89 52 90 58 91 60 92 57 93 53 94 54 95 55 96 56 97
REMARK H PARENT 17 6 10 10 88 27 21 31 80 50 48 61
REMARK Flexibility Score: inf
ROOT
ATOM      1  C   UNL     1       1.515  -1.833   6.274  1.00  0.00     0.042 C 
ENDROOT
BRANCH   1   2
ATOM      2  C   UNL     1       2.527  -2.272   5.213  1.00  0.00     0.118 C 
BRANCH   2   3
ATOM      3  N   UNL     1       2.220  -3.553   4.596  1.00  0.00    -0.351 N 
ATOM      4  C   UNL     1       1.724  -3.840   3.349  1.00  0.00     0.278 C 
ATOM      5  O   UNL     1       1.654  -5.032   3.040  1.00  0.00    -0.268 OA
ATOM      6  H   UNL     1       2.395  -4.338   5.163  1.00  0.00     0.163 HD
BRANCH   4   7
ATOM      7  C   UNL     1       1.302  -2.674   2.414  1.00  0.00     0.274 C 
ATOM      8  N   UNL     1       0.775  -3.192   1.134  1.00  0.00    -0.321 N 
ATOM      9  C   UNL     1      -0.677  -3.252   1.257  1.00  0.00     0.263 C 
ATOM     10  H   UNL     1       1.137  -4.134   0.987  1.00  0.00     0.349 HD
ATOM     11  C   UNL     1      -1.063  -2.095   2.153  1.00  0.00     0.068 C 
ATOM     12  C   UNL     1       0.144  -1.895   3.045  1.00  0.00     0.081 C 
BRANCH   8  13
ATOM     13  C   UNL     1       1.307  -2.589  -0.097  1.00  0.00     0.307 C 
BRANCH  13  14
ATOM     14  C   UNL     1       1.317  -1.076  -0.201  1.00  0.00     0.091 A 
ATOM     15  C   UNL     1      -1.459   3.152  -0.168  1.00  0.00     0.045 C 
ATOM     16  C   UNL     1      -1.255   1.691  -0.446  1.00  0.00    -0.033 A 
ATOM     17  C   UNL     1      -2.324   0.925  -0.710  1.00  0.00     0.098 A 
ATOM     18  C   UNL     1       0.069   1.050  -0.365  1.00  0.00     0.021 A 
ATOM     19  C   UNL     1      -2.249  -0.520  -0.959  1.00  0.00     0.336 A 
ATOM     20  C   UNL     1       0.147  -0.346  -0.479  1.00  0.00     0.151 A 
ATOM     21  C   UNL     1       1.258   1.740  -0.110  1.00  0.00     0.016 A 
ATOM     22  O   UNL     1      -3.250  -1.171  -1.213  1.00  0.00    -0.246 OA
ATOM     23  O   UNL     1      -0.991  -1.086  -0.877  1.00  0.00    -0.422 OA
ATOM     24  C   UNL     1       2.466   1.054   0.048  1.00  0.00     0.047 A 
ATOM     25  C   UNL     1       2.486  -0.339   0.020  1.00  0.00     0.128 A 
BRANCH  25  26
ATOM     26  O   UNL     1       3.667  -0.997   0.217  1.00  0.00    -0.507 OA
ATOM     27  H   UNL     1       3.691  -1.933   0.200  1.00  0.00     0.293 HD
ENDBRANCH  25  26
ENDBRANCH  13  14
ENDBRANCH   8  13
ENDBRANCH   4   7
ENDBRANCH   2   3
ENDBRANCH   1   2
BRANCH   1  28
ATOM     28  C   UNL     1       1.342  -2.804   7.436  1.00  0.00     0.118 C 
BRANCH  28  29
ATOM     29  N   UNL     1       2.503  -2.823   8.307  1.00  0.00    -0.352 N 
ATOM     30  C   UNL     1       2.613  -2.496   9.637  1.00  0.00     0.251 C 
ATOM     31  H   UNL     1       3.340  -3.114   7.879  1.00  0.00     0.163 HD
ATOM     32  O   UNL     1       3.736  -2.341  10.113  1.00  0.00    -0.269 OA
BRANCH  30  33
ATOM     33  C   UNL     1       1.412  -2.312  10.489  1.00  0.00     0.039 A 
ATOM     34  C   UNL     1       1.438  -1.322  11.476  1.00  0.00     0.014 A 
ATOM     35  C   UNL     1       0.289  -3.137  10.372  1.00  0.00     0.014 A 
ATOM     36  C   UNL     1       0.331  -1.133  12.311  1.00  0.00     0.010 A 
ATOM     37  C   UNL     1      -0.843  -2.899  11.154  1.00  0.00     0.010 A 
ATOM     38  C   UNL     1      -0.830  -1.903  12.143  1.00  0.00    -0.014 A 
BRANCH  38  39
ATOM     39  C   UNL     1      -2.023  -1.695  13.010  1.00  0.00     0.031 A 
ATOM     40  C   UNL     1      -2.492  -2.792  13.931  1.00  0.00     0.074 A 
ATOM     41  C   UNL     1      -2.707  -0.536  12.943  1.00  0.00     0.049 A 
ATOM     42  N   UNL     1      -3.532  -2.820  14.726  1.00  0.00    -0.248 NA
ATOM     43  C   UNL     1      -1.701  -4.031  13.938  1.00  0.00     0.031 C 
ATOM     44  C   UNL     1      -2.376   0.589  12.065  1.00  0.00     0.029 A 
ATOM     45  N   UNL     1      -3.824  -0.109  13.618  1.00  0.00    -0.354 N 
ATOM     46  C   UNL     1      -3.529  -4.080  15.316  1.00  0.00     0.074 A 
ATOM     47  C   UNL     1      -2.418  -4.806  14.738  1.00  0.00     0.031 C 
ATOM     48  C   UNL     1      -3.252   1.584  12.275  1.00  0.00     0.029 A 
ATOM     49  C   UNL     1      -4.234   1.157  13.267  1.00  0.00     0.049 A 
ATOM     50  H   UNL     1      -4.288  -0.658  14.291  1.00  0.00     0.167 HD
ATOM     51  C   UNL     1      -4.359  -4.578  16.267  1.00  0.00     0.034 A 
ATOM     52  C   UNL     1      -5.285   1.888  13.689  1.00  0.00     0.034 A 
ATOM     53  C   UNL     1      -5.455  -3.837  16.844  1.00  0.00     0.049 A 
ATOM     54  C   UNL     1      -6.204   1.309  14.736  1.00  0.00     0.074 A 
ATOM     55  C   UNL     1      -6.328  -4.227  17.846  1.00  0.00     0.029 A 
ATOM     56  N   UNL     1      -5.836  -2.555  16.466  1.00  0.00    -0.354 N 
ATOM     57  N   UNL     1      -6.158   0.132  15.316  1.00  0.00    -0.248 NA
ATOM     58  C   UNL     1      -7.305   2.164  15.195  1.00  0.00     0.031 C 
ATOM     59  C   UNL     1      -7.273  -3.211  18.027  1.00  0.00     0.029 A 
ATOM     60  C   UNL     1      -6.944  -2.151  17.196  1.00  0.00     0.049 A 
ATOM     61  H   UNL     1      -5.384  -2.012  15.780  1.00  0.00     0.167 HD
ATOM     62  C   UNL     1      -7.203   0.122  16.236  1.00  0.00     0.074 A 
ATOM     63  C   UNL     1      -7.852   1.414  16.140  1.00  0.00     0.031 C 
ATOM     64  C   UNL     1      -7.587  -0.862  17.088  1.00  0.00     0.034 A 
BRANCH  51  65
ATOM     65  C   UNL     1      -4.122  -6.001  16.721  1.00  0.00     0.023 A 
ATOM     66  C   UNL     1      -2.925  -6.387  17.350  1.00  0.00     0.031 A 
ATOM     67  C   UNL     1      -5.096  -6.992  16.500  1.00  0.00     0.131 A 
ATOM     68  C   UNL     1      -2.699  -7.737  17.661  1.00  0.00     0.055 A 
ATOM     69  C   UNL     1      -4.899  -8.319  16.890  1.00  0.00     0.041 A 
ATOM     70  F   UNL     1      -6.252  -6.690  15.888  1.00  0.00    -0.206 F 
ATOM     71  C   UNL     1      -3.688  -8.701  17.459  1.00  0.00     0.022 A 
BRANCH  68  72
ATOM     72  S   UNL     1      -1.039  -8.236  18.194  1.00  0.00     0.124 S 
ATOM     73  O   UNL     1      -0.225  -7.812  17.057  1.00  0.00    -0.237 OA
ATOM     74  O   UNL     1      -0.861  -7.476  19.426  1.00  0.00    -0.237 OA
ATOM     75  O   UNL     1      -1.153  -9.683  18.363  1.00  0.00    -0.744 OA
ENDBRANCH  68  72
ENDBRANCH  51  65
BRANCH  52  76
ATOM     76  C   UNL     1      -5.535   3.246  13.124  1.00  0.00     0.023 A 
ATOM     77  C   UNL     1      -5.457   4.392  13.932  1.00  0.00     0.031 A 
ATOM     78  C   UNL     1      -5.895   3.414  11.775  1.00  0.00     0.131 A 
ATOM     79  C   UNL     1      -5.781   5.649  13.397  1.00  0.00     0.055 A 
ATOM     80  C   UNL     1      -6.164   4.672  11.235  1.00  0.00     0.041 A 
ATOM     81  F   UNL     1      -5.978   2.353  10.957  1.00  0.00    -0.206 F 
ATOM     82  C   UNL     1      -6.121   5.798  12.051  1.00  0.00     0.022 A 
BRANCH  79  83
ATOM     83  S   UNL     1      -5.833   7.080  14.511  1.00  0.00     0.124 S 
ATOM     84  O   UNL     1      -6.817   6.652  15.498  1.00  0.00    -0.237 OA
ATOM     85  O   UNL     1      -4.450   7.154  14.971  1.00  0.00    -0.237 OA
ATOM     86  O   UNL     1      -6.257   8.173  13.639  1.00  0.00    -0.744 OA
ENDBRANCH  79  83
ENDBRANCH  52  76
BRANCH  64  87
ATOM     87  C   UNL     1      -8.731  -0.553  18.025  1.00  0.00     0.023 A 
ATOM     88  C   UNL     1     -10.039  -0.338  17.557  1.00  0.00     0.031 A 
ATOM     89  C   UNL     1      -8.500  -0.460  19.409  1.00  0.00     0.131 A 
ATOM     90  C   UNL     1     -11.053   0.020  18.459  1.00  0.00     0.055 A 
ATOM     91  C   UNL     1      -9.526  -0.166  20.308  1.00  0.00     0.041 A 
ATOM     92  F   UNL     1      -7.270  -0.653  19.912  1.00  0.00    -0.206 F 
ATOM     93  C   UNL     1     -10.808   0.090  19.833  1.00  0.00     0.022 A 
BRANCH  90  94
ATOM     94  S   UNL     1     -12.678   0.488  17.802  1.00  0.00     0.124 S 
ATOM     95  O   UNL     1     -12.339   1.595  16.914  1.00  0.00    -0.237 OA
ATOM     96  O   UNL     1     -13.117  -0.741  17.151  1.00  0.00    -0.237 OA
ATOM     97  O   UNL     1     -13.436   0.861  18.996  1.00  0.00    -0.744 OA
ENDBRANCH  90  94
ENDBRANCH  64  87
ENDBRANCH  38  39
ENDBRANCH  30  33
ENDBRANCH  28  29
ENDBRANCH   1  28
TORSDOF 16
