REMARK SMILES CCc1cccc(CC)c1N1/C(=[NH+]/C(=O)CCCC(=O)NCCCNC(=O)c2ccc(-c3c4nc(c(-c5cc(S(=O)(=O)[O-])ccc5F)c5ccc([nH]5)c(-c5cc(S(=O)(=O)[O-])ccc5F)c5nc(c(-c6cc(S(=O)(=O)[O-])ccc6F)c6ccc3[nH]6)C=C5)C=C4)cc2)S[C@@H]2CS(=O)(=O)C[C@@H]21
REMARK SMILES IDX 22 1 21 2 19 3 20 4 18 6 17 7 16 8 14 9 11 10 12 11 98 12
REMARK SMILES IDX 13 13 91 14 92 15 97 16 93 18 94 19 15 20 95 21 96 22 10 23
REMARK SMILES IDX 3 24 4 25 5 26 7 27 6 28 2 29 1 30 8 31 9 32 23 33 24 34
REMARK SMILES IDX 25 35 26 36 27 38 28 39 29 40 90 41 30 42 89 43 31 44 32 45
REMARK SMILES IDX 33 46 83 47 34 48 88 49 82 50 84 51 35 52 87 53 81 54 80 55
REMARK SMILES IDX 36 57 68 58 48 59 67 60 49 61 52 62 66 63 85 64 50 65 51 66
REMARK SMILES IDX 65 68 86 69 53 70 37 71 38 72 46 73 39 74 45 75 47 76 44 77
REMARK SMILES IDX 40 78 41 79 42 80 43 81 69 82 70 83 78 84 71 85 77 86 79 87
REMARK SMILES IDX 76 88 72 89 73 90 74 91 75 92 54 93 55 94 63 95 56 96 62 97
REMARK SMILES IDX 64 98 61 99 57 100 58 101 59 102 60 103
REMARK H PARENT 21 5 13 17 25 37 84 56 52 67
REMARK Flexibility Score: inf
ROOT
ATOM      1  C   UNL     1       0.865  -1.345   3.076  1.00  0.00     0.117 C 
ENDROOT
BRANCH   1   2
ATOM      2  N   UNL     1      -0.574  -1.337   3.195  1.00  0.00    -0.356 N 
ATOM      3  C   UNL     1      -1.452  -0.459   2.636  1.00  0.00     0.220 C 
ATOM      4  O   UNL     1      -2.638  -0.525   2.964  1.00  0.00    -0.275 OA
ATOM      5  H   UNL     1      -0.967  -2.051   3.747  1.00  0.00     0.163 HD
BRANCH   3   6
ATOM      6  C   UNL     1      -0.985   0.479   1.535  1.00  0.00     0.100 C 
BRANCH   6   7
ATOM      7  C   UNL     1      -0.368   1.840   1.875  1.00  0.00     0.022 C 
BRANCH   7   8
ATOM      8  C   UNL     1       1.079   2.009   2.349  1.00  0.00     0.128 C 
BRANCH   8   9
ATOM      9  C   UNL     1       2.295   1.719   1.458  1.00  0.00     0.307 C 
ATOM     10  N   UNL     1       3.313  -0.875  -0.935  1.00  0.00    -0.216 N 
ATOM     11  C   UNL     1       3.310   0.121   0.055  1.00  0.00     0.319 C 
ATOM     12  C   UNL     1       4.502  -0.895  -1.823  1.00  0.00     0.212 C 
ATOM     13  N   UNL     1       2.298   0.531   0.756  1.00  0.00    -0.204 N 
ATOM     14  S   UNL     1       4.952   0.817   0.109  1.00  0.00    -0.029 SA
ATOM     15  C   UNL     1       5.229   0.442  -1.632  1.00  0.00     0.120 C 
ATOM     16  C   UNL     1       4.198  -1.048  -3.307  1.00  0.00     0.188 C 
ATOM     17  H   UNL     1       1.492  -0.034   0.788  1.00  0.00     0.316 HD
ATOM     18  C   UNL     1       4.571   1.485  -2.518  1.00  0.00     0.156 C 
ATOM     19  S   UNL     1       4.154   0.590  -3.992  1.00  0.00     0.155 S 
ATOM     20  O   UNL     1       3.171   2.582   1.407  1.00  0.00    -0.247 OA
ATOM     21  O   UNL     1       2.802   0.907  -4.382  1.00  0.00    -0.229 OA
ATOM     22  O   UNL     1       5.269   0.711  -4.916  1.00  0.00    -0.229 OA
BRANCH  10  23
ATOM     23  C   UNL     1       2.425  -1.977  -1.012  1.00  0.00     0.134 A 
ATOM     24  C   UNL     1       1.110  -1.838  -1.546  1.00  0.00    -0.001 A 
ATOM     25  C   UNL     1       0.312  -3.001  -1.716  1.00  0.00     0.008 A 
ATOM     26  C   UNL     1       0.781  -4.274  -1.444  1.00  0.00     0.001 A 
ATOM     27  C   UNL     1       2.885  -3.307  -0.690  1.00  0.00    -0.001 A 
ATOM     28  C   UNL     1       2.065  -4.424  -0.960  1.00  0.00     0.008 A 
BRANCH  24  29
ATOM     29  C   UNL     1       0.475  -0.616  -2.199  1.00  0.00     0.036 C 
ATOM     30  C   UNL     1       0.688   0.797  -1.711  1.00  0.00     0.009 C 
ENDBRANCH  24  29
BRANCH  27  31
ATOM     31  C   UNL     1       4.273  -3.630  -0.145  1.00  0.00     0.036 C 
ATOM     32  C   UNL     1       4.315  -4.647   0.996  1.00  0.00     0.009 C 
ENDBRANCH  27  31
ENDBRANCH  10  23
ENDBRANCH   8   9
ENDBRANCH   7   8
ENDBRANCH   6   7
ENDBRANCH   3   6
ENDBRANCH   1   2
BRANCH   1  33
ATOM     33  C   UNL     1       1.491  -0.654   4.275  1.00  0.00     0.042 C 
BRANCH  33  34
ATOM     34  C   UNL     1       1.701  -1.586   5.442  1.00  0.00     0.118 C 
BRANCH  34  35
ATOM     35  N   UNL     1       2.844  -2.456   5.233  1.00  0.00    -0.352 N 
ATOM     36  C   UNL     1       3.943  -2.646   6.035  1.00  0.00     0.251 C 
ATOM     37  H   UNL     1       2.830  -2.982   4.401  1.00  0.00     0.163 HD
ATOM     38  O   UNL     1       4.907  -3.266   5.593  1.00  0.00    -0.269 OA
BRANCH  36  39
ATOM     39  C   UNL     1       3.973  -2.072   7.402  1.00  0.00     0.039 A 
ATOM     40  C   UNL     1       5.175  -1.559   7.893  1.00  0.00     0.014 A 
ATOM     41  C   UNL     1       2.822  -2.021   8.193  1.00  0.00     0.014 A 
ATOM     42  C   UNL     1       5.205  -0.952   9.151  1.00  0.00     0.010 A 
ATOM     43  C   UNL     1       2.826  -1.302   9.383  1.00  0.00     0.010 A 
ATOM     44  C   UNL     1       4.024  -0.785   9.892  1.00  0.00    -0.014 A 
BRANCH  44  45
ATOM     45  C   UNL     1       4.028  -0.111  11.217  1.00  0.00     0.031 A 
ATOM     46  C   UNL     1       3.560  -0.858  12.439  1.00  0.00     0.074 A 
ATOM     47  C   UNL     1       4.394   1.182  11.311  1.00  0.00     0.049 A 
ATOM     48  N   UNL     1       3.432  -0.435  13.671  1.00  0.00    -0.248 NA
ATOM     49  C   UNL     1       3.139  -2.253  12.241  1.00  0.00     0.031 C 
ATOM     50  C   UNL     1       4.805   2.027  10.187  1.00  0.00     0.029 A 
ATOM     51  N   UNL     1       4.474   2.016  12.397  1.00  0.00    -0.354 N 
ATOM     52  C   UNL     1       2.897  -1.503  14.384  1.00  0.00     0.074 A 
ATOM     53  C   UNL     1       2.650  -2.561  13.430  1.00  0.00     0.031 C 
ATOM     54  C   UNL     1       5.121   3.247  10.646  1.00  0.00     0.029 A 
ATOM     55  C   UNL     1       4.886   3.291  12.086  1.00  0.00     0.049 A 
ATOM     56  H   UNL     1       4.256   1.729  13.313  1.00  0.00     0.167 HD
ATOM     57  C   UNL     1       2.661  -1.603  15.716  1.00  0.00     0.034 A 
ATOM     58  C   UNL     1       5.040   4.379  12.867  1.00  0.00     0.034 A 
ATOM     59  C   UNL     1       2.929  -0.537  16.650  1.00  0.00     0.049 A 
ATOM     60  C   UNL     1       4.766   4.254  14.343  1.00  0.00     0.074 A 
ATOM     61  C   UNL     1       2.805  -0.547  18.028  1.00  0.00     0.029 A 
ATOM     62  N   UNL     1       3.357   0.739  16.300  1.00  0.00    -0.354 N 
ATOM     63  N   UNL     1       4.338   3.211  15.018  1.00  0.00    -0.248 NA
ATOM     64  C   UNL     1       5.009   5.446  15.165  1.00  0.00     0.031 C 
ATOM     65  C   UNL     1       3.070   0.742  18.500  1.00  0.00     0.029 A 
ATOM     66  C   UNL     1       3.456   1.536  17.431  1.00  0.00     0.049 A 
ATOM     67  H   UNL     1       3.560   1.034  15.383  1.00  0.00     0.167 HD
ATOM     68  C   UNL     1       4.282   3.616  16.349  1.00  0.00     0.074 A 
ATOM     69  C   UNL     1       4.739   4.992  16.380  1.00  0.00     0.031 C 
ATOM     70  C   UNL     1       3.893   2.915  17.445  1.00  0.00     0.034 A 
BRANCH  57  71
ATOM     71  C   UNL     1       2.053  -2.894  16.221  1.00  0.00     0.023 A 
ATOM     72  C   UNL     1       2.688  -4.137  16.038  1.00  0.00     0.031 A 
ATOM     73  C   UNL     1       0.793  -2.892  16.844  1.00  0.00     0.131 A 
ATOM     74  C   UNL     1       2.020  -5.324  16.375  1.00  0.00     0.055 A 
ATOM     75  C   UNL     1       0.177  -4.071  17.270  1.00  0.00     0.041 A 
ATOM     76  F   UNL     1       0.122  -1.743  17.028  1.00  0.00    -0.206 F 
ATOM     77  C   UNL     1       0.780  -5.299  17.016  1.00  0.00     0.022 A 
BRANCH  74  78
ATOM     78  S   UNL     1       2.706  -6.898  15.787  1.00  0.00     0.124 S 
ATOM     79  O   UNL     1       2.785  -6.667  14.347  1.00  0.00    -0.237 OA
ATOM     80  O   UNL     1       3.980  -6.970  16.494  1.00  0.00    -0.237 OA
ATOM     81  O   UNL     1       1.707  -7.883  16.197  1.00  0.00    -0.744 OA
ENDBRANCH  74  78
ENDBRANCH  57  71
BRANCH  58  82
ATOM     82  C   UNL     1       5.450   5.680  12.262  1.00  0.00     0.023 A 
ATOM     83  C   UNL     1       6.679   6.281  12.575  1.00  0.00     0.031 A 
ATOM     84  C   UNL     1       4.602   6.347  11.357  1.00  0.00     0.131 A 
ATOM     85  C   UNL     1       7.012   7.525  12.014  1.00  0.00     0.055 A 
ATOM     86  C   UNL     1       4.961   7.556  10.760  1.00  0.00     0.041 A 
ATOM     87  F   UNL     1       3.416   5.814  11.021  1.00  0.00    -0.206 F 
ATOM     88  C   UNL     1       6.170   8.157  11.096  1.00  0.00     0.022 A 
BRANCH  85  89
ATOM     89  S   UNL     1       8.537   8.346  12.553  1.00  0.00     0.124 S 
ATOM     90  O   UNL     1       8.313   8.477  13.988  1.00  0.00    -0.237 OA
ATOM     91  O   UNL     1       9.559   7.385  12.149  1.00  0.00    -0.237 OA
ATOM     92  O   UNL     1       8.533   9.600  11.803  1.00  0.00    -0.744 OA
ENDBRANCH  85  89
ENDBRANCH  58  82
BRANCH  70  93
ATOM     93  C   UNL     1       3.981   3.618  18.779  1.00  0.00     0.023 A 
ATOM     94  C   UNL     1       3.185   4.737  19.083  1.00  0.00     0.031 A 
ATOM     95  C   UNL     1       4.880   3.162  19.761  1.00  0.00     0.131 A 
ATOM     96  C   UNL     1       3.347   5.397  20.311  1.00  0.00     0.055 A 
ATOM     97  C   UNL     1       4.984   3.779  21.008  1.00  0.00     0.041 A 
ATOM     98  F   UNL     1       5.670   2.102  19.525  1.00  0.00    -0.206 F 
ATOM     99  C   UNL     1       4.225   4.912  21.283  1.00  0.00     0.022 A 
BRANCH  96 100
ATOM    100  S   UNL     1       2.474   6.964  20.578  1.00  0.00     0.124 S 
ATOM    101  O   UNL     1       2.959   7.774  19.466  1.00  0.00    -0.237 OA
ATOM    102  O   UNL     1       1.074   6.558  20.509  1.00  0.00    -0.237 OA
ATOM    103  O   UNL     1       2.930   7.389  21.900  1.00  0.00    -0.744 OA
ENDBRANCH  96 100
ENDBRANCH  70  93
ENDBRANCH  44  45
ENDBRANCH  36  39
ENDBRANCH  34  35
ENDBRANCH  33  34
ENDBRANCH   1  33
TORSDOF 19
