REMARK SMILES CC(C)C[C@H](NC(=O)[C@@H](NC(=O)[C@H](C)NC(=O)CNC(=O)OCc1ccccc1)C(C)C)C(=O)NCCCNC(=O)c1ccc(-c2c3nc(c(-c4cc(S(=O)(=O)[O-])ccc4F)c4ccc([nH]4)c(-c4cc(S(=O)(=O)[O-])ccc4F)c4nc(c(-c5cc(S(=O)(=O)[O-])ccc5F)c5ccc2[nH]5)C=C4)C=C3)cc1
REMARK SMILES IDX 6 1 7 2 8 3 5 5 4 6 2 7 1 8 3 9 33 10 34 11 35 12 36 14
REMARK SMILES IDX 37 15 38 16 39 17 40 18 41 20 42 21 43 22 104 23 44 24
REMARK SMILES IDX 103 25 45 26 46 27 47 28 97 29 48 30 102 31 96 32 98 33
REMARK SMILES IDX 49 34 101 35 95 36 94 37 50 39 82 40 62 41 81 42 63 43 66 44
REMARK SMILES IDX 80 45 99 46 64 47 65 48 79 50 100 51 67 52 51 53 52 54 60 55
REMARK SMILES IDX 53 56 59 57 61 58 58 59 54 60 55 61 56 62 57 63 83 64 84 65
REMARK SMILES IDX 92 66 85 67 91 68 93 69 90 70 86 71 87 72 88 73 89 74 68 75
REMARK SMILES IDX 69 76 77 77 70 78 76 79 78 80 75 81 71 82 72 83 73 84 74 85
REMARK SMILES IDX 9 86 10 87 11 88 12 90 13 91 14 92 15 93 16 94 17 96 18 97
REMARK SMILES IDX 19 98 20 99 21 101 22 102 23 103 24 104 25 105 29 106 26 107
REMARK SMILES IDX 28 108 27 109 30 110 31 111 32 112
REMARK H PARENT 6 4 35 13 39 19 98 38 66 49 10 89 15 95 19 100
REMARK Flexibility Score: inf
ROOT
ATOM      1  N   UNL     1      -3.872   4.849   0.548  1.00  0.00    -0.343 N 
ATOM      2  C   UNL     1      -4.718   4.591   1.583  1.00  0.00     0.243 C 
ATOM      3  O   UNL     1      -4.531   5.272   2.600  1.00  0.00    -0.273 OA
ATOM      4  H   UNL     1      -3.197   5.541   0.734  1.00  0.00     0.164 HD
ENDROOT
BRANCH   1   5
ATOM      5  C   UNL     1      -3.798   4.275  -0.783  1.00  0.00     0.171 C 
BRANCH   5   6
ATOM      6  C   UNL     1      -2.946   5.070  -1.795  1.00  0.00     0.038 C 
BRANCH   6   7
ATOM      7  C   UNL     1      -3.723   5.995  -2.752  1.00  0.00    -0.015 C 
ATOM      8  C   UNL     1      -4.187   7.269  -2.053  1.00  0.00     0.007 C 
ATOM      9  C   UNL     1      -2.819   6.349  -3.941  1.00  0.00     0.007 C 
ENDBRANCH   6   7
ENDBRANCH   5   6
BRANCH   5  10
ATOM     10  C   UNL     1      -3.271   2.836  -0.699  1.00  0.00     0.242 C 
ATOM     11  O   UNL     1      -4.041   1.878  -0.696  1.00  0.00    -0.273 OA
ATOM     12  N   UNL     1      -1.969   2.520  -0.566  1.00  0.00    -0.354 N 
ATOM     13  H   UNL     1      -1.724   1.629  -0.906  1.00  0.00     0.163 HD
BRANCH  12  14
ATOM     14  C   UNL     1      -0.874   3.274  -0.004  1.00  0.00     0.117 C 
BRANCH  14  15
ATOM     15  C   UNL     1      -0.721   2.993   1.485  1.00  0.00     0.042 C 
BRANCH  15  16
ATOM     16  C   UNL     1      -0.830   1.515   1.852  1.00  0.00     0.118 C 
BRANCH  16  17
ATOM     17  N   UNL     1       0.178   0.709   1.180  1.00  0.00    -0.352 N 
ATOM     18  C   UNL     1       1.289   0.098   1.706  1.00  0.00     0.251 C 
ATOM     19  H   UNL     1       0.045   0.584   0.212  1.00  0.00     0.163 HD
ATOM     20  O   UNL     1       2.166  -0.320   0.958  1.00  0.00    -0.269 OA
BRANCH  18  21
ATOM     21  C   UNL     1       1.422  -0.020   3.170  1.00  0.00     0.039 A 
ATOM     22  C   UNL     1       2.631   0.329   3.771  1.00  0.00     0.014 A 
ATOM     23  C   UNL     1       0.346  -0.463   3.946  1.00  0.00     0.014 A 
ATOM     24  C   UNL     1       2.743   0.288   5.162  1.00  0.00     0.010 A 
ATOM     25  C   UNL     1       0.432  -0.419   5.332  1.00  0.00     0.010 A 
ATOM     26  C   UNL     1       1.635  -0.054   5.956  1.00  0.00    -0.014 A 
BRANCH  26  27
ATOM     27  C   UNL     1       1.725  -0.064   7.439  1.00  0.00     0.031 A 
ATOM     28  C   UNL     1       1.528  -1.352   8.191  1.00  0.00     0.074 A 
ATOM     29  C   UNL     1       1.935   1.088   8.107  1.00  0.00     0.049 A 
ATOM     30  N   UNL     1       1.492  -1.560   9.481  1.00  0.00    -0.248 NA
ATOM     31  C   UNL     1       1.316  -2.562   7.381  1.00  0.00     0.031 C 
ATOM     32  C   UNL     1       2.115   2.403   7.488  1.00  0.00     0.029 A 
ATOM     33  N   UNL     1       2.028   1.341   9.452  1.00  0.00    -0.354 N 
ATOM     34  C   UNL     1       1.242  -2.920   9.639  1.00  0.00     0.074 A 
ATOM     35  C   UNL     1       1.068  -3.470   8.312  1.00  0.00     0.031 C 
ATOM     36  C   UNL     1       2.325   3.316   8.449  1.00  0.00     0.029 A 
ATOM     37  C   UNL     1       2.238   2.667   9.753  1.00  0.00     0.049 A 
ATOM     38  H   UNL     1       1.951   0.639  10.138  1.00  0.00     0.167 HD
ATOM     39  C   UNL     1       1.187  -3.645  10.783  1.00  0.00     0.034 A 
ATOM     40  C   UNL     1       2.332   3.292  10.945  1.00  0.00     0.034 A 
ATOM     41  C   UNL     1       1.368  -3.079  12.097  1.00  0.00     0.049 A 
ATOM     42  C   UNL     1       2.215   2.472  12.206  1.00  0.00     0.074 A 
ATOM     43  C   UNL     1       1.377  -3.727  13.320  1.00  0.00     0.029 A 
ATOM     44  N   UNL     1       1.561  -1.729  12.364  1.00  0.00    -0.354 N 
ATOM     45  N   UNL     1       2.021   1.179  12.337  1.00  0.00    -0.248 NA
ATOM     46  C   UNL     1       2.339   3.193  13.479  1.00  0.00     0.031 C 
ATOM     47  C   UNL     1       1.489  -2.763  14.326  1.00  0.00     0.029 A 
ATOM     48  C   UNL     1       1.650  -1.522  13.732  1.00  0.00     0.049 A 
ATOM     49  H   UNL     1       1.625  -1.022  11.681  1.00  0.00     0.167 HD
ATOM     50  C   UNL     1       2.038   0.930  13.707  1.00  0.00     0.074 A 
ATOM     51  C   UNL     1       2.275   2.203  14.356  1.00  0.00     0.031 C 
ATOM     52  C   UNL     1       1.879  -0.245  14.369  1.00  0.00     0.034 A 
BRANCH  39  53
ATOM     53  C   UNL     1       0.890  -5.121  10.658  1.00  0.00     0.023 A 
ATOM     54  C   UNL     1       1.744  -5.993   9.959  1.00  0.00     0.031 A 
ATOM     55  C   UNL     1      -0.277  -5.663  11.225  1.00  0.00     0.131 A 
ATOM     56  C   UNL     1       1.381  -7.335   9.777  1.00  0.00     0.055 A 
ATOM     57  C   UNL     1      -0.588  -7.020  11.118  1.00  0.00     0.041 A 
ATOM     58  F   UNL     1      -1.145  -4.879  11.884  1.00  0.00    -0.206 F 
ATOM     59  C   UNL     1       0.235  -7.862  10.376  1.00  0.00     0.022 A 
BRANCH  56  60
ATOM     60  S   UNL     1       2.345  -8.342   8.616  1.00  0.00     0.124 S 
ATOM     61  O   UNL     1       2.214  -7.574   7.381  1.00  0.00    -0.237 OA
ATOM     62  O   UNL     1       3.668  -8.349   9.228  1.00  0.00    -0.237 OA
ATOM     63  O   UNL     1       1.649  -9.627   8.618  1.00  0.00    -0.744 OA
ENDBRANCH  56  60
ENDBRANCH  39  53
BRANCH  40  64
ATOM     64  C   UNL     1       2.527   4.770  11.013  1.00  0.00     0.023 A 
ATOM     65  C   UNL     1       3.676   5.323  11.600  1.00  0.00     0.031 A 
ATOM     66  C   UNL     1       1.541   5.654  10.538  1.00  0.00     0.131 A 
ATOM     67  C   UNL     1       3.787   6.715  11.748  1.00  0.00     0.055 A 
ATOM     68  C   UNL     1       1.685   7.040  10.629  1.00  0.00     0.041 A 
ATOM     69  F   UNL     1       0.422   5.181   9.967  1.00  0.00    -0.206 F 
ATOM     70  C   UNL     1       2.807   7.577  11.251  1.00  0.00     0.022 A 
BRANCH  67  71
ATOM     71  S   UNL     1       5.185   7.379  12.693  1.00  0.00     0.124 S 
ATOM     72  O   UNL     1       5.015   6.714  13.979  1.00  0.00    -0.237 OA
ATOM     73  O   UNL     1       6.325   6.947  11.892  1.00  0.00    -0.237 OA
ATOM     74  O   UNL     1       4.939   8.820  12.697  1.00  0.00    -0.744 OA
ENDBRANCH  67  71
ENDBRANCH  40  64
BRANCH  52  75
ATOM     75  C   UNL     1       2.013  -0.215  15.874  1.00  0.00     0.023 A 
ATOM     76  C   UNL     1       1.104   0.481  16.689  1.00  0.00     0.031 A 
ATOM     77  C   UNL     1       3.076  -0.892  16.500  1.00  0.00     0.131 A 
ATOM     78  C   UNL     1       1.307   0.532  18.077  1.00  0.00     0.055 A 
ATOM     79  C   UNL     1       3.232  -0.897  17.886  1.00  0.00     0.041 A 
ATOM     80  F   UNL     1       3.979  -1.569  15.771  1.00  0.00    -0.206 F 
ATOM     81  C   UNL     1       2.352  -0.170  18.682  1.00  0.00     0.022 A 
BRANCH  78  82
ATOM     82  S   UNL     1       0.248   1.616  19.073  1.00  0.00     0.124 S 
ATOM     83  O   UNL     1       0.477   2.917  18.452  1.00  0.00    -0.237 OA
ATOM     84  O   UNL     1      -1.075   1.036  18.867  1.00  0.00    -0.237 OA
ATOM     85  O   UNL     1       0.784   1.472  20.425  1.00  0.00    -0.744 OA
ENDBRANCH  78  82
ENDBRANCH  52  75
ENDBRANCH  26  27
ENDBRANCH  18  21
ENDBRANCH  16  17
ENDBRANCH  15  16
ENDBRANCH  14  15
ENDBRANCH  12  14
ENDBRANCH   5  10
ENDBRANCH   1   5
BRANCH   2  86
ATOM     86  C   UNL     1      -5.801   3.459   1.612  1.00  0.00     0.174 C 
BRANCH  86  87
ATOM     87  N   UNL     1      -6.752   3.580   0.451  1.00  0.00    -0.342 N 
ATOM     88  C   UNL     1      -7.195   3.067  -0.721  1.00  0.00     0.242 C 
ATOM     89  H   UNL     1      -7.287   4.389   0.616  1.00  0.00     0.164 HD
ATOM     90  O   UNL     1      -7.868   3.885  -1.376  1.00  0.00    -0.273 OA
BRANCH  88  91
ATOM     91  C   UNL     1      -6.918   1.688  -1.395  1.00  0.00     0.168 C 
ATOM     92  C   UNL     1      -6.662   0.587  -0.405  1.00  0.00     0.041 C 
BRANCH  91  93
ATOM     93  N   UNL     1      -5.903   1.813  -2.445  1.00  0.00    -0.343 N 
ATOM     94  C   UNL     1      -5.407   0.967  -3.383  1.00  0.00     0.240 C 
ATOM     95  H   UNL     1      -5.492   2.707  -2.478  1.00  0.00     0.164 HD
ATOM     96  O   UNL     1      -4.375   1.322  -3.969  1.00  0.00    -0.273 OA
BRANCH  94  97
ATOM     97  C   UNL     1      -6.119  -0.315  -3.805  1.00  0.00     0.219 C 
BRANCH  97  98
ATOM     98  N   UNL     1      -6.183  -1.360  -2.807  1.00  0.00    -0.312 N 
ATOM     99  C   UNL     1      -7.299  -1.730  -2.129  1.00  0.00     0.407 C 
ATOM    100  H   UNL     1      -5.349  -1.842  -2.603  1.00  0.00     0.167 HD
ATOM    101  O   UNL     1      -7.265  -2.564  -1.231  1.00  0.00    -0.225 OA
BRANCH  99 102
ATOM    102  O   UNL     1      -8.383  -1.009  -2.503  1.00  0.00    -0.445 OA
BRANCH 102 103
ATOM    103  C   UNL     1      -9.572  -1.185  -1.721  1.00  0.00     0.270 C 
BRANCH 103 104
ATOM    104  C   UNL     1     -10.246  -2.496  -2.002  1.00  0.00    -0.011 A 
ATOM    105  C   UNL     1     -10.031  -3.179  -3.207  1.00  0.00     0.007 A 
ATOM    106  C   UNL     1     -11.072  -3.064  -1.026  1.00  0.00     0.007 A 
ATOM    107  C   UNL     1     -10.570  -4.445  -3.401  1.00  0.00     0.000 A 
ATOM    108  C   UNL     1     -11.626  -4.325  -1.229  1.00  0.00     0.000 A 
ATOM    109  C   UNL     1     -11.361  -5.020  -2.409  1.00  0.00     0.000 A 
ENDBRANCH 103 104
ENDBRANCH 102 103
ENDBRANCH  99 102
ENDBRANCH  97  98
ENDBRANCH  94  97
ENDBRANCH  91  93
ENDBRANCH  88  91
ENDBRANCH  86  87
BRANCH  86 110
ATOM    110  C   UNL     1      -5.312   2.093   2.181  1.00  0.00     0.015 C 
ATOM    111  C   UNL     1      -4.184   2.188   3.220  1.00  0.00     0.010 C 
ATOM    112  C   UNL     1      -6.452   1.301   2.865  1.00  0.00     0.010 C 
ENDBRANCH  86 110
ENDBRANCH   2  86
TORSDOF 26
