REMARK SMILES Cc1cc(C(=O)N[C@H]2C=C[C@H](C(=O)NCCCNC(=O)c3ccc(-c4c5nc(c(-c6cc(S(=O)(=O)[O-])ccc6F)c6ccc([nH]6)c(-c6cc(S(=O)(=O)[O-])ccc6F)c6nc(c(-c7cc(S(=O)(=O)[O-])ccc7F)c7ccc4[nH]7)C=C6)C=C5)cc3)C2)ccc1F
REMARK SMILES IDX 16 1 15 2 14 3 12 4 13 5 11 7 8 8 9 9 84 10 10 11 7 12 5 13
REMARK SMILES IDX 6 14 4 16 1 17 2 18 3 19 87 20 86 21 88 22 85 23 17 24 18 25
REMARK SMILES IDX 19 26 20 28 21 29 22 30 83 31 23 32 82 33 24 34 25 35 26 36
REMARK SMILES IDX 76 37 27 38 81 39 75 40 77 41 28 42 80 43 74 44 73 45 29 47
REMARK SMILES IDX 61 48 41 49 60 50 42 51 45 52 59 53 78 54 43 55 44 56 58 58
REMARK SMILES IDX 79 59 46 60 30 61 31 62 39 63 32 64 38 65 40 66 37 67 33 68
REMARK SMILES IDX 34 69 35 70 36 71 62 72 63 73 71 74 64 75 70 76 72 77 69 78
REMARK SMILES IDX 65 79 66 80 67 81 68 82 47 83 48 84 56 85 49 86 55 87 57 88
REMARK SMILES IDX 54 89 50 90 51 91 52 92 53 93
REMARK H PARENT 14 6 7 15 18 27 77 46 45 57
REMARK Flexibility Score: inf
ROOT
ATOM      1  C   UNL     1      -0.383   7.624   1.390  1.00  0.00     0.042 C 
ENDROOT
BRANCH   1   2
ATOM      2  C   UNL     1      -0.505   6.590   0.277  1.00  0.00     0.117 C 
BRANCH   2   3
ATOM      3  N   UNL     1       0.146   5.362   0.675  1.00  0.00    -0.356 N 
ATOM      4  C   UNL     1      -0.214   4.504   1.661  1.00  0.00     0.227 C 
ATOM      5  O   UNL     1       0.654   3.725   2.067  1.00  0.00    -0.274 OA
ATOM      6  H   UNL     1       0.953   5.119   0.166  1.00  0.00     0.163 HD
BRANCH   4   7
ATOM      7  C   UNL     1      -1.667   4.394   2.180  1.00  0.00     0.103 C 
ATOM      8  C   UNL     1      -2.676   3.276   0.326  1.00  0.00     0.106 C 
ATOM      9  C   UNL     1      -3.369   4.579   0.556  1.00  0.00    -0.006 C 
ATOM     10  C   UNL     1      -2.136   3.007   1.731  1.00  0.00     0.047 C 
ATOM     11  C   UNL     1      -2.785   5.214   1.587  1.00  0.00    -0.016 C 
BRANCH   8  12
ATOM     12  N   UNL     1      -3.556   2.261  -0.168  1.00  0.00    -0.346 N 
ATOM     13  C   UNL     1      -3.273   0.957  -0.504  1.00  0.00     0.251 C 
ATOM     14  O   UNL     1      -4.207   0.232  -0.849  1.00  0.00    -0.269 OA
ATOM     15  H   UNL     1      -4.495   2.533  -0.284  1.00  0.00     0.164 HD
BRANCH  13  16
ATOM     16  C   UNL     1      -1.901   0.365  -0.391  1.00  0.00     0.040 A 
ATOM     17  C   UNL     1       1.798   1.301  -0.365  1.00  0.00     0.047 C 
ATOM     18  C   UNL     1       0.540   0.484  -0.326  1.00  0.00    -0.015 A 
ATOM     19  C   UNL     1      -0.707   1.068  -0.602  1.00  0.00     0.020 A 
ATOM     20  C   UNL     1       0.585  -0.865   0.021  1.00  0.00     0.126 A 
ATOM     21  C   UNL     1      -0.582  -1.611   0.141  1.00  0.00     0.040 A 
ATOM     22  F   UNL     1       1.764  -1.461   0.243  1.00  0.00    -0.207 F 
ATOM     23  C   UNL     1      -1.822  -0.994  -0.044  1.00  0.00     0.017 A 
ENDBRANCH  13  16
ENDBRANCH   8  12
ENDBRANCH   4   7
ENDBRANCH   2   3
ENDBRANCH   1   2
BRANCH   1  24
ATOM     24  C   UNL     1       1.010   8.191   1.342  1.00  0.00     0.118 C 
BRANCH  24  25
ATOM     25  N   UNL     1       1.119   9.023   0.152  1.00  0.00    -0.352 N 
ATOM     26  C   UNL     1       1.482  10.345   0.160  1.00  0.00     0.251 C 
ATOM     27  H   UNL     1       0.919   8.608  -0.717  1.00  0.00     0.163 HD
ATOM     28  O   UNL     1       0.849  11.142  -0.509  1.00  0.00    -0.269 OA
BRANCH  26  29
ATOM     29  C   UNL     1       2.688  10.673   0.939  1.00  0.00     0.039 A 
ATOM     30  C   UNL     1       3.096  11.996   1.115  1.00  0.00     0.014 A 
ATOM     31  C   UNL     1       3.492   9.613   1.358  1.00  0.00     0.014 A 
ATOM     32  C   UNL     1       4.380  12.240   1.581  1.00  0.00     0.010 A 
ATOM     33  C   UNL     1       4.642   9.852   2.016  1.00  0.00     0.010 A 
ATOM     34  C   UNL     1       5.146  11.146   1.960  1.00  0.00    -0.014 A 
BRANCH  34  35
ATOM     35  C   UNL     1       6.544  11.156   2.307  1.00  0.00     0.031 A 
ATOM     36  C   UNL     1       6.886  11.571   3.664  1.00  0.00     0.074 A 
ATOM     37  C   UNL     1       7.266  10.310   1.533  1.00  0.00     0.049 A 
ATOM     38  N   UNL     1       8.080  11.798   4.069  1.00  0.00    -0.248 NA
ATOM     39  C   UNL     1       5.869  11.777   4.696  1.00  0.00     0.031 C 
ATOM     40  C   UNL     1       8.382   9.461   1.900  1.00  0.00     0.029 A 
ATOM     41  N   UNL     1       7.047   9.998   0.182  1.00  0.00    -0.354 N 
ATOM     42  C   UNL     1       8.021  11.766   5.447  1.00  0.00     0.074 A 
ATOM     43  C   UNL     1       6.630  11.957   5.779  1.00  0.00     0.031 C 
ATOM     44  C   UNL     1       8.926   8.958   0.774  1.00  0.00     0.029 A 
ATOM     45  C   UNL     1       8.273   9.608  -0.358  1.00  0.00     0.049 A 
ATOM     46  H   UNL     1       6.188  10.046  -0.296  1.00  0.00     0.167 HD
ATOM     47  C   UNL     1       9.113  11.326   6.135  1.00  0.00     0.034 A 
ATOM     48  C   UNL     1       8.906  10.384  -1.289  1.00  0.00     0.034 A 
ATOM     49  C   UNL     1      10.174  10.944   5.185  1.00  0.00     0.049 A 
ATOM     50  C   UNL     1      10.105  11.082  -0.677  1.00  0.00     0.074 A 
ATOM     51  C   UNL     1      10.593   9.715   4.702  1.00  0.00     0.029 A 
ATOM     52  N   UNL     1      10.685  11.895   4.305  1.00  0.00    -0.354 N 
ATOM     53  N   UNL     1      10.331  11.139   0.608  1.00  0.00    -0.248 NA
ATOM     54  C   UNL     1      11.152  11.746  -1.443  1.00  0.00     0.031 C 
ATOM     55  C   UNL     1      11.283   9.932   3.475  1.00  0.00     0.029 A 
ATOM     56  C   UNL     1      11.298  11.292   3.213  1.00  0.00     0.049 A 
ATOM     57  H   UNL     1      10.621  12.868   4.439  1.00  0.00     0.167 HD
ATOM     58  C   UNL     1      11.470  11.843   0.866  1.00  0.00     0.074 A 
ATOM     59  C   UNL     1      11.967  12.173  -0.460  1.00  0.00     0.031 C 
ATOM     60  C   UNL     1      11.887  12.107   2.142  1.00  0.00     0.034 A 
BRANCH  47  61
ATOM     61  C   UNL     1       9.098  10.940   7.606  1.00  0.00     0.023 A 
ATOM     62  C   UNL     1       8.107  11.341   8.533  1.00  0.00     0.031 A 
ATOM     63  C   UNL     1      10.111  10.116   8.141  1.00  0.00     0.131 A 
ATOM     64  C   UNL     1       8.097  10.877   9.865  1.00  0.00     0.055 A 
ATOM     65  C   UNL     1      10.127   9.690   9.476  1.00  0.00     0.041 A 
ATOM     66  F   UNL     1      11.125   9.666   7.388  1.00  0.00    -0.206 F 
ATOM     67  C   UNL     1       9.110  10.055  10.343  1.00  0.00     0.022 A 
BRANCH  64  68
ATOM     68  S   UNL     1       6.735  11.284  11.001  1.00  0.00     0.124 S 
ATOM     69  O   UNL     1       6.321   9.966  11.479  1.00  0.00    -0.237 OA
ATOM     70  O   UNL     1       7.396  12.126  11.994  1.00  0.00    -0.237 OA
ATOM     71  O   UNL     1       5.759  11.961  10.150  1.00  0.00    -0.744 OA
ENDBRANCH  64  68
ENDBRANCH  47  61
BRANCH  48  72
ATOM     72  C   UNL     1       7.979  10.942  -2.323  1.00  0.00     0.023 A 
ATOM     73  C   UNL     1       7.234  12.109  -2.072  1.00  0.00     0.031 A 
ATOM     74  C   UNL     1       7.488  10.038  -3.293  1.00  0.00     0.131 A 
ATOM     75  C   UNL     1       5.960  12.245  -2.655  1.00  0.00     0.055 A 
ATOM     76  C   UNL     1       6.236  10.198  -3.892  1.00  0.00     0.041 A 
ATOM     77  F   UNL     1       8.171   8.915  -3.573  1.00  0.00    -0.206 F 
ATOM     78  C   UNL     1       5.447  11.283  -3.536  1.00  0.00     0.022 A 
BRANCH  75  79
ATOM     79  S   UNL     1       4.803  13.527  -2.090  1.00  0.00     0.124 S 
ATOM     80  O   UNL     1       4.667  14.357  -3.282  1.00  0.00    -0.237 OA
ATOM     81  O   UNL     1       3.632  12.728  -1.750  1.00  0.00    -0.237 OA
ATOM     82  O   UNL     1       5.495  14.138  -0.962  1.00  0.00    -0.744 OA
ENDBRANCH  75  79
ENDBRANCH  48  72
BRANCH  60  83
ATOM     83  C   UNL     1      12.941  13.122   2.529  1.00  0.00     0.023 A 
ATOM     84  C   UNL     1      13.447  13.090   3.852  1.00  0.00     0.031 A 
ATOM     85  C   UNL     1      13.347  14.213   1.745  1.00  0.00     0.131 A 
ATOM     86  C   UNL     1      14.263  14.109   4.351  1.00  0.00     0.055 A 
ATOM     87  C   UNL     1      14.256  15.171   2.209  1.00  0.00     0.041 A 
ATOM     88  F   UNL     1      12.836  14.446   0.529  1.00  0.00    -0.206 F 
ATOM     89  C   UNL     1      14.702  15.134   3.523  1.00  0.00     0.022 A 
BRANCH  86  90
ATOM     90  S   UNL     1      14.604  14.222   6.130  1.00  0.00     0.124 S 
ATOM     91  O   UNL     1      15.980  13.739   6.198  1.00  0.00    -0.237 OA
ATOM     92  O   UNL     1      14.428  15.650   6.387  1.00  0.00    -0.237 OA
ATOM     93  O   UNL     1      13.596  13.358   6.731  1.00  0.00    -0.744 OA
ENDBRANCH  86  90
ENDBRANCH  60  83
ENDBRANCH  34  35
ENDBRANCH  26  29
ENDBRANCH  24  25
ENDBRANCH   1  24
TORSDOF 15
