REMARK SMILES CCC[NH+]1CCN(c2ccc(C(=O)NCCCNC(=O)c3ccc(-c4c5nc(c(-c6cc(S(=O)(=O)[O-])ccc6F)c6ccc([nH]6)c(-c6cc(S(=O)(=O)[O-])ccc6F)c6nc(c(-c7cc(S(=O)(=O)[O-])ccc7F)c7ccc4[nH]7)C=C6)C=C5)cc3)cc2NS(=O)(=O)CC)CC1
REMARK SMILES IDX 16 1 15 2 14 3 12 4 13 5 11 7 8 8 9 9 85 10 10 11 84 12 7 13
REMARK SMILES IDX 4 14 5 15 93 16 6 18 92 19 3 20 2 21 1 22 86 23 87 25 88 26
REMARK SMILES IDX 89 27 90 28 91 29 17 30 18 31 19 32 20 34 21 35 22 36 83 37
REMARK SMILES IDX 23 38 82 39 24 40 25 41 26 42 76 43 27 44 81 45 75 46 77 47
REMARK SMILES IDX 28 48 80 49 74 50 73 51 29 53 61 54 41 55 60 56 42 57 45 58
REMARK SMILES IDX 59 59 78 60 43 61 44 62 58 64 79 65 46 66 30 67 31 68 39 69
REMARK SMILES IDX 32 70 38 71 40 72 37 73 33 74 34 75 35 76 36 77 62 78 63 79
REMARK SMILES IDX 71 80 64 81 70 82 72 83 69 84 65 85 66 86 67 87 68 88 47 89
REMARK SMILES IDX 48 90 56 91 49 92 55 93 57 94 54 95 50 96 51 97 52 98 53 99
REMARK H PARENT 14 6 4 17 86 24 18 33 77 52 45 63
REMARK Flexibility Score: inf
ROOT
ATOM      1  C   UNL     1       0.698 -12.019   1.308  1.00  0.00     0.042 C 
ENDROOT
BRANCH   1   2
ATOM      2  C   UNL     1       2.028 -11.570   0.719  1.00  0.00     0.118 C 
BRANCH   2   3
ATOM      3  N   UNL     1       2.098 -11.695  -0.723  1.00  0.00    -0.352 N 
ATOM      4  C   UNL     1       2.191 -10.818  -1.773  1.00  0.00     0.251 C 
ATOM      5  O   UNL     1       2.327 -11.326  -2.891  1.00  0.00    -0.269 OA
ATOM      6  H   UNL     1       2.071 -12.634  -1.020  1.00  0.00     0.163 HD
BRANCH   4   7
ATOM      7  C   UNL     1       2.070  -9.330  -1.685  1.00  0.00     0.042 A 
ATOM      8  C   UNL     1       1.597  -6.526  -1.747  1.00  0.00     0.062 A 
ATOM      9  C   UNL     1       1.552  -7.275  -2.919  1.00  0.00     0.029 A 
ATOM     10  C   UNL     1       1.826  -7.222  -0.539  1.00  0.00     0.073 A 
ATOM     11  C   UNL     1       1.746  -8.662  -2.882  1.00  0.00     0.016 A 
ATOM     12  C   UNL     1       2.199  -8.563  -0.531  1.00  0.00     0.042 A 
BRANCH   8  13
ATOM     13  N   UNL     1       1.385  -5.160  -1.735  1.00  0.00    -0.359 N 
ATOM     14  N   UNL     1       0.507  -2.512  -0.889  1.00  0.00    -0.332 N 
ATOM     15  C   UNL     1      -0.389  -3.487  -1.553  1.00  0.00     0.283 C 
ATOM     16  C   UNL     1       1.623  -3.216  -0.217  1.00  0.00     0.283 C 
ATOM     17  H   UNL     1      -0.041  -2.026  -0.180  1.00  0.00     0.348 HD
ATOM     18  C   UNL     1       0.309  -4.515  -2.480  1.00  0.00     0.178 C 
ATOM     19  C   UNL     1       2.359  -4.256  -1.096  1.00  0.00     0.178 C 
BRANCH  14  20
ATOM     20  C   UNL     1       0.988  -1.471  -1.801  1.00  0.00     0.262 C 
BRANCH  20  21
ATOM     21  C   UNL     1       0.489  -0.102  -1.328  1.00  0.00     0.058 C 
ATOM     22  C   UNL     1       1.004   0.290   0.051  1.00  0.00     0.010 C 
ENDBRANCH  20  21
ENDBRANCH  14  20
ENDBRANCH   8  13
BRANCH  10  23
ATOM     23  N   UNL     1       1.402  -6.532   0.635  1.00  0.00    -0.281 N 
ATOM     24  H   UNL     1       0.947  -5.675   0.468  1.00  0.00     0.180 HD
BRANCH  23  25
ATOM     25  S   UNL     1       1.549  -6.936   2.216  1.00  0.00     0.232 S 
ATOM     26  O   UNL     1       2.929  -7.298   2.471  1.00  0.00    -0.207 OA
ATOM     27  O   UNL     1       0.927  -5.842   2.930  1.00  0.00    -0.207 OA
BRANCH  25  28
ATOM     28  C   UNL     1       0.522  -8.382   2.470  1.00  0.00     0.156 C 
ATOM     29  C   UNL     1      -0.630  -8.555   1.500  1.00  0.00     0.023 C 
ENDBRANCH  25  28
ENDBRANCH  23  25
ENDBRANCH  10  23
ENDBRANCH   4   7
ENDBRANCH   2   3
ENDBRANCH   1   2
BRANCH   1  30
ATOM     30  C   UNL     1       0.718 -13.467   1.773  1.00  0.00     0.118 C 
BRANCH  30  31
ATOM     31  N   UNL     1       1.673 -13.681   2.858  1.00  0.00    -0.352 N 
ATOM     32  C   UNL     1       1.499 -13.975   4.189  1.00  0.00     0.251 C 
ATOM     33  H   UNL     1       2.616 -13.601   2.585  1.00  0.00     0.163 HD
ATOM     34  O   UNL     1       2.464 -13.871   4.943  1.00  0.00    -0.269 OA
BRANCH  32  35
ATOM     35  C   UNL     1       0.182 -14.390   4.721  1.00  0.00     0.039 A 
ATOM     36  C   UNL     1      -0.159 -14.051   6.034  1.00  0.00     0.014 A 
ATOM     37  C   UNL     1      -0.704 -15.148   3.956  1.00  0.00     0.014 A 
ATOM     38  C   UNL     1      -1.408 -14.415   6.546  1.00  0.00     0.010 A 
ATOM     39  C   UNL     1      -1.990 -15.398   4.419  1.00  0.00     0.010 A 
ATOM     40  C   UNL     1      -2.352 -15.055   5.729  1.00  0.00    -0.014 A 
BRANCH  40  41
ATOM     41  C   UNL     1      -3.706 -15.418   6.226  1.00  0.00     0.031 A 
ATOM     42  C   UNL     1      -4.146 -16.860   6.212  1.00  0.00     0.074 A 
ATOM     43  C   UNL     1      -4.557 -14.452   6.625  1.00  0.00     0.049 A 
ATOM     44  N   UNL     1      -5.316 -17.373   6.494  1.00  0.00    -0.248 NA
ATOM     45  C   UNL     1      -3.148 -17.852   5.783  1.00  0.00     0.031 C 
ATOM     46  C   UNL     1      -4.259 -13.018   6.648  1.00  0.00     0.029 A 
ATOM     47  N   UNL     1      -5.848 -14.526   7.082  1.00  0.00    -0.354 N 
ATOM     48  C   UNL     1      -5.197 -18.740   6.261  1.00  0.00     0.074 A 
ATOM     49  C   UNL     1      -3.869 -18.961   5.734  1.00  0.00     0.031 C 
ATOM     50  C   UNL     1      -5.322 -12.354   7.129  1.00  0.00     0.029 A 
ATOM     51  C   UNL     1      -6.398 -13.303   7.394  1.00  0.00     0.049 A 
ATOM     52  H   UNL     1      -6.337 -15.376   7.179  1.00  0.00     0.167 HD
ATOM     53  C   UNL     1      -6.099 -19.725   6.497  1.00  0.00     0.034 A 
ATOM     54  C   UNL     1      -7.633 -12.983   7.830  1.00  0.00     0.034 A 
ATOM     55  C   UNL     1      -7.413 -19.488   7.041  1.00  0.00     0.049 A 
ATOM     56  C   UNL     1      -8.632 -14.092   8.051  1.00  0.00     0.074 A 
ATOM     57  C   UNL     1      -8.393 -20.410   7.361  1.00  0.00     0.029 A 
ATOM     58  N   UNL     1      -7.933 -18.235   7.345  1.00  0.00    -0.354 N 
ATOM     59  N   UNL     1      -8.488 -15.385   7.865  1.00  0.00    -0.248 NA
ATOM     60  C   UNL     1      -9.955 -13.700   8.552  1.00  0.00     0.031 C 
ATOM     61  C   UNL     1      -9.528 -19.713   7.789  1.00  0.00     0.029 A 
ATOM     62  C   UNL     1      -9.229 -18.360   7.821  1.00  0.00     0.049 A 
ATOM     63  H   UNL     1      -7.451 -17.383   7.239  1.00  0.00     0.167 HD
ATOM     64  C   UNL     1      -9.691 -15.961   8.265  1.00  0.00     0.074 A 
ATOM     65  C   UNL     1     -10.539 -14.877   8.716  1.00  0.00     0.031 C 
ATOM     66  C   UNL     1     -10.062 -17.267   8.264  1.00  0.00     0.034 A 
BRANCH  53  67
ATOM     67  C   UNL     1      -5.692 -21.139   6.151  1.00  0.00     0.023 A 
ATOM     68  C   UNL     1      -4.593 -21.762   6.768  1.00  0.00     0.031 A 
ATOM     69  C   UNL     1      -6.391 -21.866   5.171  1.00  0.00     0.131 A 
ATOM     70  C   UNL     1      -4.173 -23.030   6.341  1.00  0.00     0.055 A 
ATOM     71  C   UNL     1      -6.024 -23.166   4.816  1.00  0.00     0.041 A 
ATOM     72  F   UNL     1      -7.435 -21.320   4.529  1.00  0.00    -0.206 F 
ATOM     73  C   UNL     1      -4.898 -23.750   5.390  1.00  0.00     0.022 A 
BRANCH  70  74
ATOM     74  S   UNL     1      -2.575 -23.655   6.931  1.00  0.00     0.124 S 
ATOM     75  O   UNL     1      -1.663 -22.612   6.468  1.00  0.00    -0.237 OA
ATOM     76  O   UNL     1      -2.779 -23.732   8.373  1.00  0.00    -0.237 OA
ATOM     77  O   UNL     1      -2.437 -24.941   6.250  1.00  0.00    -0.744 OA
ENDBRANCH  70  74
ENDBRANCH  53  67
BRANCH  54  78
ATOM     78  C   UNL     1      -8.006 -11.560   8.082  1.00  0.00     0.023 A 
ATOM     79  C   UNL     1      -8.378 -11.128   9.365  1.00  0.00     0.031 A 
ATOM     80  C   UNL     1      -8.055 -10.623   7.034  1.00  0.00     0.131 A 
ATOM     81  C   UNL     1      -8.841  -9.817   9.556  1.00  0.00     0.055 A 
ATOM     82  C   UNL     1      -8.453  -9.301   7.242  1.00  0.00     0.041 A 
ATOM     83  F   UNL     1      -7.708 -10.979   5.786  1.00  0.00    -0.206 F 
ATOM     84  C   UNL     1      -8.866  -8.896   8.508  1.00  0.00     0.022 A 
BRANCH  81  85
ATOM     85  S   UNL     1      -9.521  -9.367  11.177  1.00  0.00     0.124 S 
ATOM     86  O   UNL     1     -10.572 -10.365  11.343  1.00  0.00    -0.237 OA
ATOM     87  O   UNL     1      -8.356  -9.511  12.044  1.00  0.00    -0.237 OA
ATOM     88  O   UNL     1      -9.986  -7.996  10.981  1.00  0.00    -0.744 OA
ENDBRANCH  81  85
ENDBRANCH  54  78
BRANCH  66  89
ATOM     89  C   UNL     1     -11.426 -17.595   8.823  1.00  0.00     0.023 A 
ATOM     90  C   UNL     1     -12.608 -17.159   8.201  1.00  0.00     0.031 A 
ATOM     91  C   UNL     1     -11.540 -18.349  10.005  1.00  0.00     0.131 A 
ATOM     92  C   UNL     1     -13.850 -17.427   8.796  1.00  0.00     0.055 A 
ATOM     93  C   UNL     1     -12.781 -18.673  10.554  1.00  0.00     0.041 A 
ATOM     94  F   UNL     1     -10.444 -18.790  10.644  1.00  0.00    -0.206 F 
ATOM     95  C   UNL     1     -13.945 -18.198   9.958  1.00  0.00     0.022 A 
BRANCH  92  96
ATOM     96  S   UNL     1     -15.336 -16.666   8.088  1.00  0.00     0.124 S 
ATOM     97  O   UNL     1     -15.010 -15.245   8.155  1.00  0.00    -0.237 OA
ATOM     98  O   UNL     1     -15.377 -17.247   6.750  1.00  0.00    -0.237 OA
ATOM     99  O   UNL     1     -16.405 -17.100   8.986  1.00  0.00    -0.744 OA
ENDBRANCH  92  96
ENDBRANCH  66  89
ENDBRANCH  40  41
ENDBRANCH  32  35
ENDBRANCH  30  31
ENDBRANCH   1  30
TORSDOF 19
