REMARK SMILES CC(C)C[C@H](CNC(=O)[C@]1([NH3+])CCC[C@@H](C)C1)C(=O)NCCCNC(=O)c1ccc(-c2c3nc(c(-c4cc(S(=O)(=O)[O-])ccc4F)c4ccc([nH]4)c(-c4cc(S(=O)(=O)[O-])ccc4F)c4nc(c(-c5cc(S(=O)(=O)[O-])ccc5F)c5ccc2[nH]5)C=C4)C=C3)cc1
REMARK SMILES IDX 21 1 20 2 18 3 19 4 5 6 4 7 2 8 1 9 3 10 6 11 7 12 8 13 9 15
REMARK SMILES IDX 10 16 12 17 17 18 13 19 15 20 14 21 16 22 11 23 22 27 23 28
REMARK SMILES IDX 24 29 25 30 26 32 27 33 28 34 89 35 29 36 88 37 30 38 31 39
REMARK SMILES IDX 32 40 82 41 33 42 87 43 81 44 83 45 34 46 86 47 80 48 79 49
REMARK SMILES IDX 35 51 67 52 47 53 66 54 48 55 51 56 65 57 84 58 49 59 50 60
REMARK SMILES IDX 64 62 85 63 52 64 36 65 37 66 45 67 38 68 44 69 46 70 43 71
REMARK SMILES IDX 39 72 40 73 41 74 42 75 68 76 69 77 77 78 70 79 76 80 78 81
REMARK SMILES IDX 75 82 71 83 72 84 73 85 74 86 53 87 54 88 62 89 55 90 61 91
REMARK SMILES IDX 63 92 60 93 56 94 57 95 58 96 59 97
REMARK H PARENT 20 5 7 14 11 24 11 25 11 26 24 31 83 50 51 61
REMARK Flexibility Score: inf
ROOT
ATOM      1  C   UNL     1       0.695   3.165   1.507  1.00  0.00     0.117 C 
ENDROOT
BRANCH   1   2
ATOM      2  N   UNL     1      -0.122   2.898   0.334  1.00  0.00    -0.356 N 
ATOM      3  C   UNL     1      -1.306   2.237   0.196  1.00  0.00     0.224 C 
ATOM      4  O   UNL     1      -1.919   2.398  -0.864  1.00  0.00    -0.275 OA
ATOM      5  H   UNL     1       0.244   3.258  -0.507  1.00  0.00     0.163 HD
BRANCH   3   6
ATOM      6  C   UNL     1      -1.877   1.306   1.270  1.00  0.00     0.098 C 
BRANCH   6   7
ATOM      7  C   UNL     1      -2.795   1.992   2.305  1.00  0.00     0.018 C 
BRANCH   7   8
ATOM      8  C   UNL     1      -2.180   2.998   3.299  1.00  0.00    -0.017 C 
ATOM      9  C   UNL     1      -2.098   4.419   2.728  1.00  0.00     0.007 C 
ATOM     10  C   UNL     1      -3.006   3.058   4.589  1.00  0.00     0.007 C 
ENDBRANCH   7   8
ENDBRANCH   6   7
BRANCH   6  11
ATOM     11  C   UNL     1      -0.792   0.365   1.800  1.00  0.00     0.129 C 
BRANCH  11  12
ATOM     12  N   UNL     1      -1.217  -0.968   2.176  1.00  0.00    -0.350 N 
ATOM     13  C   UNL     1      -0.604  -2.175   1.942  1.00  0.00     0.281 C 
ATOM     14  H   UNL     1      -2.068  -1.016   2.669  1.00  0.00     0.163 HD
ATOM     15  O   UNL     1      -0.951  -3.105   2.678  1.00  0.00    -0.268 OA
BRANCH  13  16
ATOM     16  C   UNL     1       0.359  -2.405   0.706  1.00  0.00     0.174 C 
ATOM     17  C   UNL     1       0.772  -3.904   0.676  1.00  0.00     0.079 C 
ATOM     18  C   UNL     1       1.676  -1.591   0.737  1.00  0.00     0.082 C 
ATOM     19  C   UNL     1       1.729  -4.263  -0.465  1.00  0.00     0.007 C 
ATOM     20  C   UNL     1       2.671  -1.896  -0.403  1.00  0.00    -0.008 C 
ATOM     21  C   UNL     1       2.982  -3.392  -0.467  1.00  0.00     0.004 C 
ATOM     22  C   UNL     1       2.222  -1.344  -1.762  1.00  0.00     0.008 C 
BRANCH  16  23
ATOM     23  N   UNL     1      -0.451  -2.130  -0.505  1.00  0.00    -0.345 N 
ATOM     24  H   UNL     1       0.124  -2.264  -1.336  1.00  0.00     0.345 HD
ATOM     25  H   UNL     1      -0.789  -1.168  -0.476  1.00  0.00     0.345 HD
ATOM     26  H   UNL     1      -1.246  -2.768  -0.535  1.00  0.00     0.345 HD
ENDBRANCH  16  23
ENDBRANCH  13  16
ENDBRANCH  11  12
ENDBRANCH   6  11
ENDBRANCH   3   6
ENDBRANCH   1   2
BRANCH   1  27
ATOM     27  C   UNL     1       2.185   2.994   1.280  1.00  0.00     0.042 C 
BRANCH  27  28
ATOM     28  C   UNL     1       2.791   4.103   0.431  1.00  0.00     0.118 C 
BRANCH  28  29
ATOM     29  N   UNL     1       2.611   5.430   1.016  1.00  0.00    -0.352 N 
ATOM     30  C   UNL     1       3.473   6.240   1.725  1.00  0.00     0.251 C 
ATOM     31  H   UNL     1       1.715   5.814   0.880  1.00  0.00     0.163 HD
ATOM     32  O   UNL     1       3.031   7.215   2.313  1.00  0.00    -0.269 OA
BRANCH  30  33
ATOM     33  C   UNL     1       4.913   5.910   1.796  1.00  0.00     0.039 A 
ATOM     34  C   UNL     1       5.604   6.079   3.000  1.00  0.00     0.014 A 
ATOM     35  C   UNL     1       5.582   5.428   0.674  1.00  0.00     0.014 A 
ATOM     36  C   UNL     1       6.931   5.650   3.102  1.00  0.00     0.010 A 
ATOM     37  C   UNL     1       6.855   4.894   0.809  1.00  0.00     0.010 A 
ATOM     38  C   UNL     1       7.546   4.992   2.026  1.00  0.00    -0.014 A 
BRANCH  38  39
ATOM     39  C   UNL     1       8.902   4.388   2.116  1.00  0.00     0.031 A 
ATOM     40  C   UNL     1       9.960   4.797   1.125  1.00  0.00     0.074 A 
ATOM     41  C   UNL     1       9.136   3.379   2.980  1.00  0.00     0.049 A 
ATOM     42  N   UNL     1      11.102   4.227   0.844  1.00  0.00    -0.248 NA
ATOM     43  C   UNL     1       9.654   5.973   0.295  1.00  0.00     0.031 C 
ATOM     44  C   UNL     1       8.179   2.859   3.960  1.00  0.00     0.029 A 
ATOM     45  N   UNL     1      10.245   2.590   3.155  1.00  0.00    -0.354 N 
ATOM     46  C   UNL     1      11.625   4.941  -0.230  1.00  0.00     0.074 A 
ATOM     47  C   UNL     1      10.645   5.946  -0.582  1.00  0.00     0.031 C 
ATOM     48  C   UNL     1       8.748   1.854   4.644  1.00  0.00     0.029 A 
ATOM     49  C   UNL     1      10.085   1.614   4.112  1.00  0.00     0.049 A 
ATOM     50  H   UNL     1      11.077   2.710   2.643  1.00  0.00     0.167 HD
ATOM     51  C   UNL     1      12.820   4.783  -0.852  1.00  0.00     0.034 A 
ATOM     52  C   UNL     1      10.911   0.623   4.500  1.00  0.00     0.034 A 
ATOM     53  C   UNL     1      13.805   3.810  -0.446  1.00  0.00     0.049 A 
ATOM     54  C   UNL     1      12.250   0.487   3.821  1.00  0.00     0.074 A 
ATOM     55  C   UNL     1      15.077   3.607  -0.950  1.00  0.00     0.029 A 
ATOM     56  N   UNL     1      13.628   2.882   0.572  1.00  0.00    -0.354 N 
ATOM     57  N   UNL     1      12.742   1.183   2.823  1.00  0.00    -0.248 NA
ATOM     58  C   UNL     1      13.146  -0.563   4.323  1.00  0.00     0.031 C 
ATOM     59  C   UNL     1      15.651   2.528  -0.269  1.00  0.00     0.029 A 
ATOM     60  C   UNL     1      14.762   2.098   0.704  1.00  0.00     0.049 A 
ATOM     61  H   UNL     1      12.815   2.794   1.121  1.00  0.00     0.167 HD
ATOM     62  C   UNL     1      14.019   0.677   2.602  1.00  0.00     0.074 A 
ATOM     63  C   UNL     1      14.222  -0.380   3.571  1.00  0.00     0.031 C 
ATOM     64  C   UNL     1      14.944   1.056   1.684  1.00  0.00     0.034 A 
BRANCH  51  65
ATOM     65  C   UNL     1      13.110   5.672  -2.038  1.00  0.00     0.023 A 
ATOM     66  C   UNL     1      13.170   7.071  -1.914  1.00  0.00     0.031 A 
ATOM     67  C   UNL     1      13.282   5.120  -3.320  1.00  0.00     0.131 A 
ATOM     68  C   UNL     1      13.295   7.872  -3.059  1.00  0.00     0.055 A 
ATOM     69  C   UNL     1      13.500   5.919  -4.444  1.00  0.00     0.041 A 
ATOM     70  F   UNL     1      13.218   3.792  -3.506  1.00  0.00    -0.206 F 
ATOM     71  C   UNL     1      13.488   7.306  -4.321  1.00  0.00     0.022 A 
BRANCH  68  72
ATOM     72  S   UNL     1      13.036   9.659  -2.892  1.00  0.00     0.124 S 
ATOM     73  O   UNL     1      11.665   9.709  -2.386  1.00  0.00    -0.237 OA
ATOM     74  O   UNL     1      14.079  10.043  -1.948  1.00  0.00    -0.237 OA
ATOM     75  O   UNL     1      13.208  10.159  -4.254  1.00  0.00    -0.744 OA
ENDBRANCH  68  72
ENDBRANCH  51  65
BRANCH  52  76
ATOM     76  C   UNL     1      10.503  -0.322   5.578  1.00  0.00     0.023 A 
ATOM     77  C   UNL     1      11.171  -0.333   6.812  1.00  0.00     0.031 A 
ATOM     78  C   UNL     1       9.460  -1.245   5.384  1.00  0.00     0.131 A 
ATOM     79  C   UNL     1      10.820  -1.276   7.790  1.00  0.00     0.055 A 
ATOM     80  C   UNL     1       9.082  -2.150   6.378  1.00  0.00     0.041 A 
ATOM     81  F   UNL     1       8.780  -1.268   4.226  1.00  0.00    -0.206 F 
ATOM     82  C   UNL     1       9.773  -2.177   7.586  1.00  0.00     0.022 A 
BRANCH  79  83
ATOM     83  S   UNL     1      11.806  -1.356   9.311  1.00  0.00     0.124 S 
ATOM     84  O   UNL     1      13.143  -1.609   8.785  1.00  0.00    -0.237 OA
ATOM     85  O   UNL     1      11.581  -0.033   9.885  1.00  0.00    -0.237 OA
ATOM     86  O   UNL     1      11.204  -2.464  10.048  1.00  0.00    -0.744 OA
ENDBRANCH  79  83
ENDBRANCH  52  76
BRANCH  64  87
ATOM     87  C   UNL     1      16.282   0.366   1.736  1.00  0.00     0.023 A 
ATOM     88  C   UNL     1      16.442  -0.973   1.344  1.00  0.00     0.031 A 
ATOM     89  C   UNL     1      17.416   1.075   2.171  1.00  0.00     0.131 A 
ATOM     90  C   UNL     1      17.705  -1.576   1.430  1.00  0.00     0.055 A 
ATOM     91  C   UNL     1      18.679   0.484   2.209  1.00  0.00     0.041 A 
ATOM     92  F   UNL     1      17.314   2.357   2.556  1.00  0.00    -0.206 F 
ATOM     93  C   UNL     1      18.827  -0.852   1.845  1.00  0.00     0.022 A 
BRANCH  90  94
ATOM     94  S   UNL     1      17.858  -3.341   1.043  1.00  0.00     0.124 S 
ATOM     95  O   UNL     1      16.996  -3.948   2.052  1.00  0.00    -0.237 OA
ATOM     96  O   UNL     1      17.371  -3.403  -0.332  1.00  0.00    -0.237 OA
ATOM     97  O   UNL     1      19.286  -3.606   1.206  1.00  0.00    -0.744 OA
ENDBRANCH  90  94
ENDBRANCH  64  87
ENDBRANCH  38  39
ENDBRANCH  30  33
ENDBRANCH  28  29
ENDBRANCH  27  28
ENDBRANCH   1  27
TORSDOF 19
