REMARK SMILES O=C(NCCCNC(=O)c1nnn(-c2cccc(C(F)(F)F)c2)c1[C@@H]1COc2ccccc2O1)c1ccc(-c2c3nc(c(-c4cc(S(=O)(=O)[O-])ccc4F)c4ccc([nH]4)c(-c4cc(S(=O)(=O)[O-])ccc4F)c4nc(c(-c5cc(S(=O)(=O)[O-])ccc5F)c5ccc2[nH]5)C=C4)C=C3)cc1
REMARK SMILES IDX 4 1 3 2 1 3 2 4 35 6 36 7 97 8 37 9 96 10 38 11 39 12 40 13
REMARK SMILES IDX 90 14 41 15 95 16 89 17 91 18 42 19 94 20 88 21 87 22 43 24
REMARK SMILES IDX 75 25 55 26 74 27 56 28 59 29 73 30 92 31 57 32 58 33 72 35
REMARK SMILES IDX 93 36 60 37 44 38 45 39 53 40 46 41 52 42 54 43 51 44 47 45
REMARK SMILES IDX 48 46 49 47 50 48 76 49 77 50 85 51 78 52 84 53 86 54 83 55
REMARK SMILES IDX 79 56 80 57 81 58 82 59 61 60 62 61 70 62 63 63 69 64 71 65
REMARK SMILES IDX 68 66 64 67 65 68 66 69 67 70 5 71 6 72 7 73 8 74 9 76 10 77
REMARK SMILES IDX 11 78 24 79 12 80 13 81 25 82 26 83 34 84 27 85 33 86 28 87
REMARK SMILES IDX 32 88 29 89 31 90 30 91 14 92 15 93 23 94 16 95 18 96 17 97
REMARK SMILES IDX 19 98 20 99 21 100 22 101
REMARK H PARENT 3 5 91 23 59 34 7 75
REMARK Flexibility Score: inf
ROOT
ATOM      1  C   UNL     1       4.703  -0.281  -0.944  1.00  0.00     0.118 C 
ENDROOT
BRANCH   1   2
ATOM      2  N   UNL     1       3.296   0.008  -1.155  1.00  0.00    -0.352 N 
ATOM      3  O   UNL     1       1.173   0.531  -0.983  1.00  0.00    -0.269 OA
ATOM      4  C   UNL     1       2.193   0.200  -0.369  1.00  0.00     0.251 C 
ATOM      5  H   UNL     1       3.079   0.086  -2.112  1.00  0.00     0.163 HD
BRANCH   4   6
ATOM      6  C   UNL     1       2.112   0.019   1.109  1.00  0.00     0.039 A 
ATOM      7  C   UNL     1       3.165  -0.326   1.956  1.00  0.00     0.014 A 
ATOM      8  C   UNL     1       0.834   0.203   1.676  1.00  0.00     0.014 A 
ATOM      9  C   UNL     1       2.937  -0.525   3.324  1.00  0.00     0.010 A 
ATOM     10  C   UNL     1       0.604   0.012   3.037  1.00  0.00     0.010 A 
ATOM     11  C   UNL     1       1.655  -0.371   3.864  1.00  0.00    -0.014 A 
BRANCH  11  12
ATOM     12  C   UNL     1       1.478  -0.449   5.319  1.00  0.00     0.031 A 
ATOM     13  C   UNL     1       2.102   0.661   6.096  1.00  0.00     0.074 A 
ATOM     14  C   UNL     1       0.648  -1.309   5.946  1.00  0.00     0.049 A 
ATOM     15  N   UNL     1       3.002   0.593   7.023  1.00  0.00    -0.248 NA
ATOM     16  C   UNL     1       1.736   2.037   5.728  1.00  0.00     0.031 C 
ATOM     17  C   UNL     1      -0.289  -2.247   5.326  1.00  0.00     0.029 A 
ATOM     18  N   UNL     1       0.380  -1.439   7.282  1.00  0.00    -0.354 N 
ATOM     19  C   UNL     1       3.164   1.892   7.506  1.00  0.00     0.074 A 
ATOM     20  C   UNL     1       2.493   2.746   6.565  1.00  0.00     0.031 C 
ATOM     21  C   UNL     1      -1.166  -2.681   6.259  1.00  0.00     0.029 A 
ATOM     22  C   UNL     1      -0.784  -2.151   7.559  1.00  0.00     0.049 A 
ATOM     23  H   UNL     1       0.958  -1.062   7.984  1.00  0.00     0.167 HD
ATOM     24  C   UNL     1       3.662   2.139   8.752  1.00  0.00     0.034 A 
ATOM     25  C   UNL     1      -1.435  -2.249   8.749  1.00  0.00     0.034 A 
ATOM     26  C   UNL     1       4.367   0.986   9.270  1.00  0.00     0.049 A 
ATOM     27  C   UNL     1      -0.463  -1.926   9.820  1.00  0.00     0.074 A 
ATOM     28  C   UNL     1       5.429   0.218   8.828  1.00  0.00     0.029 A 
ATOM     29  N   UNL     1       3.786   0.247  10.277  1.00  0.00    -0.354 N 
ATOM     30  N   UNL     1       0.572  -2.667  10.105  1.00  0.00    -0.248 NA
ATOM     31  C   UNL     1      -0.395  -0.556  10.305  1.00  0.00     0.031 C 
ATOM     32  C   UNL     1       5.107  -1.116   9.216  1.00  0.00     0.029 A 
ATOM     33  C   UNL     1       3.905  -1.072   9.923  1.00  0.00     0.049 A 
ATOM     34  H   UNL     1       3.365   0.599  11.094  1.00  0.00     0.167 HD
ATOM     35  C   UNL     1       1.581  -1.769  10.414  1.00  0.00     0.074 A 
ATOM     36  C   UNL     1       0.899  -0.496  10.630  1.00  0.00     0.031 C 
ATOM     37  C   UNL     1       2.893  -2.074  10.190  1.00  0.00     0.034 A 
BRANCH  24  38
ATOM     38  C   UNL     1       3.209   3.272   9.662  1.00  0.00     0.023 A 
ATOM     39  C   UNL     1       3.734   3.280  10.970  1.00  0.00     0.031 A 
ATOM     40  C   UNL     1       2.098   4.119   9.455  1.00  0.00     0.131 A 
ATOM     41  C   UNL     1       3.065   3.933  12.019  1.00  0.00     0.055 A 
ATOM     42  C   UNL     1       1.484   4.838  10.488  1.00  0.00     0.041 A 
ATOM     43  F   UNL     1       1.489   4.247   8.272  1.00  0.00    -0.206 F 
ATOM     44  C   UNL     1       1.935   4.708  11.790  1.00  0.00     0.022 A 
BRANCH  41  45
ATOM     45  S   UNL     1       3.565   3.537  13.715  1.00  0.00     0.124 S 
ATOM     46  O   UNL     1       3.542   2.078  13.685  1.00  0.00    -0.237 OA
ATOM     47  O   UNL     1       4.882   4.161  13.790  1.00  0.00    -0.237 OA
ATOM     48  O   UNL     1       2.527   4.164  14.528  1.00  0.00    -0.744 OA
ENDBRANCH  41  45
ENDBRANCH  24  38
BRANCH  25  49
ATOM     49  C   UNL     1      -2.907  -2.328   8.970  1.00  0.00     0.023 A 
ATOM     50  C   UNL     1      -3.484  -2.795  10.171  1.00  0.00     0.031 A 
ATOM     51  C   UNL     1      -3.784  -1.711   8.048  1.00  0.00     0.131 A 
ATOM     52  C   UNL     1      -4.874  -2.648  10.399  1.00  0.00     0.055 A 
ATOM     53  C   UNL     1      -5.155  -1.580   8.272  1.00  0.00     0.041 A 
ATOM     54  F   UNL     1      -3.322  -1.135   6.927  1.00  0.00    -0.206 F 
ATOM     55  C   UNL     1      -5.707  -2.043   9.455  1.00  0.00     0.022 A 
BRANCH  52  56
ATOM     56  S   UNL     1      -5.615  -3.158  11.985  1.00  0.00     0.124 S 
ATOM     57  O   UNL     1      -5.528  -4.610  11.917  1.00  0.00    -0.237 OA
ATOM     58  O   UNL     1      -4.750  -2.499  12.962  1.00  0.00    -0.237 OA
ATOM     59  O   UNL     1      -6.973  -2.619  11.917  1.00  0.00    -0.744 OA
ENDBRANCH  52  56
ENDBRANCH  25  49
BRANCH  37  60
ATOM     60  C   UNL     1       3.282  -3.516   9.955  1.00  0.00     0.023 A 
ATOM     61  C   UNL     1       2.756  -4.336   8.933  1.00  0.00     0.031 A 
ATOM     62  C   UNL     1       4.333  -4.035  10.733  1.00  0.00     0.131 A 
ATOM     63  C   UNL     1       3.277  -5.628   8.729  1.00  0.00     0.055 A 
ATOM     64  C   UNL     1       4.858  -5.308  10.517  1.00  0.00     0.041 A 
ATOM     65  F   UNL     1       4.899  -3.291  11.698  1.00  0.00    -0.206 F 
ATOM     66  C   UNL     1       4.327  -6.113   9.517  1.00  0.00     0.022 A 
BRANCH  63  67
ATOM     67  S   UNL     1       2.606  -6.698   7.420  1.00  0.00     0.124 S 
ATOM     68  O   UNL     1       1.165  -6.641   7.630  1.00  0.00    -0.237 OA
ATOM     69  O   UNL     1       3.103  -6.058   6.205  1.00  0.00    -0.237 OA
ATOM     70  O   UNL     1       3.209  -8.004   7.696  1.00  0.00    -0.744 OA
ENDBRANCH  63  67
ENDBRANCH  37  60
ENDBRANCH  11  12
ENDBRANCH   4   6
ENDBRANCH   1   2
BRANCH   1  71
ATOM     71  C   UNL     1       5.024  -1.764  -0.770  1.00  0.00     0.042 C 
BRANCH  71  72
ATOM     72  C   UNL     1       4.447  -2.664  -1.864  1.00  0.00     0.118 C 
BRANCH  72  73
ATOM     73  N   UNL     1       5.399  -3.054  -2.890  1.00  0.00    -0.351 N 
ATOM     74  C   UNL     1       6.005  -4.175  -3.407  1.00  0.00     0.273 C 
ATOM     75  H   UNL     1       5.711  -2.256  -3.374  1.00  0.00     0.163 HD
ATOM     76  O   UNL     1       6.689  -3.900  -4.404  1.00  0.00    -0.267 OA
BRANCH  74  77
ATOM     77  C   UNL     1       5.959  -5.577  -2.940  1.00  0.00     0.178 A 
ATOM     78  N   UNL     1       6.886  -6.440  -3.513  1.00  0.00    -0.124 NA
ATOM     79  C   UNL     1       5.237  -6.321  -2.004  1.00  0.00     0.122 A 
ATOM     80  N   UNL     1       6.794  -7.632  -2.953  1.00  0.00    -0.061 NA
ATOM     81  N   UNL     1       5.761  -7.604  -2.096  1.00  0.00    -0.213 N 
BRANCH  79  82
ATOM     82  C   UNL     1       4.289  -5.895  -0.937  1.00  0.00     0.262 C 
ATOM     83  C   UNL     1       5.077  -5.309   0.247  1.00  0.00     0.281 C 
ATOM     84  O   UNL     1       3.325  -6.891  -0.584  1.00  0.00    -0.477 OA
ATOM     85  O   UNL     1       5.560  -6.356   1.094  1.00  0.00    -0.485 OA
ATOM     86  C   UNL     1       3.326  -7.201   0.751  1.00  0.00     0.162 A 
ATOM     87  C   UNL     1       4.454  -7.022   1.559  1.00  0.00     0.161 A 
ATOM     88  C   UNL     1       2.167  -7.754   1.282  1.00  0.00     0.050 A 
ATOM     89  C   UNL     1       4.468  -7.484   2.866  1.00  0.00     0.050 A 
ATOM     90  C   UNL     1       2.153  -8.153   2.618  1.00  0.00     0.004 A 
ATOM     91  C   UNL     1       3.307  -8.042   3.398  1.00  0.00     0.004 A 
ENDBRANCH  79  82
BRANCH  81  92
ATOM     92  C   UNL     1       5.312  -8.795  -1.499  1.00  0.00     0.067 A 
ATOM     93  C   UNL     1       6.034  -9.344  -0.437  1.00  0.00     0.028 A 
ATOM     94  C   UNL     1       4.066  -9.312  -1.874  1.00  0.00     0.041 A 
ATOM     95  C   UNL     1       5.449 -10.360   0.319  1.00  0.00     0.003 A 
ATOM     96  C   UNL     1       3.485 -10.344  -1.125  1.00  0.00     0.058 A 
ATOM     97  C   UNL     1       4.179 -10.845  -0.012  1.00  0.00     0.013 A 
BRANCH  96  98
ATOM     98  C   UNL     1       2.104 -10.847  -1.457  1.00  0.00     0.416 C 
ATOM     99  F   UNL     1       2.037 -12.208  -1.500  1.00  0.00    -0.166 F 
ATOM    100  F   UNL     1       1.159 -10.453  -0.561  1.00  0.00    -0.166 F 
ATOM    101  F   UNL     1       1.655 -10.424  -2.675  1.00  0.00    -0.166 F 
ENDBRANCH  96  98
ENDBRANCH  81  92
ENDBRANCH  74  77
ENDBRANCH  72  73
ENDBRANCH  71  72
ENDBRANCH   1  71
TORSDOF 16
