REMARK SMILES COc1ccc2c(c1)c(CC(=O)NCCCNC(=O)c1ccc(-c3c4nc(c(-c5cc(S(=O)(=O)[O-])ccc5F)c5ccc([nH]5)c(-c5cc(S(=O)(=O)[O-])ccc5F)c5nc(c(-c6cc(S(=O)(=O)[O-])ccc6F)c6ccc3[nH]6)C=C5)C=C4)cc1)c(C)n2Cc1ccc(Br)cc1
REMARK SMILES IDX 15 1 14 2 13 3 11 4 12 5 10 7 9 8 3 9 4 10 8 11 5 12 7 13
REMARK SMILES IDX 6 14 85 15 83 16 84 17 2 18 1 19 86 20 87 21 88 22 93 23
REMARK SMILES IDX 89 24 92 25 90 26 91 27 16 28 17 29 18 30 19 32 20 33 21 34
REMARK SMILES IDX 82 35 22 36 81 37 23 38 24 39 25 40 75 41 26 42 80 43 74 44
REMARK SMILES IDX 76 45 27 46 79 47 73 48 72 49 28 51 60 52 40 53 59 54 41 55
REMARK SMILES IDX 44 56 58 57 77 58 42 59 43 60 57 62 78 63 45 64 29 65 30 66
REMARK SMILES IDX 38 67 31 68 37 69 39 70 36 71 32 72 33 73 34 74 35 75 61 76
REMARK SMILES IDX 62 77 70 78 63 79 69 80 71 81 68 82 64 83 65 84 66 85 67 86
REMARK SMILES IDX 46 87 47 88 55 89 48 90 54 91 56 92 53 93 49 94 50 95 51 96
REMARK SMILES IDX 52 97
REMARK H PARENT 13 6 17 31 76 50 44 61
REMARK Flexibility Score: inf
ROOT
ATOM      1  C   UNL     1       1.146   7.827   0.691  1.00  0.00     0.042 C 
ENDROOT
BRANCH   1   2
ATOM      2  C   UNL     1      -0.245   7.968   1.320  1.00  0.00     0.117 C 
BRANCH   2   3
ATOM      3  N   UNL     1      -1.229   7.060   0.745  1.00  0.00    -0.356 N 
ATOM      4  C   UNL     1      -1.872   5.990   1.299  1.00  0.00     0.224 C 
ATOM      5  O   UNL     1      -2.704   5.394   0.608  1.00  0.00    -0.275 OA
ATOM      6  H   UNL     1      -1.469   7.248  -0.192  1.00  0.00     0.163 HD
BRANCH   4   7
ATOM      7  C   UNL     1      -1.634   5.593   2.746  1.00  0.00     0.138 C 
BRANCH   7   8
ATOM      8  C   UNL     1      -0.231   5.151   3.023  1.00  0.00    -0.010 A 
ATOM      9  C   UNL     1       1.115   2.300   0.880  1.00  0.00     0.119 A 
ATOM     10  C   UNL     1       2.412   2.334   1.384  1.00  0.00     0.048 A 
ATOM     11  C   UNL     1       0.171   3.229   1.321  1.00  0.00     0.057 A 
ATOM     12  C   UNL     1       2.784   3.266   2.365  1.00  0.00     0.031 A 
ATOM     13  C   UNL     1       0.508   4.147   2.336  1.00  0.00     0.007 A 
ATOM     14  C   UNL     1       1.808   4.154   2.851  1.00  0.00     0.049 A 
ATOM     15  N   UNL     1       1.856   5.152   3.817  1.00  0.00    -0.340 N 
ATOM     16  C   UNL     1       0.560   5.572   4.080  1.00  0.00     0.020 A 
ATOM     17  C   UNL     1       0.125   6.376   5.254  1.00  0.00     0.065 C 
BRANCH   9  18
ATOM     18  O   UNL     1       0.680   1.434  -0.088  1.00  0.00    -0.497 OA
ATOM     19  C   UNL     1       1.156   0.101   0.058  1.00  0.00     0.278 C 
ENDBRANCH   9  18
BRANCH  15  20
ATOM     20  C   UNL     1       3.081   5.618   4.487  1.00  0.00     0.157 C 
BRANCH  20  21
ATOM     21  C   UNL     1       3.405   7.060   4.157  1.00  0.00    -0.028 A 
ATOM     22  C   UNL     1       2.746   8.094   4.835  1.00  0.00     0.007 A 
ATOM     23  C   UNL     1       4.353   7.409   3.183  1.00  0.00     0.007 A 
ATOM     24  C   UNL     1       2.905   9.421   4.470  1.00  0.00     0.016 A 
ATOM     25  C   UNL     1       4.583   8.756   2.870  1.00  0.00     0.016 A 
ATOM     26  C   UNL     1       3.828   9.748   3.494  1.00  0.00     0.017 A 
ATOM     27  Br  UNL     1       4.030  11.570   3.104  1.00  0.00    -0.051 Br
ENDBRANCH  20  21
ENDBRANCH  15  20
ENDBRANCH   7   8
ENDBRANCH   4   7
ENDBRANCH   2   3
ENDBRANCH   1   2
BRANCH   1  28
ATOM     28  C   UNL     1       1.203   8.145  -0.804  1.00  0.00     0.118 C 
BRANCH  28  29
ATOM     29  N   UNL     1       0.693   9.459  -1.154  1.00  0.00    -0.352 N 
ATOM     30  C   UNL     1       1.215  10.706  -1.362  1.00  0.00     0.251 C 
ATOM     31  H   UNL     1      -0.284   9.450  -1.271  1.00  0.00     0.163 HD
ATOM     32  O   UNL     1       0.406  11.543  -1.778  1.00  0.00    -0.269 OA
BRANCH  30  33
ATOM     33  C   UNL     1       2.611  11.142  -1.081  1.00  0.00     0.039 A 
ATOM     34  C   UNL     1       3.650  10.326  -0.646  1.00  0.00     0.014 A 
ATOM     35  C   UNL     1       2.862  12.527  -1.211  1.00  0.00     0.014 A 
ATOM     36  C   UNL     1       4.861  10.896  -0.246  1.00  0.00     0.010 A 
ATOM     37  C   UNL     1       4.065  13.098  -0.800  1.00  0.00     0.010 A 
ATOM     38  C   UNL     1       5.042  12.289  -0.241  1.00  0.00    -0.014 A 
BRANCH  38  39
ATOM     39  C   UNL     1       6.270  12.814   0.375  1.00  0.00     0.031 A 
ATOM     40  C   UNL     1       7.533  12.280  -0.203  1.00  0.00     0.074 A 
ATOM     41  C   UNL     1       6.311  13.733   1.366  1.00  0.00     0.049 A 
ATOM     42  N   UNL     1       8.421  11.512   0.343  1.00  0.00    -0.248 NA
ATOM     43  C   UNL     1       7.750  12.536  -1.633  1.00  0.00     0.031 C 
ATOM     44  C   UNL     1       5.229  14.602   1.838  1.00  0.00     0.029 A 
ATOM     45  N   UNL     1       7.374  14.133   2.130  1.00  0.00    -0.354 N 
ATOM     46  C   UNL     1       9.414  11.338  -0.624  1.00  0.00     0.074 A 
ATOM     47  C   UNL     1       8.866  11.846  -1.857  1.00  0.00     0.031 C 
ATOM     48  C   UNL     1       5.737  15.555   2.651  1.00  0.00     0.029 A 
ATOM     49  C   UNL     1       7.152  15.300   2.850  1.00  0.00     0.049 A 
ATOM     50  H   UNL     1       8.223  13.636   2.165  1.00  0.00     0.167 HD
ATOM     51  C   UNL     1      10.690  10.970  -0.312  1.00  0.00     0.034 A 
ATOM     52  C   UNL     1       8.077  16.069   3.479  1.00  0.00     0.034 A 
ATOM     53  C   UNL     1      10.775  10.406   1.005  1.00  0.00     0.049 A 
ATOM     54  C   UNL     1       9.319  15.282   3.649  1.00  0.00     0.074 A 
ATOM     55  C   UNL     1      10.251   9.289   1.623  1.00  0.00     0.029 A 
ATOM     56  N   UNL     1      11.254  11.202   2.015  1.00  0.00    -0.354 N 
ATOM     57  N   UNL     1       9.471  14.306   4.496  1.00  0.00    -0.248 NA
ATOM     58  C   UNL     1      10.284  15.326   2.561  1.00  0.00     0.031 C 
ATOM     59  C   UNL     1      10.014   9.686   2.968  1.00  0.00     0.029 A 
ATOM     60  C   UNL     1      10.453  11.004   3.107  1.00  0.00     0.049 A 
ATOM     61  H   UNL     1      12.031  11.805   1.963  1.00  0.00     0.167 HD
ATOM     62  C   UNL     1      10.230  13.372   3.809  1.00  0.00     0.074 A 
ATOM     63  C   UNL     1      10.785  14.095   2.668  1.00  0.00     0.031 C 
ATOM     64  C   UNL     1      10.117  12.036   4.066  1.00  0.00     0.034 A 
BRANCH  51  65
ATOM     65  C   UNL     1      11.907  11.422  -1.088  1.00  0.00     0.023 A 
ATOM     66  C   UNL     1      11.855  12.445  -2.053  1.00  0.00     0.031 A 
ATOM     67  C   UNL     1      13.201  10.999  -0.718  1.00  0.00     0.131 A 
ATOM     68  C   UNL     1      13.013  12.988  -2.622  1.00  0.00     0.055 A 
ATOM     69  C   UNL     1      14.363  11.592  -1.232  1.00  0.00     0.041 A 
ATOM     70  F   UNL     1      13.378  10.038   0.202  1.00  0.00    -0.206 F 
ATOM     71  C   UNL     1      14.273  12.593  -2.192  1.00  0.00     0.022 A 
BRANCH  68  72
ATOM     72  S   UNL     1      12.885  14.236  -3.932  1.00  0.00     0.124 S 
ATOM     73  O   UNL     1      13.542  15.383  -3.320  1.00  0.00    -0.237 OA
ATOM     74  O   UNL     1      13.611  13.593  -5.024  1.00  0.00    -0.237 OA
ATOM     75  O   UNL     1      11.443  14.361  -4.142  1.00  0.00    -0.744 OA
ENDBRANCH  68  72
ENDBRANCH  51  65
BRANCH  52  76
ATOM     76  C   UNL     1       8.115  17.553   3.475  1.00  0.00     0.023 A 
ATOM     77  C   UNL     1       7.540  18.253   2.399  1.00  0.00     0.031 A 
ATOM     78  C   UNL     1       8.980  18.267   4.321  1.00  0.00     0.131 A 
ATOM     79  C   UNL     1       7.872  19.590   2.157  1.00  0.00     0.055 A 
ATOM     80  C   UNL     1       9.300  19.611   4.088  1.00  0.00     0.041 A 
ATOM     81  F   UNL     1       9.591  17.654   5.347  1.00  0.00    -0.206 F 
ATOM     82  C   UNL     1       8.756  20.275   2.991  1.00  0.00     0.022 A 
BRANCH  79  83
ATOM     83  S   UNL     1       7.220  20.429   0.689  1.00  0.00     0.124 S 
ATOM     84  O   UNL     1       6.837  21.735   1.221  1.00  0.00    -0.237 OA
ATOM     85  O   UNL     1       8.380  20.424  -0.194  1.00  0.00    -0.237 OA
ATOM     86  O   UNL     1       6.103  19.581   0.281  1.00  0.00    -0.744 OA
ENDBRANCH  79  83
ENDBRANCH  52  76
BRANCH  64  87
ATOM     87  C   UNL     1       9.370  11.583   5.298  1.00  0.00     0.023 A 
ATOM     88  C   UNL     1       9.985  10.593   6.087  1.00  0.00     0.031 A 
ATOM     89  C   UNL     1       8.032  11.910   5.591  1.00  0.00     0.131 A 
ATOM     90  C   UNL     1       9.266   9.937   7.092  1.00  0.00     0.055 A 
ATOM     91  C   UNL     1       7.342  11.308   6.648  1.00  0.00     0.041 A 
ATOM     92  F   UNL     1       7.329  12.750   4.817  1.00  0.00    -0.206 F 
ATOM     93  C   UNL     1       7.952  10.303   7.393  1.00  0.00     0.022 A 
BRANCH  90  94
ATOM     94  S   UNL     1       9.965   8.475   7.902  1.00  0.00     0.124 S 
ATOM     95  O   UNL     1      10.177   8.949   9.266  1.00  0.00    -0.237 OA
ATOM     96  O   UNL     1       8.897   7.488   7.741  1.00  0.00    -0.237 OA
ATOM     97  O   UNL     1      11.178   8.193   7.140  1.00  0.00    -0.744 OA
ENDBRANCH  90  94
ENDBRANCH  64  87
ENDBRANCH  38  39
ENDBRANCH  30  33
ENDBRANCH  28  29
ENDBRANCH   1  28
TORSDOF 17
