REMARK SMILES C[C@@H](S[C@H]1CC(=O)N(c2ccc3ccccc3c2)C1=O)C(=O)NCCCNC(=O)c1ccc(-c2c3nc(c(-c4cc(S(=O)(=O)[O-])ccc4F)c4ccc([nH]4)c(-c4cc(S(=O)(=O)[O-])ccc4F)c4nc(c(-c5cc(S(=O)(=O)[O-])ccc5F)c5ccc2[nH]5)C=C4)C=C3)cc1
REMARK SMILES IDX 25 1 24 2 23 3 21 4 22 5 2 7 1 8 3 9 4 10 5 11 19 12 6 13
REMARK SMILES IDX 8 14 20 15 7 16 9 17 10 18 18 19 11 20 17 21 12 22 16 23
REMARK SMILES IDX 13 24 15 25 14 26 26 27 27 28 28 29 29 31 30 32 31 33 92 34
REMARK SMILES IDX 32 35 91 36 33 37 34 38 35 39 85 40 36 41 90 42 84 43 86 44
REMARK SMILES IDX 37 45 89 46 83 47 82 48 38 50 70 51 50 52 69 53 51 54 54 55
REMARK SMILES IDX 68 56 87 57 52 58 53 59 67 61 88 62 55 63 39 64 40 65 48 66
REMARK SMILES IDX 41 67 47 68 49 69 46 70 42 71 43 72 44 73 45 74 71 75 72 76
REMARK SMILES IDX 80 77 73 78 79 79 81 80 78 81 74 82 75 83 76 84 77 85 56 86
REMARK SMILES IDX 57 87 65 88 58 89 64 90 66 91 63 92 59 93 60 94 61 95 62 96
REMARK H PARENT 23 6 27 30 86 49 54 60
REMARK Flexibility Score: inf
ROOT
ATOM      1  C   UNL     1      -0.853   4.186  -0.808  1.00  0.00     0.042 C 
ENDROOT
BRANCH   1   2
ATOM      2  C   UNL     1       0.542   3.660  -0.536  1.00  0.00     0.117 C 
BRANCH   2   3
ATOM      3  N   UNL     1       1.196   4.243   0.622  1.00  0.00    -0.355 N 
ATOM      4  C   UNL     1       2.083   3.736   1.521  1.00  0.00     0.232 C 
ATOM      5  O   UNL     1       2.677   4.571   2.215  1.00  0.00    -0.274 OA
ATOM      6  H   UNL     1       0.953   5.183   0.788  1.00  0.00     0.163 HD
BRANCH   4   7
ATOM      7  C   UNL     1       2.381   2.244   1.701  1.00  0.00     0.133 C 
ATOM      8  C   UNL     1       1.207   1.280   1.638  1.00  0.00     0.030 C 
BRANCH   7   9
ATOM      9  S   UNL     1       3.859   1.646   0.781  1.00  0.00    -0.135 SA
BRANCH   9  10
ATOM     10  C   UNL     1       3.545   2.247  -0.900  1.00  0.00     0.147 C 
ATOM     11  C   UNL     1       4.302   3.524  -1.201  1.00  0.00     0.125 C 
ATOM     12  C   UNL     1       3.966   1.284  -1.976  1.00  0.00     0.247 C 
ATOM     13  C   UNL     1       4.922   3.281  -2.546  1.00  0.00     0.235 C 
ATOM     14  N   UNL     1       4.672   1.983  -2.927  1.00  0.00    -0.250 N 
ATOM     15  O   UNL     1       3.666   0.095  -1.983  1.00  0.00    -0.273 OA
ATOM     16  O   UNL     1       5.521   4.151  -3.155  1.00  0.00    -0.274 OA
BRANCH  14  17
ATOM     17  C   UNL     1       5.104   1.416  -4.150  1.00  0.00     0.052 A 
ATOM     18  C   UNL     1       6.355   1.737  -4.684  1.00  0.00     0.027 A 
ATOM     19  C   UNL     1       4.287   0.508  -4.842  1.00  0.00     0.035 A 
ATOM     20  C   UNL     1       6.815   1.101  -5.841  1.00  0.00     0.011 A 
ATOM     21  C   UNL     1       4.713  -0.095  -6.037  1.00  0.00    -0.016 A 
ATOM     22  C   UNL     1       6.010   0.176  -6.522  1.00  0.00    -0.018 A 
ATOM     23  C   UNL     1       3.878  -0.965  -6.758  1.00  0.00     0.009 A 
ATOM     24  C   UNL     1       6.463  -0.480  -7.677  1.00  0.00     0.009 A 
ATOM     25  C   UNL     1       4.333  -1.590  -7.919  1.00  0.00     0.001 A 
ATOM     26  C   UNL     1       5.631  -1.363  -8.367  1.00  0.00     0.001 A 
ENDBRANCH  14  17
ENDBRANCH   9  10
ENDBRANCH   7   9
ENDBRANCH   4   7
ENDBRANCH   2   3
ENDBRANCH   1   2
BRANCH   1  27
ATOM     27  C   UNL     1      -0.898   5.676  -1.114  1.00  0.00     0.118 C 
BRANCH  27  28
ATOM     28  N   UNL     1      -0.094   6.062  -2.271  1.00  0.00    -0.352 N 
ATOM     29  C   UNL     1      -0.438   6.346  -3.574  1.00  0.00     0.251 C 
ATOM     30  H   UNL     1       0.871   6.131  -2.085  1.00  0.00     0.163 HD
ATOM     31  O   UNL     1       0.455   6.468  -4.408  1.00  0.00    -0.269 OA
BRANCH  29  32
ATOM     32  C   UNL     1      -1.856   6.460  -3.978  1.00  0.00     0.039 A 
ATOM     33  C   UNL     1      -2.260   5.967  -5.223  1.00  0.00     0.014 A 
ATOM     34  C   UNL     1      -2.794   7.052  -3.137  1.00  0.00     0.014 A 
ATOM     35  C   UNL     1      -3.617   5.969  -5.564  1.00  0.00     0.010 A 
ATOM     36  C   UNL     1      -4.148   6.929  -3.414  1.00  0.00     0.010 A 
ATOM     37  C   UNL     1      -4.580   6.392  -4.635  1.00  0.00    -0.014 A 
BRANCH  37  38
ATOM     38  C   UNL     1      -6.042   6.313  -4.904  1.00  0.00     0.031 A 
ATOM     39  C   UNL     1      -6.885   7.559  -4.809  1.00  0.00     0.074 A 
ATOM     40  C   UNL     1      -6.624   5.115  -5.114  1.00  0.00     0.049 A 
ATOM     41  N   UNL     1      -8.187   7.685  -4.812  1.00  0.00    -0.248 NA
ATOM     42  C   UNL     1      -6.162   8.828  -4.629  1.00  0.00     0.031 C 
ATOM     43  C   UNL     1      -5.926   3.828  -5.172  1.00  0.00     0.029 A 
ATOM     44  N   UNL     1      -7.942   4.781  -5.303  1.00  0.00    -0.354 N 
ATOM     45  C   UNL     1      -8.436   9.036  -4.591  1.00  0.00     0.074 A 
ATOM     46  C   UNL     1      -7.152   9.671  -4.386  1.00  0.00     0.031 C 
ATOM     47  C   UNL     1      -6.817   2.853  -5.411  1.00  0.00     0.029 A 
ATOM     48  C   UNL     1      -8.154   3.432  -5.468  1.00  0.00     0.049 A 
ATOM     49  H   UNL     1      -8.669   5.446  -5.317  1.00  0.00     0.167 HD
ATOM     50  C   UNL     1      -9.623   9.693  -4.589  1.00  0.00     0.034 A 
ATOM     51  C   UNL     1      -9.298   2.738  -5.633  1.00  0.00     0.034 A 
ATOM     52  C   UNL     1     -10.888   9.050  -4.847  1.00  0.00     0.049 A 
ATOM     53  C   UNL     1     -10.604   3.490  -5.652  1.00  0.00     0.074 A 
ATOM     54  C   UNL     1     -12.143   9.623  -4.946  1.00  0.00     0.029 A 
ATOM     55  N   UNL     1     -11.056   7.686  -5.054  1.00  0.00    -0.354 N 
ATOM     56  N   UNL     1     -10.820   4.774  -5.483  1.00  0.00    -0.248 NA
ATOM     57  C   UNL     1     -11.818   2.700  -5.894  1.00  0.00     0.031 C 
ATOM     58  C   UNL     1     -13.076   8.601  -5.159  1.00  0.00     0.029 A 
ATOM     59  C   UNL     1     -12.396   7.398  -5.260  1.00  0.00     0.049 A 
ATOM     60  H   UNL     1     -10.329   7.022  -5.054  1.00  0.00     0.167 HD
ATOM     61  C   UNL     1     -12.194   4.949  -5.628  1.00  0.00     0.074 A 
ATOM     62  C   UNL     1     -12.750   3.642  -5.912  1.00  0.00     0.031 C 
ATOM     63  C   UNL     1     -12.930   6.085  -5.536  1.00  0.00     0.034 A 
BRANCH  50  64
ATOM     64  C   UNL     1      -9.598  11.174  -4.288  1.00  0.00     0.023 A 
ATOM     65  C   UNL     1      -8.902  12.082  -5.106  1.00  0.00     0.031 A 
ATOM     66  C   UNL     1     -10.237  11.682  -3.144  1.00  0.00     0.131 A 
ATOM     67  C   UNL     1      -8.780  13.424  -4.720  1.00  0.00     0.055 A 
ATOM     68  C   UNL     1     -10.191  13.038  -2.814  1.00  0.00     0.041 A 
ATOM     69  F   UNL     1     -10.902  10.864  -2.312  1.00  0.00    -0.206 F 
ATOM     70  C   UNL     1      -9.442  13.916  -3.593  1.00  0.00     0.022 A 
BRANCH  67  71
ATOM     71  S   UNL     1      -7.610  14.478  -5.620  1.00  0.00     0.124 S 
ATOM     72  O   UNL     1      -6.351  13.767  -5.405  1.00  0.00    -0.237 OA
ATOM     73  O   UNL     1      -8.137  14.446  -6.979  1.00  0.00    -0.237 OA
ATOM     74  O   UNL     1      -7.714  15.766  -4.939  1.00  0.00    -0.744 OA
ENDBRANCH  67  71
ENDBRANCH  50  64
BRANCH  51  75
ATOM     75  C   UNL     1      -9.269   1.256  -5.792  1.00  0.00     0.023 A 
ATOM     76  C   UNL     1      -9.664   0.655  -6.997  1.00  0.00     0.031 A 
ATOM     77  C   UNL     1      -8.882   0.416  -4.732  1.00  0.00     0.131 A 
ATOM     78  C   UNL     1      -9.708  -0.744  -7.101  1.00  0.00     0.055 A 
ATOM     79  C   UNL     1      -8.880  -0.974  -4.857  1.00  0.00     0.041 A 
ATOM     80  F   UNL     1      -8.485   0.940  -3.561  1.00  0.00    -0.206 F 
ATOM     81  C   UNL     1      -9.308  -1.562  -6.043  1.00  0.00     0.022 A 
BRANCH  78  82
ATOM     82  S   UNL     1     -10.376  -1.480  -8.619  1.00  0.00     0.124 S 
ATOM     83  O   UNL     1     -11.713  -0.899  -8.667  1.00  0.00    -0.237 OA
ATOM     84  O   UNL     1      -9.432  -1.004  -9.625  1.00  0.00    -0.237 OA
ATOM     85  O   UNL     1     -10.326  -2.915  -8.351  1.00  0.00    -0.744 OA
ENDBRANCH  78  82
ENDBRANCH  51  75
BRANCH  63  86
ATOM     86  C   UNL     1     -14.410   5.962  -5.795  1.00  0.00     0.023 A 
ATOM     87  C   UNL     1     -15.258   5.269  -4.915  1.00  0.00     0.031 A 
ATOM     88  C   UNL     1     -14.975   6.538  -6.947  1.00  0.00     0.131 A 
ATOM     89  C   UNL     1     -16.618   5.123  -5.227  1.00  0.00     0.055 A 
ATOM     90  C   UNL     1     -16.339   6.439  -7.222  1.00  0.00     0.041 A 
ATOM     91  F   UNL     1     -14.209   7.210  -7.821  1.00  0.00    -0.206 F 
ATOM     92  C   UNL     1     -17.166   5.718  -6.367  1.00  0.00     0.022 A 
BRANCH  89  93
ATOM     93  S   UNL     1     -17.645   4.070  -4.167  1.00  0.00     0.124 S 
ATOM     94  O   UNL     1     -16.959   2.785  -4.258  1.00  0.00    -0.237 OA
ATOM     95  O   UNL     1     -17.560   4.748  -2.877  1.00  0.00    -0.237 OA
ATOM     96  O   UNL     1     -18.959   4.119  -4.806  1.00  0.00    -0.744 OA
ENDBRANCH  89  93
ENDBRANCH  63  86
ENDBRANCH  37  38
ENDBRANCH  29  32
ENDBRANCH  27  28
ENDBRANCH   1  27
TORSDOF 16
