REMARK SMILES Cn1c(=O)c(=O)n(C)c2cc(S(=O)(=O)N3CCC[C@H]3C(=O)NCCCNC(=O)c3ccc(-c4c5nc(c(-c6cc(S(=O)(=O)[O-])ccc6F)c6ccc([nH]6)c(-c6cc(S(=O)(=O)[O-])ccc6F)c6nc(c(-c7cc(S(=O)(=O)[O-])ccc7F)c7ccc4[nH]7)C=C6)C=C5)cc3)ccc21
REMARK SMILES IDX 24 1 23 2 22 3 20 4 21 5 19 7 15 8 16 9 17 10 18 11 12 12
REMARK SMILES IDX 13 13 14 14 11 15 1 16 2 17 3 18 94 19 4 20 5 21 9 22 93 23
REMARK SMILES IDX 6 24 7 25 10 26 92 27 8 28 25 29 26 30 27 31 28 33 29 34
REMARK SMILES IDX 30 35 91 36 31 37 90 38 32 39 33 40 34 41 84 42 35 43 89 44
REMARK SMILES IDX 83 45 85 46 36 47 88 48 82 49 81 50 37 52 69 53 49 54 68 55
REMARK SMILES IDX 50 56 53 57 67 58 86 59 51 60 52 61 66 63 87 64 54 65 38 66
REMARK SMILES IDX 39 67 47 68 40 69 46 70 48 71 45 72 41 73 42 74 43 75 44 76
REMARK SMILES IDX 70 77 71 78 79 79 72 80 78 81 80 82 77 83 73 84 74 85 75 86
REMARK SMILES IDX 76 87 55 88 56 89 64 90 57 91 63 92 65 93 62 94 58 95 59 96
REMARK SMILES IDX 60 97 61 98
REMARK H PARENT 22 6 26 32 85 51 53 62
REMARK Flexibility Score: inf
ROOT
ATOM      1  C   UNL     1      -7.104  -2.386  -5.264  1.00  0.00     0.042 C 
ENDROOT
BRANCH   1   2
ATOM      2  C   UNL     1      -6.644  -1.063  -5.867  1.00  0.00     0.117 C 
BRANCH   2   3
ATOM      3  N   UNL     1      -6.873   0.048  -4.962  1.00  0.00    -0.355 N 
ATOM      4  C   UNL     1      -6.082   0.687  -4.066  1.00  0.00     0.238 C 
ATOM      5  O   UNL     1      -6.662   1.492  -3.322  1.00  0.00    -0.273 OA
ATOM      6  H   UNL     1      -7.787   0.410  -5.008  1.00  0.00     0.163 HD
BRANCH   4   7
ATOM      7  C   UNL     1      -4.566   0.559  -3.965  1.00  0.00     0.162 C 
ATOM      8  N   UNL     1      -3.804  -0.320  -4.863  1.00  0.00    -0.185 NA
ATOM      9  C   UNL     1      -3.057   0.452  -5.858  1.00  0.00     0.103 C 
ATOM     10  C   UNL     1      -2.824   1.796  -5.205  1.00  0.00     0.019 C 
ATOM     11  C   UNL     1      -3.977   1.967  -4.229  1.00  0.00     0.032 C 
BRANCH   8  12
ATOM     12  S   UNL     1      -3.307  -1.846  -4.386  1.00  0.00     0.243 S 
ATOM     13  O   UNL     1      -2.750  -2.493  -5.551  1.00  0.00    -0.207 OA
ATOM     14  O   UNL     1      -4.390  -2.438  -3.632  1.00  0.00    -0.207 OA
BRANCH  12  15
ATOM     15  C   UNL     1      -1.976  -1.691  -3.217  1.00  0.00     0.084 A 
ATOM     16  C   UNL     1       1.425  -0.337   0.356  1.00  0.00     0.154 C 
ATOM     17  N   UNL     1       1.024  -1.605  -0.232  1.00  0.00    -0.305 N 
ATOM     18  C   UNL     1       1.637  -2.763   0.243  1.00  0.00     0.316 A 
ATOM     19  C   UNL     1       0.023  -1.649  -1.238  1.00  0.00     0.068 A 
ATOM     20  O   UNL     1       2.506  -2.757   1.112  1.00  0.00    -0.263 OA
ATOM     21  C   UNL     1       1.203  -4.105  -0.359  1.00  0.00     0.316 A 
ATOM     22  C   UNL     1      -0.380  -2.878  -1.789  1.00  0.00     0.069 A 
ATOM     23  C   UNL     1      -0.587  -0.465  -1.689  1.00  0.00     0.030 A 
ATOM     24  O   UNL     1       1.758  -5.126   0.038  1.00  0.00    -0.263 OA
ATOM     25  N   UNL     1       0.205  -4.091  -1.333  1.00  0.00    -0.305 N 
ATOM     26  C   UNL     1      -1.376  -2.883  -2.783  1.00  0.00     0.050 A 
ATOM     27  C   UNL     1      -1.580  -0.484  -2.669  1.00  0.00     0.024 A 
ATOM     28  C   UNL     1      -0.238  -5.372  -1.868  1.00  0.00     0.154 C 
ENDBRANCH  12  15
ENDBRANCH   8  12
ENDBRANCH   4   7
ENDBRANCH   2   3
ENDBRANCH   1   2
BRANCH   1  29
ATOM     29  C   UNL     1      -8.611  -2.509  -5.076  1.00  0.00     0.118 C 
BRANCH  29  30
ATOM     30  N   UNL     1      -9.345  -2.584  -6.331  1.00  0.00    -0.352 N 
ATOM     31  C   UNL     1     -10.234  -3.536  -6.776  1.00  0.00     0.251 C 
ATOM     32  H   UNL     1      -9.180  -1.842  -6.956  1.00  0.00     0.163 HD
ATOM     33  O   UNL     1     -10.638  -3.482  -7.935  1.00  0.00    -0.269 OA
BRANCH  31  34
ATOM     34  C   UNL     1     -10.673  -4.635  -5.884  1.00  0.00     0.039 A 
ATOM     35  C   UNL     1     -10.986  -4.398  -4.545  1.00  0.00     0.014 A 
ATOM     36  C   UNL     1     -10.769  -5.932  -6.399  1.00  0.00     0.014 A 
ATOM     37  C   UNL     1     -11.213  -5.470  -3.687  1.00  0.00     0.010 A 
ATOM     38  C   UNL     1     -11.088  -7.000  -5.552  1.00  0.00     0.010 A 
ATOM     39  C   UNL     1     -11.258  -6.786  -4.176  1.00  0.00    -0.014 A 
BRANCH  39  40
ATOM     40  C   UNL     1     -11.484  -7.909  -3.225  1.00  0.00     0.031 A 
ATOM     41  C   UNL     1     -10.419  -8.949  -2.990  1.00  0.00     0.074 A 
ATOM     42  C   UNL     1     -12.631  -7.949  -2.517  1.00  0.00     0.049 A 
ATOM     43  N   UNL     1     -10.424  -9.954  -2.151  1.00  0.00    -0.248 NA
ATOM     44  C   UNL     1      -9.195  -8.858  -3.802  1.00  0.00     0.031 C 
ATOM     45  C   UNL     1     -13.737  -7.004  -2.671  1.00  0.00     0.029 A 
ATOM     46  N   UNL     1     -13.048  -8.787  -1.512  1.00  0.00    -0.354 N 
ATOM     47  C   UNL     1      -9.219 -10.620  -2.343  1.00  0.00     0.074 A 
ATOM     48  C   UNL     1      -8.520  -9.927  -3.402  1.00  0.00     0.031 C 
ATOM     49  C   UNL     1     -14.676  -7.273  -1.754  1.00  0.00     0.029 A 
ATOM     50  C   UNL     1     -14.271  -8.445  -0.982  1.00  0.00     0.049 A 
ATOM     51  H   UNL     1     -12.522  -9.559  -1.201  1.00  0.00     0.167 HD
ATOM     52  C   UNL     1      -8.735 -11.702  -1.686  1.00  0.00     0.034 A 
ATOM     53  C   UNL     1     -14.988  -9.004   0.016  1.00  0.00     0.034 A 
ATOM     54  C   UNL     1      -9.431 -12.370  -0.616  1.00  0.00     0.049 A 
ATOM     55  C   UNL     1     -14.407 -10.180   0.757  1.00  0.00     0.074 A 
ATOM     56  C   UNL     1      -9.030 -13.485   0.101  1.00  0.00     0.029 A 
ATOM     57  N   UNL     1     -10.652 -11.976  -0.090  1.00  0.00    -0.354 N 
ATOM     58  N   UNL     1     -13.253 -10.778   0.576  1.00  0.00    -0.248 NA
ATOM     59  C   UNL     1     -15.211 -10.753   1.846  1.00  0.00     0.031 C 
ATOM     60  C   UNL     1     -10.023 -13.784   1.035  1.00  0.00     0.029 A 
ATOM     61  C   UNL     1     -11.017 -12.823   0.942  1.00  0.00     0.049 A 
ATOM     62  H   UNL     1     -11.181 -11.207  -0.404  1.00  0.00     0.167 HD
ATOM     63  C   UNL     1     -13.184 -11.780   1.539  1.00  0.00     0.074 A 
ATOM     64  C   UNL     1     -14.399 -11.688   2.321  1.00  0.00     0.031 C 
ATOM     65  C   UNL     1     -12.209 -12.699   1.744  1.00  0.00     0.034 A 
BRANCH  52  66
ATOM     66  C   UNL     1      -7.379 -12.237  -2.072  1.00  0.00     0.023 A 
ATOM     67  C   UNL     1      -7.259 -13.526  -2.626  1.00  0.00     0.031 A 
ATOM     68  C   UNL     1      -6.202 -11.533  -1.763  1.00  0.00     0.131 A 
ATOM     69  C   UNL     1      -5.990 -14.085  -2.817  1.00  0.00     0.055 A 
ATOM     70  C   UNL     1      -4.939 -12.081  -1.990  1.00  0.00     0.041 A 
ATOM     71  F   UNL     1      -6.265 -10.299  -1.237  1.00  0.00    -0.206 F 
ATOM     72  C   UNL     1      -4.829 -13.368  -2.508  1.00  0.00     0.022 A 
BRANCH  69  73
ATOM     73  S   UNL     1      -5.795 -15.784  -3.423  1.00  0.00     0.124 S 
ATOM     74  O   UNL     1      -4.944 -15.590  -4.596  1.00  0.00    -0.237 OA
ATOM     75  O   UNL     1      -5.152 -16.441  -2.288  1.00  0.00    -0.237 OA
ATOM     76  O   UNL     1      -7.159 -16.212  -3.713  1.00  0.00    -0.744 OA
ENDBRANCH  69  73
ENDBRANCH  52  66
BRANCH  53  77
ATOM     77  C   UNL     1     -16.299  -8.399   0.395  1.00  0.00     0.023 A 
ATOM     78  C   UNL     1     -17.356  -8.326  -0.531  1.00  0.00     0.031 A 
ATOM     79  C   UNL     1     -16.478  -7.789   1.648  1.00  0.00     0.131 A 
ATOM     80  C   UNL     1     -18.514  -7.603  -0.215  1.00  0.00     0.055 A 
ATOM     81  C   UNL     1     -17.663  -7.132   1.986  1.00  0.00     0.041 A 
ATOM     82  F   UNL     1     -15.494  -7.816   2.561  1.00  0.00    -0.206 F 
ATOM     83  C   UNL     1     -18.680  -7.019   1.044  1.00  0.00     0.022 A 
BRANCH  80  84
ATOM     84  S   UNL     1     -19.767  -7.263  -1.484  1.00  0.00     0.124 S 
ATOM     85  O   UNL     1     -20.900  -8.049  -1.008  1.00  0.00    -0.237 OA
ATOM     86  O   UNL     1     -19.917  -5.813  -1.382  1.00  0.00    -0.237 OA
ATOM     87  O   UNL     1     -19.141  -7.732  -2.716  1.00  0.00    -0.744 OA
ENDBRANCH  80  84
ENDBRANCH  53  77
BRANCH  65  88
ATOM     88  C   UNL     1     -12.371 -13.687   2.873  1.00  0.00     0.023 A 
ATOM     89  C   UNL     1     -11.459 -13.683   3.945  1.00  0.00     0.031 A 
ATOM     90  C   UNL     1     -13.321 -14.720   2.809  1.00  0.00     0.131 A 
ATOM     91  C   UNL     1     -11.497 -14.710   4.896  1.00  0.00     0.055 A 
ATOM     92  C   UNL     1     -13.379 -15.722   3.779  1.00  0.00     0.041 A 
ATOM     93  F   UNL     1     -14.202 -14.775   1.796  1.00  0.00    -0.206 F 
ATOM     94  C   UNL     1     -12.455 -15.727   4.821  1.00  0.00     0.022 A 
BRANCH  91  95
ATOM     95  S   UNL     1     -10.254 -14.816   6.213  1.00  0.00     0.124 S 
ATOM     96  O   UNL     1     -11.072 -14.652   7.412  1.00  0.00    -0.237 OA
ATOM     97  O   UNL     1      -9.704 -16.154   6.012  1.00  0.00    -0.237 OA
ATOM     98  O   UNL     1      -9.341 -13.714   5.926  1.00  0.00    -0.744 OA
ENDBRANCH  91  95
ENDBRANCH  65  88
ENDBRANCH  39  40
ENDBRANCH  31  34
ENDBRANCH  29  30
ENDBRANCH   1  29
TORSDOF 15
