REMARK SMILES CC[NH2+][C@]1(C(=O)NCCCNC(=O)c2ccc(-c3c4nc(c(-c5cc(S(=O)(=O)[O-])ccc5F)c5ccc([nH]5)c(-c5cc(S(=O)(=O)[O-])ccc5F)c5nc(c(-c6cc(S(=O)(=O)[O-])ccc6F)c6ccc3[nH]6)C=C5)C=C4)cc2)CCC[C@@H]1CC[N@H+]1C[C@H](C)OC[C@@H]1C
REMARK SMILES IDX 9 1 8 2 7 3 5 4 6 5 4 7 77 8 80 9 78 10 79 11 3 12 2 15 1 16
REMARK SMILES IDX 81 17 82 18 83 19 84 20 89 21 85 23 88 24 90 25 87 26 86 27
REMARK SMILES IDX 10 28 11 29 12 30 13 32 14 33 15 34 76 35 16 36 75 37 17 38
REMARK SMILES IDX 18 39 19 40 69 41 20 42 74 43 68 44 70 45 21 46 73 47 67 48
REMARK SMILES IDX 66 49 22 51 54 52 34 53 53 54 35 55 38 56 52 57 71 58 36 59
REMARK SMILES IDX 37 60 51 62 72 63 39 64 23 65 24 66 32 67 25 68 31 69 33 70
REMARK SMILES IDX 30 71 26 72 27 73 28 74 29 75 55 76 56 77 64 78 57 79 63 80
REMARK SMILES IDX 65 81 62 82 58 83 59 84 60 85 61 86 40 87 41 88 49 89 42 90
REMARK SMILES IDX 48 91 50 92 47 93 43 94 44 95 45 96 46 97
REMARK H PARENT 7 6 3 13 3 14 83 22 11 31 70 50 38 61
REMARK Flexibility Score: inf
ROOT
ATOM      1  C   UNL     1       5.064  -0.736  -2.785  1.00  0.00     0.042 C 
ENDROOT
BRANCH   1   2
ATOM      2  C   UNL     1       3.935  -1.706  -3.069  1.00  0.00     0.118 C 
BRANCH   2   3
ATOM      3  N   UNL     1       3.010  -1.799  -1.962  1.00  0.00    -0.351 N 
ATOM      4  C   UNL     1       1.781  -1.250  -1.793  1.00  0.00     0.281 C 
ATOM      5  O   UNL     1       1.540  -0.950  -0.618  1.00  0.00    -0.268 OA
ATOM      6  H   UNL     1       3.322  -2.351  -1.209  1.00  0.00     0.163 HD
BRANCH   4   7
ATOM      7  C   UNL     1       0.789  -0.977  -2.995  1.00  0.00     0.178 C 
ATOM      8  C   UNL     1       1.218   0.401  -3.570  1.00  0.00     0.079 C 
ATOM      9  C   UNL     1       0.919  -1.984  -4.200  1.00  0.00     0.066 C 
ATOM     10  C   UNL     1       1.325   0.288  -5.079  1.00  0.00     0.008 C 
ATOM     11  C   UNL     1       1.448  -1.184  -5.408  1.00  0.00     0.011 C 
BRANCH   7  12
ATOM     12  N   UNL     1      -0.605  -0.821  -2.501  1.00  0.00    -0.334 N 
ATOM     13  H   UNL     1      -0.705   0.131  -2.150  1.00  0.00     0.347 HD
ATOM     14  H   UNL     1      -1.201  -1.043  -3.298  1.00  0.00     0.347 HD
BRANCH  12  15
ATOM     15  C   UNL     1      -1.023  -1.733  -1.438  1.00  0.00     0.257 C 
ATOM     16  C   UNL     1      -2.528  -1.712  -1.207  1.00  0.00     0.071 C 
ENDBRANCH  12  15
ENDBRANCH   7  12
BRANCH   9  17
ATOM     17  C   UNL     1      -0.172  -3.025  -4.591  1.00  0.00     0.072 C 
BRANCH  17  18
ATOM     18  C   UNL     1      -1.669  -2.688  -4.775  1.00  0.00     0.263 C 
BRANCH  18  19
ATOM     19  N   UNL     1      -1.964  -1.322  -5.189  1.00  0.00    -0.329 N 
ATOM     20  C   UNL     1      -1.607  -1.046  -6.590  1.00  0.00     0.294 C 
ATOM     21  C   UNL     1      -3.337  -0.860  -4.872  1.00  0.00     0.207 C 
ATOM     22  H   UNL     1      -1.346  -0.759  -4.604  1.00  0.00     0.348 HD
ATOM     23  C   UNL     1      -2.706  -1.108  -7.662  1.00  0.00     0.170 C 
ATOM     24  C   UNL     1      -4.356  -1.008  -6.022  1.00  0.00     0.225 C 
ATOM     25  C   UNL     1      -3.250   0.604  -4.413  1.00  0.00     0.078 C 
ATOM     26  O   UNL     1      -3.884  -0.423  -7.237  1.00  0.00    -0.366 OA
ATOM     27  C   UNL     1      -2.190  -0.448  -8.937  1.00  0.00     0.045 C 
ENDBRANCH  18  19
ENDBRANCH  17  18
ENDBRANCH   9  17
ENDBRANCH   4   7
ENDBRANCH   2   3
ENDBRANCH   1   2
BRANCH   1  28
ATOM     28  C   UNL     1       5.741  -0.987  -1.453  1.00  0.00     0.118 C 
BRANCH  28  29
ATOM     29  N   UNL     1       6.188  -2.370  -1.306  1.00  0.00    -0.352 N 
ATOM     30  C   UNL     1       7.470  -2.845  -1.168  1.00  0.00     0.251 C 
ATOM     31  H   UNL     1       5.477  -3.051  -1.307  1.00  0.00     0.163 HD
ATOM     32  O   UNL     1       7.708  -4.045  -1.254  1.00  0.00    -0.269 OA
BRANCH  30  33
ATOM     33  C   UNL     1       8.544  -1.861  -0.955  1.00  0.00     0.039 A 
ATOM     34  C   UNL     1       9.653  -1.858  -1.800  1.00  0.00     0.014 A 
ATOM     35  C   UNL     1       8.359  -0.857  -0.003  1.00  0.00     0.014 A 
ATOM     36  C   UNL     1      10.540  -0.782  -1.748  1.00  0.00     0.010 A 
ATOM     37  C   UNL     1       9.168   0.265  -0.044  1.00  0.00     0.010 A 
ATOM     38  C   UNL     1      10.274   0.311  -0.908  1.00  0.00    -0.014 A 
BRANCH  38  39
ATOM     39  C   UNL     1      11.148   1.510  -0.858  1.00  0.00     0.031 A 
ATOM     40  C   UNL     1      11.760   1.898   0.461  1.00  0.00     0.074 A 
ATOM     41  C   UNL     1      11.292   2.298  -1.941  1.00  0.00     0.049 A 
ATOM     42  N   UNL     1      12.361   3.005   0.804  1.00  0.00    -0.248 NA
ATOM     43  C   UNL     1      11.615   0.926   1.558  1.00  0.00     0.031 C 
ATOM     44  C   UNL     1      10.709   2.047  -3.262  1.00  0.00     0.029 A 
ATOM     45  N   UNL     1      11.960   3.486  -2.097  1.00  0.00    -0.354 N 
ATOM     46  C   UNL     1      12.619   2.883   2.166  1.00  0.00     0.074 A 
ATOM     47  C   UNL     1      12.043   1.627   2.594  1.00  0.00     0.031 C 
ATOM     48  C   UNL     1      11.066   3.038  -4.096  1.00  0.00     0.029 A 
ATOM     49  C   UNL     1      11.853   4.021  -3.360  1.00  0.00     0.049 A 
ATOM     50  H   UNL     1      12.469   3.916  -1.372  1.00  0.00     0.167 HD
ATOM     51  C   UNL     1      13.298   3.728   2.978  1.00  0.00     0.034 A 
ATOM     52  C   UNL     1      12.323   5.182  -3.858  1.00  0.00     0.034 A 
ATOM     53  C   UNL     1      13.908   4.948   2.515  1.00  0.00     0.049 A 
ATOM     54  C   UNL     1      13.102   6.096  -2.946  1.00  0.00     0.074 A 
ATOM     55  C   UNL     1      14.675   5.854   3.224  1.00  0.00     0.029 A 
ATOM     56  N   UNL     1      13.828   5.427   1.213  1.00  0.00    -0.354 N 
ATOM     57  N   UNL     1      13.364   5.958  -1.666  1.00  0.00    -0.248 NA
ATOM     58  C   UNL     1      13.657   7.317  -3.544  1.00  0.00     0.031 C 
ATOM     59  C   UNL     1      15.018   6.903   2.365  1.00  0.00     0.029 A 
ATOM     60  C   UNL     1      14.522   6.619   1.102  1.00  0.00     0.049 A 
ATOM     61  H   UNL     1      13.347   4.983   0.477  1.00  0.00     0.167 HD
ATOM     62  C   UNL     1      14.148   7.054  -1.318  1.00  0.00     0.074 A 
ATOM     63  C   UNL     1      14.317   7.842  -2.521  1.00  0.00     0.031 C 
ATOM     64  C   UNL     1      14.687   7.378  -0.115  1.00  0.00     0.034 A 
BRANCH  51  65
ATOM     65  C   UNL     1      13.395   3.358   4.439  1.00  0.00     0.023 A 
ATOM     66  C   UNL     1      14.021   2.171   4.859  1.00  0.00     0.031 A 
ATOM     67  C   UNL     1      12.803   4.171   5.421  1.00  0.00     0.131 A 
ATOM     68  C   UNL     1      13.957   1.783   6.205  1.00  0.00     0.055 A 
ATOM     69  C   UNL     1      12.826   3.825   6.774  1.00  0.00     0.041 A 
ATOM     70  F   UNL     1      12.172   5.306   5.081  1.00  0.00    -0.206 F 
ATOM     71  C   UNL     1      13.388   2.615   7.171  1.00  0.00     0.022 A 
BRANCH  68  72
ATOM     72  S   UNL     1      14.482   0.103   6.644  1.00  0.00     0.124 S 
ATOM     73  O   UNL     1      13.568  -0.708   5.843  1.00  0.00    -0.237 OA
ATOM     74  O   UNL     1      15.880   0.090   6.226  1.00  0.00    -0.237 OA
ATOM     75  O   UNL     1      14.260   0.041   8.087  1.00  0.00    -0.744 OA
ENDBRANCH  68  72
ENDBRANCH  51  65
BRANCH  52  76
ATOM     76  C   UNL     1      12.077   5.553  -5.281  1.00  0.00     0.023 A 
ATOM     77  C   UNL     1      13.140   5.647  -6.194  1.00  0.00     0.031 A 
ATOM     78  C   UNL     1      10.783   5.851  -5.743  1.00  0.00     0.131 A 
ATOM     79  C   UNL     1      12.899   6.076  -7.509  1.00  0.00     0.055 A 
ATOM     80  C   UNL     1      10.541   6.230  -7.066  1.00  0.00     0.041 A 
ATOM     81  F   UNL     1       9.730   5.766  -4.915  1.00  0.00    -0.206 F 
ATOM     82  C   UNL     1      11.605   6.357  -7.954  1.00  0.00     0.022 A 
BRANCH  79  83
ATOM     83  S   UNL     1      14.316   6.338  -8.610  1.00  0.00     0.124 S 
ATOM     84  O   UNL     1      15.094   7.321  -7.864  1.00  0.00    -0.237 OA
ATOM     85  O   UNL     1      14.886   4.998  -8.693  1.00  0.00    -0.237 OA
ATOM     86  O   UNL     1      13.703   6.830  -9.842  1.00  0.00    -0.744 OA
ENDBRANCH  79  83
ENDBRANCH  52  76
BRANCH  64  87
ATOM     87  C   UNL     1      15.572   8.595  -0.064  1.00  0.00     0.023 A 
ATOM     88  C   UNL     1      15.058   9.895  -0.198  1.00  0.00     0.031 A 
ATOM     89  C   UNL     1      16.955   8.442   0.142  1.00  0.00     0.131 A 
ATOM     90  C   UNL     1      15.930  10.994  -0.163  1.00  0.00     0.055 A 
ATOM     91  C   UNL     1      17.809   9.541   0.227  1.00  0.00     0.041 A 
ATOM     92  F   UNL     1      17.494   7.220   0.276  1.00  0.00    -0.206 F 
ATOM     93  C   UNL     1      17.299  10.825   0.065  1.00  0.00     0.022 A 
BRANCH  90  94
ATOM     94  S   UNL     1      15.260  12.648  -0.483  1.00  0.00     0.124 S 
ATOM     95  O   UNL     1      14.723  12.503  -1.832  1.00  0.00    -0.237 OA
ATOM     96  O   UNL     1      14.275  12.799   0.583  1.00  0.00    -0.237 OA
ATOM     97  O   UNL     1      16.429  13.519  -0.372  1.00  0.00    -0.744 OA
ENDBRANCH  90  94
ENDBRANCH  64  87
ENDBRANCH  38  39
ENDBRANCH  30  33
ENDBRANCH  28  29
ENDBRANCH   1  28
TORSDOF 18
