REMARK SMILES CCC(CC)C[N@H+]1[C@@H]2CC[C@H]1C[C@H](CC(=O)NCCCNC(=O)c1ccc(-c3c4nc(c(-c5cc(S(=O)(=O)[O-])ccc5F)c5ccc([nH]5)c(-c5cc(S(=O)(=O)[O-])ccc5F)c5nc(c(-c6cc(S(=O)(=O)[O-])ccc6F)c6ccc3[nH]6)C=C5)C=C4)cc1)C2
REMARK SMILES IDX 18 1 17 2 15 3 16 4 14 6 13 7 7 8 8 9 11 10 9 12 87 13 10 14
REMARK SMILES IDX 12 15 6 16 3 17 2 18 1 19 4 20 5 21 19 22 20 23 21 24 22 25
REMARK SMILES IDX 23 27 24 28 25 29 86 30 26 31 85 32 27 33 28 34 29 35 79 36
REMARK SMILES IDX 30 37 84 38 78 39 80 40 31 41 83 42 77 43 76 44 32 46 64 47
REMARK SMILES IDX 44 48 63 49 45 50 48 51 62 52 81 53 46 54 47 55 61 57 82 58
REMARK SMILES IDX 49 59 33 60 34 61 42 62 35 63 41 64 43 65 40 66 36 67 37 68
REMARK SMILES IDX 38 69 39 70 65 71 66 72 74 73 67 74 73 75 75 76 72 77 68 78
REMARK SMILES IDX 69 79 70 80 71 81 50 82 51 83 59 84 52 85 58 86 60 87 57 88
REMARK SMILES IDX 53 89 54 90 55 91 56 92
REMARK H PARENT 17 5 7 11 21 26 80 45 48 56
REMARK Flexibility Score: inf
ROOT
ATOM      1  C   UNL     1       1.524   7.194   3.975  1.00  0.00     0.117 C 
ENDROOT
BRANCH   1   2
ATOM      2  N   UNL     1       2.922   7.180   4.386  1.00  0.00    -0.356 N 
ATOM      3  C   UNL     1       3.955   6.354   4.059  1.00  0.00     0.220 C 
ATOM      4  O   UNL     1       5.063   6.590   4.546  1.00  0.00    -0.275 OA
ATOM      5  H   UNL     1       3.165   7.899   5.013  1.00  0.00     0.163 HD
BRANCH   3   6
ATOM      6  C   UNL     1       3.764   5.176   3.125  1.00  0.00     0.104 C 
BRANCH   6   7
ATOM      7  C   UNL     1       3.548   3.836   3.861  1.00  0.00     0.010 C 
ATOM      8  N   UNL     1       1.488   1.730   3.425  1.00  0.00    -0.330 N 
ATOM      9  C   UNL     1       2.907   1.412   3.234  1.00  0.00     0.184 C 
ATOM     10  C   UNL     1       1.493   2.457   4.703  1.00  0.00     0.184 C 
ATOM     11  H   UNL     1       0.928   0.877   3.427  1.00  0.00     0.348 HD
ATOM     12  C   UNL     1       3.281   0.855   4.616  1.00  0.00     0.071 C 
ATOM     13  C   UNL     1       3.728   2.662   2.876  1.00  0.00     0.069 C 
ATOM     14  C   UNL     1       2.311   1.522   5.586  1.00  0.00     0.071 C 
ATOM     15  C   UNL     1       2.183   3.820   4.569  1.00  0.00     0.069 C 
BRANCH   8  16
ATOM     16  C   UNL     1       0.782   2.420   2.337  1.00  0.00     0.266 C 
BRANCH  16  17
ATOM     17  C   UNL     1       0.924   1.771   0.939  1.00  0.00     0.044 C 
BRANCH  17  18
ATOM     18  C   UNL     1       0.352   0.342   0.910  1.00  0.00     0.006 C 
ATOM     19  C   UNL     1       0.787  -0.427  -0.330  1.00  0.00     0.004 C 
ENDBRANCH  17  18
BRANCH  17  20
ATOM     20  C   UNL     1       0.348   2.700  -0.158  1.00  0.00     0.006 C 
ATOM     21  C   UNL     1      -1.159   2.908  -0.130  1.00  0.00     0.004 C 
ENDBRANCH  17  20
ENDBRANCH  16  17
ENDBRANCH   8  16
ENDBRANCH   6   7
ENDBRANCH   3   6
ENDBRANCH   1   2
BRANCH   1  22
ATOM     22  C   UNL     1       0.574   6.736   5.083  1.00  0.00     0.042 C 
BRANCH  22  23
ATOM     23  C   UNL     1       0.493   7.669   6.281  1.00  0.00     0.118 C 
BRANCH  23  24
ATOM     24  N   UNL     1      -0.527   8.678   6.093  1.00  0.00    -0.352 N 
ATOM     25  C   UNL     1      -1.733   8.838   6.733  1.00  0.00     0.251 C 
ATOM     26  H   UNL     1      -0.328   9.351   5.403  1.00  0.00     0.163 HD
ATOM     27  O   UNL     1      -2.575   9.562   6.204  1.00  0.00    -0.269 OA
BRANCH  25  28
ATOM     28  C   UNL     1      -2.039   8.165   8.025  1.00  0.00     0.039 A 
ATOM     29  C   UNL     1      -3.374   7.854   8.310  1.00  0.00     0.014 A 
ATOM     30  C   UNL     1      -1.065   7.927   9.000  1.00  0.00     0.014 A 
ATOM     31  C   UNL     1      -3.726   7.318   9.553  1.00  0.00     0.010 A 
ATOM     32  C   UNL     1      -1.403   7.305  10.205  1.00  0.00     0.010 A 
ATOM     33  C   UNL     1      -2.744   7.036  10.515  1.00  0.00    -0.014 A 
BRANCH  33  34
ATOM     34  C   UNL     1      -3.122   6.547  11.870  1.00  0.00     0.031 A 
ATOM     35  C   UNL     1      -2.842   7.396  13.086  1.00  0.00     0.074 A 
ATOM     36  C   UNL     1      -3.696   5.337  12.017  1.00  0.00     0.049 A 
ATOM     37  N   UNL     1      -3.092   7.151  14.349  1.00  0.00    -0.248 NA
ATOM     38  C   UNL     1      -2.158   8.676  12.853  1.00  0.00     0.031 C 
ATOM     39  C   UNL     1      -3.964   4.393  10.931  1.00  0.00     0.029 A 
ATOM     40  N   UNL     1      -4.153   4.691  13.139  1.00  0.00    -0.354 N 
ATOM     41  C   UNL     1      -2.575   8.232  15.058  1.00  0.00     0.074 A 
ATOM     42  C   UNL     1      -1.938   9.097  14.088  1.00  0.00     0.031 C 
ATOM     43  C   UNL     1      -4.557   3.299  11.436  1.00  0.00     0.029 A 
ATOM     44  C   UNL     1      -4.686   3.449  12.883  1.00  0.00     0.049 A 
ATOM     45  H   UNL     1      -4.104   5.080  14.042  1.00  0.00     0.167 HD
ATOM     46  C   UNL     1      -2.647   8.496  16.387  1.00  0.00     0.034 A 
ATOM     47  C   UNL     1      -5.218   2.533  13.717  1.00  0.00     0.034 A 
ATOM     48  C   UNL     1      -3.310   7.635  17.338  1.00  0.00     0.049 A 
ATOM     49  C   UNL     1      -5.324   2.857  15.184  1.00  0.00     0.074 A 
ATOM     50  C   UNL     1      -3.514   7.837  18.692  1.00  0.00     0.029 A 
ATOM     51  N   UNL     1      -3.870   6.399  17.035  1.00  0.00    -0.354 N 
ATOM     52  N   UNL     1      -4.902   3.921  15.829  1.00  0.00    -0.248 NA
ATOM     53  C   UNL     1      -6.002   1.868  16.031  1.00  0.00     0.031 C 
ATOM     54  C   UNL     1      -4.137   6.699  19.218  1.00  0.00     0.029 A 
ATOM     55  C   UNL     1      -4.391   5.816  18.181  1.00  0.00     0.049 A 
ATOM     56  H   UNL     1      -3.893   5.996  16.137  1.00  0.00     0.167 HD
ATOM     57  C   UNL     1      -5.283   3.737  17.155  1.00  0.00     0.074 A 
ATOM     58  C   UNL     1      -5.987   2.471  17.211  1.00  0.00     0.031 C 
ATOM     59  C   UNL     1      -5.073   4.542  18.229  1.00  0.00     0.034 A 
BRANCH  46  60
ATOM     60  C   UNL     1      -1.966   9.753  16.884  1.00  0.00     0.023 A 
ATOM     61  C   UNL     1      -2.342  11.031  16.430  1.00  0.00     0.031 A 
ATOM     62  C   UNL     1      -0.888   9.672  17.784  1.00  0.00     0.131 A 
ATOM     63  C   UNL     1      -1.587  12.157  16.794  1.00  0.00     0.055 A 
ATOM     64  C   UNL     1      -0.199  10.808  18.216  1.00  0.00     0.041 A 
ATOM     65  F   UNL     1      -0.468   8.482  18.243  1.00  0.00    -0.206 F 
ATOM     66  C   UNL     1      -0.533  12.058  17.705  1.00  0.00     0.022 A 
BRANCH  63  67
ATOM     67  S   UNL     1      -1.890  13.719  15.922  1.00  0.00     0.124 S 
ATOM     68  O   UNL     1      -1.682  13.326  14.530  1.00  0.00    -0.237 OA
ATOM     69  O   UNL     1      -3.263  14.030  16.300  1.00  0.00    -0.237 OA
ATOM     70  O   UNL     1      -0.873  14.618  16.465  1.00  0.00    -0.744 OA
ENDBRANCH  63  67
ENDBRANCH  46  60
BRANCH  47  71
ATOM     71  C   UNL     1      -5.688   1.224  13.183  1.00  0.00     0.023 A 
ATOM     72  C   UNL     1      -7.050   0.884  13.172  1.00  0.00     0.031 A 
ATOM     73  C   UNL     1      -4.769   0.285  12.680  1.00  0.00     0.131 A 
ATOM     74  C   UNL     1      -7.452  -0.375  12.701  1.00  0.00     0.055 A 
ATOM     75  C   UNL     1      -5.178  -0.948  12.171  1.00  0.00     0.041 A 
ATOM     76  F   UNL     1      -3.456   0.566  12.658  1.00  0.00    -0.206 F 
ATOM     77  C   UNL     1      -6.527  -1.288  12.189  1.00  0.00     0.022 A 
BRANCH  74  78
ATOM     78  S   UNL     1      -9.205  -0.829  12.814  1.00  0.00     0.124 S 
ATOM     79  O   UNL     1      -9.444  -0.739  14.250  1.00  0.00    -0.237 OA
ATOM     80  O   UNL     1      -9.838   0.198  11.993  1.00  0.00    -0.237 OA
ATOM     81  O   UNL     1      -9.245  -2.179  12.257  1.00  0.00    -0.744 OA
ENDBRANCH  74  78
ENDBRANCH  47  71
BRANCH  59  82
ATOM     82  C   UNL     1      -5.644   4.083  19.549  1.00  0.00     0.023 A 
ATOM     83  C   UNL     1      -5.168   2.931  20.200  1.00  0.00     0.031 A 
ATOM     84  C   UNL     1      -6.696   4.796  20.151  1.00  0.00     0.131 A 
ATOM     85  C   UNL     1      -5.786   2.490  21.380  1.00  0.00     0.055 A 
ATOM     86  C   UNL     1      -7.265   4.387  21.358  1.00  0.00     0.041 A 
ATOM     87  F   UNL     1      -7.192   5.902  19.573  1.00  0.00    -0.206 F 
ATOM     88  C   UNL     1      -6.821   3.219  21.972  1.00  0.00     0.022 A 
BRANCH  85  89
ATOM     89  S   UNL     1      -5.291   0.890  22.076  1.00  0.00     0.124 S 
ATOM     90  O   UNL     1      -5.525  -0.015  20.955  1.00  0.00    -0.237 OA
ATOM     91  O   UNL     1      -3.894   1.121  22.428  1.00  0.00    -0.237 OA
ATOM     92  O   UNL     1      -6.195   0.715  23.212  1.00  0.00    -0.744 OA
ENDBRANCH  85  89
ENDBRANCH  59  82
ENDBRANCH  33  34
ENDBRANCH  25  28
ENDBRANCH  23  24
ENDBRANCH  22  23
ENDBRANCH   1  22
TORSDOF 18
