REMARK SMILES Nc1nc(CC(=O)NC2(CC(=O)NCCCNC(=O)c3ccc(-c4c5nc(c(-c6cc(S(=O)(=O)[O-])ccc6F)c6ccc([nH]6)c(-c6cc(S(=O)(=O)[O-])ccc6F)c6nc(c(-c7cc(S(=O)(=O)[O-])ccc7F)c7ccc4[nH]7)C=C6)C=C5)cc3)CCC2)cs1
REMARK SMILES IDX 14 1 13 2 11 3 12 4 10 6 9 7 83 8 85 9 84 10 8 11 6 12 7 13
REMARK SMILES IDX 5 15 4 16 2 17 3 18 87 19 86 20 1 21 15 24 16 25 17 26 18 27
REMARK SMILES IDX 19 29 20 30 21 31 82 32 22 33 81 34 23 35 24 36 25 37 75 38
REMARK SMILES IDX 26 39 80 40 74 41 76 42 27 43 79 44 73 45 72 46 28 48 60 49
REMARK SMILES IDX 40 50 59 51 41 52 44 53 58 54 77 55 42 56 43 57 57 59 78 60
REMARK SMILES IDX 45 61 29 62 30 63 38 64 31 65 37 66 39 67 36 68 32 69 33 70
REMARK SMILES IDX 34 71 35 72 61 73 62 74 70 75 63 76 69 77 71 78 68 79 64 80
REMARK SMILES IDX 65 81 66 82 67 83 46 84 47 85 55 86 48 87 54 88 56 89 53 90
REMARK SMILES IDX 49 91 50 92 51 93 52 94
REMARK H PARENT 13 5 8 14 1 22 1 23 17 28 76 47 44 58
REMARK Flexibility Score: inf
ROOT
ATOM      1  C   UNL     1       1.104  -5.916   1.942  1.00  0.00     0.117 C 
ENDROOT
BRANCH   1   2
ATOM      2  N   UNL     1       0.285  -5.462   0.836  1.00  0.00    -0.356 N 
ATOM      3  C   UNL     1      -0.510  -4.357   0.807  1.00  0.00     0.222 C 
ATOM      4  O   UNL     1      -1.552  -4.418   0.157  1.00  0.00    -0.275 OA
ATOM      5  H   UNL     1       0.306  -6.011   0.019  1.00  0.00     0.163 HD
BRANCH   3   6
ATOM      6  C   UNL     1      -0.017  -3.090   1.455  1.00  0.00     0.128 C 
BRANCH   6   7
ATOM      7  C   UNL     1      -0.887  -2.421   2.519  1.00  0.00     0.049 C 
ATOM      8  C   UNL     1      -0.295  -1.089   3.099  1.00  0.00     0.029 C 
ATOM      9  C   UNL     1      -0.671  -2.994   3.968  1.00  0.00     0.029 C 
ATOM     10  C   UNL     1       0.395  -1.912   4.197  1.00  0.00     0.005 C 
BRANCH   7  11
ATOM     11  N   UNL     1      -2.333  -2.294   2.213  1.00  0.00    -0.350 N 
ATOM     12  C   UNL     1      -3.023  -1.732   1.175  1.00  0.00     0.226 C 
ATOM     13  O   UNL     1      -4.239  -1.567   1.340  1.00  0.00    -0.275 OA
ATOM     14  H   UNL     1      -2.915  -2.696   2.898  1.00  0.00     0.164 HD
BRANCH  12  15
ATOM     15  C   UNL     1      -2.379  -1.345  -0.137  1.00  0.00     0.157 C 
BRANCH  15  16
ATOM     16  C   UNL     1      -1.457  -0.181  -0.049  1.00  0.00     0.063 A 
ATOM     17  C   UNL     1       0.567   0.712  -0.226  1.00  0.00     0.180 A 
ATOM     18  N   UNL     1      -0.133  -0.373  -0.417  1.00  0.00    -0.225 NA
ATOM     19  S   UNL     1      -0.336   2.075   0.288  1.00  0.00    -0.106 S 
ATOM     20  C   UNL     1      -1.758   1.114   0.321  1.00  0.00     0.093 A 
BRANCH  17  21
ATOM     21  N   UNL     1       1.892   0.743  -0.392  1.00  0.00    -0.375 N 
ATOM     22  H   UNL     1       2.369  -0.065  -0.690  1.00  0.00     0.159 HD
ATOM     23  H   UNL     1       2.391   1.574  -0.217  1.00  0.00     0.159 HD
ENDBRANCH  17  21
ENDBRANCH  15  16
ENDBRANCH  12  15
ENDBRANCH   7  11
ENDBRANCH   6   7
ENDBRANCH   3   6
ENDBRANCH   1   2
BRANCH   1  24
ATOM     24  C   UNL     1       0.240  -6.641   2.969  1.00  0.00     0.042 C 
BRANCH  24  25
ATOM     25  C   UNL     1      -0.570  -7.786   2.373  1.00  0.00     0.118 C 
BRANCH  25  26
ATOM     26  N   UNL     1       0.292  -8.828   1.844  1.00  0.00    -0.352 N 
ATOM     27  C   UNL     1       0.670 -10.013   2.421  1.00  0.00     0.251 C 
ATOM     28  H   UNL     1       0.657  -8.659   0.946  1.00  0.00     0.163 HD
ATOM     29  O   UNL     1       1.663 -10.595   1.998  1.00  0.00    -0.269 OA
BRANCH  27  30
ATOM     30  C   UNL     1      -0.111 -10.573   3.546  1.00  0.00     0.039 A 
ATOM     31  C   UNL     1       0.561 -11.240   4.573  1.00  0.00     0.014 A 
ATOM     32  C   UNL     1      -1.507 -10.498   3.560  1.00  0.00     0.014 A 
ATOM     33  C   UNL     1      -0.166 -11.813   5.617  1.00  0.00     0.010 A 
ATOM     34  C   UNL     1      -2.221 -10.977   4.651  1.00  0.00     0.010 A 
ATOM     35  C   UNL     1      -1.563 -11.678   5.670  1.00  0.00    -0.014 A 
BRANCH  35  36
ATOM     36  C   UNL     1      -2.363 -12.344   6.729  1.00  0.00     0.031 A 
ATOM     37  C   UNL     1      -3.357 -13.412   6.344  1.00  0.00     0.074 A 
ATOM     38  C   UNL     1      -2.232 -11.959   8.014  1.00  0.00     0.049 A 
ATOM     39  N   UNL     1      -4.206 -14.064   7.095  1.00  0.00    -0.248 NA
ATOM     40  C   UNL     1      -3.434 -13.764   4.916  1.00  0.00     0.031 C 
ATOM     41  C   UNL     1      -1.343 -10.899   8.494  1.00  0.00     0.029 A 
ATOM     42  N   UNL     1      -2.854 -12.408   9.150  1.00  0.00    -0.354 N 
ATOM     43  C   UNL     1      -4.938 -14.871   6.229  1.00  0.00     0.074 A 
ATOM     44  C   UNL     1      -4.470 -14.586   4.891  1.00  0.00     0.031 C 
ATOM     45  C   UNL     1      -1.462 -10.795   9.828  1.00  0.00     0.029 A 
ATOM     46  C   UNL     1      -2.458 -11.754  10.294  1.00  0.00     0.049 A 
ATOM     47  H   UNL     1      -3.521 -13.132   9.149  1.00  0.00     0.167 HD
ATOM     48  C   UNL     1      -5.896 -15.782   6.525  1.00  0.00     0.034 A 
ATOM     49  C   UNL     1      -2.859 -11.909  11.572  1.00  0.00     0.034 A 
ATOM     50  C   UNL     1      -6.309 -16.091   7.871  1.00  0.00     0.049 A 
ATOM     51  C   UNL     1      -3.879 -12.977  11.881  1.00  0.00     0.074 A 
ATOM     52  C   UNL     1      -7.215 -17.046   8.297  1.00  0.00     0.029 A 
ATOM     53  N   UNL     1      -5.835 -15.455   9.010  1.00  0.00    -0.354 N 
ATOM     54  N   UNL     1      -4.516 -13.776  11.055  1.00  0.00    -0.248 NA
ATOM     55  C   UNL     1      -4.213 -13.185  13.295  1.00  0.00     0.031 C 
ATOM     56  C   UNL     1      -7.326 -16.953   9.689  1.00  0.00     0.029 A 
ATOM     57  C   UNL     1      -6.438 -15.988  10.137  1.00  0.00     0.049 A 
ATOM     58  H   UNL     1      -5.167 -14.732   9.016  1.00  0.00     0.167 HD
ATOM     59  C   UNL     1      -5.295 -14.606  11.856  1.00  0.00     0.074 A 
ATOM     60  C   UNL     1      -5.033 -14.222  13.228  1.00  0.00     0.031 C 
ATOM     61  C   UNL     1      -6.152 -15.596  11.496  1.00  0.00     0.034 A 
BRANCH  48  62
ATOM     62  C   UNL     1      -6.571 -16.492   5.376  1.00  0.00     0.023 A 
ATOM     63  C   UNL     1      -5.867 -17.357   4.519  1.00  0.00     0.031 A 
ATOM     64  C   UNL     1      -7.941 -16.295   5.131  1.00  0.00     0.131 A 
ATOM     65  C   UNL     1      -6.520 -17.940   3.422  1.00  0.00     0.055 A 
ATOM     66  C   UNL     1      -8.603 -16.938   4.083  1.00  0.00     0.041 A 
ATOM     67  F   UNL     1      -8.661 -15.465   5.903  1.00  0.00    -0.206 F 
ATOM     68  C   UNL     1      -7.889 -17.758   3.213  1.00  0.00     0.022 A 
BRANCH  65  69
ATOM     69  S   UNL     1      -5.531 -18.854   2.207  1.00  0.00     0.124 S 
ATOM     70  O   UNL     1      -4.654 -17.804   1.694  1.00  0.00    -0.237 OA
ATOM     71  O   UNL     1      -4.890 -19.877   3.025  1.00  0.00    -0.237 OA
ATOM     72  O   UNL     1      -6.525 -19.347   1.257  1.00  0.00    -0.744 OA
ENDBRANCH  65  69
ENDBRANCH  48  62
BRANCH  49  73
ATOM     73  C   UNL     1      -2.303 -11.049  12.656  1.00  0.00     0.023 A 
ATOM     74  C   UNL     1      -1.547 -11.600  13.703  1.00  0.00     0.031 A 
ATOM     75  C   UNL     1      -2.572  -9.669  12.694  1.00  0.00     0.131 A 
ATOM     76  C   UNL     1      -1.143 -10.791  14.777  1.00  0.00     0.055 A 
ATOM     77  C   UNL     1      -2.119  -8.857  13.736  1.00  0.00     0.041 A 
ATOM     78  F   UNL     1      -3.281  -9.087  11.713  1.00  0.00    -0.206 F 
ATOM     79  C   UNL     1      -1.415  -9.422  14.796  1.00  0.00     0.022 A 
BRANCH  76  80
ATOM     80  S   UNL     1      -0.353 -11.580  16.207  1.00  0.00     0.124 S 
ATOM     81  O   UNL     1      -1.325 -12.609  16.555  1.00  0.00    -0.237 OA
ATOM     82  O   UNL     1       0.903 -12.051  15.633  1.00  0.00    -0.237 OA
ATOM     83  O   UNL     1      -0.226 -10.488  17.169  1.00  0.00    -0.744 OA
ENDBRANCH  76  80
ENDBRANCH  49  73
BRANCH  61  84
ATOM     84  C   UNL     1      -6.808 -16.370  12.611  1.00  0.00     0.023 A 
ATOM     85  C   UNL     1      -7.734 -15.772  13.482  1.00  0.00     0.031 A 
ATOM     86  C   UNL     1      -6.479 -17.722  12.816  1.00  0.00     0.131 A 
ATOM     87  C   UNL     1      -8.250 -16.505  14.560  1.00  0.00     0.055 A 
ATOM     88  C   UNL     1      -7.044 -18.464  13.853  1.00  0.00     0.041 A 
ATOM     89  F   UNL     1      -5.601 -18.342  12.012  1.00  0.00    -0.206 F 
ATOM     90  C   UNL     1      -7.922 -17.852  14.743  1.00  0.00     0.022 A 
BRANCH  87  91
ATOM     91  S   UNL     1      -9.270 -15.643  15.787  1.00  0.00     0.124 S 
ATOM     92  O   UNL     1      -8.390 -14.558  16.206  1.00  0.00    -0.237 OA
ATOM     93  O   UNL     1     -10.435 -15.251  15.002  1.00  0.00    -0.237 OA
ATOM     94  O   UNL     1      -9.522 -16.665  16.802  1.00  0.00    -0.744 OA
ENDBRANCH  87  91
ENDBRANCH  61  84
ENDBRANCH  35  36
ENDBRANCH  27  30
ENDBRANCH  25  26
ENDBRANCH  24  25
ENDBRANCH   1  24
TORSDOF 18
