REMARK SMILES [NH3+][C@]1(C(=O)NCCCNC(=O)c2ccc(-c3c4nc(c(-c5cc(S(=O)(=O)[O-])ccc5F)c5ccc([nH]5)c(-c5cc(S(=O)(=O)[O-])ccc5F)c5nc(c(-c6cc(S(=O)(=O)[O-])ccc6F)c6ccc3[nH]6)C=C5)C=C4)cc2)CC[C@@H](Sc2ccc(Cl)c(Cl)c2)C1
REMARK SMILES IDX 7 1 6 2 5 3 3 4 4 5 2 7 75 8 87 9 76 10 77 11 1 12 78 16
REMARK SMILES IDX 79 17 80 18 86 19 81 20 84 21 82 22 85 23 83 24 8 25 9 26
REMARK SMILES IDX 10 27 11 29 12 30 13 31 74 32 14 33 73 34 15 35 16 36 17 37
REMARK SMILES IDX 67 38 18 39 72 40 66 41 68 42 19 43 71 44 65 45 64 46 20 48
REMARK SMILES IDX 52 49 32 50 51 51 33 52 36 53 50 54 69 55 34 56 35 57 49 59
REMARK SMILES IDX 70 60 37 61 21 62 22 63 30 64 23 65 29 66 31 67 28 68 24 69
REMARK SMILES IDX 25 70 26 71 27 72 53 73 54 74 62 75 55 76 61 77 63 78 60 79
REMARK SMILES IDX 56 80 57 81 58 82 59 83 38 84 39 85 47 86 40 87 46 88 48 89
REMARK SMILES IDX 45 90 41 91 42 92 43 93 44 94
REMARK H PARENT 5 6 1 13 1 14 1 15 9 28 68 47 36 58
REMARK Flexibility Score: inf
ROOT
ATOM      1  C   UNL     1      -1.770   1.921   1.501  1.00  0.00     0.042 C 
ENDROOT
BRANCH   1   2
ATOM      2  C   UNL     1      -1.496   1.020   0.308  1.00  0.00     0.118 C 
BRANCH   2   3
ATOM      3  N   UNL     1      -0.082   0.875   0.017  1.00  0.00    -0.351 N 
ATOM      4  C   UNL     1       0.719  -0.203  -0.199  1.00  0.00     0.281 C 
ATOM      5  O   UNL     1       1.883   0.054  -0.527  1.00  0.00    -0.268 OA
ATOM      6  H   UNL     1       0.397   1.734  -0.035  1.00  0.00     0.163 HD
BRANCH   4   7
ATOM      7  C   UNL     1       0.270  -1.668   0.047  1.00  0.00     0.175 C 
ATOM      8  C   UNL     1       1.168  -2.659  -0.715  1.00  0.00     0.080 C 
ATOM      9  C   UNL     1       0.507  -2.057   1.520  1.00  0.00     0.094 C 
ATOM     10  C   UNL     1       0.997  -3.968   0.045  1.00  0.00     0.022 C 
ATOM     11  C   UNL     1       0.904  -3.544   1.513  1.00  0.00     0.058 C 
BRANCH   7  12
ATOM     12  N   UNL     1      -1.108  -1.970  -0.389  1.00  0.00    -0.345 N 
ATOM     13  H   UNL     1      -1.320  -2.947  -0.192  1.00  0.00     0.345 HD
ATOM     14  H   UNL     1      -1.192  -1.799  -1.391  1.00  0.00     0.345 HD
ATOM     15  H   UNL     1      -1.763  -1.371   0.114  1.00  0.00     0.345 HD
ENDBRANCH   7  12
BRANCH  11  16
ATOM     16  S   UNL     1       2.405  -3.917   2.521  1.00  0.00    -0.122 SA
BRANCH  16  17
ATOM     17  C   UNL     1       3.741  -3.303   1.512  1.00  0.00     0.009 A 
ATOM     18  C   UNL     1       4.485  -4.194   0.730  1.00  0.00     0.017 A 
ATOM     19  C   UNL     1       4.104  -1.954   1.540  1.00  0.00     0.037 A 
ATOM     20  C   UNL     1       5.554  -3.736  -0.045  1.00  0.00     0.023 A 
ATOM     21  C   UNL     1       5.172  -1.489   0.763  1.00  0.00     0.060 A 
ATOM     22  C   UNL     1       5.897  -2.382  -0.034  1.00  0.00     0.059 A 
ATOM     23  Cl  UNL     1       5.556   0.194   0.846  1.00  0.00    -0.083 Cl
ATOM     24  Cl  UNL     1       7.235  -1.885  -1.008  1.00  0.00    -0.083 Cl
ENDBRANCH  16  17
ENDBRANCH  11  16
ENDBRANCH   4   7
ENDBRANCH   2   3
ENDBRANCH   1   2
BRANCH   1  25
ATOM     25  C   UNL     1      -1.382   3.378   1.294  1.00  0.00     0.118 C 
BRANCH  25  26
ATOM     26  N   UNL     1      -2.137   4.016   0.223  1.00  0.00    -0.352 N 
ATOM     27  C   UNL     1      -3.120   4.975   0.269  1.00  0.00     0.251 C 
ATOM     28  H   UNL     1      -1.904   3.710  -0.683  1.00  0.00     0.163 HD
ATOM     29  O   UNL     1      -3.775   5.204  -0.748  1.00  0.00    -0.269 OA
BRANCH  27  30
ATOM     30  C   UNL     1      -3.413   5.704   1.523  1.00  0.00     0.039 A 
ATOM     31  C   UNL     1      -4.740   6.006   1.841  1.00  0.00     0.014 A 
ATOM     32  C   UNL     1      -2.388   6.112   2.378  1.00  0.00     0.014 A 
ATOM     33  C   UNL     1      -5.038   6.642   3.050  1.00  0.00     0.010 A 
ATOM     34  C   UNL     1      -2.692   6.647   3.626  1.00  0.00     0.010 A 
ATOM     35  C   UNL     1      -4.021   6.926   3.975  1.00  0.00    -0.014 A 
BRANCH  35  36
ATOM     36  C   UNL     1      -4.321   7.529   5.302  1.00  0.00     0.031 A 
ATOM     37  C   UNL     1      -3.733   8.865   5.675  1.00  0.00     0.074 A 
ATOM     38  C   UNL     1      -5.069   6.846   6.193  1.00  0.00     0.049 A 
ATOM     39  N   UNL     1      -3.807   9.515   6.808  1.00  0.00    -0.248 NA
ATOM     40  C   UNL     1      -2.929   9.543   4.647  1.00  0.00     0.031 C 
ATOM     41  C   UNL     1      -5.661   5.526   5.964  1.00  0.00     0.029 A 
ATOM     42  N   UNL     1      -5.457   7.162   7.471  1.00  0.00    -0.354 N 
ATOM     43  C   UNL     1      -3.050  10.670   6.633  1.00  0.00     0.074 A 
ATOM     44  C   UNL     1      -2.468  10.592   5.311  1.00  0.00     0.031 C 
ATOM     45  C   UNL     1      -6.364   5.164   7.049  1.00  0.00     0.029 A 
ATOM     46  C   UNL     1      -6.229   6.194   8.073  1.00  0.00     0.049 A 
ATOM     47  H   UNL     1      -5.205   8.004   7.917  1.00  0.00     0.167 HD
ATOM     48  C   UNL     1      -2.880  11.712   7.484  1.00  0.00     0.034 A 
ATOM     49  C   UNL     1      -6.756   6.137   9.312  1.00  0.00     0.034 A 
ATOM     50  C   UNL     1      -3.477  11.779   8.796  1.00  0.00     0.049 A 
ATOM     51  C   UNL     1      -6.522   7.291  10.255  1.00  0.00     0.074 A 
ATOM     52  C   UNL     1      -3.409  12.805   9.723  1.00  0.00     0.029 A 
ATOM     53  N   UNL     1      -4.247  10.776   9.373  1.00  0.00    -0.354 N 
ATOM     54  N   UNL     1      -5.842   8.397  10.055  1.00  0.00    -0.248 NA
ATOM     55  C   UNL     1      -7.136   7.194  11.585  1.00  0.00     0.031 C 
ATOM     56  C   UNL     1      -4.070  12.392  10.884  1.00  0.00     0.029 A 
ATOM     57  C   UNL     1      -4.630  11.146  10.653  1.00  0.00     0.049 A 
ATOM     58  H   UNL     1      -4.485   9.926   8.936  1.00  0.00     0.167 HD
ATOM     59  C   UNL     1      -5.980   9.142  11.224  1.00  0.00     0.074 A 
ATOM     60  C   UNL     1      -6.820   8.367  12.112  1.00  0.00     0.031 C 
ATOM     61  C   UNL     1      -5.463  10.359  11.533  1.00  0.00     0.034 A 
BRANCH  48  62
ATOM     62  C   UNL     1      -1.997  12.849   7.025  1.00  0.00     0.023 A 
ATOM     63  C   UNL     1      -2.313  13.619   5.891  1.00  0.00     0.031 A 
ATOM     64  C   UNL     1      -0.810  13.156   7.715  1.00  0.00     0.131 A 
ATOM     65  C   UNL     1      -1.418  14.599   5.436  1.00  0.00     0.055 A 
ATOM     66  C   UNL     1       0.032  14.193   7.308  1.00  0.00     0.041 A 
ATOM     67  F   UNL     1      -0.441  12.444   8.792  1.00  0.00    -0.206 F 
ATOM     68  C   UNL     1      -0.261  14.911   6.153  1.00  0.00     0.022 A 
BRANCH  65  69
ATOM     69  S   UNL     1      -1.712  15.351   3.812  1.00  0.00     0.124 S 
ATOM     70  O   UNL     1      -1.707  14.179   2.939  1.00  0.00    -0.237 OA
ATOM     71  O   UNL     1      -3.003  16.004   3.996  1.00  0.00    -0.237 OA
ATOM     72  O   UNL     1      -0.575  16.252   3.640  1.00  0.00    -0.744 OA
ENDBRANCH  65  69
ENDBRANCH  48  62
BRANCH  49  73
ATOM     73  C   UNL     1      -7.551   4.950   9.745  1.00  0.00     0.023 A 
ATOM     74  C   UNL     1      -8.904   5.076  10.098  1.00  0.00     0.031 A 
ATOM     75  C   UNL     1      -6.956   3.681   9.866  1.00  0.00     0.131 A 
ATOM     76  C   UNL     1      -9.602   3.970  10.607  1.00  0.00     0.055 A 
ATOM     77  C   UNL     1      -7.672   2.569  10.313  1.00  0.00     0.041 A 
ATOM     78  F   UNL     1      -5.666   3.501   9.540  1.00  0.00    -0.206 F 
ATOM     79  C   UNL     1      -9.000   2.714  10.703  1.00  0.00     0.022 A 
BRANCH  76  80
ATOM     80  S   UNL     1     -11.283   4.221  11.242  1.00  0.00     0.124 S 
ATOM     81  O   UNL     1     -11.065   5.243  12.259  1.00  0.00    -0.237 OA
ATOM     82  O   UNL     1     -11.997   4.649  10.044  1.00  0.00    -0.237 OA
ATOM     83  O   UNL     1     -11.654   2.902  11.750  1.00  0.00    -0.744 OA
ENDBRANCH  76  80
ENDBRANCH  49  73
BRANCH  61  84
ATOM     84  C   UNL     1      -5.842  10.947  12.872  1.00  0.00     0.023 A 
ATOM     85  C   UNL     1      -5.444  10.355  14.083  1.00  0.00     0.031 A 
ATOM     86  C   UNL     1      -6.628  12.112  12.934  1.00  0.00     0.131 A 
ATOM     87  C   UNL     1      -5.886  10.892  15.302  1.00  0.00     0.055 A 
ATOM     88  C   UNL     1      -7.005  12.682  14.150  1.00  0.00     0.041 A 
ATOM     89  F   UNL     1      -7.041  12.719  11.809  1.00  0.00    -0.206 F 
ATOM     90  C   UNL     1      -6.647  12.063  15.344  1.00  0.00     0.022 A 
BRANCH  87  91
ATOM     91  S   UNL     1      -5.546   9.976  16.830  1.00  0.00     0.124 S 
ATOM     92  O   UNL     1      -6.165   8.684  16.554  1.00  0.00    -0.237 OA
ATOM     93  O   UNL     1      -4.087   9.986  16.881  1.00  0.00    -0.237 OA
ATOM     94  O   UNL     1      -6.207  10.773  17.862  1.00  0.00    -0.744 OA
ENDBRANCH  87  91
ENDBRANCH  61  84
ENDBRANCH  35  36
ENDBRANCH  27  30
ENDBRANCH  25  26
ENDBRANCH   1  25
TORSDOF 16
