REMARK SMILES C[N@@H+](Cc1ncccc1C(=O)NCCCNC(=O)c1ccc(-c2c3nc(c(-c4cc(S(=O)(=O)[O-])ccc4F)c4ccc([nH]4)c(-c4cc(S(=O)(=O)[O-])ccc4F)c4nc(c(-c5cc(S(=O)(=O)[O-])ccc5F)c5ccc2[nH]5)C=C4)C=C3)cc1)C[C@@H]1CCN(c2ccccc2)C1
REMARK SMILES IDX 13 1 12 2 10 3 11 4 9 6 4 7 5 8 6 9 8 10 7 11 3 12 2 13 1 14
REMARK SMILES IDX 82 16 83 17 84 18 93 19 85 20 86 21 87 22 88 23 92 24 89 25
REMARK SMILES IDX 91 26 90 27 14 28 15 29 16 30 17 31 18 33 19 34 20 35 81 36
REMARK SMILES IDX 21 37 80 38 22 39 23 40 24 41 74 42 25 43 79 44 73 45 75 46
REMARK SMILES IDX 26 47 78 48 72 49 71 50 27 52 59 53 39 54 58 55 40 56 43 57
REMARK SMILES IDX 57 58 76 59 41 60 42 61 56 63 77 64 44 65 28 66 29 67 37 68
REMARK SMILES IDX 30 69 36 70 38 71 35 72 31 73 32 74 33 75 34 76 60 77 61 78
REMARK SMILES IDX 69 79 62 80 68 81 70 82 67 83 63 84 64 85 65 86 66 87 45 88
REMARK SMILES IDX 46 89 54 90 47 91 53 92 55 93 52 94 48 95 49 96 50 97 51 98
REMARK H PARENT 12 5 2 15 16 32 75 51 43 62
REMARK Flexibility Score: inf
ROOT
ATOM      1  C   UNL     1      -3.219  -0.005  -3.770  1.00  0.00     0.118 C 
ENDROOT
BRANCH   1   2
ATOM      2  N   UNL     1      -2.891   0.644  -2.514  1.00  0.00    -0.352 N 
ATOM      3  C   UNL     1      -2.568   0.209  -1.252  1.00  0.00     0.253 C 
ATOM      4  O   UNL     1      -2.383   1.115  -0.440  1.00  0.00    -0.269 OA
ATOM      5  H   UNL     1      -2.902   1.626  -2.583  1.00  0.00     0.163 HD
BRANCH   3   6
ATOM      6  C   UNL     1      -2.483  -1.223  -0.816  1.00  0.00     0.067 A 
ATOM      7  C   UNL     1      -1.961  -1.582   0.442  1.00  0.00     0.107 A 
ATOM      8  N   UNL     1      -2.095  -2.855   0.925  1.00  0.00    -0.254 NA
ATOM      9  C   UNL     1      -2.604  -3.824   0.146  1.00  0.00     0.111 A 
ATOM     10  C   UNL     1      -3.001  -2.276  -1.589  1.00  0.00     0.017 A 
ATOM     11  C   UNL     1      -3.040  -3.589  -1.127  1.00  0.00     0.021 A 
BRANCH   7  12
ATOM     12  C   UNL     1      -1.137  -0.688   1.368  1.00  0.00     0.320 C 
BRANCH  12  13
ATOM     13  N   UNL     1       0.326  -0.621   1.154  1.00  0.00    -0.332 N 
ATOM     14  C   UNL     1       0.732  -0.248  -0.189  1.00  0.00     0.333 C 
ATOM     15  H   UNL     1       0.531   0.181   1.750  1.00  0.00     0.348 HD
BRANCH  13  16
ATOM     16  C   UNL     1       1.186  -1.633   1.778  1.00  0.00     0.267 C 
BRANCH  16  17
ATOM     17  C   UNL     1       0.884  -3.127   1.563  1.00  0.00     0.065 C 
ATOM     18  C   UNL     1       0.141  -3.767   2.759  1.00  0.00     0.032 C 
ATOM     19  C   UNL     1       2.147  -3.990   1.381  1.00  0.00     0.126 C 
ATOM     20  C   UNL     1       0.901  -5.032   3.128  1.00  0.00     0.117 C 
ATOM     21  N   UNL     1       1.786  -5.255   2.004  1.00  0.00    -0.371 N 
BRANCH  21  22
ATOM     22  C   UNL     1       1.970  -6.470   1.399  1.00  0.00     0.037 A 
ATOM     23  C   UNL     1       3.235  -6.857   0.942  1.00  0.00     0.026 A 
ATOM     24  C   UNL     1       0.918  -7.381   1.221  1.00  0.00     0.026 A 
ATOM     25  C   UNL     1       3.454  -8.118   0.375  1.00  0.00     0.002 A 
ATOM     26  C   UNL     1       1.122  -8.635   0.636  1.00  0.00     0.002 A 
ATOM     27  C   UNL     1       2.396  -9.009   0.224  1.00  0.00     0.000 A 
ENDBRANCH  21  22
ENDBRANCH  16  17
ENDBRANCH  13  16
ENDBRANCH  12  13
ENDBRANCH   7  12
ENDBRANCH   3   6
ENDBRANCH   1   2
BRANCH   1  28
ATOM     28  C   UNL     1      -4.706  -0.357  -3.867  1.00  0.00     0.042 C 
BRANCH  28  29
ATOM     29  C   UNL     1      -5.612   0.850  -4.087  1.00  0.00     0.118 C 
BRANCH  29  30
ATOM     30  N   UNL     1      -5.409   1.435  -5.402  1.00  0.00    -0.352 N 
ATOM     31  C   UNL     1      -6.249   1.470  -6.483  1.00  0.00     0.251 C 
ATOM     32  H   UNL     1      -4.536   1.871  -5.536  1.00  0.00     0.163 HD
ATOM     33  O   UNL     1      -5.772   1.715  -7.596  1.00  0.00    -0.269 OA
BRANCH  31  34
ATOM     34  C   UNL     1      -7.700   1.229  -6.334  1.00  0.00     0.039 A 
ATOM     35  C   UNL     1      -8.384   0.556  -7.352  1.00  0.00     0.014 A 
ATOM     36  C   UNL     1      -8.407   1.730  -5.237  1.00  0.00     0.014 A 
ATOM     37  C   UNL     1      -9.764   0.360  -7.256  1.00  0.00     0.010 A 
ATOM     38  C   UNL     1      -9.771   1.475  -5.108  1.00  0.00     0.010 A 
ATOM     39  C   UNL     1     -10.466   0.804  -6.124  1.00  0.00    -0.014 A 
BRANCH  39  40
ATOM     40  C   UNL     1     -11.933   0.608  -6.000  1.00  0.00     0.031 A 
ATOM     41  C   UNL     1     -12.850   1.802  -5.979  1.00  0.00     0.074 A 
ATOM     42  C   UNL     1     -12.428  -0.634  -5.843  1.00  0.00     0.049 A 
ATOM     43  N   UNL     1     -14.142   1.852  -5.785  1.00  0.00    -0.248 NA
ATOM     44  C   UNL     1     -12.220   3.117  -6.168  1.00  0.00     0.031 C 
ATOM     45  C   UNL     1     -11.630  -1.862  -5.809  1.00  0.00     0.029 A 
ATOM     46  N   UNL     1     -13.716  -1.071  -5.667  1.00  0.00    -0.354 N 
ATOM     47  C   UNL     1     -14.477   3.203  -5.805  1.00  0.00     0.074 A 
ATOM     48  C   UNL     1     -13.242   3.937  -5.978  1.00  0.00     0.031 C 
ATOM     49  C   UNL     1     -12.448  -2.913  -5.639  1.00  0.00     0.029 A 
ATOM     50  C   UNL     1     -13.821  -2.434  -5.511  1.00  0.00     0.049 A 
ATOM     51  H   UNL     1     -14.493  -0.466  -5.654  1.00  0.00     0.167 HD
ATOM     52  C   UNL     1     -15.704   3.774  -5.706  1.00  0.00     0.034 A 
ATOM     53  C   UNL     1     -14.899  -3.207  -5.278  1.00  0.00     0.034 A 
ATOM     54  C   UNL     1     -16.926   3.021  -5.556  1.00  0.00     0.049 A 
ATOM     55  C   UNL     1     -16.253  -2.552  -5.178  1.00  0.00     0.074 A 
ATOM     56  C   UNL     1     -18.228   3.486  -5.509  1.00  0.00     0.029 A 
ATOM     57  N   UNL     1     -16.995   1.639  -5.423  1.00  0.00    -0.354 N 
ATOM     58  N   UNL     1     -16.559  -1.277  -5.245  1.00  0.00    -0.248 NA
ATOM     59  C   UNL     1     -17.404  -3.441  -4.985  1.00  0.00     0.031 C 
ATOM     60  C   UNL     1     -19.077   2.396  -5.288  1.00  0.00     0.029 A 
ATOM     61  C   UNL     1     -18.314   1.240  -5.268  1.00  0.00     0.049 A 
ATOM     62  H   UNL     1     -16.220   1.032  -5.437  1.00  0.00     0.167 HD
ATOM     63  C   UNL     1     -17.945  -1.214  -5.127  1.00  0.00     0.074 A 
ATOM     64  C   UNL     1     -18.412  -2.580  -5.001  1.00  0.00     0.031 C 
ATOM     65  C   UNL     1     -18.759  -0.128  -5.128  1.00  0.00     0.034 A 
BRANCH  52  66
ATOM     66  C   UNL     1     -15.773   5.284  -5.728  1.00  0.00     0.023 A 
ATOM     67  C   UNL     1     -15.363   6.028  -6.848  1.00  0.00     0.031 A 
ATOM     68  C   UNL     1     -16.227   5.992  -4.600  1.00  0.00     0.131 A 
ATOM     69  C   UNL     1     -15.337   7.430  -6.788  1.00  0.00     0.055 A 
ATOM     70  C   UNL     1     -16.277   7.387  -4.577  1.00  0.00     0.041 A 
ATOM     71  F   UNL     1     -16.614   5.339  -3.493  1.00  0.00    -0.206 F 
ATOM     72  C   UNL     1     -15.815   8.116  -5.669  1.00  0.00     0.022 A 
BRANCH  69  73
ATOM     73  S   UNL     1     -14.536   8.340  -8.137  1.00  0.00     0.124 S 
ATOM     74  O   UNL     1     -13.179   7.800  -8.091  1.00  0.00    -0.237 OA
ATOM     75  O   UNL     1     -15.337   7.958  -9.294  1.00  0.00    -0.237 OA
ATOM     76  O   UNL     1     -14.657   9.738  -7.728  1.00  0.00    -0.744 OA
ENDBRANCH  69  73
ENDBRANCH  52  66
BRANCH  53  77
ATOM     77  C   UNL     1     -14.746  -4.680  -5.117  1.00  0.00     0.023 A 
ATOM     78  C   UNL     1     -15.280  -5.569  -6.062  1.00  0.00     0.031 A 
ATOM     79  C   UNL     1     -14.078  -5.220  -4.005  1.00  0.00     0.131 A 
ATOM     80  C   UNL     1     -15.171  -6.954  -5.859  1.00  0.00     0.055 A 
ATOM     81  C   UNL     1     -13.932  -6.598  -3.830  1.00  0.00     0.041 A 
ATOM     82  F   UNL     1     -13.539  -4.412  -3.078  1.00  0.00    -0.206 F 
ATOM     83  C   UNL     1     -14.490  -7.473  -4.756  1.00  0.00     0.022 A 
BRANCH  80  84
ATOM     84  S   UNL     1     -15.989  -8.070  -7.031  1.00  0.00     0.124 S 
ATOM     85  O   UNL     1     -17.379  -7.642  -6.930  1.00  0.00    -0.237 OA
ATOM     86  O   UNL     1     -15.307  -7.749  -8.280  1.00  0.00    -0.237 OA
ATOM     87  O   UNL     1     -15.702  -9.398  -6.492  1.00  0.00    -0.744 OA
ENDBRANCH  80  84
ENDBRANCH  53  77
BRANCH  65  88
ATOM     88  C   UNL     1     -20.241  -0.387  -5.028  1.00  0.00     0.023 A 
ATOM     89  C   UNL     1     -20.823  -0.898  -3.855  1.00  0.00     0.031 A 
ATOM     90  C   UNL     1     -21.078  -0.130  -6.127  1.00  0.00     0.131 A 
ATOM     91  C   UNL     1     -22.195  -1.188  -3.827  1.00  0.00     0.055 A 
ATOM     92  C   UNL     1     -22.452  -0.367  -6.074  1.00  0.00     0.041 A 
ATOM     93  F   UNL     1     -20.573   0.356  -7.272  1.00  0.00    -0.206 F 
ATOM     94  C   UNL     1     -23.016  -0.911  -4.923  1.00  0.00     0.022 A 
BRANCH  91  95
ATOM     95  S   UNL     1     -22.880  -2.016  -2.366  1.00  0.00     0.124 S 
ATOM     96  O   UNL     1     -22.096  -3.247  -2.319  1.00  0.00    -0.237 OA
ATOM     97  O   UNL     1     -22.612  -1.050  -1.305  1.00  0.00    -0.237 OA
ATOM     98  O   UNL     1     -24.291  -2.192  -2.701  1.00  0.00    -0.744 OA
ENDBRANCH  91  95
ENDBRANCH  65  88
ENDBRANCH  39  40
ENDBRANCH  31  34
ENDBRANCH  29  30
ENDBRANCH  28  29
ENDBRANCH   1  28
TORSDOF 18
