REMARK SMILES C[C@@H](C(=O)NCCCNC(=O)c1ccc(-c2c3nc(c(-c4cc(S(=O)(=O)[O-])ccc4F)c4ccc([nH]4)c(-c4cc(S(=O)(=O)[O-])ccc4F)c4nc(c(-c5cc(S(=O)(=O)[O-])ccc5F)c5ccc2[nH]5)C=C4)C=C3)cc1)c1cccc(C(=O)c2ccccc2)c1
REMARK SMILES IDX 7 1 6 2 5 3 3 4 4 5 2 7 1 8 75 9 76 10 88 11 77 12 79 13
REMARK SMILES IDX 78 14 80 15 81 16 82 17 83 18 87 19 84 20 86 21 85 22 8 23
REMARK SMILES IDX 9 24 10 25 11 27 12 28 13 29 74 30 14 31 73 32 15 33 16 34
REMARK SMILES IDX 17 35 67 36 18 37 72 38 66 39 68 40 19 41 71 42 65 43 64 44
REMARK SMILES IDX 20 46 52 47 32 48 51 49 33 50 36 51 50 52 69 53 34 54 35 55
REMARK SMILES IDX 49 57 70 58 37 59 21 60 22 61 30 62 23 63 29 64 31 65 28 66
REMARK SMILES IDX 24 67 25 68 26 69 27 70 53 71 54 72 62 73 55 74 61 75 63 76
REMARK SMILES IDX 60 77 56 78 57 79 58 80 59 81 38 82 39 83 47 84 40 85 46 86
REMARK SMILES IDX 48 87 45 88 41 89 42 90 43 91 44 92
REMARK H PARENT 5 6 9 26 68 45 36 56
REMARK Flexibility Score: inf
ROOT
ATOM      1  C   UNL     1       4.326   0.661   1.049  1.00  0.00     0.042 C 
ENDROOT
BRANCH   1   2
ATOM      2  C   UNL     1       3.424  -0.072   2.037  1.00  0.00     0.117 C 
BRANCH   2   3
ATOM      3  N   UNL     1       2.404   0.797   2.594  1.00  0.00    -0.356 N 
ATOM      4  C   UNL     1       1.069   0.898   2.331  1.00  0.00     0.227 C 
ATOM      5  O   UNL     1       0.462   1.777   2.945  1.00  0.00    -0.274 OA
ATOM      6  H   UNL     1       2.732   1.423   3.280  1.00  0.00     0.163 HD
BRANCH   4   7
ATOM      7  C   UNL     1       0.400  -0.071   1.340  1.00  0.00     0.105 C 
ATOM      8  C   UNL     1       0.741   0.262  -0.112  1.00  0.00     0.023 C 
BRANCH   7   9
ATOM      9  C   UNL     1      -1.119  -0.164   1.488  1.00  0.00    -0.035 A 
ATOM     10  C   UNL     1      -1.937   0.976   1.499  1.00  0.00     0.004 A 
ATOM     11  C   UNL     1      -1.732  -1.428   1.553  1.00  0.00     0.016 A 
ATOM     12  C   UNL     1      -3.321   0.863   1.627  1.00  0.00     0.001 A 
ATOM     13  C   UNL     1      -3.123  -1.551   1.689  1.00  0.00     0.023 A 
ATOM     14  C   UNL     1      -3.912  -0.395   1.727  1.00  0.00     0.012 A 
BRANCH  13  15
ATOM     15  C   UNL     1      -3.813  -2.874   1.739  1.00  0.00     0.193 C 
ATOM     16  O   UNL     1      -5.036  -2.942   1.638  1.00  0.00    -0.289 OA
BRANCH  15  17
ATOM     17  C   UNL     1      -3.058  -4.140   1.854  1.00  0.00     0.022 A 
ATOM     18  C   UNL     1      -3.304  -5.143   0.912  1.00  0.00     0.012 A 
ATOM     19  C   UNL     1      -2.134  -4.349   2.884  1.00  0.00     0.012 A 
ATOM     20  C   UNL     1      -2.591  -6.340   0.970  1.00  0.00     0.001 A 
ATOM     21  C   UNL     1      -1.419  -5.547   2.935  1.00  0.00     0.001 A 
ATOM     22  C   UNL     1      -1.644  -6.537   1.976  1.00  0.00     0.000 A 
ENDBRANCH  15  17
ENDBRANCH  13  15
ENDBRANCH   7   9
ENDBRANCH   4   7
ENDBRANCH   2   3
ENDBRANCH   1   2
BRANCH   1  23
ATOM     23  C   UNL     1       5.073   1.853   1.639  1.00  0.00     0.118 C 
BRANCH  23  24
ATOM     24  N   UNL     1       6.069   1.464   2.627  1.00  0.00    -0.352 N 
ATOM     25  C   UNL     1       7.423   1.711   2.640  1.00  0.00     0.251 C 
ATOM     26  H   UNL     1       5.726   0.953   3.395  1.00  0.00     0.163 HD
ATOM     27  O   UNL     1       8.133   1.156   3.473  1.00  0.00    -0.269 OA
BRANCH  25  28
ATOM     28  C   UNL     1       8.017   2.616   1.631  1.00  0.00     0.039 A 
ATOM     29  C   UNL     1       9.170   2.215   0.950  1.00  0.00     0.014 A 
ATOM     30  C   UNL     1       7.427   3.851   1.348  1.00  0.00     0.014 A 
ATOM     31  C   UNL     1       9.686   3.017  -0.073  1.00  0.00     0.010 A 
ATOM     32  C   UNL     1       7.901   4.612   0.284  1.00  0.00     0.010 A 
ATOM     33  C   UNL     1       9.031   4.202  -0.441  1.00  0.00    -0.014 A 
BRANCH  33  34
ATOM     34  C   UNL     1       9.500   5.048  -1.570  1.00  0.00     0.031 A 
ATOM     35  C   UNL     1       9.943   6.459  -1.303  1.00  0.00     0.074 A 
ATOM     36  C   UNL     1       9.408   4.596  -2.835  1.00  0.00     0.049 A 
ATOM     37  N   UNL     1      10.182   7.430  -2.145  1.00  0.00    -0.248 NA
ATOM     38  C   UNL     1      10.092   6.832   0.111  1.00  0.00     0.031 C 
ATOM     39  C   UNL     1       8.961   3.258  -3.226  1.00  0.00     0.029 A 
ATOM     40  N   UNL     1       9.649   5.228  -4.030  1.00  0.00    -0.354 N 
ATOM     41  C   UNL     1      10.478   8.542  -1.363  1.00  0.00     0.074 A 
ATOM     42  C   UNL     1      10.332   8.130   0.018  1.00  0.00     0.031 C 
ATOM     43  C   UNL     1       8.947   3.174  -4.566  1.00  0.00     0.029 A 
ATOM     44  C   UNL     1       9.334   4.464  -5.130  1.00  0.00     0.049 A 
ATOM     45  H   UNL     1      10.012   6.141  -4.094  1.00  0.00     0.167 HD
ATOM     46  C   UNL     1      10.852   9.785  -1.761  1.00  0.00     0.034 A 
ATOM     47  C   UNL     1       9.320   4.775  -6.441  1.00  0.00     0.034 A 
ATOM     48  C   UNL     1      11.003  10.168  -3.144  1.00  0.00     0.049 A 
ATOM     49  C   UNL     1       9.723   6.161  -6.870  1.00  0.00     0.074 A 
ATOM     50  C   UNL     1      11.435  11.376  -3.664  1.00  0.00     0.029 A 
ATOM     51  N   UNL     1      10.716   9.350  -4.231  1.00  0.00    -0.354 N 
ATOM     52  N   UNL     1      10.039   7.194  -6.124  1.00  0.00    -0.248 NA
ATOM     53  C   UNL     1       9.776   6.422  -8.314  1.00  0.00     0.031 C 
ATOM     54  C   UNL     1      11.350  11.309  -5.059  1.00  0.00     0.029 A 
ATOM     55  C   UNL     1      10.934  10.036  -5.415  1.00  0.00     0.049 A 
ATOM     56  H   UNL     1      10.403   8.419  -4.168  1.00  0.00     0.167 HD
ATOM     57  C   UNL     1      10.356   8.220  -7.010  1.00  0.00     0.074 A 
ATOM     58  C   UNL     1      10.191   7.681  -8.345  1.00  0.00     0.031 C 
ATOM     59  C   UNL     1      10.759   9.488  -6.741  1.00  0.00     0.034 A 
BRANCH  46  60
ATOM     60  C   UNL     1      11.079  10.814  -0.678  1.00  0.00     0.023 A 
ATOM     61  C   UNL     1      12.056  10.632   0.318  1.00  0.00     0.031 A 
ATOM     62  C   UNL     1      10.264  11.957  -0.595  1.00  0.00     0.131 A 
ATOM     63  C   UNL     1      12.116  11.511   1.410  1.00  0.00     0.055 A 
ATOM     64  C   UNL     1      10.396  12.882   0.443  1.00  0.00     0.041 A 
ATOM     65  F   UNL     1       9.303  12.179  -1.505  1.00  0.00    -0.206 F 
ATOM     66  C   UNL     1      11.310  12.649   1.467  1.00  0.00     0.022 A 
BRANCH  63  67
ATOM     67  S   UNL     1      13.120  11.033   2.843  1.00  0.00     0.124 S 
ATOM     68  O   UNL     1      12.560   9.724   3.172  1.00  0.00    -0.237 OA
ATOM     69  O   UNL     1      14.471  11.031   2.294  1.00  0.00    -0.237 OA
ATOM     70  O   UNL     1      12.843  12.083   3.821  1.00  0.00    -0.744 OA
ENDBRANCH  63  67
ENDBRANCH  46  60
BRANCH  47  71
ATOM     71  C   UNL     1       8.875   3.761  -7.436  1.00  0.00     0.023 A 
ATOM     72  C   UNL     1       9.782   3.172  -8.330  1.00  0.00     0.031 A 
ATOM     73  C   UNL     1       7.529   3.357  -7.495  1.00  0.00     0.131 A 
ATOM     74  C   UNL     1       9.327   2.227  -9.263  1.00  0.00     0.055 A 
ATOM     75  C   UNL     1       7.089   2.389  -8.399  1.00  0.00     0.041 A 
ATOM     76  F   UNL     1       6.626   3.882  -6.651  1.00  0.00    -0.206 F 
ATOM     77  C   UNL     1       7.990   1.823  -9.295  1.00  0.00     0.022 A 
BRANCH  74  78
ATOM     78  S   UNL     1      10.506   1.552 -10.464  1.00  0.00     0.124 S 
ATOM     79  O   UNL     1      10.904   2.750 -11.195  1.00  0.00    -0.237 OA
ATOM     80  O   UNL     1      11.520   0.963  -9.596  1.00  0.00    -0.237 OA
ATOM     81  O   UNL     1       9.707   0.593 -11.224  1.00  0.00    -0.744 OA
ENDBRANCH  74  78
ENDBRANCH  47  71
BRANCH  59  82
ATOM     82  C   UNL     1      11.108  10.366  -7.916  1.00  0.00     0.023 A 
ATOM     83  C   UNL     1      10.126  10.877  -8.781  1.00  0.00     0.031 A 
ATOM     84  C   UNL     1      12.449  10.717  -8.150  1.00  0.00     0.131 A 
ATOM     85  C   UNL     1      10.505  11.690  -9.861  1.00  0.00     0.055 A 
ATOM     86  C   UNL     1      12.815  11.562  -9.197  1.00  0.00     0.041 A 
ATOM     87  F   UNL     1      13.425  10.253  -7.353  1.00  0.00    -0.206 F 
ATOM     88  C   UNL     1      11.841  12.049 -10.064  1.00  0.00     0.022 A 
BRANCH  85  89
ATOM     89  S   UNL     1       9.233  12.242 -11.030  1.00  0.00     0.124 S 
ATOM     90  O   UNL     1       8.760  10.977 -11.583  1.00  0.00    -0.237 OA
ATOM     91  O   UNL     1       8.296  12.950 -10.165  1.00  0.00    -0.237 OA
ATOM     92  O   UNL     1       9.971  13.090 -11.965  1.00  0.00    -0.744 OA
ENDBRANCH  85  89
ENDBRANCH  59  82
ENDBRANCH  33  34
ENDBRANCH  25  28
ENDBRANCH  23  24
ENDBRANCH   1  23
TORSDOF 16
