REMARK SMILES CCc1ccsc1Cn1cccc1C(=O)NCCCNC(=O)c1ccc(-c2c3nc(c(-c4cc(S(=O)(=O)[O-])ccc4F)c4ccc([nH]4)c(-c4cc(S(=O)(=O)[O-])ccc4F)c4nc(c(-c5cc(S(=O)(=O)[O-])ccc5F)c5ccc2[nH]5)C=C4)C=C3)cc1
REMARK SMILES IDX 18 1 17 2 16 3 14 4 15 5 13 7 9 8 10 9 11 10 12 11 8 12 7 13
REMARK SMILES IDX 3 14 4 15 5 16 6 17 2 18 1 19 19 20 20 21 21 22 22 24 23 25
REMARK SMILES IDX 24 26 85 27 25 28 84 29 26 30 27 31 28 32 78 33 29 34 83 35
REMARK SMILES IDX 77 36 79 37 30 38 82 39 76 40 75 41 31 43 63 44 43 45 62 46
REMARK SMILES IDX 44 47 47 48 61 49 80 50 45 51 46 52 60 54 81 55 48 56 32 57
REMARK SMILES IDX 33 58 41 59 34 60 40 61 42 62 39 63 35 64 36 65 37 66 38 67
REMARK SMILES IDX 64 68 65 69 73 70 66 71 72 72 74 73 71 74 67 75 68 76 69 77
REMARK SMILES IDX 70 78 49 79 50 80 58 81 51 82 57 83 59 84 56 85 52 86 53 87
REMARK SMILES IDX 54 88 55 89
REMARK H PARENT 16 6 20 23 79 42 47 53
REMARK Flexibility Score: inf
ROOT
ATOM      1  C   UNL     1       0.887   2.826  -2.678  1.00  0.00     0.042 C 
ENDROOT
BRANCH   1   2
ATOM      2  C   UNL     1       2.044   3.613  -3.268  1.00  0.00     0.118 C 
BRANCH   2   3
ATOM      3  N   UNL     1       3.225   3.334  -2.492  1.00  0.00    -0.351 N 
ATOM      4  C   UNL     1       4.147   2.323  -2.564  1.00  0.00     0.267 C 
ATOM      5  O   UNL     1       4.928   2.270  -1.612  1.00  0.00    -0.268 OA
ATOM      6  H   UNL     1       3.402   3.990  -1.779  1.00  0.00     0.163 HD
BRANCH   4   7
ATOM      7  C   UNL     1       4.353   1.506  -3.754  1.00  0.00     0.107 A 
ATOM      8  N   UNL     1       3.573   0.609  -4.484  1.00  0.00    -0.338 N 
ATOM      9  C   UNL     1       4.324   0.142  -5.555  1.00  0.00     0.087 A 
ATOM     10  C   UNL     1       5.614   0.579  -5.429  1.00  0.00     0.020 A 
ATOM     11  C   UNL     1       5.634   1.420  -4.308  1.00  0.00     0.033 A 
BRANCH   8  12
ATOM     12  C   UNL     1       2.156   0.237  -4.382  1.00  0.00     0.169 C 
BRANCH  12  13
ATOM     13  C   UNL     1       1.822  -1.122  -3.804  1.00  0.00     0.027 A 
ATOM     14  C   UNL     1       0.987  -1.491  -2.741  1.00  0.00    -0.033 A 
ATOM     15  C   UNL     1       0.842  -2.921  -2.664  1.00  0.00     0.016 A 
ATOM     16  C   UNL     1       1.514  -3.587  -3.655  1.00  0.00     0.065 A 
ATOM     17  S   UNL     1       2.353  -2.521  -4.672  1.00  0.00    -0.147 S 
BRANCH  14  18
ATOM     18  C   UNL     1       0.228  -0.619  -1.773  1.00  0.00     0.033 C 
ATOM     19  C   UNL     1       0.930  -0.468  -0.431  1.00  0.00     0.009 C 
ENDBRANCH  14  18
ENDBRANCH  12  13
ENDBRANCH   8  12
ENDBRANCH   4   7
ENDBRANCH   2   3
ENDBRANCH   1   2
BRANCH   1  20
ATOM     20  C   UNL     1       0.237   3.419  -1.454  1.00  0.00     0.118 C 
BRANCH  20  21
ATOM     21  N   UNL     1      -1.200   3.445  -1.581  1.00  0.00    -0.352 N 
ATOM     22  C   UNL     1      -2.172   3.652  -0.643  1.00  0.00     0.251 C 
ATOM     23  H   UNL     1      -1.535   3.287  -2.493  1.00  0.00     0.163 HD
ATOM     24  O   UNL     1      -3.337   3.505  -1.020  1.00  0.00    -0.269 OA
BRANCH  22  25
ATOM     25  C   UNL     1      -1.885   4.051   0.764  1.00  0.00     0.039 A 
ATOM     26  C   UNL     1      -3.005   4.264   1.585  1.00  0.00     0.014 A 
ATOM     27  C   UNL     1      -0.609   4.243   1.309  1.00  0.00     0.014 A 
ATOM     28  C   UNL     1      -2.848   4.633   2.916  1.00  0.00     0.010 A 
ATOM     29  C   UNL     1      -0.442   4.636   2.625  1.00  0.00     0.010 A 
ATOM     30  C   UNL     1      -1.562   4.800   3.431  1.00  0.00    -0.014 A 
BRANCH  30  31
ATOM     31  C   UNL     1      -1.358   5.002   4.871  1.00  0.00     0.031 A 
ATOM     32  C   UNL     1      -1.268   3.666   5.625  1.00  0.00     0.074 A 
ATOM     33  C   UNL     1      -1.267   6.302   5.280  1.00  0.00     0.049 A 
ATOM     34  N   UNL     1      -1.625   3.371   6.836  1.00  0.00    -0.248 NA
ATOM     35  C   UNL     1      -0.817   2.446   4.896  1.00  0.00     0.031 C 
ATOM     36  C   UNL     1      -1.349   7.475   4.376  1.00  0.00     0.029 A 
ATOM     37  N   UNL     1      -1.083   6.910   6.500  1.00  0.00    -0.354 N 
ATOM     38  C   UNL     1      -1.219   2.038   7.085  1.00  0.00     0.074 A 
ATOM     39  C   UNL     1      -0.882   1.480   5.814  1.00  0.00     0.031 C 
ATOM     40  C   UNL     1      -1.293   8.629   5.075  1.00  0.00     0.029 A 
ATOM     41  C   UNL     1      -1.147   8.329   6.486  1.00  0.00     0.049 A 
ATOM     42  H   UNL     1      -0.918   6.399   7.325  1.00  0.00     0.167 HD
ATOM     43  C   UNL     1      -1.023   1.540   8.343  1.00  0.00     0.034 A 
ATOM     44  C   UNL     1      -1.125   9.204   7.537  1.00  0.00     0.034 A 
ATOM     45  C   UNL     1      -1.310   2.556   9.304  1.00  0.00     0.049 A 
ATOM     46  C   UNL     1      -0.878   8.375   8.728  1.00  0.00     0.074 A 
ATOM     47  C   UNL     1      -2.460   3.180   9.706  1.00  0.00     0.029 A 
ATOM     48  N   UNL     1      -0.231   3.258   9.792  1.00  0.00    -0.354 N 
ATOM     49  N   UNL     1       0.261   7.837   9.039  1.00  0.00    -0.248 NA
ATOM     50  C   UNL     1      -2.012   8.046   9.601  1.00  0.00     0.031 C 
ATOM     51  C   UNL     1      -2.033   4.488  10.020  1.00  0.00     0.029 A 
ATOM     52  C   UNL     1      -0.635   4.558   9.941  1.00  0.00     0.049 A 
ATOM     53  H   UNL     1       0.661   2.894   9.996  1.00  0.00     0.167 HD
ATOM     54  C   UNL     1      -0.098   6.875   9.951  1.00  0.00     0.074 A 
ATOM     55  C   UNL     1      -1.387   7.265  10.477  1.00  0.00     0.031 C 
ATOM     56  C   UNL     1       0.358   5.605   9.799  1.00  0.00     0.034 A 
BRANCH  43  57
ATOM     57  C   UNL     1      -0.332   0.301   8.869  1.00  0.00     0.023 A 
ATOM     58  C   UNL     1      -0.449   0.084  10.267  1.00  0.00     0.031 A 
ATOM     59  C   UNL     1       0.641  -0.461   8.211  1.00  0.00     0.131 A 
ATOM     60  C   UNL     1       0.471  -0.698  10.973  1.00  0.00     0.055 A 
ATOM     61  C   UNL     1       1.508  -1.318   8.911  1.00  0.00     0.041 A 
ATOM     62  F   UNL     1       0.855  -0.354   6.894  1.00  0.00    -0.206 F 
ATOM     63  C   UNL     1       1.457  -1.405  10.300  1.00  0.00     0.022 A 
BRANCH  60  64
ATOM     64  S   UNL     1       0.468  -0.582  12.786  1.00  0.00     0.124 S 
ATOM     65  O   UNL     1       0.566   0.858  13.000  1.00  0.00    -0.237 OA
ATOM     66  O   UNL     1      -0.813  -1.192  13.127  1.00  0.00    -0.237 OA
ATOM     67  O   UNL     1       1.647  -1.351  13.175  1.00  0.00    -0.744 OA
ENDBRANCH  60  64
ENDBRANCH  43  57
BRANCH  44  68
ATOM     68  C   UNL     1      -1.359  10.683   7.777  1.00  0.00     0.023 A 
ATOM     69  C   UNL     1      -1.475  11.676   6.790  1.00  0.00     0.031 A 
ATOM     70  C   UNL     1      -1.531  11.155   9.117  1.00  0.00     0.131 A 
ATOM     71  C   UNL     1      -1.812  13.010   7.148  1.00  0.00     0.055 A 
ATOM     72  C   UNL     1      -1.931  12.446   9.456  1.00  0.00     0.041 A 
ATOM     73  F   UNL     1      -1.322  10.373  10.184  1.00  0.00    -0.206 F 
ATOM     74  C   UNL     1      -2.088  13.384   8.465  1.00  0.00     0.022 A 
BRANCH  71  75
ATOM     75  S   UNL     1      -1.927  14.328   5.902  1.00  0.00     0.124 S 
ATOM     76  O   UNL     1      -0.610  14.948   5.998  1.00  0.00    -0.237 OA
ATOM     77  O   UNL     1      -2.203  13.599   4.669  1.00  0.00    -0.237 OA
ATOM     78  O   UNL     1      -3.036  15.145   6.395  1.00  0.00    -0.744 OA
ENDBRANCH  71  75
ENDBRANCH  44  68
BRANCH  56  79
ATOM     79  C   UNL     1       1.690   5.496   9.062  1.00  0.00     0.023 A 
ATOM     80  C   UNL     1       2.831   6.163   9.550  1.00  0.00     0.031 A 
ATOM     81  C   UNL     1       1.841   4.845   7.824  1.00  0.00     0.131 A 
ATOM     82  C   UNL     1       4.031   6.183   8.809  1.00  0.00     0.055 A 
ATOM     83  C   UNL     1       3.036   4.845   7.095  1.00  0.00     0.041 A 
ATOM     84  F   UNL     1       0.821   4.198   7.264  1.00  0.00    -0.206 F 
ATOM     85  C   UNL     1       4.141   5.523   7.585  1.00  0.00     0.022 A 
BRANCH  82  86
ATOM     86  S   UNL     1       5.469   7.075   9.464  1.00  0.00     0.124 S 
ATOM     87  O   UNL     1       5.073   8.470   9.323  1.00  0.00    -0.237 OA
ATOM     88  O   UNL     1       5.559   6.571  10.833  1.00  0.00    -0.237 OA
ATOM     89  O   UNL     1       6.562   6.652   8.587  1.00  0.00    -0.744 OA
ENDBRANCH  82  86
ENDBRANCH  56  79
ENDBRANCH  30  31
ENDBRANCH  22  25
ENDBRANCH  20  21
ENDBRANCH   1  20
TORSDOF 16
