REMARK SMILES C[C@H](NC(=O)c1cc(S(=O)(=O)N(C)C)cs1)C(=O)NCCCNC(=O)c1ccc(-c2c3nc(c(-c4cc(S(=O)(=O)[O-])ccc4F)c4ccc([nH]4)c(-c4cc(S(=O)(=O)[O-])ccc4F)c4nc(c(-c5cc(S(=O)(=O)[O-])ccc5F)c5ccc2[nH]5)C=C4)C=C3)cc1
REMARK SMILES IDX 20 1 19 2 17 3 18 4 2 6 1 7 3 8 4 9 5 11 6 12 7 13 16 14
REMARK SMILES IDX 8 15 15 16 9 17 10 18 11 19 12 20 13 21 14 22 21 23 22 24
REMARK SMILES IDX 23 25 24 26 25 28 26 29 27 30 88 31 28 32 87 33 29 34 30 35
REMARK SMILES IDX 31 36 81 37 32 38 86 39 80 40 82 41 33 42 85 43 79 44 78 45
REMARK SMILES IDX 34 47 66 48 46 49 65 50 47 51 50 52 64 53 83 54 48 55 49 56
REMARK SMILES IDX 63 58 84 59 51 60 35 61 36 62 44 63 37 64 43 65 45 66 42 67
REMARK SMILES IDX 38 68 39 69 40 70 41 71 67 72 68 73 76 74 69 75 75 76 77 77
REMARK SMILES IDX 74 78 70 79 71 80 72 81 73 82 52 83 53 84 61 85 54 86 60 87
REMARK SMILES IDX 62 88 59 89 55 90 56 91 57 92 58 93
REMARK H PARENT 19 5 3 10 23 27 82 46 50 57
REMARK Flexibility Score: inf
ROOT
ATOM      1  C   UNL     1      -0.862   0.076   2.264  1.00  0.00     0.117 C 
ENDROOT
BRANCH   1   2
ATOM      2  N   UNL     1      -1.415  -0.720   1.183  1.00  0.00    -0.354 N 
ATOM      3  C   UNL     1      -0.840  -1.646   0.368  1.00  0.00     0.242 C 
ATOM      4  O   UNL     1      -1.587  -2.250  -0.409  1.00  0.00    -0.273 OA
ATOM      5  H   UNL     1      -2.370  -0.562   1.008  1.00  0.00     0.163 HD
BRANCH   3   6
ATOM      6  C   UNL     1       0.667  -1.959   0.403  1.00  0.00     0.168 C 
ATOM      7  C   UNL     1       1.129  -2.562   1.723  1.00  0.00     0.041 C 
BRANCH   6   8
ATOM      8  N   UNL     1       1.468  -0.797   0.024  1.00  0.00    -0.340 N 
ATOM      9  C   UNL     1       2.020  -0.515  -1.205  1.00  0.00     0.262 C 
ATOM     10  H   UNL     1       1.633  -0.136   0.734  1.00  0.00     0.164 HD
ATOM     11  O   UNL     1       2.749   0.471  -1.295  1.00  0.00    -0.268 OA
BRANCH   9  12
ATOM     12  C   UNL     1       1.727  -1.397  -2.314  1.00  0.00     0.093 A 
ATOM     13  C   UNL     1       0.512  -1.669  -2.912  1.00  0.00     0.047 A 
ATOM     14  S   UNL     1       3.008  -2.257  -3.057  1.00  0.00    -0.137 S 
ATOM     15  C   UNL     1       0.640  -2.608  -3.978  1.00  0.00     0.094 A 
ATOM     16  C   UNL     1       1.940  -3.036  -4.144  1.00  0.00     0.087 A 
BRANCH  15  17
ATOM     17  S   UNL     1      -0.684  -3.183  -4.933  1.00  0.00     0.243 S 
ATOM     18  O   UNL     1      -0.205  -3.100  -6.297  1.00  0.00    -0.207 OA
ATOM     19  O   UNL     1      -1.010  -4.452  -4.322  1.00  0.00    -0.207 OA
BRANCH  17  20
ATOM     20  N   UNL     1      -2.009  -2.124  -4.767  1.00  0.00    -0.204 NA
ATOM     21  C   UNL     1      -1.821  -0.782  -5.360  1.00  0.00     0.124 C 
ATOM     22  C   UNL     1      -3.297  -2.724  -5.173  1.00  0.00     0.124 C 
ENDBRANCH  17  20
ENDBRANCH  15  17
ENDBRANCH   9  12
ENDBRANCH   6   8
ENDBRANCH   3   6
ENDBRANCH   1   2
BRANCH   1  23
ATOM     23  C   UNL     1      -1.292   1.537   2.208  1.00  0.00     0.042 C 
BRANCH  23  24
ATOM     24  C   UNL     1      -2.796   1.779   2.290  1.00  0.00     0.118 C 
BRANCH  24  25
ATOM     25  N   UNL     1      -3.390   1.298   3.529  1.00  0.00    -0.352 N 
ATOM     26  C   UNL     1      -4.054   1.981   4.521  1.00  0.00     0.251 C 
ATOM     27  H   UNL     1      -3.302   0.329   3.681  1.00  0.00     0.163 HD
ATOM     28  O   UNL     1      -4.339   1.393   5.562  1.00  0.00    -0.269 OA
BRANCH  26  29
ATOM     29  C   UNL     1      -4.393   3.413   4.361  1.00  0.00     0.039 A 
ATOM     30  C   UNL     1      -4.184   4.279   5.439  1.00  0.00     0.014 A 
ATOM     31  C   UNL     1      -4.924   3.906   3.167  1.00  0.00     0.014 A 
ATOM     32  C   UNL     1      -4.420   5.649   5.289  1.00  0.00     0.010 A 
ATOM     33  C   UNL     1      -5.092   5.280   2.995  1.00  0.00     0.010 A 
ATOM     34  C   UNL     1      -4.832   6.167   4.051  1.00  0.00    -0.014 A 
BRANCH  34  35
ATOM     35  C   UNL     1      -4.972   7.631   3.829  1.00  0.00     0.031 A 
ATOM     36  C   UNL     1      -6.315   8.223   3.500  1.00  0.00     0.074 A 
ATOM     37  C   UNL     1      -3.873   8.412   3.836  1.00  0.00     0.049 A 
ATOM     38  N   UNL     1      -6.618   9.447   3.153  1.00  0.00    -0.248 NA
ATOM     39  C   UNL     1      -7.462   7.305   3.536  1.00  0.00     0.031 C 
ATOM     40  C   UNL     1      -2.508   7.950   4.099  1.00  0.00     0.029 A 
ATOM     41  N   UNL     1      -3.727   9.755   3.598  1.00  0.00    -0.354 N 
ATOM     42  C   UNL     1      -7.987   9.445   2.908  1.00  0.00     0.074 A 
ATOM     43  C   UNL     1      -8.442   8.084   3.101  1.00  0.00     0.031 C 
ATOM     44  C   UNL     1      -1.667   8.993   4.019  1.00  0.00     0.029 A 
ATOM     45  C   UNL     1      -2.422  10.188   3.657  1.00  0.00     0.049 A 
ATOM     46  H   UNL     1      -4.484  10.354   3.404  1.00  0.00     0.167 HD
ATOM     47  C   UNL     1      -8.792  10.485   2.571  1.00  0.00     0.034 A 
ATOM     48  C   UNL     1      -1.890  11.404   3.427  1.00  0.00     0.034 A 
ATOM     49  C   UNL     1      -8.328  11.841   2.403  1.00  0.00     0.049 A 
ATOM     50  C   UNL     1      -2.801  12.541   3.048  1.00  0.00     0.074 A 
ATOM     51  C   UNL     1      -9.068  12.979   2.132  1.00  0.00     0.029 A 
ATOM     52  N   UNL     1      -7.001  12.243   2.484  1.00  0.00    -0.354 N 
ATOM     53  N   UNL     1      -4.100  12.531   2.862  1.00  0.00    -0.248 NA
ATOM     54  C   UNL     1      -2.173  13.854   2.854  1.00  0.00     0.031 C 
ATOM     55  C   UNL     1      -8.184  14.057   1.995  1.00  0.00     0.029 A 
ATOM     56  C   UNL     1      -6.898  13.604   2.240  1.00  0.00     0.049 A 
ATOM     57  H   UNL     1      -6.243  11.648   2.685  1.00  0.00     0.167 HD
ATOM     58  C   UNL     1      -4.447  13.841   2.547  1.00  0.00     0.074 A 
ATOM     59  C   UNL     1      -3.223  14.616   2.583  1.00  0.00     0.031 C 
ATOM     60  C   UNL     1      -5.668  14.358   2.258  1.00  0.00     0.034 A 
BRANCH  47  61
ATOM     61  C   UNL     1     -10.252  10.180   2.338  1.00  0.00     0.023 A 
ATOM     62  C   UNL     1     -11.081   9.709   3.371  1.00  0.00     0.031 A 
ATOM     63  C   UNL     1     -10.814  10.329   1.058  1.00  0.00     0.131 A 
ATOM     64  C   UNL     1     -12.402   9.329   3.091  1.00  0.00     0.055 A 
ATOM     65  C   UNL     1     -12.153  10.024   0.803  1.00  0.00     0.041 A 
ATOM     66  F   UNL     1     -10.067  10.758   0.029  1.00  0.00    -0.206 F 
ATOM     67  C   UNL     1     -12.951   9.505   1.819  1.00  0.00     0.022 A 
BRANCH  64  68
ATOM     68  S   UNL     1     -13.345   8.468   4.378  1.00  0.00     0.124 S 
ATOM     69  O   UNL     1     -12.512   7.291   4.616  1.00  0.00    -0.237 OA
ATOM     70  O   UNL     1     -13.383   9.452   5.453  1.00  0.00    -0.237 OA
ATOM     71  O   UNL     1     -14.629   8.193   3.736  1.00  0.00    -0.744 OA
ENDBRANCH  64  68
ENDBRANCH  47  61
BRANCH  48  72
ATOM     72  C   UNL     1      -0.419  11.612   3.527  1.00  0.00     0.023 A 
ATOM     73  C   UNL     1       0.129  12.405   4.547  1.00  0.00     0.031 A 
ATOM     74  C   UNL     1       0.456  11.044   2.585  1.00  0.00     0.131 A 
ATOM     75  C   UNL     1       1.512  12.641   4.580  1.00  0.00     0.055 A 
ATOM     76  C   UNL     1       1.835  11.248   2.646  1.00  0.00     0.041 A 
ATOM     77  F   UNL     1      -0.021  10.270   1.597  1.00  0.00    -0.206 F 
ATOM     78  C   UNL     1       2.369  12.060   3.642  1.00  0.00     0.022 A 
BRANCH  75  79
ATOM     79  S   UNL     1       2.169  13.774   5.834  1.00  0.00     0.124 S 
ATOM     80  O   UNL     1       1.442  15.003   5.536  1.00  0.00    -0.237 OA
ATOM     81  O   UNL     1       1.802  13.096   7.074  1.00  0.00    -0.237 OA
ATOM     82  O   UNL     1       3.601  13.808   5.545  1.00  0.00    -0.744 OA
ENDBRANCH  75  79
ENDBRANCH  48  72
BRANCH  60  83
ATOM     83  C   UNL     1      -5.729  15.840   1.990  1.00  0.00     0.023 A 
ATOM     84  C   UNL     1      -5.173  16.401   0.828  1.00  0.00     0.031 A 
ATOM     85  C   UNL     1      -6.329  16.703   2.924  1.00  0.00     0.131 A 
ATOM     86  C   UNL     1      -5.183  17.793   0.652  1.00  0.00     0.055 A 
ATOM     87  C   UNL     1      -6.381  18.082   2.719  1.00  0.00     0.041 A 
ATOM     88  F   UNL     1      -6.873  16.217   4.051  1.00  0.00    -0.206 F 
ATOM     89  C   UNL     1      -5.796  18.636   1.584  1.00  0.00     0.022 A 
BRANCH  86  90
ATOM     90  S   UNL     1      -4.314  18.497  -0.776  1.00  0.00     0.124 S 
ATOM     91  O   UNL     1      -2.946  18.039  -0.556  1.00  0.00    -0.237 OA
ATOM     92  O   UNL     1      -5.017  17.888  -1.901  1.00  0.00    -0.237 OA
ATOM     93  O   UNL     1      -4.518  19.937  -0.626  1.00  0.00    -0.744 OA
ENDBRANCH  86  90
ENDBRANCH  60  83
ENDBRANCH  34  35
ENDBRANCH  26  29
ENDBRANCH  24  25
ENDBRANCH  23  24
ENDBRANCH   1  23
TORSDOF 17
