REMARK SMILES O=C(NCCCNC(=O)c1cn(C2CC2)c2cc(N3CC[NH2+]CC3)ccc2c1=O)c1ccc(-c2c3nc(c(-c4cc(S(=O)(=O)[O-])ccc4F)c4ccc([nH]4)c(-c4cc(S(=O)(=O)[O-])ccc4F)c4nc(c(-c5cc(S(=O)(=O)[O-])ccc5F)c5ccc2[nH]5)C=C4)C=C3)cc1
REMARK SMILES IDX 4 1 3 2 1 3 2 4 30 6 31 7 92 8 32 9 91 10 33 11 34 12 35 13
REMARK SMILES IDX 85 14 36 15 90 16 84 17 86 18 37 19 89 20 83 21 82 22 38 24
REMARK SMILES IDX 70 25 50 26 69 27 51 28 54 29 68 30 87 31 52 32 53 33 67 35
REMARK SMILES IDX 88 36 55 37 39 38 40 39 48 40 41 41 47 42 49 43 46 44 42 45
REMARK SMILES IDX 43 46 44 47 45 48 71 49 72 50 80 51 73 52 79 53 81 54 78 55
REMARK SMILES IDX 74 56 75 57 76 58 77 59 56 60 57 61 65 62 58 63 64 64 66 65
REMARK SMILES IDX 63 66 59 67 60 68 61 69 62 70 5 71 6 72 7 73 8 74 9 76 10 77
REMARK SMILES IDX 11 78 28 79 12 80 27 81 29 82 16 83 26 84 17 85 25 86 18 87
REMARK SMILES IDX 13 88 14 89 15 90 19 91 20 92 24 93 21 94 23 95 22 96
REMARK H PARENT 3 5 86 23 54 34 7 75 22 97 22 98
REMARK Flexibility Score: inf
ROOT
ATOM      1  C   UNL     1       4.645   0.842   0.925  1.00  0.00     0.118 C 
ENDROOT
BRANCH   1   2
ATOM      2  N   UNL     1       3.195   0.713   0.873  1.00  0.00    -0.352 N 
ATOM      3  O   UNL     1       1.187   0.092   0.095  1.00  0.00    -0.269 OA
ATOM      4  C   UNL     1       2.400  -0.111   0.118  1.00  0.00     0.251 C 
ATOM      5  H   UNL     1       2.706   1.317   1.478  1.00  0.00     0.163 HD
BRANCH   4   6
ATOM      6  C   UNL     1       2.976  -1.230  -0.660  1.00  0.00     0.039 A 
ATOM      7  C   UNL     1       2.411  -1.549  -1.901  1.00  0.00     0.014 A 
ATOM      8  C   UNL     1       4.017  -2.011  -0.151  1.00  0.00     0.014 A 
ATOM      9  C   UNL     1       2.910  -2.625  -2.639  1.00  0.00     0.010 A 
ATOM     10  C   UNL     1       4.566  -3.030  -0.923  1.00  0.00     0.010 A 
ATOM     11  C   UNL     1       4.002  -3.365  -2.161  1.00  0.00    -0.014 A 
BRANCH  11  12
ATOM     12  C   UNL     1       4.547  -4.524  -2.910  1.00  0.00     0.031 A 
ATOM     13  C   UNL     1       4.464  -5.902  -2.316  1.00  0.00     0.074 A 
ATOM     14  C   UNL     1       5.183  -4.329  -4.080  1.00  0.00     0.049 A 
ATOM     15  N   UNL     1       4.966  -7.024  -2.760  1.00  0.00    -0.248 NA
ATOM     16  C   UNL     1       3.746  -6.031  -1.037  1.00  0.00     0.031 C 
ATOM     17  C   UNL     1       5.353  -3.033  -4.734  1.00  0.00     0.029 A 
ATOM     18  N   UNL     1       5.822  -5.213  -4.915  1.00  0.00    -0.354 N 
ATOM     19  C   UNL     1       4.651  -7.984  -1.806  1.00  0.00     0.074 A 
ATOM     20  C   UNL     1       3.958  -7.304  -0.735  1.00  0.00     0.031 C 
ATOM     21  C   UNL     1       6.038  -3.206  -5.874  1.00  0.00     0.029 A 
ATOM     22  C   UNL     1       6.402  -4.616  -6.009  1.00  0.00     0.049 A 
ATOM     23  H   UNL     1       5.860  -6.182  -4.745  1.00  0.00     0.167 HD
ATOM     24  C   UNL     1       4.896  -9.314  -1.835  1.00  0.00     0.034 A 
ATOM     25  C   UNL     1       7.156  -5.137  -7.000  1.00  0.00     0.034 A 
ATOM     26  C   UNL     1       5.549  -9.979  -2.931  1.00  0.00     0.049 A 
ATOM     27  C   UNL     1       7.427  -6.619  -7.011  1.00  0.00     0.074 A 
ATOM     28  C   UNL     1       5.743 -11.337  -3.108  1.00  0.00     0.029 A 
ATOM     29  N   UNL     1       6.118  -9.346  -4.026  1.00  0.00    -0.354 N 
ATOM     30  N   UNL     1       7.029  -7.534  -6.158  1.00  0.00    -0.248 NA
ATOM     31  C   UNL     1       8.244  -7.147  -8.113  1.00  0.00     0.031 C 
ATOM     32  C   UNL     1       6.488 -11.520  -4.273  1.00  0.00     0.029 A 
ATOM     33  C   UNL     1       6.703 -10.283  -4.862  1.00  0.00     0.049 A 
ATOM     34  H   UNL     1       6.107  -8.374  -4.186  1.00  0.00     0.167 HD
ATOM     35  C   UNL     1       7.534  -8.744  -6.624  1.00  0.00     0.074 A 
ATOM     36  C   UNL     1       8.250  -8.449  -7.849  1.00  0.00     0.031 C 
ATOM     37  C   UNL     1       7.417  -9.983  -6.083  1.00  0.00     0.034 A 
BRANCH  24  38
ATOM     38  C   UNL     1       4.447 -10.156  -0.667  1.00  0.00     0.023 A 
ATOM     39  C   UNL     1       5.397 -10.853   0.102  1.00  0.00     0.031 A 
ATOM     40  C   UNL     1       3.084 -10.353  -0.379  1.00  0.00     0.131 A 
ATOM     41  C   UNL     1       4.971 -11.728   1.109  1.00  0.00     0.055 A 
ATOM     42  C   UNL     1       2.666 -11.194   0.652  1.00  0.00     0.041 A 
ATOM     43  F   UNL     1       2.138  -9.715  -1.087  1.00  0.00    -0.206 F 
ATOM     44  C   UNL     1       3.612 -11.895   1.395  1.00  0.00     0.022 A 
BRANCH  41  45
ATOM     45  S   UNL     1       6.157 -12.729   2.048  1.00  0.00     0.124 S 
ATOM     46  O   UNL     1       5.947 -12.241   3.409  1.00  0.00    -0.237 OA
ATOM     47  O   UNL     1       5.680 -14.086   1.792  1.00  0.00    -0.237 OA
ATOM     48  O   UNL     1       7.447 -12.393   1.457  1.00  0.00    -0.744 OA
ENDBRANCH  41  45
ENDBRANCH  24  38
BRANCH  25  49
ATOM     49  C   UNL     1       7.639  -4.228  -8.079  1.00  0.00     0.023 A 
ATOM     50  C   UNL     1       8.514  -3.163  -7.791  1.00  0.00     0.031 A 
ATOM     51  C   UNL     1       7.106  -4.314  -9.375  1.00  0.00     0.131 A 
ATOM     52  C   UNL     1       8.754  -2.179  -8.759  1.00  0.00     0.055 A 
ATOM     53  C   UNL     1       7.407  -3.370 -10.359  1.00  0.00     0.041 A 
ATOM     54  F   UNL     1       6.258  -5.305  -9.692  1.00  0.00    -0.206 F 
ATOM     55  C   UNL     1       8.218  -2.284 -10.046  1.00  0.00     0.022 A 
BRANCH  52  56
ATOM     56  S   UNL     1       9.647  -0.657  -8.335  1.00  0.00     0.124 S 
ATOM     57  O   UNL     1      10.702  -0.627  -9.343  1.00  0.00    -0.237 OA
ATOM     58  O   UNL     1       8.600   0.351  -8.487  1.00  0.00    -0.237 OA
ATOM     59  O   UNL     1      10.092  -0.887  -6.964  1.00  0.00    -0.744 OA
ENDBRANCH  52  56
ENDBRANCH  25  49
BRANCH  37  60
ATOM     60  C   UNL     1       8.084 -11.148  -6.774  1.00  0.00     0.023 A 
ATOM     61  C   UNL     1       7.307 -12.208  -7.279  1.00  0.00     0.031 A 
ATOM     62  C   UNL     1       9.482 -11.294  -6.761  1.00  0.00     0.131 A 
ATOM     63  C   UNL     1       7.929 -13.393  -7.691  1.00  0.00     0.055 A 
ATOM     64  C   UNL     1      10.100 -12.458  -7.220  1.00  0.00     0.041 A 
ATOM     65  F   UNL     1      10.264 -10.314  -6.282  1.00  0.00    -0.206 F 
ATOM     66  C   UNL     1       9.322 -13.521  -7.670  1.00  0.00     0.022 A 
BRANCH  63  67
ATOM     67  S   UNL     1       6.952 -14.844  -8.175  1.00  0.00     0.124 S 
ATOM     68  O   UNL     1       7.428 -15.091  -9.534  1.00  0.00    -0.237 OA
ATOM     69  O   UNL     1       7.360 -15.834  -7.182  1.00  0.00    -0.237 OA
ATOM     70  O   UNL     1       5.570 -14.387  -8.076  1.00  0.00    -0.744 OA
ENDBRANCH  63  67
ENDBRANCH  37  60
ENDBRANCH  11  12
ENDBRANCH   4   6
ENDBRANCH   1   2
BRANCH   1  71
ATOM     71  C   UNL     1       5.122   2.243   0.574  1.00  0.00     0.042 C 
BRANCH  71  72
ATOM     72  C   UNL     1       4.560   3.342   1.462  1.00  0.00     0.118 C 
BRANCH  72  73
ATOM     73  N   UNL     1       4.971   3.235   2.858  1.00  0.00    -0.352 N 
ATOM     74  C   UNL     1       5.689   4.121   3.621  1.00  0.00     0.256 C 
ATOM     75  H   UNL     1       4.694   2.409   3.318  1.00  0.00     0.163 HD
ATOM     76  O   UNL     1       5.905   3.889   4.807  1.00  0.00    -0.269 OA
BRANCH  74  77
ATOM     77  C   UNL     1       6.137   5.367   2.978  1.00  0.00     0.104 A 
ATOM     78  C   UNL     1       5.204   6.221   2.536  1.00  0.00     0.104 A 
ATOM     79  C   UNL     1       7.555   5.666   2.704  1.00  0.00     0.202 A 
ATOM     80  N   UNL     1       5.426   7.314   1.722  1.00  0.00    -0.343 N 
ATOM     81  C   UNL     1       7.839   6.888   1.909  1.00  0.00     0.047 A 
ATOM     82  O   UNL     1       8.465   4.939   3.084  1.00  0.00    -0.288 OA
ATOM     83  C   UNL     1       6.778   7.689   1.445  1.00  0.00     0.054 A 
ATOM     84  C   UNL     1       9.166   7.192   1.590  1.00  0.00     0.016 A 
ATOM     85  C   UNL     1       7.105   8.828   0.691  1.00  0.00     0.053 A 
ATOM     86  C   UNL     1       9.449   8.294   0.785  1.00  0.00     0.027 A 
ATOM     87  C   UNL     1       8.427   9.127   0.322  1.00  0.00     0.039 A 
BRANCH  80  88
ATOM     88  C   UNL     1       4.306   7.854   0.904  1.00  0.00     0.087 C 
ATOM     89  C   UNL     1       2.914   7.273   0.815  1.00  0.00     0.027 C 
ATOM     90  C   UNL     1       3.143   8.565   1.542  1.00  0.00     0.027 C 
ENDBRANCH  80  88
BRANCH  87  91
ATOM     91  N   UNL     1       8.687  10.208  -0.491  1.00  0.00    -0.360 N 
ATOM     92  C   UNL     1       8.351  11.561  -0.045  1.00  0.00     0.178 C 
ATOM     93  C   UNL     1       9.547  10.088  -1.672  1.00  0.00     0.178 C 
ATOM     94  C   UNL     1       9.633  12.425   0.028  1.00  0.00     0.282 C 
ATOM     95  C   UNL     1      10.773  11.019  -1.556  1.00  0.00     0.282 C 
ATOM     96  N   UNL     1      10.424  12.421  -1.224  1.00  0.00    -0.343 N 
ATOM     97  H   UNL     1      11.276  12.967  -1.095  1.00  0.00     0.346 HD
ATOM     98  H   UNL     1       9.880  12.835  -1.982  1.00  0.00     0.346 HD
ENDBRANCH  87  91
ENDBRANCH  74  77
ENDBRANCH  72  73
ENDBRANCH  71  72
ENDBRANCH   1  71
TORSDOF 15
