REMARK SMILES O=C(C[C@@H]1C[N@@H+]([C@H]2CCO[C@]3(CCOC3)C2)CCO1)NCCCNC(=O)c1ccc(-c2c3nc(c(-c4cc(S(=O)(=O)[O-])ccc4F)c4ccc([nH]4)c(-c4cc(S(=O)(=O)[O-])ccc4F)c4nc(c(-c5cc(S(=O)(=O)[O-])ccc5F)c5ccc2[nH]5)C=C4)C=C3)cc1
REMARK SMILES IDX 22 1 21 2 20 3 1 4 2 5 3 7 4 8 5 9 19 10 6 11 18 12 17 13
REMARK SMILES IDX 7 15 8 16 16 17 9 18 11 19 10 20 12 21 15 22 13 23 14 24
REMARK SMILES IDX 23 25 24 26 25 27 26 29 27 30 28 31 89 32 29 33 88 34 30 35
REMARK SMILES IDX 31 36 32 37 82 38 33 39 87 40 81 41 83 42 34 43 86 44 80 45
REMARK SMILES IDX 79 46 35 48 67 49 47 50 66 51 48 52 51 53 65 54 84 55 49 56
REMARK SMILES IDX 50 57 64 59 85 60 52 61 36 62 37 63 45 64 38 65 44 66 46 67
REMARK SMILES IDX 43 68 39 69 40 70 41 71 42 72 68 73 69 74 77 75 70 76 76 77
REMARK SMILES IDX 78 78 75 79 71 80 72 81 73 82 74 83 53 84 54 85 62 86 55 87
REMARK SMILES IDX 61 88 63 89 60 90 56 91 57 92 58 93 59 94
REMARK H PARENT 20 6 6 14 24 28 83 47 51 58
REMARK Flexibility Score: inf
ROOT
ATOM      1  C   UNL     1       3.660   5.671  -9.060  1.00  0.00     0.042 C 
ENDROOT
BRANCH   1   2
ATOM      2  C   UNL     1       2.952   4.742  -8.081  1.00  0.00     0.117 C 
BRANCH   2   3
ATOM      3  N   UNL     1       3.894   4.081  -7.214  1.00  0.00    -0.356 N 
ATOM      4  O   UNL     1       3.369   5.068  -5.202  1.00  0.00    -0.275 OA
ATOM      5  C   UNL     1       4.048   4.300  -5.868  1.00  0.00     0.222 C 
ATOM      6  H   UNL     1       4.483   3.409  -7.626  1.00  0.00     0.163 HD
BRANCH   5   7
ATOM      7  C   UNL     1       5.205   3.508  -5.285  1.00  0.00     0.138 C 
BRANCH   7   8
ATOM      8  C   UNL     1       5.014   2.011  -5.528  1.00  0.00     0.182 C 
ATOM      9  C   UNL     1       6.160   1.189  -4.897  1.00  0.00     0.295 C 
ATOM     10  O   UNL     1       4.982   1.738  -6.947  1.00  0.00    -0.366 OA
ATOM     11  N   UNL     1       6.043  -0.268  -5.119  1.00  0.00    -0.328 N 
ATOM     12  C   UNL     1       4.668   0.356  -7.164  1.00  0.00     0.222 C 
ATOM     13  C   UNL     1       5.739  -0.545  -6.536  1.00  0.00     0.291 C 
ATOM     14  H   UNL     1       6.950  -0.712  -4.976  1.00  0.00     0.348 HD
BRANCH  11  15
ATOM     15  C   UNL     1       5.295  -0.987  -4.071  1.00  0.00     0.189 C 
ATOM     16  C   UNL     1       3.861  -0.513  -3.800  1.00  0.00     0.093 C 
ATOM     17  C   UNL     1       5.316  -2.518  -4.254  1.00  0.00     0.103 C 
ATOM     18  C   UNL     1       3.197  -1.334  -2.707  1.00  0.00     0.167 C 
ATOM     19  C   UNL     1       4.574  -3.245  -3.116  1.00  0.00     0.099 C 
ATOM     20  O   UNL     1       3.247  -2.724  -2.997  1.00  0.00    -0.372 OA
ATOM     21  C   UNL     1       5.322  -3.232  -1.787  1.00  0.00     0.066 C 
ATOM     22  C   UNL     1       4.485  -4.744  -3.405  1.00  0.00     0.195 C 
ATOM     23  C   UNL     1       6.037  -4.569  -1.715  1.00  0.00     0.163 C 
ATOM     24  O   UNL     1       5.670  -5.333  -2.864  1.00  0.00    -0.378 OA
ENDBRANCH  11  15
ENDBRANCH   7   8
ENDBRANCH   5   7
ENDBRANCH   2   3
ENDBRANCH   1   2
BRANCH   1  25
ATOM     25  C   UNL     1       4.806   5.028  -9.841  1.00  0.00     0.118 C 
BRANCH  25  26
ATOM     26  N   UNL     1       4.378   3.960 -10.732  1.00  0.00    -0.352 N 
ATOM     27  C   UNL     1       4.583   3.807 -12.084  1.00  0.00     0.251 C 
ATOM     28  H   UNL     1       3.864   3.239 -10.303  1.00  0.00     0.163 HD
ATOM     29  O   UNL     1       4.018   2.893 -12.678  1.00  0.00    -0.269 OA
BRANCH  27  30
ATOM     30  C   UNL     1       5.448   4.755 -12.826  1.00  0.00     0.039 A 
ATOM     31  C   UNL     1       5.009   5.240 -14.061  1.00  0.00     0.014 A 
ATOM     32  C   UNL     1       6.684   5.166 -12.319  1.00  0.00     0.014 A 
ATOM     33  C   UNL     1       5.772   6.189 -14.748  1.00  0.00     0.010 A 
ATOM     34  C   UNL     1       7.403   6.172 -12.965  1.00  0.00     0.010 A 
ATOM     35  C   UNL     1       6.956   6.697 -14.187  1.00  0.00    -0.014 A 
BRANCH  35  36
ATOM     36  C   UNL     1       7.724   7.779 -14.866  1.00  0.00     0.031 A 
ATOM     37  C   UNL     1       9.135   7.536 -15.334  1.00  0.00     0.074 A 
ATOM     38  C   UNL     1       7.167   8.998 -15.022  1.00  0.00     0.049 A 
ATOM     39  N   UNL     1       9.973   8.365 -15.903  1.00  0.00    -0.248 NA
ATOM     40  C   UNL     1       9.683   6.191 -15.108  1.00  0.00     0.031 C 
ATOM     41  C   UNL     1       5.822   9.373 -14.578  1.00  0.00     0.029 A 
ATOM     42  N   UNL     1       7.657  10.147 -15.593  1.00  0.00    -0.354 N 
ATOM     43  C   UNL     1      11.149   7.646 -16.097  1.00  0.00     0.074 A 
ATOM     44  C   UNL     1      10.933   6.334 -15.522  1.00  0.00     0.031 C 
ATOM     45  C   UNL     1       5.584  10.649 -14.923  1.00  0.00     0.029 A 
ATOM     46  C   UNL     1       6.773  11.202 -15.564  1.00  0.00     0.049 A 
ATOM     47  H   UNL     1       8.557  10.210 -15.987  1.00  0.00     0.167 HD
ATOM     48  C   UNL     1      12.291   8.033 -16.717  1.00  0.00     0.034 A 
ATOM     49  C   UNL     1       6.905  12.474 -15.992  1.00  0.00     0.034 A 
ATOM     50  C   UNL     1      12.491   9.344 -17.290  1.00  0.00     0.049 A 
ATOM     51  C   UNL     1       8.200  12.893 -16.643  1.00  0.00     0.074 A 
ATOM     52  C   UNL     1      13.590   9.822 -17.983  1.00  0.00     0.029 A 
ATOM     53  N   UNL     1      11.579  10.390 -17.227  1.00  0.00    -0.354 N 
ATOM     54  N   UNL     1       9.283  12.183 -16.866  1.00  0.00    -0.248 NA
ATOM     55  C   UNL     1       8.287  14.283 -17.111  1.00  0.00     0.031 C 
ATOM     56  C   UNL     1      13.377  11.175 -18.266  1.00  0.00     0.029 A 
ATOM     57  C   UNL     1      12.107  11.521 -17.834  1.00  0.00     0.049 A 
ATOM     58  H   UNL     1      10.688  10.337 -16.811  1.00  0.00     0.167 HD
ATOM     59  C   UNL     1      10.163  13.032 -17.531  1.00  0.00     0.074 A 
ATOM     60  C   UNL     1       9.479  14.299 -17.688  1.00  0.00     0.031 C 
ATOM     61  C   UNL     1      11.422  12.785 -17.977  1.00  0.00     0.034 A 
BRANCH  48  62
ATOM     62  C   UNL     1      13.423   7.032 -16.783  1.00  0.00     0.023 A 
ATOM     63  C   UNL     1      13.288   5.806 -17.459  1.00  0.00     0.031 A 
ATOM     64  C   UNL     1      14.649   7.298 -16.148  1.00  0.00     0.131 A 
ATOM     65  C   UNL     1      14.327   4.864 -17.418  1.00  0.00     0.055 A 
ATOM     66  C   UNL     1      15.712   6.393 -16.185  1.00  0.00     0.041 A 
ATOM     67  F   UNL     1      14.834   8.441 -15.468  1.00  0.00    -0.206 F 
ATOM     68  C   UNL     1      15.549   5.160 -16.809  1.00  0.00     0.022 A 
BRANCH  65  69
ATOM     69  S   UNL     1      14.002   3.190 -18.037  1.00  0.00     0.124 S 
ATOM     70  O   UNL     1      12.869   2.784 -17.208  1.00  0.00    -0.237 OA
ATOM     71  O   UNL     1      13.711   3.425 -19.446  1.00  0.00    -0.237 OA
ATOM     72  O   UNL     1      15.249   2.477 -17.766  1.00  0.00    -0.744 OA
ENDBRANCH  65  69
ENDBRANCH  48  62
BRANCH  49  73
ATOM     73  C   UNL     1       5.794  13.454 -15.813  1.00  0.00     0.023 A 
ATOM     74  C   UNL     1       5.163  14.046 -16.919  1.00  0.00     0.031 A 
ATOM     75  C   UNL     1       5.380  13.854 -14.530  1.00  0.00     0.131 A 
ATOM     76  C   UNL     1       4.193  15.042 -16.723  1.00  0.00     0.055 A 
ATOM     77  C   UNL     1       4.370  14.799 -14.339  1.00  0.00     0.041 A 
ATOM     78  F   UNL     1       5.948  13.320 -13.436  1.00  0.00    -0.206 F 
ATOM     79  C   UNL     1       3.781  15.410 -15.441  1.00  0.00     0.022 A 
BRANCH  76  80
ATOM     80  S   UNL     1       3.547  15.923 -18.172  1.00  0.00     0.124 S 
ATOM     81  O   UNL     1       4.767  16.469 -18.754  1.00  0.00    -0.237 OA
ATOM     82  O   UNL     1       2.904  14.847 -18.919  1.00  0.00    -0.237 OA
ATOM     83  O   UNL     1       2.636  16.908 -17.592  1.00  0.00    -0.744 OA
ENDBRANCH  76  80
ENDBRANCH  49  73
BRANCH  61  84
ATOM     84  C   UNL     1      12.120  13.899 -18.723  1.00  0.00     0.023 A 
ATOM     85  C   UNL     1      12.464  15.112 -18.101  1.00  0.00     0.031 A 
ATOM     86  C   UNL     1      12.430  13.748 -20.087  1.00  0.00     0.131 A 
ATOM     87  C   UNL     1      13.038  16.147 -18.854  1.00  0.00     0.055 A 
ATOM     88  C   UNL     1      13.066  14.755 -20.814  1.00  0.00     0.041 A 
ATOM     89  F   UNL     1      12.122  12.614 -20.738  1.00  0.00    -0.206 F 
ATOM     90  C   UNL     1      13.359  15.970 -20.202  1.00  0.00     0.022 A 
BRANCH  87  91
ATOM     91  S   UNL     1      13.260  17.771 -18.076  1.00  0.00     0.124 S 
ATOM     92  O   UNL     1      11.899  18.097 -17.661  1.00  0.00    -0.237 OA
ATOM     93  O   UNL     1      14.200  17.476 -17.000  1.00  0.00    -0.237 OA
ATOM     94  O   UNL     1      13.794  18.599 -19.156  1.00  0.00    -0.744 OA
ENDBRANCH  87  91
ENDBRANCH  61  84
ENDBRANCH  35  36
ENDBRANCH  27  30
ENDBRANCH  25  26
ENDBRANCH   1  25
TORSDOF 15
