REMARK SMILES Cc1ccc(NS(=O)(=O)c2cc(C(=O)Nc3ccccc3C(=O)NCCCNC(=O)c3ccc(-c4c5nc(c(-c6cc(S(=O)(=O)[O-])ccc6F)c6ccc([nH]6)c(-c6cc(S(=O)(=O)[O-])ccc6F)c6nc(c(-c7cc(S(=O)(=O)[O-])ccc7F)c7ccc4[nH]7)C=C6)C=C5)cc3)ccc2Br)cc1
REMARK SMILES IDX 25 1 24 2 22 3 23 4 21 6 16 7 17 8 18 9 20 10 19 11 15 12
REMARK SMILES IDX 13 13 14 14 12 16 10 17 11 18 96 19 95 20 97 21 94 22 7 23
REMARK SMILES IDX 8 24 9 25 6 26 5 28 1 29 2 30 3 31 99 32 4 33 98 34 26 35
REMARK SMILES IDX 27 36 28 37 29 38 30 40 31 41 32 42 93 43 33 44 92 45 34 46
REMARK SMILES IDX 35 47 36 48 86 49 37 50 91 51 85 52 87 53 38 54 90 55 84 56
REMARK SMILES IDX 83 57 39 59 71 60 51 61 70 62 52 63 55 64 69 65 88 66 53 67
REMARK SMILES IDX 54 68 68 70 89 71 56 72 40 73 41 74 49 75 42 76 48 77 50 78
REMARK SMILES IDX 47 79 43 80 44 81 45 82 46 83 72 84 73 85 81 86 74 87 80 88
REMARK SMILES IDX 82 89 79 90 75 91 76 92 77 93 78 94 57 95 58 96 66 97 59 98
REMARK SMILES IDX 65 99 67 100 64 101 60 102 61 103 62 104 63 105
REMARK H PARENT 24 5 15 15 6 27 28 39 87 58 55 69
REMARK Flexibility Score: inf
ROOT
ATOM      1  C   UNL     1      -3.449  -1.021   2.889  1.00  0.00     0.118 C 
ENDROOT
BRANCH   1   2
ATOM      2  N   UNL     1      -2.217  -1.701   3.166  1.00  0.00    -0.352 N 
ATOM      3  C   UNL     1      -0.982  -1.244   2.742  1.00  0.00     0.253 C 
ATOM      4  O   UNL     1       0.066  -1.717   3.165  1.00  0.00    -0.269 OA
ATOM      5  H   UNL     1      -2.252  -2.537   3.684  1.00  0.00     0.163 HD
BRANCH   3   6
ATOM      6  C   UNL     1      -0.949  -0.290   1.596  1.00  0.00     0.063 A 
ATOM      7  C   UNL     1       0.175  -0.627   0.213  1.00  0.00     0.054 A 
ATOM      8  C   UNL     1       0.117   0.674  -1.344  1.00  0.00     0.027 A 
ATOM      9  C   UNL     1      -1.119   1.993  -1.344  1.00  0.00     0.002 A 
ATOM     10  C   UNL     1      -2.061   1.092   1.467  1.00  0.00     0.016 A 
ATOM     11  C   UNL     1      -2.168   2.150   0.048  1.00  0.00     0.001 A 
BRANCH   7  12
ATOM     12  N   UNL     1       0.886  -1.945   0.461  1.00  0.00    -0.321 N 
ATOM     13  C   UNL     1       0.493  -3.301   0.583  1.00  0.00     0.255 C 
ATOM     14  O   UNL     1       1.383  -4.142   0.751  1.00  0.00    -0.269 OA
ATOM     15  H   UNL     1       1.858  -1.829   0.562  1.00  0.00     0.170 HD
BRANCH  13  16
ATOM     16  C   UNL     1      -0.893  -3.833   0.343  1.00  0.00     0.041 A 
ATOM     17  C   UNL     1      -3.115  -3.159  -0.415  1.00  0.00     0.102 A 
ATOM     18  C   UNL     1      -1.915  -2.941   0.208  1.00  0.00     0.037 A 
ATOM     19  C   UNL     1      -3.512  -4.471  -0.558  1.00  0.00     0.038 A 
ATOM     20  C   UNL     1      -2.582  -5.484  -0.227  1.00  0.00     0.018 A 
ATOM     21  Br  UNL     1      -5.266  -4.964  -1.050  1.00  0.00    -0.049 Br
ATOM     22  C   UNL     1      -1.249  -5.163   0.145  1.00  0.00     0.015 A 
BRANCH  17  23
ATOM     23  S   UNL     1      -3.832  -1.690  -1.139  1.00  0.00     0.263 S 
ATOM     24  O   UNL     1      -5.176  -1.556  -0.616  1.00  0.00    -0.201 OA
ATOM     25  O   UNL     1      -3.606  -1.773  -2.567  1.00  0.00    -0.201 OA
BRANCH  23  26
ATOM     26  N   UNL     1      -2.976  -0.305  -0.533  1.00  0.00    -0.280 N 
ATOM     27  H   UNL     1      -3.530   0.388  -0.106  1.00  0.00     0.180 HD
BRANCH  26  28
ATOM     28  C   UNL     1      -1.465  -0.019  -0.576  1.00  0.00     0.049 A 
ATOM     29  C   UNL     1       3.628  -0.387  -0.827  1.00  0.00     0.044 C 
ATOM     30  C   UNL     1       2.152  -0.137  -0.918  1.00  0.00    -0.051 A 
ATOM     31  C   UNL     1       1.098  -1.230  -1.846  1.00  0.00     0.005 A 
ATOM     32  C   UNL     1       1.563   1.079   0.174  1.00  0.00     0.005 A 
ATOM     33  C   UNL     1      -0.673  -1.200  -1.720  1.00  0.00     0.027 A 
ATOM     34  C   UNL     1      -0.197   1.229   0.396  1.00  0.00     0.027 A 
ENDBRANCH  26  28
ENDBRANCH  23  26
ENDBRANCH  17  23
ENDBRANCH  13  16
ENDBRANCH   7  12
ENDBRANCH   3   6
ENDBRANCH   1   2
BRANCH   1  35
ATOM     35  C   UNL     1      -4.642  -1.766   2.427  1.00  0.00     0.042 C 
BRANCH  35  36
ATOM     36  C   UNL     1      -5.444  -2.382   3.504  1.00  0.00     0.118 C 
BRANCH  36  37
ATOM     37  N   UNL     1      -6.366  -1.480   4.174  1.00  0.00    -0.352 N 
ATOM     38  C   UNL     1      -7.603  -1.772   4.737  1.00  0.00     0.251 C 
ATOM     39  H   UNL     1      -6.078  -0.540   4.236  1.00  0.00     0.163 HD
ATOM     40  O   UNL     1      -8.260  -0.908   5.309  1.00  0.00    -0.269 OA
BRANCH  38  41
ATOM     41  C   UNL     1      -8.062  -3.195   4.804  1.00  0.00     0.039 A 
ATOM     42  C   UNL     1      -8.172  -3.689   6.107  1.00  0.00     0.014 A 
ATOM     43  C   UNL     1      -7.697  -4.053   3.784  1.00  0.00     0.014 A 
ATOM     44  C   UNL     1      -7.450  -4.821   6.448  1.00  0.00     0.010 A 
ATOM     45  C   UNL     1      -6.783  -5.017   4.131  1.00  0.00     0.010 A 
ATOM     46  C   UNL     1      -6.617  -5.351   5.473  1.00  0.00    -0.014 A 
BRANCH  46  47
ATOM     47  C   UNL     1      -5.718  -6.468   5.660  1.00  0.00     0.031 A 
ATOM     48  C   UNL     1      -6.443  -7.743   5.450  1.00  0.00     0.074 A 
ATOM     49  C   UNL     1      -4.400  -6.198   5.841  1.00  0.00     0.049 A 
ATOM     50  N   UNL     1      -6.335  -8.802   6.159  1.00  0.00    -0.248 NA
ATOM     51  C   UNL     1      -7.566  -7.868   4.492  1.00  0.00     0.031 C 
ATOM     52  C   UNL     1      -3.225  -7.066   5.858  1.00  0.00     0.029 A 
ATOM     53  N   UNL     1      -3.872  -4.961   6.256  1.00  0.00    -0.354 N 
ATOM     54  C   UNL     1      -6.921  -9.807   5.409  1.00  0.00     0.074 A 
ATOM     55  C   UNL     1      -7.886  -9.159   4.580  1.00  0.00     0.031 C 
ATOM     56  C   UNL     1      -2.256  -6.483   6.599  1.00  0.00     0.029 A 
ATOM     57  C   UNL     1      -2.795  -5.239   7.129  1.00  0.00     0.049 A 
ATOM     58  H   UNL     1      -4.193  -4.069   5.989  1.00  0.00     0.167 HD
ATOM     59  C   UNL     1      -6.289 -11.009   5.343  1.00  0.00     0.034 A 
ATOM     60  C   UNL     1      -2.925  -4.931   8.456  1.00  0.00     0.034 A 
ATOM     61  C   UNL     1      -5.061 -10.914   6.135  1.00  0.00     0.049 A 
ATOM     62  C   UNL     1      -3.176  -6.213   9.240  1.00  0.00     0.074 A 
ATOM     63  C   UNL     1      -3.745 -10.671   5.782  1.00  0.00     0.029 A 
ATOM     64  N   UNL     1      -5.173 -10.612   7.481  1.00  0.00    -0.354 N 
ATOM     65  N   UNL     1      -3.689  -7.303   8.721  1.00  0.00    -0.248 NA
ATOM     66  C   UNL     1      -2.739  -6.403  10.620  1.00  0.00     0.031 C 
ATOM     67  C   UNL     1      -3.091 -10.133   6.931  1.00  0.00     0.029 A 
ATOM     68  C   UNL     1      -4.013 -10.041   7.960  1.00  0.00     0.049 A 
ATOM     69  H   UNL     1      -5.975 -10.783   8.025  1.00  0.00     0.167 HD
ATOM     70  C   UNL     1      -3.586  -8.334   9.618  1.00  0.00     0.074 A 
ATOM     71  C   UNL     1      -2.984  -7.713  10.791  1.00  0.00     0.031 C 
ATOM     72  C   UNL     1      -3.958  -9.627   9.351  1.00  0.00     0.034 A 
BRANCH  59  73
ATOM     73  C   UNL     1      -6.538 -12.143   4.379  1.00  0.00     0.023 A 
ATOM     74  C   UNL     1      -5.555 -13.151   4.320  1.00  0.00     0.031 A 
ATOM     75  C   UNL     1      -7.642 -12.335   3.525  1.00  0.00     0.131 A 
ATOM     76  C   UNL     1      -5.657 -14.247   3.451  1.00  0.00     0.055 A 
ATOM     77  C   UNL     1      -7.746 -13.429   2.648  1.00  0.00     0.041 A 
ATOM     78  F   UNL     1      -8.689 -11.503   3.506  1.00  0.00    -0.206 F 
ATOM     79  C   UNL     1      -6.750 -14.394   2.607  1.00  0.00     0.022 A 
BRANCH  76  80
ATOM     80  S   UNL     1      -4.325 -15.472   3.465  1.00  0.00     0.124 S 
ATOM     81  O   UNL     1      -3.181 -14.681   3.021  1.00  0.00    -0.237 OA
ATOM     82  O   UNL     1      -4.314 -15.900   4.859  1.00  0.00    -0.237 OA
ATOM     83  O   UNL     1      -4.785 -16.481   2.513  1.00  0.00    -0.744 OA
ENDBRANCH  76  80
ENDBRANCH  59  73
BRANCH  60  84
ATOM     84  C   UNL     1      -3.618  -3.605   8.618  1.00  0.00     0.023 A 
ATOM     85  C   UNL     1      -2.961  -2.448   8.115  1.00  0.00     0.031 A 
ATOM     86  C   UNL     1      -5.012  -3.554   8.733  1.00  0.00     0.131 A 
ATOM     87  C   UNL     1      -3.709  -1.386   7.569  1.00  0.00     0.055 A 
ATOM     88  C   UNL     1      -5.742  -2.484   8.203  1.00  0.00     0.041 A 
ATOM     89  F   UNL     1      -5.698  -4.607   9.202  1.00  0.00    -0.206 F 
ATOM     90  C   UNL     1      -5.100  -1.430   7.563  1.00  0.00     0.022 A 
BRANCH  87  91
ATOM     91  S   UNL     1      -2.882  -0.070   6.631  1.00  0.00     0.124 S 
ATOM     92  O   UNL     1      -2.431   0.840   7.676  1.00  0.00    -0.237 OA
ATOM     93  O   UNL     1      -1.842  -0.804   5.921  1.00  0.00    -0.237 OA
ATOM     94  O   UNL     1      -3.942   0.454   5.767  1.00  0.00    -0.744 OA
ENDBRANCH  87  91
ENDBRANCH  60  84
BRANCH  72  95
ATOM     95  C   UNL     1      -4.243 -10.665  10.415  1.00  0.00     0.023 A 
ATOM     96  C   UNL     1      -4.364 -10.317  11.758  1.00  0.00     0.031 A 
ATOM     97  C   UNL     1      -4.494 -12.030  10.118  1.00  0.00     0.131 A 
ATOM     98  C   UNL     1      -4.518 -11.292  12.748  1.00  0.00     0.055 A 
ATOM     99  C   UNL     1      -4.809 -12.976  11.093  1.00  0.00     0.041 A 
ATOM    100  F   UNL     1      -4.457 -12.518   8.870  1.00  0.00    -0.206 F 
ATOM    101  C   UNL     1      -4.775 -12.619  12.429  1.00  0.00     0.022 A 
BRANCH  98 102
ATOM    102  S   UNL     1      -4.218 -10.774  14.450  1.00  0.00     0.124 S 
ATOM    103  O   UNL     1      -2.817 -10.361  14.388  1.00  0.00    -0.237 OA
ATOM    104  O   UNL     1      -5.184  -9.695  14.625  1.00  0.00    -0.237 OA
ATOM    105  O   UNL     1      -4.478 -11.983  15.226  1.00  0.00    -0.744 OA
ENDBRANCH  98 102
ENDBRANCH  72  95
ENDBRANCH  46  47
ENDBRANCH  38  41
ENDBRANCH  36  37
ENDBRANCH  35  36
ENDBRANCH   1  35
TORSDOF 18
