REMARK SMILES Cc1cc(NCc2ccc(C(=O)NCCCNC(=O)c3ccc(-c4c5nc(c(-c6cc(S(=O)(=O)[O-])ccc6F)c6ccc([nH]6)c(-c6cc(S(=O)(=O)[O-])ccc6F)c6nc(c(-c7cc(S(=O)(=O)[O-])ccc7F)c7ccc4[nH]7)C=C6)C=C5)cc3)o2)ccc1Br
REMARK SMILES IDX 15 1 14 2 13 3 11 4 12 5 10 7 7 8 8 9 83 10 9 11 6 12 5 13
REMARK SMILES IDX 4 15 1 16 2 17 3 18 86 19 85 20 87 21 84 22 16 23 17 24
REMARK SMILES IDX 18 25 19 27 20 28 21 29 82 30 22 31 81 32 23 33 24 34 25 35
REMARK SMILES IDX 75 36 26 37 80 38 74 39 76 40 27 41 79 42 73 43 72 44 28 46
REMARK SMILES IDX 60 47 40 48 59 49 41 50 44 51 58 52 77 53 42 54 43 55 57 57
REMARK SMILES IDX 78 58 45 59 29 60 30 61 38 62 31 63 37 64 39 65 36 66 32 67
REMARK SMILES IDX 33 68 34 69 35 70 61 71 62 72 70 73 63 74 69 75 71 76 68 77
REMARK SMILES IDX 64 78 65 79 66 80 67 81 46 82 47 83 55 84 48 85 54 86 56 87
REMARK SMILES IDX 53 88 49 89 50 90 51 91 52 92
REMARK H PARENT 13 6 5 14 17 26 76 45 44 56
REMARK Flexibility Score: inf
ROOT
ATOM      1  C   UNL     1       8.600   2.999   6.183  1.00  0.00     0.042 C 
ENDROOT
BRANCH   1   2
ATOM      2  C   UNL     1       9.269   2.418   4.940  1.00  0.00     0.118 C 
BRANCH   2   3
ATOM      3  N   UNL     1       8.824   1.067   4.666  1.00  0.00    -0.349 N 
ATOM      4  C   UNL     1       7.960   0.574   3.716  1.00  0.00     0.286 C 
ATOM      5  O   UNL     1       7.906  -0.655   3.631  1.00  0.00    -0.266 OA
ATOM      6  H   UNL     1       9.206   0.383   5.263  1.00  0.00     0.163 HD
BRANCH   4   7
ATOM      7  C   UNL     1       7.186   1.456   2.860  1.00  0.00     0.191 A 
ATOM      8  C   UNL     1       5.975   1.851   1.043  1.00  0.00     0.124 A 
ATOM      9  C   UNL     1       6.012   3.034   1.744  1.00  0.00     0.048 A 
ATOM     10  O   UNL     1       6.688   0.899   1.706  1.00  0.00    -0.454 OA
ATOM     11  C   UNL     1       6.768   2.775   2.917  1.00  0.00     0.056 A 
BRANCH   8  12
ATOM     12  C   UNL     1       5.352   1.430  -0.242  1.00  0.00     0.188 C 
BRANCH  12  13
ATOM     13  N   UNL     1       4.479   0.273  -0.139  1.00  0.00    -0.378 N 
ATOM     14  H   UNL     1       4.911  -0.611  -0.158  1.00  0.00     0.161 HD
BRANCH  13  15
ATOM     15  C   UNL     1       3.104   0.289  -0.019  1.00  0.00     0.035 A 
ATOM     16  C   UNL     1       0.372  -2.387   0.018  1.00  0.00     0.045 C 
ATOM     17  C   UNL     1       1.019  -1.031   0.019  1.00  0.00    -0.035 A 
ATOM     18  C   UNL     1       2.424  -0.941  -0.010  1.00  0.00     0.030 A 
ATOM     19  C   UNL     1       0.280   0.156   0.033  1.00  0.00     0.021 A 
ATOM     20  C   UNL     1       0.933   1.389   0.021  1.00  0.00     0.018 A 
ATOM     21  Br  UNL     1      -1.619   0.163   0.052  1.00  0.00    -0.051 Br
ATOM     22  C   UNL     1       2.331   1.450  -0.014  1.00  0.00     0.027 A 
ENDBRANCH  13  15
ENDBRANCH  12  13
ENDBRANCH   8  12
ENDBRANCH   4   7
ENDBRANCH   2   3
ENDBRANCH   1   2
BRANCH   1  23
ATOM     23  C   UNL     1       9.155   2.439   7.493  1.00  0.00     0.118 C 
BRANCH  23  24
ATOM     24  N   UNL     1      10.543   2.828   7.710  1.00  0.00    -0.352 N 
ATOM     25  C   UNL     1      11.120   3.557   8.720  1.00  0.00     0.251 C 
ATOM     26  H   UNL     1      11.170   2.515   7.018  1.00  0.00     0.163 HD
ATOM     27  O   UNL     1      12.267   3.970   8.567  1.00  0.00    -0.269 OA
BRANCH  25  28
ATOM     28  C   UNL     1      10.383   3.856   9.968  1.00  0.00     0.039 A 
ATOM     29  C   UNL     1      10.568   5.102  10.577  1.00  0.00     0.014 A 
ATOM     30  C   UNL     1       9.559   2.904  10.574  1.00  0.00     0.014 A 
ATOM     31  C   UNL     1       9.887   5.410  11.758  1.00  0.00     0.010 A 
ATOM     32  C   UNL     1       8.824   3.238  11.710  1.00  0.00     0.010 A 
ATOM     33  C   UNL     1       8.984   4.492  12.318  1.00  0.00    -0.014 A 
BRANCH  33  34
ATOM     34  C   UNL     1       8.208   4.825  13.542  1.00  0.00     0.031 A 
ATOM     35  C   UNL     1       8.417   4.044  14.811  1.00  0.00     0.074 A 
ATOM     36  C   UNL     1       7.279   5.799  13.495  1.00  0.00     0.049 A 
ATOM     37  N   UNL     1       7.798   4.144  15.960  1.00  0.00    -0.248 NA
ATOM     38  C   UNL     1       9.438   2.988  14.768  1.00  0.00     0.031 C 
ATOM     39  C   UNL     1       6.963   6.608  12.316  1.00  0.00     0.029 A 
ATOM     40  N   UNL     1       6.428   6.275  14.461  1.00  0.00    -0.354 N 
ATOM     41  C   UNL     1       8.350   3.161  16.776  1.00  0.00     0.074 A 
ATOM     42  C   UNL     1       9.295   2.429  15.959  1.00  0.00     0.031 C 
ATOM     43  C   UNL     1       6.018   7.505  12.639  1.00  0.00     0.029 A 
ATOM     44  C   UNL     1       5.624   7.304  14.030  1.00  0.00     0.049 A 
ATOM     45  H   UNL     1       6.396   5.913  15.376  1.00  0.00     0.167 HD
ATOM     46  C   UNL     1       8.112   2.911  18.089  1.00  0.00     0.034 A 
ATOM     47  C   UNL     1       4.675   8.004  14.681  1.00  0.00     0.034 A 
ATOM     48  C   UNL     1       7.160   3.649  18.886  1.00  0.00     0.049 A 
ATOM     49  C   UNL     1       4.386   7.674  16.122  1.00  0.00     0.074 A 
ATOM     50  C   UNL     1       6.859   3.505  20.230  1.00  0.00     0.029 A 
ATOM     51  N   UNL     1       6.342   4.666  18.407  1.00  0.00    -0.354 N 
ATOM     52  N   UNL     1       4.941   6.767  16.892  1.00  0.00    -0.248 NA
ATOM     53  C   UNL     1       3.346   8.472  16.783  1.00  0.00     0.031 C 
ATOM     54  C   UNL     1       5.816   4.384  20.545  1.00  0.00     0.029 A 
ATOM     55  C   UNL     1       5.516   5.135  19.420  1.00  0.00     0.049 A 
ATOM     56  H   UNL     1       6.347   5.005  17.483  1.00  0.00     0.167 HD
ATOM     57  C   UNL     1       4.340   6.909  18.139  1.00  0.00     0.074 A 
ATOM     58  C   UNL     1       3.390   7.997  18.018  1.00  0.00     0.031 C 
ATOM     59  C   UNL     1       4.558   6.208  19.282  1.00  0.00     0.034 A 
BRANCH  46  60
ATOM     60  C   UNL     1       8.882   1.772  18.721  1.00  0.00     0.023 A 
ATOM     61  C   UNL     1      10.289   1.772  18.767  1.00  0.00     0.031 A 
ATOM     62  C   UNL     1       8.213   0.642  19.224  1.00  0.00     0.131 A 
ATOM     63  C   UNL     1      10.979   0.629  19.197  1.00  0.00     0.055 A 
ATOM     64  C   UNL     1       8.906  -0.455  19.744  1.00  0.00     0.041 A 
ATOM     65  F   UNL     1       6.873   0.570  19.194  1.00  0.00    -0.206 F 
ATOM     66  C   UNL     1      10.298  -0.475  19.712  1.00  0.00     0.022 A 
BRANCH  63  67
ATOM     67  S   UNL     1      12.765   0.534  18.891  1.00  0.00     0.124 S 
ATOM     68  O   UNL     1      12.826   0.727  17.443  1.00  0.00    -0.237 OA
ATOM     69  O   UNL     1      13.283   1.628  19.704  1.00  0.00    -0.237 OA
ATOM     70  O   UNL     1      13.121  -0.808  19.347  1.00  0.00    -0.744 OA
ENDBRANCH  63  67
ENDBRANCH  46  60
BRANCH  47  71
ATOM     71  C   UNL     1       3.937   9.096  13.986  1.00  0.00     0.023 A 
ATOM     72  C   UNL     1       4.086  10.432  14.393  1.00  0.00     0.031 A 
ATOM     73  C   UNL     1       3.056   8.822  12.926  1.00  0.00     0.131 A 
ATOM     74  C   UNL     1       3.336  11.440  13.769  1.00  0.00     0.055 A 
ATOM     75  C   UNL     1       2.349   9.835  12.276  1.00  0.00     0.041 A 
ATOM     76  F   UNL     1       2.884   7.563  12.493  1.00  0.00    -0.206 F 
ATOM     77  C   UNL     1       2.479  11.153  12.705  1.00  0.00     0.022 A 
BRANCH  74  78
ATOM     78  S   UNL     1       3.450  13.131  14.415  1.00  0.00     0.124 S 
ATOM     79  O   UNL     1       2.995  12.955  15.789  1.00  0.00    -0.237 OA
ATOM     80  O   UNL     1       4.868  13.427  14.241  1.00  0.00    -0.237 OA
ATOM     81  O   UNL     1       2.548  13.887  13.549  1.00  0.00    -0.744 OA
ENDBRANCH  74  78
ENDBRANCH  47  71
BRANCH  59  82
ATOM     82  C   UNL     1       3.777   6.637  20.503  1.00  0.00     0.023 A 
ATOM     83  C   UNL     1       2.378   6.507  20.572  1.00  0.00     0.031 A 
ATOM     84  C   UNL     1       4.441   7.213  21.600  1.00  0.00     0.131 A 
ATOM     85  C   UNL     1       1.684   7.005  21.685  1.00  0.00     0.055 A 
ATOM     86  C   UNL     1       3.752   7.647  22.733  1.00  0.00     0.041 A 
ATOM     87  F   UNL     1       5.775   7.366  21.588  1.00  0.00    -0.206 F 
ATOM     88  C   UNL     1       2.363   7.559  22.773  1.00  0.00     0.022 A 
BRANCH  85  89
ATOM     89  S   UNL     1      -0.130   7.020  21.645  1.00  0.00     0.124 S 
ATOM     90  O   UNL     1      -0.400   7.809  20.447  1.00  0.00    -0.237 OA
ATOM     91  O   UNL     1      -0.451   5.599  21.558  1.00  0.00    -0.237 OA
ATOM     92  O   UNL     1      -0.496   7.662  22.906  1.00  0.00    -0.744 OA
ENDBRANCH  85  89
ENDBRANCH  59  82
ENDBRANCH  33  34
ENDBRANCH  25  28
ENDBRANCH  23  24
ENDBRANCH   1  23
TORSDOF 16
