REMARK SMILES C[C@@H]1[C@@H](C(=O)NCCCNC(=O)c2ccc(-c3c4nc(c(-c5cc(S(=O)(=O)[O-])ccc5F)c5ccc([nH]5)c(-c5cc(S(=O)(=O)[O-])ccc5F)c5nc(c(-c6cc(S(=O)(=O)[O-])ccc6F)c6ccc3[nH]6)C=C5)C=C4)cc2)CCN1C(=O)N1CCC[C@H]2CCC[C@@H]21
REMARK SMILES IDX 8 1 7 2 6 3 4 4 5 5 3 7 1 8 2 9 78 10 76 11 77 12 79 13
REMARK SMILES IDX 80 14 81 15 82 16 89 17 83 18 85 19 88 20 84 21 86 22 87 23
REMARK SMILES IDX 9 24 10 25 11 26 12 28 13 29 14 30 75 31 15 32 74 33 16 34
REMARK SMILES IDX 17 35 18 36 68 37 19 38 73 39 67 40 69 41 20 42 72 43 66 44
REMARK SMILES IDX 65 45 21 47 53 48 33 49 52 50 34 51 37 52 51 53 70 54 35 55
REMARK SMILES IDX 36 56 50 58 71 59 38 60 22 61 23 62 31 63 24 64 30 65 32 66
REMARK SMILES IDX 29 67 25 68 26 69 27 70 28 71 54 72 55 73 63 74 56 75 62 76
REMARK SMILES IDX 64 77 61 78 57 79 58 80 59 81 60 82 39 83 40 84 48 85 41 86
REMARK SMILES IDX 47 87 49 88 46 89 42 90 43 91 44 92 45 93
REMARK H PARENT 6 6 10 27 69 46 37 57
REMARK Flexibility Score: inf
ROOT
ATOM      1  C   UNL     1      -2.922   4.113  -1.186  1.00  0.00     0.042 C 
ENDROOT
BRANCH   1   2
ATOM      2  C   UNL     1      -2.613   2.674  -0.818  1.00  0.00     0.117 C 
BRANCH   2   3
ATOM      3  N   UNL     1      -1.839   1.964  -1.821  1.00  0.00    -0.356 N 
ATOM      4  C   UNL     1      -0.815   1.077  -1.654  1.00  0.00     0.225 C 
ATOM      5  O   UNL     1      -0.337   0.561  -2.664  1.00  0.00    -0.275 OA
ATOM      6  H   UNL     1      -2.088   2.150  -2.755  1.00  0.00     0.163 HD
BRANCH   4   7
ATOM      7  C   UNL     1      -0.249   0.851  -0.258  1.00  0.00     0.102 C 
ATOM      8  C   UNL     1       1.908   0.203   0.808  1.00  0.00     0.032 C 
ATOM      9  C   UNL     1       0.877  -0.212  -0.250  1.00  0.00     0.096 C 
ATOM     10  N   UNL     1       0.178  -1.475   0.075  1.00  0.00    -0.321 N 
ATOM     11  C   UNL     1      -1.241   0.280   0.761  1.00  0.00     0.037 C 
ATOM     12  C   UNL     1      -1.169  -1.213   0.534  1.00  0.00     0.122 C 
BRANCH  10  13
ATOM     13  C   UNL     1       0.418  -2.744  -0.431  1.00  0.00     0.320 C 
ATOM     14  O   UNL     1      -0.428  -3.638  -0.373  1.00  0.00    -0.248 OA
BRANCH  13  15
ATOM     15  N   UNL     1       1.594  -2.917  -1.109  1.00  0.00    -0.321 N 
ATOM     16  C   UNL     1       2.880  -2.868  -0.432  1.00  0.00     0.121 C 
ATOM     17  C   UNL     1       1.647  -3.619  -2.377  1.00  0.00     0.090 C 
ATOM     18  C   UNL     1       3.917  -2.142  -1.292  1.00  0.00     0.022 C 
ATOM     19  C   UNL     1       2.549  -2.795  -3.299  1.00  0.00     0.012 C 
ATOM     20  C   UNL     1       0.390  -3.771  -3.226  1.00  0.00     0.025 C 
ATOM     21  C   UNL     1       3.963  -2.699  -2.728  1.00  0.00     0.007 C 
ATOM     22  C   UNL     1       2.387  -3.484  -4.643  1.00  0.00     0.006 C 
ATOM     23  C   UNL     1       0.923  -3.949  -4.655  1.00  0.00     0.002 C 
ENDBRANCH  13  15
ENDBRANCH  10  13
ENDBRANCH   4   7
ENDBRANCH   2   3
ENDBRANCH   1   2
BRANCH   1  24
ATOM     24  C   UNL     1      -3.690   4.291  -2.487  1.00  0.00     0.118 C 
BRANCH  24  25
ATOM     25  N   UNL     1      -5.019   3.696  -2.462  1.00  0.00    -0.352 N 
ATOM     26  C   UNL     1      -6.266   4.282  -2.483  1.00  0.00     0.251 C 
ATOM     27  H   UNL     1      -5.027   2.712  -2.425  1.00  0.00     0.163 HD
ATOM     28  O   UNL     1      -7.256   3.586  -2.304  1.00  0.00    -0.269 OA
BRANCH  26  29
ATOM     29  C   UNL     1      -6.406   5.745  -2.675  1.00  0.00     0.039 A 
ATOM     30  C   UNL     1      -7.344   6.441  -1.906  1.00  0.00     0.014 A 
ATOM     31  C   UNL     1      -5.620   6.437  -3.596  1.00  0.00     0.014 A 
ATOM     32  C   UNL     1      -7.418   7.835  -1.993  1.00  0.00     0.010 A 
ATOM     33  C   UNL     1      -5.613   7.828  -3.598  1.00  0.00     0.010 A 
ATOM     34  C   UNL     1      -6.514   8.547  -2.799  1.00  0.00    -0.014 A 
BRANCH  34  35
ATOM     35  C   UNL     1      -6.498  10.035  -2.830  1.00  0.00     0.031 A 
ATOM     36  C   UNL     1      -6.732  10.764  -4.128  1.00  0.00     0.074 A 
ATOM     37  C   UNL     1      -6.203  10.728  -1.711  1.00  0.00     0.049 A 
ATOM     38  N   UNL     1      -6.659  12.045  -4.384  1.00  0.00    -0.248 NA
ATOM     39  C   UNL     1      -7.056   9.937  -5.300  1.00  0.00     0.031 C 
ATOM     40  C   UNL     1      -5.915  10.139  -0.401  1.00  0.00     0.029 A 
ATOM     41  N   UNL     1      -6.089  12.079  -1.494  1.00  0.00    -0.354 N 
ATOM     42  C   UNL     1      -6.911  12.175  -5.747  1.00  0.00     0.074 A 
ATOM     43  C   UNL     1      -7.064  10.835  -6.272  1.00  0.00     0.031 C 
ATOM     44  C   UNL     1      -5.693  11.121   0.486  1.00  0.00     0.029 A 
ATOM     45  C   UNL     1      -5.765  12.409  -0.198  1.00  0.00     0.049 A 
ATOM     46  H   UNL     1      -6.226  12.751  -2.201  1.00  0.00     0.167 HD
ATOM     47  C   UNL     1      -7.032  13.305  -6.486  1.00  0.00     0.034 A 
ATOM     48  C   UNL     1      -5.540  13.608   0.375  1.00  0.00     0.034 A 
ATOM     49  C   UNL     1      -6.895  14.635  -5.944  1.00  0.00     0.049 A 
ATOM     50  C   UNL     1      -5.649  14.851  -0.474  1.00  0.00     0.074 A 
ATOM     51  C   UNL     1      -7.049  15.849  -6.590  1.00  0.00     0.029 A 
ATOM     52  N   UNL     1      -6.565  14.927  -4.626  1.00  0.00    -0.354 N 
ATOM     53  N   UNL     1      -5.932  14.957  -1.752  1.00  0.00    -0.248 NA
ATOM     54  C   UNL     1      -5.419  16.135   0.200  1.00  0.00     0.031 C 
ATOM     55  C   UNL     1      -6.742  16.870  -5.684  1.00  0.00     0.029 A 
ATOM     56  C   UNL     1      -6.480  16.300  -4.449  1.00  0.00     0.049 A 
ATOM     57  H   UNL     1      -6.414  14.257  -3.920  1.00  0.00     0.167 HD
ATOM     58  C   UNL     1      -5.949  16.323  -2.025  1.00  0.00     0.074 A 
ATOM     59  C   UNL     1      -5.661  16.998  -0.776  1.00  0.00     0.031 C 
ATOM     60  C   UNL     1      -6.185  16.961  -3.199  1.00  0.00     0.034 A 
BRANCH  47  61
ATOM     61  C   UNL     1      -7.309  13.144  -7.963  1.00  0.00     0.023 A 
ATOM     62  C   UNL     1      -8.479  12.519  -8.431  1.00  0.00     0.031 A 
ATOM     63  C   UNL     1      -6.380  13.596  -8.917  1.00  0.00     0.131 A 
ATOM     64  C   UNL     1      -8.650  12.289  -9.805  1.00  0.00     0.055 A 
ATOM     65  C   UNL     1      -6.599  13.444 -10.288  1.00  0.00     0.041 A 
ATOM     66  F   UNL     1      -5.235  14.181  -8.534  1.00  0.00    -0.206 F 
ATOM     67  C   UNL     1      -7.732  12.772 -10.739  1.00  0.00     0.022 A 
BRANCH  64  68
ATOM     68  S   UNL     1     -10.011  11.215 -10.337  1.00  0.00     0.124 S 
ATOM     69  O   UNL     1      -9.703   9.976  -9.626  1.00  0.00    -0.237 OA
ATOM     70  O   UNL     1     -11.187  11.942  -9.874  1.00  0.00    -0.237 OA
ATOM     71  O   UNL     1      -9.847  11.149 -11.788  1.00  0.00    -0.744 OA
ENDBRANCH  64  68
ENDBRANCH  47  61
BRANCH  48  72
ATOM     72  C   UNL     1      -5.180  13.705   1.820  1.00  0.00     0.023 A 
ATOM     73  C   UNL     1      -6.020  14.366   2.730  1.00  0.00     0.031 A 
ATOM     74  C   UNL     1      -3.968  13.181   2.304  1.00  0.00     0.131 A 
ATOM     75  C   UNL     1      -5.616  14.531   4.064  1.00  0.00     0.055 A 
ATOM     76  C   UNL     1      -3.597  13.296   3.646  1.00  0.00     0.041 A 
ATOM     77  F   UNL     1      -3.128  12.536   1.479  1.00  0.00    -0.206 F 
ATOM     78  C   UNL     1      -4.417  13.988   4.532  1.00  0.00     0.022 A 
BRANCH  75  79
ATOM     79  S   UNL     1      -6.639  15.551   5.162  1.00  0.00     0.124 S 
ATOM     80  O   UNL     1      -6.660  16.823   4.449  1.00  0.00    -0.237 OA
ATOM     81  O   UNL     1      -7.893  14.806   5.185  1.00  0.00    -0.237 OA
ATOM     82  O   UNL     1      -5.893  15.551   6.418  1.00  0.00    -0.744 OA
ENDBRANCH  75  79
ENDBRANCH  48  72
BRANCH  60  83
ATOM     83  C   UNL     1      -6.194  18.471  -3.172  1.00  0.00     0.023 A 
ATOM     84  C   UNL     1      -5.033  19.216  -2.901  1.00  0.00     0.031 A 
ATOM     85  C   UNL     1      -7.388  19.173  -3.415  1.00  0.00     0.131 A 
ATOM     86  C   UNL     1      -5.104  20.615  -2.821  1.00  0.00     0.055 A 
ATOM     87  C   UNL     1      -7.438  20.567  -3.400  1.00  0.00     0.041 A 
ATOM     88  F   UNL     1      -8.528  18.513  -3.677  1.00  0.00    -0.206 F 
ATOM     89  C   UNL     1      -6.294  21.296  -3.088  1.00  0.00     0.022 A 
BRANCH  86  90
ATOM     90  S   UNL     1      -3.639  21.531  -2.268  1.00  0.00     0.124 S 
ATOM     91  O   UNL     1      -3.391  20.943  -0.956  1.00  0.00    -0.237 OA
ATOM     92  O   UNL     1      -2.662  21.212  -3.304  1.00  0.00    -0.237 OA
ATOM     93  O   UNL     1      -4.090  22.921  -2.250  1.00  0.00    -0.744 OA
ENDBRANCH  86  90
ENDBRANCH  60  83
ENDBRANCH  34  35
ENDBRANCH  26  29
ENDBRANCH  24  25
ENDBRANCH   1  24
TORSDOF 15
