REMARK SMILES O=C(CN1C(=O)S/C(=C\c2cccn2-c2cccc(C(=O)NCCCNC(=O)c3ccc(-c4c5nc(c(-c6cc(S(=O)(=O)[O-])ccc6F)c6ccc([nH]6)c(-c6cc(S(=O)(=O)[O-])ccc6F)c6nc(c(-c7cc(S(=O)(=O)[O-])ccc7F)c7ccc4[nH]7)C=C6)C=C5)cc3)c2)C1=O)Nc1ccc(Cl)cc1
REMARK SMILES IDX 23 1 22 2 20 3 21 4 19 6 15 7 16 8 92 9 17 10 18 11 14 12
REMARK SMILES IDX 10 13 11 14 12 15 13 16 9 17 4 18 5 19 93 20 6 21 7 22 8 23
REMARK SMILES IDX 94 24 3 25 2 26 1 27 95 28 96 30 97 31 102 32 98 33 101 34
REMARK SMILES IDX 99 35 100 36 24 37 25 38 26 39 27 40 28 42 29 43 30 44 91 45
REMARK SMILES IDX 31 46 90 47 32 48 33 49 34 50 84 51 35 52 89 53 83 54 85 55
REMARK SMILES IDX 36 56 88 57 82 58 81 59 37 61 69 62 49 63 68 64 50 65 53 66
REMARK SMILES IDX 67 67 86 68 51 69 52 70 66 72 87 73 54 74 38 75 39 76 47 77
REMARK SMILES IDX 40 78 46 79 48 80 45 81 41 82 42 83 43 84 44 85 70 86 71 87
REMARK SMILES IDX 79 88 72 89 78 90 80 91 77 92 73 93 74 94 75 95 76 96 55 97
REMARK SMILES IDX 56 98 64 99 57 100 63 101 65 102 62 103 58 104 59 105 60 106
REMARK SMILES IDX 61 107
REMARK H PARENT 22 5 95 29 26 41 85 60 53 71
REMARK Flexibility Score: inf
ROOT
ATOM      1  C   UNL     1       4.308  -3.724  -2.824  1.00  0.00     0.118 C 
ENDROOT
BRANCH   1   2
ATOM      2  N   UNL     1       3.394  -4.407  -3.725  1.00  0.00    -0.352 N 
ATOM      3  C   UNL     1       2.766  -5.630  -3.748  1.00  0.00     0.251 C 
ATOM      4  O   UNL     1       1.993  -5.843  -4.684  1.00  0.00    -0.269 OA
ATOM      5  H   UNL     1       3.170  -3.860  -4.512  1.00  0.00     0.163 HD
BRANCH   3   6
ATOM      6  C   UNL     1       3.010  -6.731  -2.774  1.00  0.00     0.041 A 
ATOM      7  C   UNL     1       3.978  -7.600  -0.720  1.00  0.00     0.046 A 
ATOM      8  C   UNL     1       3.748  -8.908  -1.166  1.00  0.00     0.026 A 
ATOM      9  C   UNL     1       3.499  -6.535  -1.486  1.00  0.00     0.040 A 
ATOM     10  C   UNL     1       3.100  -9.128  -2.382  1.00  0.00     0.003 A 
ATOM     11  C   UNL     1       2.769  -8.045  -3.199  1.00  0.00     0.014 A 
BRANCH   7  12
ATOM     12  N   UNL     1       4.865  -7.344   0.381  1.00  0.00    -0.317 N 
ATOM     13  C   UNL     1       5.026  -6.192   1.171  1.00  0.00     0.047 A 
ATOM     14  C   UNL     1       6.210  -6.334   1.881  1.00  0.00     0.028 A 
ATOM     15  C   UNL     1       6.774  -7.583   1.569  1.00  0.00     0.020 A 
ATOM     16  C   UNL     1       5.913  -8.200   0.695  1.00  0.00     0.092 A 
BRANCH  13  17
ATOM     17  C   UNL     1       4.045  -5.157   1.239  1.00  0.00     0.048 C 
ATOM     18  N   UNL     1       3.785  -1.551   1.050  1.00  0.00    -0.259 N 
ATOM     19  C   UNL     1       5.140  -1.471   0.858  1.00  0.00     0.294 C 
ATOM     20  C   UNL     1       3.252  -2.806   1.228  1.00  0.00     0.268 C 
ATOM     21  O   UNL     1       5.806  -0.475   0.736  1.00  0.00    -0.261 OA
ATOM     22  S   UNL     1       5.833  -3.083   0.829  1.00  0.00    -0.022 SA
ATOM     23  C   UNL     1       4.320  -3.846   1.134  1.00  0.00     0.085 C 
ATOM     24  O   UNL     1       2.079  -3.063   1.453  1.00  0.00    -0.268 OA
BRANCH  18  25
ATOM     25  C   UNL     1       2.988  -0.354   1.258  1.00  0.00     0.230 C 
BRANCH  25  26
ATOM     26  C   UNL     1       2.060   0.054   0.112  1.00  0.00     0.244 C 
ATOM     27  O   UNL     1       0.918   0.428   0.380  1.00  0.00    -0.273 OA
ATOM     28  N   UNL     1       2.635   0.093  -1.146  1.00  0.00    -0.325 N 
ATOM     29  H   UNL     1       3.562  -0.227  -1.230  1.00  0.00     0.169 HD
BRANCH  28  30
ATOM     30  C   UNL     1       1.999   0.557  -2.325  1.00  0.00     0.041 A 
ATOM     31  C   UNL     1       2.534   0.162  -3.554  1.00  0.00     0.027 A 
ATOM     32  C   UNL     1       0.879   1.394  -2.326  1.00  0.00     0.027 A 
ATOM     33  C   UNL     1       1.952   0.568  -4.760  1.00  0.00     0.022 A 
ATOM     34  C   UNL     1       0.302   1.816  -3.530  1.00  0.00     0.022 A 
ATOM     35  C   UNL     1       0.835   1.394  -4.742  1.00  0.00     0.041 A 
ATOM     36  Cl  UNL     1       0.106   1.882  -6.220  1.00  0.00    -0.084 Cl
ENDBRANCH  28  30
ENDBRANCH  25  26
ENDBRANCH  18  25
ENDBRANCH  13  17
ENDBRANCH   7  12
ENDBRANCH   3   6
ENDBRANCH   1   2
BRANCH   1  37
ATOM     37  C   UNL     1       5.786  -3.806  -3.212  1.00  0.00     0.042 C 
BRANCH  37  38
ATOM     38  C   UNL     1       6.256  -2.528  -3.905  1.00  0.00     0.118 C 
BRANCH  38  39
ATOM     39  N   UNL     1       6.090  -1.375  -3.025  1.00  0.00    -0.352 N 
ATOM     40  C   UNL     1       6.051  -0.031  -3.286  1.00  0.00     0.251 C 
ATOM     41  H   UNL     1       5.988  -1.605  -2.073  1.00  0.00     0.163 HD
ATOM     42  O   UNL     1       5.934   0.739  -2.336  1.00  0.00    -0.269 OA
BRANCH  40  43
ATOM     43  C   UNL     1       6.175   0.502  -4.657  1.00  0.00     0.039 A 
ATOM     44  C   UNL     1       7.030   1.595  -4.841  1.00  0.00     0.014 A 
ATOM     45  C   UNL     1       5.464  -0.025  -5.740  1.00  0.00     0.014 A 
ATOM     46  C   UNL     1       7.246   2.092  -6.121  1.00  0.00     0.010 A 
ATOM     47  C   UNL     1       5.689   0.457  -7.025  1.00  0.00     0.010 A 
ATOM     48  C   UNL     1       6.606   1.494  -7.215  1.00  0.00    -0.014 A 
BRANCH  48  49
ATOM     49  C   UNL     1       7.085   1.828  -8.576  1.00  0.00     0.031 A 
ATOM     50  C   UNL     1       8.442   1.131  -8.868  1.00  0.00     0.074 A 
ATOM     51  C   UNL     1       6.311   2.686  -9.311  1.00  0.00     0.049 A 
ATOM     52  N   UNL     1       9.451   1.512  -9.590  1.00  0.00    -0.248 NA
ATOM     53  C   UNL     1       8.765  -0.143  -8.158  1.00  0.00     0.031 C 
ATOM     54  C   UNL     1       4.995   3.225  -8.884  1.00  0.00     0.029 A 
ATOM     55  N   UNL     1       6.447   3.281 -10.548  1.00  0.00    -0.354 N 
ATOM     56  C   UNL     1      10.384   0.441  -9.631  1.00  0.00     0.074 A 
ATOM     57  C   UNL     1       9.980  -0.470  -8.606  1.00  0.00     0.031 C 
ATOM     58  C   UNL     1       4.510   4.110  -9.786  1.00  0.00     0.029 A 
ATOM     59  C   UNL     1       5.438   4.230 -10.893  1.00  0.00     0.049 A 
ATOM     60  H   UNL     1       7.193   3.065 -11.154  1.00  0.00     0.167 HD
ATOM     61  C   UNL     1      11.322   0.296 -10.620  1.00  0.00     0.034 A 
ATOM     62  C   UNL     1       5.378   5.076 -11.973  1.00  0.00     0.034 A 
ATOM     63  C   UNL     1      11.206   1.385 -11.530  1.00  0.00     0.049 A 
ATOM     64  C   UNL     1       6.502   4.656 -12.821  1.00  0.00     0.074 A 
ATOM     65  C   UNL     1      11.486   2.720 -11.433  1.00  0.00     0.029 A 
ATOM     66  N   UNL     1      10.433   1.166 -12.648  1.00  0.00    -0.354 N 
ATOM     67  N   UNL     1       6.523   3.576 -13.539  1.00  0.00    -0.248 NA
ATOM     68  C   UNL     1       7.727   5.467 -12.824  1.00  0.00     0.031 C 
ATOM     69  C   UNL     1      10.448   3.310 -12.181  1.00  0.00     0.029 A 
ATOM     70  C   UNL     1       9.735   2.321 -12.873  1.00  0.00     0.049 A 
ATOM     71  H   UNL     1      10.391   0.340 -13.182  1.00  0.00     0.167 HD
ATOM     72  C   UNL     1       7.858   3.425 -13.807  1.00  0.00     0.074 A 
ATOM     73  C   UNL     1       8.458   4.734 -13.659  1.00  0.00     0.031 C 
ATOM     74  C   UNL     1       8.455   2.234 -13.547  1.00  0.00     0.034 A 
BRANCH  61  75
ATOM     75  C   UNL     1      12.208  -0.845 -11.079  1.00  0.00     0.023 A 
ATOM     76  C   UNL     1      13.134  -0.535 -12.113  1.00  0.00     0.031 A 
ATOM     77  C   UNL     1      12.004  -2.206 -10.831  1.00  0.00     0.131 A 
ATOM     78  C   UNL     1      13.666  -1.521 -12.954  1.00  0.00     0.055 A 
ATOM     79  C   UNL     1      12.604  -3.201 -11.624  1.00  0.00     0.041 A 
ATOM     80  F   UNL     1      11.165  -2.632  -9.879  1.00  0.00    -0.206 F 
ATOM     81  C   UNL     1      13.400  -2.862 -12.718  1.00  0.00     0.022 A 
BRANCH  78  82
ATOM     82  S   UNL     1      14.527  -0.989 -14.464  1.00  0.00     0.124 S 
ATOM     83  O   UNL     1      13.539  -0.115 -15.088  1.00  0.00    -0.237 OA
ATOM     84  O   UNL     1      15.711  -0.329 -13.922  1.00  0.00    -0.237 OA
ATOM     85  O   UNL     1      14.783  -2.243 -15.168  1.00  0.00    -0.744 OA
ENDBRANCH  78  82
ENDBRANCH  61  75
BRANCH  62  86
ATOM     86  C   UNL     1       4.588   6.273 -12.495  1.00  0.00     0.023 A 
ATOM     87  C   UNL     1       3.417   6.825 -11.949  1.00  0.00     0.031 A 
ATOM     88  C   UNL     1       5.099   6.990 -13.630  1.00  0.00     0.131 A 
ATOM     89  C   UNL     1       2.884   8.043 -12.473  1.00  0.00     0.055 A 
ATOM     90  C   UNL     1       4.632   8.225 -14.074  1.00  0.00     0.041 A 
ATOM     91  F   UNL     1       6.102   6.522 -14.384  1.00  0.00    -0.206 F 
ATOM     92  C   UNL     1       3.522   8.769 -13.483  1.00  0.00     0.022 A 
BRANCH  89  93
ATOM     93  S   UNL     1       1.327   8.758 -11.860  1.00  0.00     0.124 S 
ATOM     94  O   UNL     1       0.348   8.168 -12.767  1.00  0.00    -0.237 OA
ATOM     95  O   UNL     1       1.277   8.304 -10.475  1.00  0.00    -0.237 OA
ATOM     96  O   UNL     1       1.536  10.197 -12.027  1.00  0.00    -0.744 OA
ENDBRANCH  89  93
ENDBRANCH  62  86
BRANCH  74  97
ATOM     97  C   UNL     1       7.517   1.025 -13.586  1.00  0.00     0.023 A 
ATOM     98  C   UNL     1       6.727   0.773 -14.726  1.00  0.00     0.031 A 
ATOM     99  C   UNL     1       7.289   0.175 -12.489  1.00  0.00     0.131 A 
ATOM    100  C   UNL     1       5.756  -0.249 -14.729  1.00  0.00     0.055 A 
ATOM    101  C   UNL     1       6.329  -0.847 -12.489  1.00  0.00     0.041 A 
ATOM    102  F   UNL     1       7.983   0.310 -11.361  1.00  0.00    -0.206 F 
ATOM    103  C   UNL     1       5.551  -1.061 -13.614  1.00  0.00     0.022 A 
BRANCH 100 104
ATOM    104  S   UNL     1       4.765  -0.533 -16.223  1.00  0.00     0.124 S 
ATOM    105  O   UNL     1       3.915   0.651 -16.274  1.00  0.00    -0.237 OA
ATOM    106  O   UNL     1       5.784  -0.636 -17.262  1.00  0.00    -0.237 OA
ATOM    107  O   UNL     1       4.061  -1.783 -15.934  1.00  0.00    -0.744 OA
ENDBRANCH 100 104
ENDBRANCH  74  97
ENDBRANCH  48  49
ENDBRANCH  40  43
ENDBRANCH  38  39
ENDBRANCH  37  38
ENDBRANCH   1  37
TORSDOF 18
