REMARK SMILES O=C(NCCCNC(=O)[C@H]1CC2(CCN(C(=O)c3cccc(O)c3)CC2)CN1C(=O)C1CC1)c1ccc(-c2c3nc(c(-c4cc(S(=O)(=O)[O-])ccc4F)c4ccc([nH]4)c(-c4cc(S(=O)(=O)[O-])ccc4F)c4nc(c(-c5cc(S(=O)(=O)[O-])ccc5F)c5ccc2[nH]5)C=C4)C=C3)cc1
REMARK SMILES IDX 4 1 3 2 1 3 2 4 34 6 35 7 96 8 36 9 95 10 37 11 38 12 39 13
REMARK SMILES IDX 89 14 40 15 94 16 88 17 90 18 41 19 93 20 87 21 86 22 42 24
REMARK SMILES IDX 74 25 54 26 73 27 55 28 58 29 72 30 91 31 56 32 57 33 71 35
REMARK SMILES IDX 92 36 59 37 43 38 44 39 52 40 45 41 51 42 53 43 50 44 46 45
REMARK SMILES IDX 47 46 48 47 49 48 75 49 76 50 84 51 77 52 83 53 85 54 82 55
REMARK SMILES IDX 78 56 79 57 80 58 81 59 60 60 61 61 69 62 62 63 68 64 70 65
REMARK SMILES IDX 67 66 63 67 64 68 65 69 66 70 5 71 6 72 7 73 8 74 9 76 10 77
REMARK SMILES IDX 11 78 28 79 12 80 27 81 13 82 26 83 14 84 25 85 15 86 16 87
REMARK SMILES IDX 17 88 29 89 30 90 31 91 32 92 33 93 18 94 19 95 24 96 20 97
REMARK SMILES IDX 22 98 21 99 23 100
REMARK H PARENT 3 5 90 23 58 34 7 75 23 101
REMARK Flexibility Score: inf
ROOT
ATOM      1  C   UNL     1       4.478  -1.979   1.495  1.00  0.00     0.118 C 
ENDROOT
BRANCH   1   2
ATOM      2  N   UNL     1       4.694  -0.553   1.657  1.00  0.00    -0.352 N 
ATOM      3  O   UNL     1       4.172   1.559   2.232  1.00  0.00    -0.269 OA
ATOM      4  C   UNL     1       3.953   0.358   2.375  1.00  0.00     0.251 C 
ATOM      5  H   UNL     1       5.479  -0.187   1.190  1.00  0.00     0.163 HD
BRANCH   4   6
ATOM      6  C   UNL     1       2.887  -0.093   3.303  1.00  0.00     0.039 A 
ATOM      7  C   UNL     1       3.114  -1.116   4.229  1.00  0.00     0.014 A 
ATOM      8  C   UNL     1       1.652   0.561   3.285  1.00  0.00     0.014 A 
ATOM      9  C   UNL     1       2.076  -1.556   5.054  1.00  0.00     0.010 A 
ATOM     10  C   UNL     1       0.636   0.167   4.165  1.00  0.00     0.010 A 
ATOM     11  C   UNL     1       0.828  -0.911   5.045  1.00  0.00    -0.014 A 
BRANCH  11  12
ATOM     12  C   UNL     1      -0.247  -1.341   5.987  1.00  0.00     0.031 A 
ATOM     13  C   UNL     1      -1.553  -1.894   5.479  1.00  0.00     0.074 A 
ATOM     14  C   UNL     1      -0.046  -1.227   7.316  1.00  0.00     0.049 A 
ATOM     15  N   UNL     1      -2.599  -2.303   6.153  1.00  0.00    -0.248 NA
ATOM     16  C   UNL     1      -1.708  -1.986   4.021  1.00  0.00     0.031 C 
ATOM     17  C   UNL     1       1.169  -0.699   7.940  1.00  0.00     0.029 A 
ATOM     18  N   UNL     1      -0.848  -1.553   8.382  1.00  0.00    -0.354 N 
ATOM     19  C   UNL     1      -3.545  -2.682   5.205  1.00  0.00     0.074 A 
ATOM     20  C   UNL     1      -2.958  -2.413   3.908  1.00  0.00     0.031 C 
ATOM     21  C   UNL     1       1.051  -0.781   9.274  1.00  0.00     0.029 A 
ATOM     22  C   UNL     1      -0.271  -1.300   9.606  1.00  0.00     0.049 A 
ATOM     23  H   UNL     1      -1.750  -1.933   8.280  1.00  0.00     0.167 HD
ATOM     24  C   UNL     1      -4.782  -3.211   5.398  1.00  0.00     0.034 A 
ATOM     25  C   UNL     1      -0.752  -1.451  10.856  1.00  0.00     0.034 A 
ATOM     26  C   UNL     1      -5.354  -3.473   6.700  1.00  0.00     0.049 A 
ATOM     27  C   UNL     1      -2.147  -1.992  11.043  1.00  0.00     0.074 A 
ATOM     28  C   UNL     1      -6.578  -4.046   7.003  1.00  0.00     0.029 A 
ATOM     29  N   UNL     1      -4.755  -3.165   7.916  1.00  0.00    -0.354 N 
ATOM     30  N   UNL     1      -3.015  -2.375  10.135  1.00  0.00    -0.248 NA
ATOM     31  C   UNL     1      -2.620  -2.128  12.425  1.00  0.00     0.031 C 
ATOM     32  C   UNL     1      -6.755  -4.005   8.391  1.00  0.00     0.029 A 
ATOM     33  C   UNL     1      -5.601  -3.500   8.966  1.00  0.00     0.049 A 
ATOM     34  H   UNL     1      -3.861  -2.766   8.018  1.00  0.00     0.167 HD
ATOM     35  C   UNL     1      -4.121  -2.840  10.843  1.00  0.00     0.074 A 
ATOM     36  C   UNL     1      -3.804  -2.697  12.248  1.00  0.00     0.031 C 
ATOM     37  C   UNL     1      -5.287  -3.350  10.369  1.00  0.00     0.034 A 
BRANCH  24  38
ATOM     38  C   UNL     1      -5.621  -3.491   4.170  1.00  0.00     0.023 A 
ATOM     39  C   UNL     1      -5.216  -4.405   3.181  1.00  0.00     0.031 A 
ATOM     40  C   UNL     1      -6.837  -2.811   3.971  1.00  0.00     0.131 A 
ATOM     41  C   UNL     1      -5.970  -4.549   2.005  1.00  0.00     0.055 A 
ATOM     42  C   UNL     1      -7.630  -3.028   2.842  1.00  0.00     0.041 A 
ATOM     43  F   UNL     1      -7.271  -1.910   4.866  1.00  0.00    -0.206 F 
ATOM     44  C   UNL     1      -7.189  -3.888   1.841  1.00  0.00     0.022 A 
BRANCH  41  45
ATOM     45  S   UNL     1      -5.250  -5.477   0.623  1.00  0.00     0.124 S 
ATOM     46  O   UNL     1      -3.988  -4.770   0.417  1.00  0.00    -0.237 OA
ATOM     47  O   UNL     1      -5.146  -6.825   1.169  1.00  0.00    -0.237 OA
ATOM     48  O   UNL     1      -6.229  -5.310  -0.450  1.00  0.00    -0.744 OA
ENDBRANCH  41  45
ENDBRANCH  24  38
BRANCH  25  49
ATOM     49  C   UNL     1       0.080  -1.076  12.036  1.00  0.00     0.023 A 
ATOM     50  C   UNL     1       0.473  -2.040  12.978  1.00  0.00     0.031 A 
ATOM     51  C   UNL     1       0.459   0.260  12.263  1.00  0.00     0.131 A 
ATOM     52  C   UNL     1       1.179  -1.649  14.126  1.00  0.00     0.055 A 
ATOM     53  C   UNL     1       1.214   0.634  13.375  1.00  0.00     0.041 A 
ATOM     54  F   UNL     1       0.110   1.222  11.394  1.00  0.00    -0.206 F 
ATOM     55  C   UNL     1       1.566  -0.322  14.323  1.00  0.00     0.022 A 
BRANCH  52  56
ATOM     56  S   UNL     1       1.504  -2.890  15.408  1.00  0.00     0.124 S 
ATOM     57  O   UNL     1       0.155  -3.322  15.751  1.00  0.00    -0.237 OA
ATOM     58  O   UNL     1       2.327  -3.858  14.691  1.00  0.00    -0.237 OA
ATOM     59  O   UNL     1       2.200  -2.131  16.445  1.00  0.00    -0.744 OA
ENDBRANCH  52  56
ENDBRANCH  25  49
BRANCH  37  60
ATOM     60  C   UNL     1      -6.281  -3.859  11.390  1.00  0.00     0.023 A 
ATOM     61  C   UNL     1      -6.896  -3.010  12.328  1.00  0.00     0.031 A 
ATOM     62  C   UNL     1      -6.594  -5.230  11.442  1.00  0.00     0.131 A 
ATOM     63  C   UNL     1      -7.732  -3.549  13.319  1.00  0.00     0.055 A 
ATOM     64  C   UNL     1      -7.484  -5.750  12.383  1.00  0.00     0.041 A 
ATOM     65  F   UNL     1      -6.034  -6.092  10.578  1.00  0.00    -0.206 F 
ATOM     66  C   UNL     1      -8.045  -4.911  13.340  1.00  0.00     0.022 A 
BRANCH  63  67
ATOM     67  S   UNL     1      -8.306  -2.469  14.659  1.00  0.00     0.124 S 
ATOM     68  O   UNL     1      -7.049  -1.957  15.196  1.00  0.00    -0.237 OA
ATOM     69  O   UNL     1      -9.135  -1.502  13.947  1.00  0.00    -0.237 OA
ATOM     70  O   UNL     1      -9.034  -3.377  15.544  1.00  0.00    -0.744 OA
ENDBRANCH  63  67
ENDBRANCH  37  60
ENDBRANCH  11  12
ENDBRANCH   4   6
ENDBRANCH   1   2
BRANCH   1  71
ATOM     71  C   UNL     1       4.016  -2.358   0.085  1.00  0.00     0.042 C 
BRANCH  71  72
ATOM     72  C   UNL     1       5.119  -2.711  -0.920  1.00  0.00     0.117 C 
BRANCH  72  73
ATOM     73  N   UNL     1       6.253  -3.436  -0.365  1.00  0.00    -0.354 N 
ATOM     74  C   UNL     1       6.722  -4.703  -0.547  1.00  0.00     0.242 C 
ATOM     75  H   UNL     1       6.788  -2.906   0.269  1.00  0.00     0.163 HD
ATOM     76  O   UNL     1       7.827  -4.950  -0.051  1.00  0.00    -0.273 OA
BRANCH  74  77
ATOM     77  C   UNL     1       5.957  -5.759  -1.377  1.00  0.00     0.175 C 
ATOM     78  C   UNL     1       6.962  -6.730  -2.032  1.00  0.00     0.044 C 
ATOM     79  N   UNL     1       4.865  -6.698  -1.048  1.00  0.00    -0.330 N 
ATOM     80  C   UNL     1       6.082  -7.730  -2.832  1.00  0.00    -0.006 C 
ATOM     81  C   UNL     1       4.662  -7.500  -2.256  1.00  0.00     0.127 C 
ATOM     82  C   UNL     1       6.543  -9.189  -2.589  1.00  0.00     0.030 C 
ATOM     83  C   UNL     1       6.097  -7.436  -4.349  1.00  0.00     0.030 C 
ATOM     84  C   UNL     1       7.872  -9.495  -3.278  1.00  0.00     0.120 C 
ATOM     85  C   UNL     1       7.412  -7.826  -5.026  1.00  0.00     0.120 C 
ATOM     86  N   UNL     1       7.770  -9.203  -4.708  1.00  0.00    -0.339 N 
ATOM     87  C   UNL     1       8.078 -10.077  -5.748  1.00  0.00     0.253 C 
ATOM     88  O   UNL     1       8.144  -9.736  -6.928  1.00  0.00    -0.269 OA
BRANCH  79  89
ATOM     89  C   UNL     1       4.312  -7.244   0.111  1.00  0.00     0.226 C 
ATOM     90  O   UNL     1       3.517  -8.186   0.018  1.00  0.00    -0.275 OA
BRANCH  89  91
ATOM     91  C   UNL     1       4.543  -6.799   1.509  1.00  0.00     0.079 C 
ATOM     92  C   UNL     1       5.810  -6.269   2.100  1.00  0.00     0.014 C 
ATOM     93  C   UNL     1       4.631  -5.361   1.889  1.00  0.00     0.014 C 
ENDBRANCH  89  91
ENDBRANCH  79  89
BRANCH  87  94
ATOM     94  C   UNL     1       8.353 -11.497  -5.443  1.00  0.00     0.043 A 
ATOM     95  C   UNL     1       7.383 -12.303  -4.835  1.00  0.00     0.014 A 
ATOM     96  C   UNL     1       9.582 -12.039  -5.829  1.00  0.00     0.060 A 
ATOM     97  C   UNL     1       7.669 -13.641  -4.560  1.00  0.00     0.005 A 
ATOM     98  C   UNL     1       9.850 -13.374  -5.554  1.00  0.00     0.116 A 
ATOM     99  C   UNL     1       8.909 -14.178  -4.915  1.00  0.00     0.046 A 
BRANCH  98 100
ATOM    100  O   UNL     1      11.065 -13.869  -5.930  1.00  0.00    -0.508 OA
ATOM    101  H   UNL     1      11.278 -14.765  -5.760  1.00  0.00     0.293 HD
ENDBRANCH  98 100
ENDBRANCH  87  94
ENDBRANCH  74  77
ENDBRANCH  72  73
ENDBRANCH  71  72
ENDBRANCH   1  71
TORSDOF 17
