REMARK SMILES COC(=O)c1ccc2c(c1)=N[C@H](c1cn(CCC(=O)NCCCNC(=O)c3ccc(-c4c5nc(c(-c6cc(S(=O)(=O)[O-])ccc6F)c6ccc([nH]6)c(-c6cc(S(=O)(=O)[O-])ccc6F)c6nc(c(-c7cc(S(=O)(=O)[O-])ccc7F)c7ccc4[nH]7)C=C6)C=C5)cc3)c3ccccc13)N=2
REMARK SMILES IDX 21 1 20 2 18 3 19 4 17 6 16 7 15 8 13 9 14 10 95 11 90 12
REMARK SMILES IDX 94 13 91 14 93 15 92 16 12 17 5 18 6 19 10 20 7 21 9 22 8 23
REMARK SMILES IDX 11 24 96 25 3 26 4 27 2 28 1 29 22 30 23 31 24 32 25 33
REMARK SMILES IDX 26 35 27 36 28 37 89 38 29 39 88 40 30 41 31 42 32 43 82 44
REMARK SMILES IDX 33 45 87 46 81 47 83 48 34 49 86 50 80 51 79 52 35 54 67 55
REMARK SMILES IDX 47 56 66 57 48 58 51 59 65 60 84 61 49 62 50 63 64 65 85 66
REMARK SMILES IDX 52 67 36 68 37 69 45 70 38 71 44 72 46 73 43 74 39 75 40 76
REMARK SMILES IDX 41 77 42 78 68 79 69 80 77 81 70 82 76 83 78 84 75 85 71 86
REMARK SMILES IDX 72 87 73 88 74 89 53 90 54 91 62 92 55 93 61 94 63 95 60 96
REMARK SMILES IDX 56 97 57 98 58 99 59 100
REMARK H PARENT 20 5 24 34 83 53 51 64
REMARK Flexibility Score: inf
ROOT
ATOM      1  C   UNL     1      -2.259  -9.113  -7.857  1.00  0.00     0.117 C 
ENDROOT
BRANCH   1   2
ATOM      2  N   UNL     1      -2.267  -8.436  -9.156  1.00  0.00    -0.356 N 
ATOM      3  C   UNL     1      -1.314  -8.210 -10.111  1.00  0.00     0.221 C 
ATOM      4  O   UNL     1      -1.712  -7.822 -11.216  1.00  0.00    -0.275 OA
ATOM      5  H   UNL     1      -3.147  -8.062  -9.392  1.00  0.00     0.163 HD
BRANCH   3   6
ATOM      6  C   UNL     1       0.165  -8.484  -9.902  1.00  0.00     0.122 C 
BRANCH   6   7
ATOM      7  C   UNL     1       1.059  -7.302 -10.384  1.00  0.00     0.132 C 
BRANCH   7   8
ATOM      8  N   UNL     1       1.305  -6.268  -9.362  1.00  0.00    -0.347 N 
ATOM      9  C   UNL     1       0.610  -6.362  -7.267  1.00  0.00     0.024 A 
ATOM     10  C   UNL     1       1.680  -6.677  -8.109  1.00  0.00     0.094 A 
ATOM     11  C   UNL     1      -0.362  -5.722  -8.123  1.00  0.00     0.007 A 
ATOM     12  C   UNL     1       0.452  -5.210  -9.124  1.00  0.00     0.048 A 
ATOM     13  C   UNL     1      -1.630  -5.143  -8.055  1.00  0.00     0.011 A 
ATOM     14  C   UNL     1       0.386  -3.846  -9.443  1.00  0.00     0.027 A 
ATOM     15  C   UNL     1      -1.836  -3.843  -8.494  1.00  0.00     0.001 A 
ATOM     16  C   UNL     1      -0.765  -3.151  -9.032  1.00  0.00     0.002 A 
BRANCH   9  17
ATOM     17  C   UNL     1       0.769  -6.468  -5.777  1.00  0.00     0.255 C 
ATOM     18  C   UNL     1       1.249  -2.718  -3.372  1.00  0.00     0.062 A 
ATOM     19  C   UNL     1       0.103  -3.306  -2.691  1.00  0.00     0.018 A 
ATOM     20  C   UNL     1       1.978  -3.433  -4.246  1.00  0.00     0.046 A 
ATOM     21  C   UNL     1      -0.467  -4.459  -3.067  1.00  0.00     0.031 A 
ATOM     22  C   UNL     1       1.434  -4.725  -4.670  1.00  0.00     0.087 A 
ATOM     23  C   UNL     1       0.086  -5.130  -4.237  1.00  0.00     0.086 A 
ATOM     24  N   UNL     1       1.939  -5.586  -5.474  1.00  0.00    -0.252 NA
ATOM     25  N   UNL     1      -0.407  -6.074  -4.964  1.00  0.00    -0.252 NA
BRANCH  18  26
ATOM     26  C   UNL     1       1.713  -1.319  -3.109  1.00  0.00     0.337 C 
ATOM     27  O   UNL     1       2.745  -0.845  -3.552  1.00  0.00    -0.246 OA
BRANCH  26  28
ATOM     28  O   UNL     1       0.789  -0.644  -2.375  1.00  0.00    -0.465 OA
ATOM     29  C   UNL     1       1.184   0.654  -1.918  1.00  0.00     0.282 C 
ENDBRANCH  26  28
ENDBRANCH  18  26
ENDBRANCH   9  17
ENDBRANCH   7   8
ENDBRANCH   6   7
ENDBRANCH   3   6
ENDBRANCH   1   2
BRANCH   1  30
ATOM     30  C   UNL     1      -2.628  -8.284  -6.601  1.00  0.00     0.042 C 
BRANCH  30  31
ATOM     31  C   UNL     1      -3.730  -7.217  -6.680  1.00  0.00     0.118 C 
BRANCH  31  32
ATOM     32  N   UNL     1      -5.033  -7.514  -6.132  1.00  0.00    -0.352 N 
ATOM     33  C   UNL     1      -5.805  -6.737  -5.291  1.00  0.00     0.251 C 
ATOM     34  H   UNL     1      -5.421  -8.381  -6.393  1.00  0.00     0.163 HD
ATOM     35  O   UNL     1      -7.026  -6.749  -5.449  1.00  0.00    -0.269 OA
BRANCH  33  36
ATOM     36  C   UNL     1      -5.255  -6.066  -4.086  1.00  0.00     0.039 A 
ATOM     37  C   UNL     1      -4.290  -5.064  -4.071  1.00  0.00     0.014 A 
ATOM     38  C   UNL     1      -5.850  -6.440  -2.873  1.00  0.00     0.014 A 
ATOM     39  C   UNL     1      -3.818  -4.582  -2.838  1.00  0.00     0.010 A 
ATOM     40  C   UNL     1      -5.372  -5.956  -1.654  1.00  0.00     0.010 A 
ATOM     41  C   UNL     1      -4.258  -5.121  -1.615  1.00  0.00    -0.014 A 
BRANCH  41  42
ATOM     42  C   UNL     1      -3.518  -4.837  -0.350  1.00  0.00     0.031 A 
ATOM     43  C   UNL     1      -3.052  -3.437  -0.109  1.00  0.00     0.074 A 
ATOM     44  C   UNL     1      -3.251  -5.762   0.612  1.00  0.00     0.049 A 
ATOM     45  N   UNL     1      -1.846  -3.052   0.179  1.00  0.00    -0.248 NA
ATOM     46  C   UNL     1      -4.008  -2.332  -0.258  1.00  0.00     0.031 C 
ATOM     47  C   UNL     1      -3.758  -7.138   0.681  1.00  0.00     0.029 A 
ATOM     48  N   UNL     1      -2.553  -5.649   1.797  1.00  0.00    -0.354 N 
ATOM     49  C   UNL     1      -1.913  -1.677   0.402  1.00  0.00     0.074 A 
ATOM     50  C   UNL     1      -3.241  -1.272   0.010  1.00  0.00     0.031 C 
ATOM     51  C   UNL     1      -3.611  -7.614   1.935  1.00  0.00     0.029 A 
ATOM     52  C   UNL     1      -2.834  -6.664   2.707  1.00  0.00     0.049 A 
ATOM     53  H   UNL     1      -1.917  -4.921   1.981  1.00  0.00     0.167 HD
ATOM     54  C   UNL     1      -0.927  -0.992   1.054  1.00  0.00     0.034 A 
ATOM     55  C   UNL     1      -2.505  -6.753   4.019  1.00  0.00     0.034 A 
ATOM     56  C   UNL     1       0.291  -1.743   1.197  1.00  0.00     0.049 A 
ATOM     57  C   UNL     1      -1.302  -5.958   4.303  1.00  0.00     0.074 A 
ATOM     58  C   UNL     1       1.535  -1.802   0.611  1.00  0.00     0.029 A 
ATOM     59  N   UNL     1       0.218  -2.800   2.056  1.00  0.00    -0.354 N 
ATOM     60  N   UNL     1      -0.106  -6.301   3.921  1.00  0.00    -0.248 NA
ATOM     61  C   UNL     1      -1.434  -4.608   4.844  1.00  0.00     0.031 C 
ATOM     62  C   UNL     1       2.153  -3.004   1.045  1.00  0.00     0.029 A 
ATOM     63  C   UNL     1       1.330  -3.600   1.987  1.00  0.00     0.049 A 
ATOM     64  H   UNL     1      -0.544  -2.970   2.656  1.00  0.00     0.167 HD
ATOM     65  C   UNL     1       0.515  -5.093   3.727  1.00  0.00     0.074 A 
ATOM     66  C   UNL     1      -0.238  -4.122   4.509  1.00  0.00     0.031 C 
ATOM     67  C   UNL     1       1.311  -4.885   2.644  1.00  0.00     0.034 A 
BRANCH  54  68
ATOM     68  C   UNL     1      -1.172   0.267   1.854  1.00  0.00     0.023 A 
ATOM     69  C   UNL     1      -2.452   0.589   2.346  1.00  0.00     0.031 A 
ATOM     70  C   UNL     1      -0.111   1.055   2.344  1.00  0.00     0.131 A 
ATOM     71  C   UNL     1      -2.658   1.667   3.217  1.00  0.00     0.055 A 
ATOM     72  C   UNL     1      -0.307   2.088   3.274  1.00  0.00     0.041 A 
ATOM     73  F   UNL     1       1.155   0.830   1.958  1.00  0.00    -0.206 F 
ATOM     74  C   UNL     1      -1.588   2.406   3.708  1.00  0.00     0.022 A 
BRANCH  71  75
ATOM     75  S   UNL     1      -4.341   2.132   3.706  1.00  0.00     0.124 S 
ATOM     76  O   UNL     1      -4.317   1.886   5.143  1.00  0.00    -0.237 OA
ATOM     77  O   UNL     1      -4.391   3.535   3.302  1.00  0.00    -0.237 OA
ATOM     78  O   UNL     1      -5.181   1.236   2.916  1.00  0.00    -0.744 OA
ENDBRANCH  71  75
ENDBRANCH  54  68
BRANCH  55  79
ATOM     79  C   UNL     1      -3.357  -7.243   5.126  1.00  0.00     0.023 A 
ATOM     80  C   UNL     1      -4.751  -7.118   5.015  1.00  0.00     0.031 A 
ATOM     81  C   UNL     1      -2.824  -7.486   6.405  1.00  0.00     0.131 A 
ATOM     82  C   UNL     1      -5.555  -7.147   6.159  1.00  0.00     0.055 A 
ATOM     83  C   UNL     1      -3.632  -7.532   7.546  1.00  0.00     0.041 A 
ATOM     84  F   UNL     1      -1.498  -7.593   6.585  1.00  0.00    -0.206 F 
ATOM     85  C   UNL     1      -5.005  -7.340   7.428  1.00  0.00     0.022 A 
BRANCH  82  86
ATOM     86  S   UNL     1      -7.331  -6.813   6.024  1.00  0.00     0.124 S 
ATOM     87  O   UNL     1      -7.908  -7.893   6.821  1.00  0.00    -0.237 OA
ATOM     88  O   UNL     1      -7.424  -5.479   6.607  1.00  0.00    -0.237 OA
ATOM     89  O   UNL     1      -7.586  -6.900   4.589  1.00  0.00    -0.744 OA
ENDBRANCH  82  86
ENDBRANCH  55  79
BRANCH  67  90
ATOM     90  C   UNL     1       2.023  -6.039   2.001  1.00  0.00     0.023 A 
ATOM     91  C   UNL     1       3.407  -5.896   1.808  1.00  0.00     0.031 A 
ATOM     92  C   UNL     1       1.405  -7.179   1.457  1.00  0.00     0.131 A 
ATOM     93  C   UNL     1       4.119  -6.819   1.039  1.00  0.00     0.055 A 
ATOM     94  C   UNL     1       2.139  -8.150   0.765  1.00  0.00     0.041 A 
ATOM     95  F   UNL     1       0.077  -7.355   1.511  1.00  0.00    -0.206 F 
ATOM     96  C   UNL     1       3.498  -7.960   0.531  1.00  0.00     0.022 A 
BRANCH  93  97
ATOM     97  S   UNL     1       5.815  -6.440   0.529  1.00  0.00     0.124 S 
ATOM     98  O   UNL     1       6.597  -7.354   1.355  1.00  0.00    -0.237 OA
ATOM     99  O   UNL     1       5.790  -6.747  -0.900  1.00  0.00    -0.237 OA
ATOM    100  O   UNL     1       5.962  -5.021   0.847  1.00  0.00    -0.744 OA
ENDBRANCH  93  97
ENDBRANCH  67  90
ENDBRANCH  41  42
ENDBRANCH  33  36
ENDBRANCH  31  32
ENDBRANCH  30  31
ENDBRANCH   1  30
TORSDOF 18
