REMARK SMILES CC[C@H](CNC(=O)[C@H]1CSc2ccccc21)C(=O)NCCCNC(=O)c1ccc(-c2c3nc(c(-c4cc(S(=O)(=O)[O-])ccc4F)c4ccc([nH]4)c(-c4cc(S(=O)(=O)[O-])ccc4F)c4nc(c(-c5cc(S(=O)(=O)[O-])ccc5F)c5ccc2[nH]5)C=C4)C=C3)cc1
REMARK SMILES IDX 21 1 20 2 19 3 17 4 18 5 3 7 2 8 1 9 4 10 5 11 6 12 7 14
REMARK SMILES IDX 8 15 9 16 16 17 10 18 11 19 15 20 12 21 14 22 13 23 22 24
REMARK SMILES IDX 23 25 24 26 25 28 26 29 27 30 88 31 28 32 87 33 29 34 30 35
REMARK SMILES IDX 31 36 81 37 32 38 86 39 80 40 82 41 33 42 85 43 79 44 78 45
REMARK SMILES IDX 34 47 66 48 46 49 65 50 47 51 50 52 64 53 83 54 48 55 49 56
REMARK SMILES IDX 63 58 84 59 51 60 35 61 36 62 44 63 37 64 43 65 45 66 42 67
REMARK SMILES IDX 38 68 39 69 40 70 41 71 67 72 68 73 76 74 69 75 75 76 77 77
REMARK SMILES IDX 74 78 70 79 71 80 72 81 73 82 52 83 53 84 61 85 54 86 60 87
REMARK SMILES IDX 62 88 59 89 55 90 56 91 57 92 58 93
REMARK H PARENT 19 6 5 13 23 27 82 46 50 57
REMARK Flexibility Score: inf
ROOT
ATOM      1  C   UNL     1      -3.108   2.730   0.173  1.00  0.00     0.042 C 
ENDROOT
BRANCH   1   2
ATOM      2  C   UNL     1      -2.206   3.084  -1.003  1.00  0.00     0.117 C 
BRANCH   2   3
ATOM      3  N   UNL     1      -1.094   3.958  -0.666  1.00  0.00    -0.356 N 
ATOM      4  C   UNL     1       0.257   3.797  -0.702  1.00  0.00     0.224 C 
ATOM      5  O   UNL     1       0.942   4.805  -0.501  1.00  0.00    -0.275 OA
ATOM      6  H   UNL     1      -1.375   4.846  -0.347  1.00  0.00     0.163 HD
BRANCH   4   7
ATOM      7  C   UNL     1       0.936   2.451  -0.963  1.00  0.00     0.097 C 
BRANCH   7   8
ATOM      8  C   UNL     1       0.719   1.988  -2.412  1.00  0.00     0.012 C 
ATOM      9  C   UNL     1       1.469   0.724  -2.796  1.00  0.00     0.005 C 
ENDBRANCH   7   8
BRANCH   7  10
ATOM     10  C   UNL     1       0.562   1.475   0.159  1.00  0.00     0.129 C 
BRANCH  10  11
ATOM     11  N   UNL     1       1.585   0.479   0.456  1.00  0.00    -0.355 N 
ATOM     12  C   UNL     1       2.015  -0.117   1.598  1.00  0.00     0.228 C 
ATOM     13  H   UNL     1       2.069   0.172  -0.345  1.00  0.00     0.163 HD
ATOM     14  O   UNL     1       2.789  -1.071   1.414  1.00  0.00    -0.274 OA
BRANCH  12  15
ATOM     15  C   UNL     1       1.636   0.255   3.037  1.00  0.00     0.120 C 
ATOM     16  C   UNL     1       2.947   0.463   3.828  1.00  0.00     0.093 C 
ATOM     17  C   UNL     1       0.853   1.513   3.298  1.00  0.00    -0.021 A 
ATOM     18  S   UNL     1       3.364   2.232   3.628  1.00  0.00    -0.125 SA
ATOM     19  C   UNL     1       1.651   2.648   3.492  1.00  0.00     0.011 A 
ATOM     20  C   UNL     1      -0.536   1.620   3.324  1.00  0.00     0.006 A 
ATOM     21  C   UNL     1       1.091   3.910   3.595  1.00  0.00     0.015 A 
ATOM     22  C   UNL     1      -1.107   2.888   3.455  1.00  0.00     0.000 A 
ATOM     23  C   UNL     1      -0.299   4.029   3.558  1.00  0.00     0.001 A 
ENDBRANCH  12  15
ENDBRANCH  10  11
ENDBRANCH   7  10
ENDBRANCH   4   7
ENDBRANCH   2   3
ENDBRANCH   1   2
BRANCH   1  24
ATOM     24  C   UNL     1      -3.685   3.909   0.946  1.00  0.00     0.118 C 
BRANCH  24  25
ATOM     25  N   UNL     1      -4.751   4.608   0.245  1.00  0.00    -0.352 N 
ATOM     26  C   UNL     1      -6.075   4.786   0.590  1.00  0.00     0.251 C 
ATOM     27  H   UNL     1      -4.487   5.018  -0.610  1.00  0.00     0.163 HD
ATOM     28  O   UNL     1      -6.835   5.311  -0.219  1.00  0.00    -0.269 OA
BRANCH  26  29
ATOM     29  C   UNL     1      -6.596   4.315   1.899  1.00  0.00     0.039 A 
ATOM     30  C   UNL     1      -5.883   4.505   3.083  1.00  0.00     0.014 A 
ATOM     31  C   UNL     1      -7.841   3.676   1.942  1.00  0.00     0.014 A 
ATOM     32  C   UNL     1      -6.318   3.902   4.263  1.00  0.00     0.010 A 
ATOM     33  C   UNL     1      -8.321   3.149   3.149  1.00  0.00     0.010 A 
ATOM     34  C   UNL     1      -7.538   3.206   4.312  1.00  0.00    -0.014 A 
BRANCH  34  35
ATOM     35  C   UNL     1      -7.969   2.562   5.586  1.00  0.00     0.031 A 
ATOM     36  C   UNL     1      -8.120   1.065   5.691  1.00  0.00     0.074 A 
ATOM     37  C   UNL     1      -8.176   3.326   6.678  1.00  0.00     0.049 A 
ATOM     38  N   UNL     1      -8.393   0.337   6.745  1.00  0.00    -0.248 NA
ATOM     39  C   UNL     1      -7.948   0.282   4.458  1.00  0.00     0.031 C 
ATOM     40  C   UNL     1      -8.086   4.785   6.702  1.00  0.00     0.029 A 
ATOM     41  N   UNL     1      -8.478   2.990   7.976  1.00  0.00    -0.354 N 
ATOM     42  C   UNL     1      -8.435  -0.981   6.304  1.00  0.00     0.074 A 
ATOM     43  C   UNL     1      -8.203  -0.951   4.877  1.00  0.00     0.031 C 
ATOM     44  C   UNL     1      -8.265   5.215   7.959  1.00  0.00     0.029 A 
ATOM     45  C   UNL     1      -8.540   4.071   8.826  1.00  0.00     0.049 A 
ATOM     46  H   UNL     1      -8.635   2.064   8.270  1.00  0.00     0.167 HD
ATOM     47  C   UNL     1      -8.630  -2.114   7.024  1.00  0.00     0.034 A 
ATOM     48  C   UNL     1      -8.784   4.143  10.151  1.00  0.00     0.034 A 
ATOM     49  C   UNL     1      -8.849  -2.138   8.449  1.00  0.00     0.049 A 
ATOM     50  C   UNL     1      -8.995   2.869  10.929  1.00  0.00     0.074 A 
ATOM     51  C   UNL     1      -9.028  -3.242   9.266  1.00  0.00     0.029 A 
ATOM     52  N   UNL     1      -8.913  -1.022   9.270  1.00  0.00    -0.354 N 
ATOM     53  N   UNL     1      -8.961   1.628  10.505  1.00  0.00    -0.248 NA
ATOM     54  C   UNL     1      -9.265   3.000  12.368  1.00  0.00     0.031 C 
ATOM     55  C   UNL     1      -9.258  -2.792  10.566  1.00  0.00     0.029 A 
ATOM     56  C   UNL     1      -9.147  -1.412  10.580  1.00  0.00     0.049 A 
ATOM     57  H   UNL     1      -8.808  -0.091   8.968  1.00  0.00     0.167 HD
ATOM     58  C   UNL     1      -9.176   0.832  11.627  1.00  0.00     0.074 A 
ATOM     59  C   UNL     1      -9.313   1.731  12.753  1.00  0.00     0.031 C 
ATOM     60  C   UNL     1      -9.257  -0.520  11.710  1.00  0.00     0.034 A 
BRANCH  47  61
ATOM     61  C   UNL     1      -8.599  -3.442   6.305  1.00  0.00     0.023 A 
ATOM     62  C   UNL     1      -9.743  -4.263   6.288  1.00  0.00     0.031 A 
ATOM     63  C   UNL     1      -7.406  -3.953   5.763  1.00  0.00     0.131 A 
ATOM     64  C   UNL     1      -9.659  -5.563   5.773  1.00  0.00     0.055 A 
ATOM     65  C   UNL     1      -7.340  -5.234   5.213  1.00  0.00     0.041 A 
ATOM     66  F   UNL     1      -6.287  -3.210   5.755  1.00  0.00    -0.206 F 
ATOM     67  C   UNL     1      -8.466  -6.050   5.229  1.00  0.00     0.022 A 
BRANCH  64  68
ATOM     68  S   UNL     1     -11.075  -6.695   5.849  1.00  0.00     0.124 S 
ATOM     69  O   UNL     1     -11.288  -7.001   4.435  1.00  0.00    -0.237 OA
ATOM     70  O   UNL     1     -10.540  -7.797   6.649  1.00  0.00    -0.237 OA
ATOM     71  O   UNL     1     -12.123  -5.908   6.480  1.00  0.00    -0.744 OA
ENDBRANCH  64  68
ENDBRANCH  47  61
BRANCH  48  72
ATOM     72  C   UNL     1      -8.761   5.477  10.822  1.00  0.00     0.023 A 
ATOM     73  C   UNL     1      -9.665   6.489  10.451  1.00  0.00     0.031 A 
ATOM     74  C   UNL     1      -7.767   5.792  11.764  1.00  0.00     0.131 A 
ATOM     75  C   UNL     1      -9.509   7.784  10.963  1.00  0.00     0.055 A 
ATOM     76  C   UNL     1      -7.664   7.064  12.329  1.00  0.00     0.041 A 
ATOM     77  F   UNL     1      -6.873   4.864  12.139  1.00  0.00    -0.206 F 
ATOM     78  C   UNL     1      -8.527   8.073  11.914  1.00  0.00     0.022 A 
BRANCH  75  79
ATOM     79  S   UNL     1     -10.483   9.166  10.303  1.00  0.00     0.124 S 
ATOM     80  O   UNL     1     -11.201   9.625  11.488  1.00  0.00    -0.237 OA
ATOM     81  O   UNL     1      -9.437  10.059   9.812  1.00  0.00    -0.237 OA
ATOM     82  O   UNL     1     -11.303   8.545   9.268  1.00  0.00    -0.744 OA
ENDBRANCH  75  79
ENDBRANCH  48  72
BRANCH  60  83
ATOM     83  C   UNL     1      -9.484  -1.155  13.063  1.00  0.00     0.023 A 
ATOM     84  C   UNL     1      -8.520  -2.034  13.596  1.00  0.00     0.031 A 
ATOM     85  C   UNL     1     -10.703  -1.013  13.749  1.00  0.00     0.131 A 
ATOM     86  C   UNL     1      -8.805  -2.763  14.757  1.00  0.00     0.055 A 
ATOM     87  C   UNL     1     -10.963  -1.706  14.932  1.00  0.00     0.041 A 
ATOM     88  F   UNL     1     -11.661  -0.200  13.276  1.00  0.00    -0.206 F 
ATOM     89  C   UNL     1     -10.018  -2.598  15.433  1.00  0.00     0.022 A 
BRANCH  86  90
ATOM     90  S   UNL     1      -7.656  -4.023  15.378  1.00  0.00     0.124 S 
ATOM     91  O   UNL     1      -7.281  -3.473  16.678  1.00  0.00    -0.237 OA
ATOM     92  O   UNL     1      -8.500  -5.214  15.425  1.00  0.00    -0.237 OA
ATOM     93  O   UNL     1      -6.590  -4.049  14.382  1.00  0.00    -0.744 OA
ENDBRANCH  86  90
ENDBRANCH  60  83
ENDBRANCH  34  35
ENDBRANCH  26  29
ENDBRANCH  24  25
ENDBRANCH   1  24
TORSDOF 17
