REMARK SMILES C[C@@H]1[C@H](C)CC[C@@H]1NC(=O)N1CCO[C@H](CC(=O)NCCCNC(=O)c2ccc(-c3c4nc(c(-c5cc(S(=O)(=O)[O-])ccc5F)c5ccc([nH]5)c(-c5cc(S(=O)(=O)[O-])ccc5F)c5nc(c(-c6cc(S(=O)(=O)[O-])ccc6F)c6ccc3[nH]6)C=C5)C=C4)cc2)C1
REMARK SMILES IDX 21 1 20 2 19 3 17 4 18 5 16 7 15 8 11 9 12 10 89 11 13 12
REMARK SMILES IDX 14 13 9 14 8 15 10 17 7 18 1 19 2 20 3 21 4 22 5 23 6 24
REMARK SMILES IDX 22 25 23 26 24 27 25 29 26 30 27 31 88 32 28 33 87 34 29 35
REMARK SMILES IDX 30 36 31 37 81 38 32 39 86 40 80 41 82 42 33 43 85 44 79 45
REMARK SMILES IDX 78 46 34 48 66 49 46 50 65 51 47 52 50 53 64 54 83 55 48 56
REMARK SMILES IDX 49 57 63 59 84 60 51 61 35 62 36 63 44 64 37 65 43 66 45 67
REMARK SMILES IDX 42 68 38 69 39 70 40 71 41 72 67 73 68 74 76 75 69 76 75 77
REMARK SMILES IDX 77 78 74 79 70 80 71 81 72 82 73 83 52 84 53 85 61 86 54 87
REMARK SMILES IDX 60 88 62 89 59 90 55 91 56 92 57 93 58 94
REMARK H PARENT 19 6 8 16 23 28 82 47 50 58
REMARK Flexibility Score: inf
ROOT
ATOM      1  C   UNL     1       6.032   4.132  -0.356  1.00  0.00     0.042 C 
ENDROOT
BRANCH   1   2
ATOM      2  C   UNL     1       5.299   3.389  -1.492  1.00  0.00     0.117 C 
BRANCH   2   3
ATOM      3  N   UNL     1       4.002   2.772  -1.271  1.00  0.00    -0.356 N 
ATOM      4  C   UNL     1       2.719   3.114  -1.590  1.00  0.00     0.222 C 
ATOM      5  O   UNL     1       1.897   2.200  -1.685  1.00  0.00    -0.275 OA
ATOM      6  H   UNL     1       4.062   1.919  -0.783  1.00  0.00     0.163 HD
BRANCH   4   7
ATOM      7  C   UNL     1       2.277   4.551  -1.799  1.00  0.00     0.133 C 
BRANCH   7   8
ATOM      8  C   UNL     1       1.981   5.353  -0.506  1.00  0.00     0.147 C 
ATOM      9  N   UNL     1       2.058   4.100   1.602  1.00  0.00    -0.320 N 
ATOM     10  C   UNL     1       1.083   4.930   2.265  1.00  0.00     0.150 C 
ATOM     11  C   UNL     1       2.833   4.913   0.683  1.00  0.00     0.154 C 
ATOM     12  C   UNL     1       0.310   5.758   1.209  1.00  0.00     0.182 C 
ATOM     13  O   UNL     1       0.570   5.357  -0.163  1.00  0.00    -0.374 OA
BRANCH   9  14
ATOM     14  C   UNL     1       2.249   2.752   1.707  1.00  0.00     0.317 C 
ATOM     15  N   UNL     1       1.417   1.981   2.442  1.00  0.00    -0.335 N 
ATOM     16  H   UNL     1       1.787   1.720   3.317  1.00  0.00     0.165 HD
ATOM     17  O   UNL     1       3.269   2.197   1.292  1.00  0.00    -0.249 OA
BRANCH  15  18
ATOM     18  C   UNL     1       0.065   1.454   2.189  1.00  0.00     0.087 C 
ATOM     19  C   UNL     1       1.143  -0.330   0.570  1.00  0.00     0.010 C 
ATOM     20  C   UNL     1      -0.108   0.386   1.052  1.00  0.00     0.011 C 
ATOM     21  C   UNL     1      -1.028   1.046  -0.019  1.00  0.00    -0.009 C 
ATOM     22  C   UNL     1      -0.756   0.838  -1.503  1.00  0.00     0.008 C 
ATOM     23  C   UNL     1      -1.062   2.519   0.376  1.00  0.00     0.006 C 
ATOM     24  C   UNL     1      -1.051   2.446   1.889  1.00  0.00     0.025 C 
ENDBRANCH  15  18
ENDBRANCH   9  14
ENDBRANCH   7   8
ENDBRANCH   4   7
ENDBRANCH   2   3
ENDBRANCH   1   2
BRANCH   1  25
ATOM     25  C   UNL     1       6.026   3.684   1.114  1.00  0.00     0.118 C 
BRANCH  25  26
ATOM     26  N   UNL     1       6.371   2.312   1.402  1.00  0.00    -0.352 N 
ATOM     27  C   UNL     1       6.871   1.848   2.603  1.00  0.00     0.251 C 
ATOM     28  H   UNL     1       6.238   1.653   0.683  1.00  0.00     0.163 HD
ATOM     29  O   UNL     1       7.019   0.648   2.813  1.00  0.00    -0.269 OA
BRANCH  27  30
ATOM     30  C   UNL     1       7.246   2.833   3.644  1.00  0.00     0.039 A 
ATOM     31  C   UNL     1       8.591   3.169   3.804  1.00  0.00     0.014 A 
ATOM     32  C   UNL     1       6.262   3.461   4.415  1.00  0.00     0.014 A 
ATOM     33  C   UNL     1       8.950   4.174   4.709  1.00  0.00     0.010 A 
ATOM     34  C   UNL     1       6.623   4.485   5.300  1.00  0.00     0.010 A 
ATOM     35  C   UNL     1       7.969   4.863   5.446  1.00  0.00    -0.014 A 
BRANCH  35  36
ATOM     36  C   UNL     1       8.355   6.005   6.324  1.00  0.00     0.031 A 
ATOM     37  C   UNL     1       8.272   5.893   7.822  1.00  0.00     0.074 A 
ATOM     38  C   UNL     1       8.767   7.161   5.763  1.00  0.00     0.049 A 
ATOM     39  N   UNL     1       8.588   6.775   8.738  1.00  0.00    -0.248 NA
ATOM     40  C   UNL     1       7.747   4.631   8.358  1.00  0.00     0.031 C 
ATOM     41  C   UNL     1       8.856   7.410   4.322  1.00  0.00     0.029 A 
ATOM     42  N   UNL     1       9.188   8.341   6.327  1.00  0.00    -0.354 N 
ATOM     43  C   UNL     1       8.307   6.175   9.961  1.00  0.00     0.074 A 
ATOM     44  C   UNL     1       7.739   4.875   9.662  1.00  0.00     0.031 C 
ATOM     45  C   UNL     1       9.326   8.651   4.117  1.00  0.00     0.029 A 
ATOM     46  C   UNL     1       9.542   9.302   5.407  1.00  0.00     0.049 A 
ATOM     47  H   UNL     1       9.233   8.486   7.300  1.00  0.00     0.167 HD
ATOM     48  C   UNL     1       8.519   6.653  11.214  1.00  0.00     0.034 A 
ATOM     49  C   UNL     1       9.988  10.563   5.577  1.00  0.00     0.034 A 
ATOM     50  C   UNL     1       9.078   7.956  11.498  1.00  0.00     0.049 A 
ATOM     51  C   UNL     1      10.190  11.084   6.979  1.00  0.00     0.074 A 
ATOM     52  C   UNL     1       9.374   8.520  12.727  1.00  0.00     0.029 A 
ATOM     53  N   UNL     1       9.412   8.906  10.540  1.00  0.00    -0.354 N 
ATOM     54  N   UNL     1       9.978  10.477   8.124  1.00  0.00    -0.248 NA
ATOM     55  C   UNL     1      10.708  12.452   7.110  1.00  0.00     0.031 C 
ATOM     56  C   UNL     1       9.820   9.830  12.518  1.00  0.00     0.029 A 
ATOM     57  C   UNL     1       9.877  10.061  11.153  1.00  0.00     0.049 A 
ATOM     58  H   UNL     1       9.330   8.778   9.567  1.00  0.00     0.167 HD
ATOM     59  C   UNL     1      10.364  11.382   9.109  1.00  0.00     0.074 A 
ATOM     60  C   UNL     1      10.839  12.565   8.423  1.00  0.00     0.031 C 
ATOM     61  C   UNL     1      10.334  11.244  10.460  1.00  0.00     0.034 A 
BRANCH  48  62
ATOM     62  C   UNL     1       8.115   5.770  12.373  1.00  0.00     0.023 A 
ATOM     63  C   UNL     1       8.719   4.519  12.592  1.00  0.00     0.031 A 
ATOM     64  C   UNL     1       7.099   6.170  13.259  1.00  0.00     0.131 A 
ATOM     65  C   UNL     1       8.250   3.681  13.616  1.00  0.00     0.055 A 
ATOM     66  C   UNL     1       6.693   5.367  14.328  1.00  0.00     0.041 A 
ATOM     67  F   UNL     1       6.473   7.346  13.095  1.00  0.00    -0.206 F 
ATOM     68  C   UNL     1       7.257   4.107  14.501  1.00  0.00     0.022 A 
BRANCH  65  69
ATOM     69  S   UNL     1       8.854   1.972  13.682  1.00  0.00     0.124 S 
ATOM     70  O   UNL     1       8.465   1.471  12.366  1.00  0.00    -0.237 OA
ATOM     71  O   UNL     1      10.284   2.151  13.901  1.00  0.00    -0.237 OA
ATOM     72  O   UNL     1       8.118   1.392  14.804  1.00  0.00    -0.744 OA
ENDBRANCH  65  69
ENDBRANCH  48  62
BRANCH  49  73
ATOM     73  C   UNL     1      10.271  11.432   4.397  1.00  0.00     0.023 A 
ATOM     74  C   UNL     1      11.571  11.889   4.126  1.00  0.00     0.031 A 
ATOM     75  C   UNL     1       9.234  11.856   3.546  1.00  0.00     0.131 A 
ATOM     76  C   UNL     1      11.794  12.778   3.062  1.00  0.00     0.055 A 
ATOM     77  C   UNL     1       9.469  12.698   2.458  1.00  0.00     0.041 A 
ATOM     78  F   UNL     1       7.973  11.445   3.756  1.00  0.00    -0.206 F 
ATOM     79  C   UNL     1      10.754  13.175   2.218  1.00  0.00     0.022 A 
BRANCH  76  80
ATOM     80  S   UNL     1      13.454  13.476   2.844  1.00  0.00     0.124 S 
ATOM     81  O   UNL     1      13.677  14.121   4.133  1.00  0.00    -0.237 OA
ATOM     82  O   UNL     1      14.250  12.283   2.576  1.00  0.00    -0.237 OA
ATOM     83  O   UNL     1      13.294  14.384   1.710  1.00  0.00    -0.744 OA
ENDBRANCH  76  80
ENDBRANCH  49  73
BRANCH  61  84
ATOM     84  C   UNL     1      10.866  12.397  11.278  1.00  0.00     0.023 A 
ATOM     85  C   UNL     1      10.221  13.646  11.305  1.00  0.00     0.031 A 
ATOM     86  C   UNL     1      12.046  12.247  12.029  1.00  0.00     0.131 A 
ATOM     87  C   UNL     1      10.791  14.713  12.017  1.00  0.00     0.055 A 
ATOM     88  C   UNL     1      12.575  13.294  12.786  1.00  0.00     0.041 A 
ATOM     89  F   UNL     1      12.706  11.078  12.039  1.00  0.00    -0.206 F 
ATOM     90  C   UNL     1      11.954  14.540  12.771  1.00  0.00     0.022 A 
BRANCH  87  91
ATOM     91  S   UNL     1      10.042  16.359  11.869  1.00  0.00     0.124 S 
ATOM     92  O   UNL     1      10.113  16.596  10.430  1.00  0.00    -0.237 OA
ATOM     93  O   UNL     1       8.706  16.145  12.414  1.00  0.00    -0.237 OA
ATOM     94  O   UNL     1      10.913  17.207  12.681  1.00  0.00    -0.744 OA
ENDBRANCH  87  91
ENDBRANCH  61  84
ENDBRANCH  35  36
ENDBRANCH  27  30
ENDBRANCH  25  26
ENDBRANCH   1  25
TORSDOF 16
