REMARK SMILES O=C(NCCCNC(=O)c1cc(S(=O)(=O)Nc2ccc(F)c(F)c2)cc(Cl)c1Cl)c1ccc(-c2c3nc(c(-c4cc(S(=O)(=O)[O-])ccc4F)c4ccc([nH]4)c(-c4cc(S(=O)(=O)[O-])ccc4F)c4nc(c(-c5cc(S(=O)(=O)[O-])ccc5F)c5ccc2[nH]5)C=C4)C=C3)cc1
REMARK SMILES IDX 5 1 4 2 3 3 1 4 2 5 30 7 31 8 92 9 32 10 91 11 33 12 34 13
REMARK SMILES IDX 35 14 85 15 36 16 90 17 84 18 86 19 37 20 89 21 83 22 82 23
REMARK SMILES IDX 38 25 70 26 50 27 69 28 51 29 54 30 68 31 87 32 52 33 53 34
REMARK SMILES IDX 67 36 88 37 55 38 39 39 40 40 48 41 41 42 47 43 49 44 46 45
REMARK SMILES IDX 42 46 43 47 44 48 45 49 71 50 72 51 80 52 73 53 79 54 81 55
REMARK SMILES IDX 78 56 74 57 75 58 76 59 77 60 56 61 57 62 65 63 58 64 64 65
REMARK SMILES IDX 66 66 63 67 59 68 60 69 61 70 62 71 6 72 7 73 8 74 9 76
REMARK SMILES IDX 10 77 11 78 28 79 12 80 26 81 29 82 25 83 27 84 13 85 14 86
REMARK SMILES IDX 15 87 16 88 17 90 18 91 24 92 19 93 22 94 20 95 23 96 21 97
REMARK H PARENT 3 6 86 24 54 35 7 75 16 89
REMARK Flexibility Score: inf
ROOT
ATOM      1  C   UNL     1       5.085  -1.204   2.045  1.00  0.00     0.042 C 
ENDROOT
BRANCH   1   2
ATOM      2  C   UNL     1       4.684  -1.105   0.580  1.00  0.00     0.118 C 
BRANCH   2   3
ATOM      3  N   UNL     1       3.244  -1.024   0.381  1.00  0.00    -0.352 N 
ATOM      4  O   UNL     1       1.239  -0.104  -0.035  1.00  0.00    -0.269 OA
ATOM      5  C   UNL     1       2.462   0.002  -0.092  1.00  0.00     0.251 C 
ATOM      6  H   UNL     1       2.749  -1.839   0.627  1.00  0.00     0.163 HD
BRANCH   5   7
ATOM      7  C   UNL     1       3.072   1.233  -0.642  1.00  0.00     0.039 A 
ATOM      8  C   UNL     1       4.174   1.182  -1.498  1.00  0.00     0.014 A 
ATOM      9  C   UNL     1       2.502   2.469  -0.316  1.00  0.00     0.014 A 
ATOM     10  C   UNL     1       4.798   2.360  -1.901  1.00  0.00     0.010 A 
ATOM     11  C   UNL     1       3.079   3.650  -0.791  1.00  0.00     0.010 A 
ATOM     12  C   UNL     1       4.254   3.606  -1.556  1.00  0.00    -0.014 A 
BRANCH  12  13
ATOM     13  C   UNL     1       4.910   4.854  -2.023  1.00  0.00     0.031 A 
ATOM     14  C   UNL     1       5.514   5.818  -1.039  1.00  0.00     0.074 A 
ATOM     15  C   UNL     1       4.962   5.115  -3.344  1.00  0.00     0.049 A 
ATOM     16  N   UNL     1       6.082   6.977  -1.256  1.00  0.00    -0.248 NA
ATOM     17  C   UNL     1       5.460   5.431   0.378  1.00  0.00     0.031 C 
ATOM     18  C   UNL     1       4.408   4.257  -4.394  1.00  0.00     0.029 A 
ATOM     19  N   UNL     1       5.506   6.170  -4.029  1.00  0.00    -0.354 N 
ATOM     20  C   UNL     1       6.434   7.471  -0.005  1.00  0.00     0.074 A 
ATOM     21  C   UNL     1       5.984   6.496   0.968  1.00  0.00     0.031 C 
ATOM     22  C   UNL     1       4.660   4.808  -5.590  1.00  0.00     0.029 A 
ATOM     23  C   UNL     1       5.340   6.083  -5.391  1.00  0.00     0.049 A 
ATOM     24  H   UNL     1       5.971   6.918  -3.589  1.00  0.00     0.167 HD
ATOM     25  C   UNL     1       7.078   8.626   0.302  1.00  0.00     0.034 A 
ATOM     26  C   UNL     1       5.671   6.945  -6.371  1.00  0.00     0.034 A 
ATOM     27  C   UNL     1       7.524   9.584  -0.682  1.00  0.00     0.049 A 
ATOM     28  C   UNL     1       6.358   8.231  -6.008  1.00  0.00     0.074 A 
ATOM     29  C   UNL     1       8.209  10.771  -0.485  1.00  0.00     0.029 A 
ATOM     30  N   UNL     1       7.320   9.469  -2.052  1.00  0.00    -0.354 N 
ATOM     31  N   UNL     1       6.685   8.683  -4.820  1.00  0.00    -0.248 NA
ATOM     32  C   UNL     1       6.721   9.121  -7.117  1.00  0.00     0.031 C 
ATOM     33  C   UNL     1       8.372  11.398  -1.727  1.00  0.00     0.029 A 
ATOM     34  C   UNL     1       7.844  10.574  -2.708  1.00  0.00     0.049 A 
ATOM     35  H   UNL     1       6.870   8.713  -2.493  1.00  0.00     0.167 HD
ATOM     36  C   UNL     1       7.307   9.907  -5.040  1.00  0.00     0.074 A 
ATOM     37  C   UNL     1       7.318  10.115  -6.475  1.00  0.00     0.031 C 
ATOM     38  C   UNL     1       7.827  10.776  -4.138  1.00  0.00     0.034 A 
BRANCH  25  39
ATOM     39  C   UNL     1       7.289   8.928   1.767  1.00  0.00     0.023 A 
ATOM     40  C   UNL     1       8.103   8.121   2.580  1.00  0.00     0.031 A 
ATOM     41  C   UNL     1       6.627  10.013   2.369  1.00  0.00     0.131 A 
ATOM     42  C   UNL     1       8.173   8.362   3.962  1.00  0.00     0.055 A 
ATOM     43  C   UNL     1       6.762  10.294   3.731  1.00  0.00     0.041 A 
ATOM     44  F   UNL     1       5.821  10.808   1.648  1.00  0.00    -0.206 F 
ATOM     45  C   UNL     1       7.524   9.456   4.539  1.00  0.00     0.022 A 
BRANCH  42  46
ATOM     46  S   UNL     1       8.994   7.134   5.015  1.00  0.00     0.124 S 
ATOM     47  O   UNL     1       8.268   5.913   4.673  1.00  0.00    -0.237 OA
ATOM     48  O   UNL     1      10.377   7.202   4.559  1.00  0.00    -0.237 OA
ATOM     49  O   UNL     1       8.757   7.629   6.369  1.00  0.00    -0.744 OA
ENDBRANCH  42  46
ENDBRANCH  25  39
BRANCH  26  50
ATOM     50  C   UNL     1       5.317   6.629  -7.780  1.00  0.00     0.023 A 
ATOM     51  C   UNL     1       6.304   6.315  -8.725  1.00  0.00     0.031 A 
ATOM     52  C   UNL     1       3.973   6.624  -8.194  1.00  0.00     0.131 A 
ATOM     53  C   UNL     1       5.933   6.028 -10.047  1.00  0.00     0.055 A 
ATOM     54  C   UNL     1       3.606   6.301  -9.500  1.00  0.00     0.041 A 
ATOM     55  F   UNL     1       2.993   6.907  -7.320  1.00  0.00    -0.206 F 
ATOM     56  C   UNL     1       4.591   6.007 -10.438  1.00  0.00     0.022 A 
BRANCH  53  57
ATOM     57  S   UNL     1       7.237   5.710 -11.267  1.00  0.00     0.124 S 
ATOM     58  O   UNL     1       7.967   6.973 -11.258  1.00  0.00    -0.237 OA
ATOM     59  O   UNL     1       7.928   4.566 -10.682  1.00  0.00    -0.237 OA
ATOM     60  O   UNL     1       6.495   5.426 -12.493  1.00  0.00    -0.744 OA
ENDBRANCH  53  57
ENDBRANCH  26  50
BRANCH  38  61
ATOM     61  C   UNL     1       8.483  12.013  -4.692  1.00  0.00     0.023 A 
ATOM     62  C   UNL     1       7.731  13.051  -5.268  1.00  0.00     0.031 A 
ATOM     63  C   UNL     1       9.883  12.143  -4.658  1.00  0.00     0.131 A 
ATOM     64  C   UNL     1       8.387  14.157  -5.829  1.00  0.00     0.055 A 
ATOM     65  C   UNL     1      10.527  13.266  -5.177  1.00  0.00     0.041 A 
ATOM     66  F   UNL     1      10.644  11.177  -4.120  1.00  0.00    -0.206 F 
ATOM     67  C   UNL     1       9.779  14.276  -5.776  1.00  0.00     0.022 A 
BRANCH  64  68
ATOM     68  S   UNL     1       7.402  15.412  -6.692  1.00  0.00     0.124 S 
ATOM     69  O   UNL     1       6.792  14.633  -7.765  1.00  0.00    -0.237 OA
ATOM     70  O   UNL     1       6.497  15.874  -5.644  1.00  0.00    -0.237 OA
ATOM     71  O   UNL     1       8.397  16.391  -7.125  1.00  0.00    -0.744 OA
ENDBRANCH  64  68
ENDBRANCH  38  61
ENDBRANCH  12  13
ENDBRANCH   5   7
ENDBRANCH   2   3
ENDBRANCH   1   2
BRANCH   1  72
ATOM     72  C   UNL     1       4.511  -2.398   2.792  1.00  0.00     0.118 C 
BRANCH  72  73
ATOM     73  N   UNL     1       4.778  -3.672   2.137  1.00  0.00    -0.352 N 
ATOM     74  C   UNL     1       5.407  -4.807   2.579  1.00  0.00     0.252 C 
ATOM     75  H   UNL     1       4.447  -3.728   1.212  1.00  0.00     0.163 HD
ATOM     76  O   UNL     1       5.490  -5.779   1.834  1.00  0.00    -0.269 OA
BRANCH  74  77
ATOM     77  C   UNL     1       5.926  -4.904   3.957  1.00  0.00     0.061 A 
ATOM     78  C   UNL     1       5.069  -4.569   5.016  1.00  0.00     0.037 A 
ATOM     79  C   UNL     1       7.216  -5.394   4.221  1.00  0.00     0.072 A 
ATOM     80  C   UNL     1       5.512  -4.655   6.336  1.00  0.00     0.090 A 
ATOM     81  C   UNL     1       7.605  -5.577   5.556  1.00  0.00     0.061 A 
ATOM     82  Cl  UNL     1       8.340  -5.715   2.940  1.00  0.00    -0.082 Cl
ATOM     83  C   UNL     1       6.750  -5.227   6.608  1.00  0.00     0.044 A 
ATOM     84  Cl  UNL     1       9.160  -6.199   6.002  1.00  0.00    -0.083 Cl
BRANCH  80  85
ATOM     85  S   UNL     1       4.491  -3.866   7.562  1.00  0.00     0.261 S 
ATOM     86  O   UNL     1       4.539  -2.451   7.277  1.00  0.00    -0.201 OA
ATOM     87  O   UNL     1       3.238  -4.593   7.560  1.00  0.00    -0.201 OA
BRANCH  85  88
ATOM     88  N   UNL     1       5.159  -4.150   9.063  1.00  0.00    -0.280 N 
ATOM     89  H   UNL     1       4.584  -4.590   9.730  1.00  0.00     0.180 HD
BRANCH  88  90
ATOM     90  C   UNL     1       6.478  -3.818   9.471  1.00  0.00     0.052 A 
ATOM     91  C   UNL     1       7.253  -2.813   8.881  1.00  0.00     0.030 A 
ATOM     92  C   UNL     1       7.037  -4.628  10.464  1.00  0.00     0.069 A 
ATOM     93  C   UNL     1       8.608  -2.689   9.212  1.00  0.00     0.044 A 
ATOM     94  C   UNL     1       8.382  -4.493  10.790  1.00  0.00     0.160 A 
ATOM     95  C   UNL     1       9.169  -3.543  10.155  1.00  0.00     0.158 A 
ATOM     96  F   UNL     1       8.917  -5.321  11.698  1.00  0.00    -0.204 F 
ATOM     97  F   UNL     1      10.475  -3.454  10.437  1.00  0.00    -0.204 F 
ENDBRANCH  88  90
ENDBRANCH  85  88
ENDBRANCH  80  85
ENDBRANCH  74  77
ENDBRANCH  72  73
ENDBRANCH   1  72
TORSDOF 16
