REMARK SMILES C[N@H+]1CCCN(c2nc3ccccc3c(=O)n2CC(=O)NCCCNC(=O)c2ccc(-c3c4nc(c(-c5cc(S(=O)(=O)[O-])ccc5F)c5ccc([nH]5)c(-c5cc(S(=O)(=O)[O-])ccc5F)c5nc(c(-c6cc(S(=O)(=O)[O-])ccc6F)c6ccc3[nH]6)C=C5)C=C4)cc2)CC1
REMARK SMILES IDX 19 1 20 2 21 3 18 5 17 6 7 7 8 8 9 9 15 10 10 11 14 12 16 13
REMARK SMILES IDX 11 14 13 15 12 16 6 17 91 18 92 19 2 20 1 21 3 23 5 25 4 26
REMARK SMILES IDX 22 28 23 29 24 30 25 31 26 32 27 34 28 35 29 36 90 37 30 38
REMARK SMILES IDX 89 39 31 40 32 41 33 42 83 43 34 44 88 45 82 46 84 47 35 48
REMARK SMILES IDX 87 49 81 50 80 51 36 53 68 54 48 55 67 56 49 57 52 58 66 59
REMARK SMILES IDX 85 60 50 61 51 62 65 64 86 65 53 66 37 67 38 68 46 69 39 70
REMARK SMILES IDX 45 71 47 72 44 73 40 74 41 75 42 76 43 77 69 78 70 79 78 80
REMARK SMILES IDX 71 81 77 82 79 83 76 84 72 85 73 86 74 87 75 88 54 89 55 90
REMARK SMILES IDX 63 91 56 92 62 93 64 94 61 95 57 96 58 97 59 98 60 99
REMARK H PARENT 21 4 2 22 25 33 84 52 52 63
REMARK Flexibility Score: 80.00
ROOT
ATOM      1  C   UNL     1      -2.707  -6.369   1.737  1.00  0.00     0.240 C 
ATOM      2  O   UNL     1      -3.379  -6.680   2.725  1.00  0.00    -0.273 OA
ATOM      3  N   UNL     1      -3.365  -6.280   0.543  1.00  0.00    -0.354 N 
ATOM      4  H   UNL     1      -4.234  -6.741   0.494  1.00  0.00     0.163 HD
ENDROOT
BRANCH   1   5
ATOM      5  C   UNL     1      -1.246  -5.911   1.879  1.00  0.00     0.229 C 
BRANCH   5   6
ATOM      6  N   UNL     1      -0.303  -6.582   0.983  1.00  0.00    -0.269 N 
ATOM      7  C   UNL     1       0.451  -5.927   0.012  1.00  0.00     0.209 A 
ATOM      8  N   UNL     1       1.213  -6.585  -0.817  1.00  0.00    -0.214 NA
ATOM      9  C   UNL     1       1.292  -7.978  -0.744  1.00  0.00     0.080 A 
ATOM     10  C   UNL     1      -0.161  -7.953   1.213  1.00  0.00     0.263 A 
ATOM     11  C   UNL     1       2.046  -8.668  -1.697  1.00  0.00     0.029 A 
ATOM     12  C   UNL     1       0.639  -8.706   0.241  1.00  0.00     0.066 A 
ATOM     13  O   UNL     1      -0.671  -8.547   2.160  1.00  0.00    -0.268 OA
ATOM     14  C   UNL     1       2.128 -10.064  -1.669  1.00  0.00     0.002 A 
ATOM     15  C   UNL     1       0.713 -10.104   0.283  1.00  0.00     0.016 A 
ATOM     16  C   UNL     1       1.458 -10.783  -0.680  1.00  0.00     0.001 A 
BRANCH   7  17
ATOM     17  N   UNL     1       0.403  -4.545  -0.129  1.00  0.00    -0.336 N 
BRANCH  17  18
ATOM     18  C   UNL     1       1.013  -3.693   0.910  1.00  0.00     0.181 C 
BRANCH  18  19
ATOM     19  C   UNL     1       1.617  -2.347   0.447  1.00  0.00     0.283 C 
BRANCH  19  20
ATOM     20  N   UNL     1       0.618  -1.323   0.073  1.00  0.00    -0.336 N 
ATOM     21  C   UNL     1       1.198   0.019   0.205  1.00  0.00     0.332 C 
ATOM     22  H   UNL     1      -0.172  -1.439   0.707  1.00  0.00     0.347 HD
BRANCH  20  23
ATOM     23  C   UNL     1       0.128  -1.490  -1.303  1.00  0.00     0.263 CG0
ATOM     24  G   UNL     1      -0.597  -2.803  -1.561  1.00  0.00     0.000 G0
ENDBRANCH  20  23
ENDBRANCH  19  20
ENDBRANCH  18  19
ENDBRANCH  17  18
BRANCH  17  25
ATOM     25  C   UNL     1       0.326  -4.011  -1.493  1.00  0.00     0.125 C 
BRANCH  25  26
ATOM     26  C   UNL     1      -0.597  -2.803  -1.561  1.00  0.00     0.083 CG0
ATOM     27  G   UNL     1       0.128  -1.490  -1.303  1.00  0.00     0.000 G0
ENDBRANCH  25  26
ENDBRANCH  17  25
ENDBRANCH   7  17
ENDBRANCH   5   6
ENDBRANCH   1   5
BRANCH   3  28
ATOM     28  C   UNL     1      -2.945  -5.596  -0.658  1.00  0.00     0.117 C 
BRANCH  28  29
ATOM     29  C   UNL     1      -2.564  -6.543  -1.782  1.00  0.00     0.042 C 
BRANCH  29  30
ATOM     30  C   UNL     1      -3.765  -7.218  -2.426  1.00  0.00     0.118 C 
BRANCH  30  31
ATOM     31  N   UNL     1      -4.593  -6.284  -3.184  1.00  0.00    -0.352 N 
ATOM     32  C   UNL     1      -4.960  -6.313  -4.510  1.00  0.00     0.251 C 
ATOM     33  H   UNL     1      -4.941  -5.519  -2.670  1.00  0.00     0.163 HD
ATOM     34  O   UNL     1      -5.519  -5.340  -5.008  1.00  0.00    -0.269 OA
BRANCH  32  35
ATOM     35  C   UNL     1      -4.644  -7.500  -5.331  1.00  0.00     0.039 A 
ATOM     36  C   UNL     1      -4.834  -8.784  -4.817  1.00  0.00     0.014 A 
ATOM     37  C   UNL     1      -4.120  -7.329  -6.615  1.00  0.00     0.014 A 
ATOM     38  C   UNL     1      -4.321  -9.879  -5.498  1.00  0.00     0.010 A 
ATOM     39  C   UNL     1      -3.697  -8.444  -7.344  1.00  0.00     0.010 A 
ATOM     40  C   UNL     1      -3.745  -9.723  -6.769  1.00  0.00    -0.014 A 
BRANCH  40  41
ATOM     41  C   UNL     1      -3.217 -10.918  -7.477  1.00  0.00     0.031 A 
ATOM     42  C   UNL     1      -1.751 -11.050  -7.783  1.00  0.00     0.074 A 
ATOM     43  C   UNL     1      -4.068 -11.915  -7.787  1.00  0.00     0.049 A 
ATOM     44  N   UNL     1      -1.121 -12.036  -8.366  1.00  0.00    -0.248 NA
ATOM     45  C   UNL     1      -0.876  -9.934  -7.387  1.00  0.00     0.031 C 
ATOM     46  C   UNL     1      -5.507 -11.893  -7.520  1.00  0.00     0.029 A 
ATOM     47  N   UNL     1      -3.856 -13.143  -8.361  1.00  0.00    -0.354 N 
ATOM     48  C   UNL     1       0.216 -11.656  -8.425  1.00  0.00     0.074 A 
ATOM     49  C   UNL     1       0.303 -10.335  -7.845  1.00  0.00     0.031 C 
ATOM     50  C   UNL     1      -6.036 -13.072  -7.868  1.00  0.00     0.029 A 
ATOM     51  C   UNL     1      -4.996 -13.906  -8.463  1.00  0.00     0.049 A 
ATOM     52  H   UNL     1      -2.973 -13.448  -8.671  1.00  0.00     0.167 HD
ATOM     53  C   UNL     1       1.270 -12.357  -8.905  1.00  0.00     0.034 A 
ATOM     54  C   UNL     1      -5.192 -15.132  -8.991  1.00  0.00     0.034 A 
ATOM     55  C   UNL     1       1.166 -13.686  -9.452  1.00  0.00     0.049 A 
ATOM     56  C   UNL     1      -4.011 -15.868  -9.561  1.00  0.00     0.074 A 
ATOM     57  C   UNL     1       2.183 -14.496  -9.924  1.00  0.00     0.029 A 
ATOM     58  N   UNL     1      -0.015 -14.400  -9.599  1.00  0.00    -0.354 N 
ATOM     59  N   UNL     1      -2.748 -15.509  -9.575  1.00  0.00    -0.248 NA
ATOM     60  C   UNL     1      -4.273 -17.165 -10.199  1.00  0.00     0.031 C 
ATOM     61  C   UNL     1       1.613 -15.673 -10.410  1.00  0.00     0.029 A 
ATOM     62  C   UNL     1       0.246 -15.627 -10.187  1.00  0.00     0.049 A 
ATOM     63  H   UNL     1      -0.906 -14.082  -9.326  1.00  0.00     0.167 HD
ATOM     64  C   UNL     1      -2.065 -16.535 -10.218  1.00  0.00     0.074 A 
ATOM     65  C   UNL     1      -3.050 -17.545 -10.550  1.00  0.00     0.031 C 
ATOM     66  C   UNL     1      -0.745 -16.626 -10.515  1.00  0.00     0.034 A 
BRANCH  53  67
ATOM     67  C   UNL     1       2.641 -11.730  -8.860  1.00  0.00     0.023 A 
ATOM     68  C   UNL     1       3.324 -11.446 -10.058  1.00  0.00     0.031 A 
ATOM     69  C   UNL     1       3.322 -11.541  -7.644  1.00  0.00     0.131 A 
ATOM     70  C   UNL     1       4.657 -11.019 -10.015  1.00  0.00     0.055 A 
ATOM     71  C   UNL     1       4.640 -11.083  -7.606  1.00  0.00     0.041 A 
ATOM     72  F   UNL     1       2.714 -11.797  -6.474  1.00  0.00    -0.206 F 
ATOM     73  C   UNL     1       5.317 -10.832  -8.796  1.00  0.00     0.022 A 
BRANCH  70  74
ATOM     74  S   UNL     1       5.607 -10.745 -11.536  1.00  0.00     0.124 S 
ATOM     75  O   UNL     1       5.984  -9.339 -11.403  1.00  0.00    -0.237 OA
ATOM     76  O   UNL     1       6.701 -11.700 -11.389  1.00  0.00    -0.237 OA
ATOM     77  O   UNL     1       4.654 -11.033 -12.602  1.00  0.00    -0.744 OA
ENDBRANCH  70  74
ENDBRANCH  53  67
BRANCH  54  78
ATOM     78  C   UNL     1      -6.563 -15.720  -8.962  1.00  0.00     0.023 A 
ATOM     79  C   UNL     1      -7.638 -15.074  -9.602  1.00  0.00     0.031 A 
ATOM     80  C   UNL     1      -6.844 -16.853  -8.182  1.00  0.00     0.131 A 
ATOM     81  C   UNL     1      -8.949 -15.509  -9.375  1.00  0.00     0.055 A 
ATOM     82  C   UNL     1      -8.147 -17.330  -8.022  1.00  0.00     0.041 A 
ATOM     83  F   UNL     1      -5.855 -17.498  -7.545  1.00  0.00    -0.206 F 
ATOM     84  C   UNL     1      -9.210 -16.643  -8.601  1.00  0.00     0.022 A 
BRANCH  81  85
ATOM     85  S   UNL     1     -10.364 -14.521  -9.940  1.00  0.00     0.124 S 
ATOM     86  O   UNL     1     -11.020 -15.435 -10.869  1.00  0.00    -0.237 OA
ATOM     87  O   UNL     1     -11.075 -14.273  -8.688  1.00  0.00    -0.237 OA
ATOM     88  O   UNL     1      -9.743 -13.345 -10.541  1.00  0.00    -0.744 OA
ENDBRANCH  81  85
ENDBRANCH  54  78
BRANCH  66  89
ATOM     89  C   UNL     1      -0.258 -17.843 -11.259  1.00  0.00     0.023 A 
ATOM     90  C   UNL     1       0.648 -18.730 -10.647  1.00  0.00     0.031 A 
ATOM     91  C   UNL     1      -0.558 -18.026 -12.620  1.00  0.00     0.131 A 
ATOM     92  C   UNL     1       1.263 -19.730 -11.410  1.00  0.00     0.055 A 
ATOM     93  C   UNL     1       0.023 -19.053 -13.364  1.00  0.00     0.041 A 
ATOM     94  F   UNL     1      -1.411 -17.200 -13.246  1.00  0.00    -0.206 F 
ATOM     95  C   UNL     1       0.950 -19.901 -12.763  1.00  0.00     0.022 A 
BRANCH  92  96
ATOM     96  S   UNL     1       2.553 -20.789 -10.699  1.00  0.00     0.124 S 
ATOM     97  O   UNL     1       2.001 -22.125 -10.914  1.00  0.00    -0.237 OA
ATOM     98  O   UNL     1       3.712 -20.453 -11.520  1.00  0.00    -0.237 OA
ATOM     99  O   UNL     1       2.626 -20.366  -9.305  1.00  0.00    -0.744 OA
ENDBRANCH  92  96
ENDBRANCH  66  89
ENDBRANCH  40  41
ENDBRANCH  32  35
ENDBRANCH  30  31
ENDBRANCH  29  30
ENDBRANCH  28  29
ENDBRANCH   3  28
TORSDOF 15
