REMARK SMILES C[C@H]1SCCC[C@@]1(C(=O)NCCCNC(=O)c1ccc(-c2c3nc(c(-c4cc(S(=O)(=O)[O-])ccc4F)c4ccc([nH]4)c(-c4cc(S(=O)(=O)[O-])ccc4F)c4nc(c(-c5cc(S(=O)(=O)[O-])ccc5F)c5ccc2[nH]5)C=C4)C=C3)cc1)[NH+]1CCCC1
REMARK SMILES IDX 13 1 12 2 11 3 10 4 8 5 9 6 7 8 1 9 2 10 3 11 4 12 6 13 5 14
REMARK SMILES IDX 80 15 81 16 84 17 82 19 83 20 14 21 15 22 16 24 17 25 18 26
REMARK SMILES IDX 79 27 19 28 78 29 20 30 21 31 22 32 72 33 23 34 77 35 71 36
REMARK SMILES IDX 73 37 24 38 76 39 70 40 69 41 25 43 57 44 37 45 56 46 38 47
REMARK SMILES IDX 41 48 55 49 74 50 39 51 40 52 54 54 75 55 42 56 26 57 27 58
REMARK SMILES IDX 35 59 28 60 34 61 36 62 33 63 29 64 30 65 31 66 32 67 58 68
REMARK SMILES IDX 59 69 67 70 60 71 66 72 68 73 65 74 61 75 62 76 63 77 64 78
REMARK SMILES IDX 43 79 44 80 52 81 45 82 51 83 53 84 50 85 46 86 47 87 48 88
REMARK SMILES IDX 49 89
REMARK H PARENT 10 7 80 18 14 23 73 42 41 53
REMARK Flexibility Score: inf
ROOT
ATOM      1  C   UNL     1      -5.002   3.783   0.812  1.00  0.00     0.118 C 
ENDROOT
BRANCH   1   2
ATOM      2  C   UNL     1      -3.764   4.327   0.104  1.00  0.00     0.042 C 
BRANCH   2   3
ATOM      3  C   UNL     1      -2.436   3.740   0.595  1.00  0.00     0.118 C 
BRANCH   3   4
ATOM      4  N   UNL     1      -2.329   2.305   0.380  1.00  0.00    -0.351 N 
ATOM      5  C   UNL     1      -1.511   1.465  -0.311  1.00  0.00     0.282 C 
ATOM      6  O   UNL     1      -1.811   0.276  -0.124  1.00  0.00    -0.268 OA
ATOM      7  H   UNL     1      -3.034   1.812   0.859  1.00  0.00     0.163 HD
BRANCH   5   8
ATOM      8  C   UNL     1      -0.259   1.884  -1.226  1.00  0.00     0.188 C 
ATOM      9  C   UNL     1      -0.173  -0.492  -2.390  1.00  0.00     0.027 C 
ATOM     10  C   UNL     1       0.518   0.496  -1.425  1.00  0.00     0.115 C 
ATOM     11  S   UNL     1       2.276   0.580  -1.980  1.00  0.00    -0.152 SA
ATOM     12  C   UNL     1       2.909   1.712  -0.735  1.00  0.00     0.070 C 
ATOM     13  C   UNL     1       0.627   2.845  -0.377  1.00  0.00     0.081 C 
ATOM     14  C   UNL     1       2.117   3.003  -0.689  1.00  0.00     0.018 C 
BRANCH   8  15
ATOM     15  N   UNL     1      -0.692   2.335  -2.587  1.00  0.00    -0.321 N 
ATOM     16  C   UNL     1       0.254   3.058  -3.436  1.00  0.00     0.263 C 
ATOM     17  C   UNL     1      -1.938   3.065  -2.771  1.00  0.00     0.263 C 
ATOM     18  H   UNL     1      -0.805   1.361  -2.869  1.00  0.00     0.349 HD
ATOM     19  C   UNL     1      -0.087   4.529  -3.259  1.00  0.00     0.067 C 
ATOM     20  C   UNL     1      -1.555   4.535  -2.859  1.00  0.00     0.067 C 
ENDBRANCH   8  15
ENDBRANCH   5   8
ENDBRANCH   3   4
ENDBRANCH   2   3
ENDBRANCH   1   2
BRANCH   1  21
ATOM     21  N   UNL     1      -5.269   4.481   2.060  1.00  0.00    -0.352 N 
ATOM     22  C   UNL     1      -6.137   5.514   2.319  1.00  0.00     0.251 C 
ATOM     23  H   UNL     1      -4.750   4.166   2.835  1.00  0.00     0.163 HD
ATOM     24  O   UNL     1      -6.027   6.131   3.384  1.00  0.00    -0.269 OA
BRANCH  22  25
ATOM     25  C   UNL     1      -7.171   5.917   1.337  1.00  0.00     0.039 A 
ATOM     26  C   UNL     1      -7.390   7.279   1.104  1.00  0.00     0.014 A 
ATOM     27  C   UNL     1      -7.955   4.970   0.672  1.00  0.00     0.014 A 
ATOM     28  C   UNL     1      -8.329   7.684   0.149  1.00  0.00     0.010 A 
ATOM     29  C   UNL     1      -8.841   5.373  -0.330  1.00  0.00     0.010 A 
ATOM     30  C   UNL     1      -9.031   6.735  -0.611  1.00  0.00    -0.014 A 
BRANCH  30  31
ATOM     31  C   UNL     1      -9.943   7.141  -1.718  1.00  0.00     0.031 A 
ATOM     32  C   UNL     1     -11.414   6.824  -1.651  1.00  0.00     0.074 A 
ATOM     33  C   UNL     1      -9.433   7.731  -2.818  1.00  0.00     0.049 A 
ATOM     34  N   UNL     1     -12.338   6.987  -2.563  1.00  0.00    -0.248 NA
ATOM     35  C   UNL     1     -11.904   6.225  -0.400  1.00  0.00     0.031 C 
ATOM     36  C   UNL     1      -8.023   8.073  -3.016  1.00  0.00     0.029 A 
ATOM     37  N   UNL     1     -10.035   8.135  -3.985  1.00  0.00    -0.354 N 
ATOM     38  C   UNL     1     -13.517   6.505  -2.003  1.00  0.00     0.074 A 
ATOM     39  C   UNL     1     -13.177   5.997  -0.690  1.00  0.00     0.031 C 
ATOM     40  C   UNL     1      -7.872   8.645  -4.222  1.00  0.00     0.029 A 
ATOM     41  C   UNL     1      -9.159   8.661  -4.908  1.00  0.00     0.049 A 
ATOM     42  H   UNL     1     -11.003   8.056  -4.146  1.00  0.00     0.167 HD
ATOM     43  C   UNL     1     -14.769   6.504  -2.527  1.00  0.00     0.034 A 
ATOM     44  C   UNL     1      -9.361   9.081  -6.174  1.00  0.00     0.034 A 
ATOM     45  C   UNL     1     -15.098   7.023  -3.833  1.00  0.00     0.049 A 
ATOM     46  C   UNL     1     -10.750   9.007  -6.756  1.00  0.00     0.074 A 
ATOM     47  C   UNL     1     -16.343   7.122  -4.431  1.00  0.00     0.029 A 
ATOM     48  N   UNL     1     -14.180   7.520  -4.747  1.00  0.00    -0.354 N 
ATOM     49  N   UNL     1     -11.860   8.586  -6.194  1.00  0.00    -0.248 NA
ATOM     50  C   UNL     1     -10.914   9.463  -8.143  1.00  0.00     0.031 C 
ATOM     51  C   UNL     1     -16.169   7.617  -5.729  1.00  0.00     0.029 A 
ATOM     52  C   UNL     1     -14.825   7.890  -5.918  1.00  0.00     0.049 A 
ATOM     53  H   UNL     1     -13.211   7.599  -4.588  1.00  0.00     0.167 HD
ATOM     54  C   UNL     1     -12.854   8.747  -7.154  1.00  0.00     0.074 A 
ATOM     55  C   UNL     1     -12.219   9.324  -8.320  1.00  0.00     0.031 C 
ATOM     56  C   UNL     1     -14.175   8.445  -7.080  1.00  0.00     0.034 A 
BRANCH  43  57
ATOM     57  C   UNL     1     -15.875   5.903  -1.694  1.00  0.00     0.023 A 
ATOM     58  C   UNL     1     -16.279   6.483  -0.479  1.00  0.00     0.031 A 
ATOM     59  C   UNL     1     -16.539   4.740  -2.123  1.00  0.00     0.131 A 
ATOM     60  C   UNL     1     -17.275   5.867   0.294  1.00  0.00     0.055 A 
ATOM     61  C   UNL     1     -17.579   4.172  -1.384  1.00  0.00     0.041 A 
ATOM     62  F   UNL     1     -16.185   4.134  -3.267  1.00  0.00    -0.206 F 
ATOM     63  C   UNL     1     -17.945   4.729  -0.162  1.00  0.00     0.022 A 
BRANCH  60  64
ATOM     64  S   UNL     1     -17.605   6.511   1.956  1.00  0.00     0.124 S 
ATOM     65  O   UNL     1     -16.306   6.338   2.602  1.00  0.00    -0.237 OA
ATOM     66  O   UNL     1     -18.007   7.887   1.688  1.00  0.00    -0.237 OA
ATOM     67  O   UNL     1     -18.664   5.638   2.458  1.00  0.00    -0.744 OA
ENDBRANCH  60  64
ENDBRANCH  43  57
BRANCH  44  68
ATOM     68  C   UNL     1      -8.222   9.571  -7.004  1.00  0.00     0.023 A 
ATOM     69  C   UNL     1      -8.191  10.892  -7.479  1.00  0.00     0.031 A 
ATOM     70  C   UNL     1      -7.181   8.707  -7.392  1.00  0.00     0.131 A 
ATOM     71  C   UNL     1      -7.173  11.297  -8.356  1.00  0.00     0.055 A 
ATOM     72  C   UNL     1      -6.139   9.131  -8.218  1.00  0.00     0.041 A 
ATOM     73  F   UNL     1      -7.160   7.434  -6.966  1.00  0.00    -0.206 F 
ATOM     74  C   UNL     1      -6.140  10.429  -8.719  1.00  0.00     0.022 A 
BRANCH  71  75
ATOM     75  S   UNL     1      -7.276  12.947  -9.101  1.00  0.00     0.124 S 
ATOM     76  O   UNL     1      -8.587  12.905  -9.738  1.00  0.00    -0.237 OA
ATOM     77  O   UNL     1      -7.157  13.813  -7.932  1.00  0.00    -0.237 OA
ATOM     78  O   UNL     1      -6.137  12.979 -10.016  1.00  0.00    -0.744 OA
ENDBRANCH  71  75
ENDBRANCH  44  68
BRANCH  56  79
ATOM     79  C   UNL     1     -15.016   8.759  -8.292  1.00  0.00     0.023 A 
ATOM     80  C   UNL     1     -14.864   8.047  -9.495  1.00  0.00     0.031 A 
ATOM     81  C   UNL     1     -15.973   9.787  -8.246  1.00  0.00     0.131 A 
ATOM     82  C   UNL     1     -15.621   8.406 -10.619  1.00  0.00     0.055 A 
ATOM     83  C   UNL     1     -16.764  10.104  -9.352  1.00  0.00     0.041 A 
ATOM     84  F   UNL     1     -16.158  10.500  -7.123  1.00  0.00    -0.206 F 
ATOM     85  C   UNL     1     -16.582   9.419 -10.551  1.00  0.00     0.022 A 
BRANCH  82  86
ATOM     86  S   UNL     1     -15.284   7.579 -12.198  1.00  0.00     0.124 S 
ATOM     87  O   UNL     1     -13.894   7.948 -12.442  1.00  0.00    -0.237 OA
ATOM     88  O   UNL     1     -15.524   6.176 -11.874  1.00  0.00    -0.237 OA
ATOM     89  O   UNL     1     -16.255   8.177 -13.113  1.00  0.00    -0.744 OA
ENDBRANCH  82  86
ENDBRANCH  56  79
ENDBRANCH  30  31
ENDBRANCH  22  25
ENDBRANCH   1  21
TORSDOF 14
