REMARK SMILES Cc1nn([C@H]2CCS(=O)(=O)C2)c(C)c1/C=C(\CC(=O)NCCCNC(=O)c1ccc(-c2c3nc(c(-c4cc(S(=O)(=O)[O-])ccc4F)c4ccc([nH]4)c(-c4cc(S(=O)(=O)[O-])ccc4F)c4nc(c(-c5cc(S(=O)(=O)[O-])ccc5F)c5ccc2[nH]5)C=C4)C=C3)cc1)c1nc2ccccc2s1
REMARK SMILES IDX 22 1 21 2 20 3 18 4 19 5 17 7 16 8 15 9 14 10 1 11 2 12 3 13
REMARK SMILES IDX 4 14 12 15 13 16 5 17 6 18 11 19 7 20 8 21 9 22 10 23 90 24
REMARK SMILES IDX 91 25 98 26 92 27 97 28 93 29 96 30 94 31 95 32 23 33 24 34
REMARK SMILES IDX 25 35 26 37 27 38 28 39 89 40 29 41 88 42 30 43 31 44 32 45
REMARK SMILES IDX 82 46 33 47 87 48 81 49 83 50 34 51 86 52 80 53 79 54 35 56
REMARK SMILES IDX 67 57 47 58 66 59 48 60 51 61 65 62 84 63 49 64 50 65 64 67
REMARK SMILES IDX 85 68 52 69 36 70 37 71 45 72 38 73 44 74 46 75 43 76 39 77
REMARK SMILES IDX 40 78 41 79 42 80 68 81 69 82 77 83 70 84 76 85 78 86 75 87
REMARK SMILES IDX 71 88 72 89 73 90 74 91 53 92 54 93 62 94 55 95 61 96 63 97
REMARK SMILES IDX 60 98 56 99 57 100 58 101 59 102
REMARK H PARENT 20 6 24 36 83 55 51 66
REMARK Flexibility Score: inf
ROOT
ATOM      1  C   UNL     1      -4.808   5.317   6.970  1.00  0.00     0.042 C 
ENDROOT
BRANCH   1   2
ATOM      2  C   UNL     1      -3.544   6.027   6.480  1.00  0.00     0.117 C 
BRANCH   2   3
ATOM      3  N   UNL     1      -2.779   6.607   7.569  1.00  0.00    -0.356 N 
ATOM      4  C   UNL     1      -1.795   6.033   8.324  1.00  0.00     0.224 C 
ATOM      5  O   UNL     1      -1.323   6.657   9.273  1.00  0.00    -0.275 OA
ATOM      6  H   UNL     1      -2.999   7.540   7.794  1.00  0.00     0.163 HD
BRANCH   4   7
ATOM      7  C   UNL     1      -1.205   4.701   7.885  1.00  0.00     0.138 C 
BRANCH   7   8
ATOM      8  C   UNL     1      -2.030   3.457   8.172  1.00  0.00    -0.002 C 
ATOM      9  C   UNL     1      -2.443   2.572   7.229  1.00  0.00     0.019 C 
BRANCH   9  10
ATOM     10  C   UNL     1      -2.277   2.685   5.808  1.00  0.00     0.019 A 
ATOM     11  C   UNL     1      -4.530   1.661   4.952  1.00  0.00     0.069 C 
ATOM     12  C   UNL     1      -3.237   2.377   4.809  1.00  0.00     0.067 A 
ATOM     13  N   UNL     1      -2.844   2.824   3.609  1.00  0.00    -0.177 NA
ATOM     14  N   UNL     1      -1.643   3.391   3.841  1.00  0.00    -0.265 N 
ATOM     15  C   UNL     1      -1.152   3.054   5.085  1.00  0.00     0.043 A 
ATOM     16  C   UNL     1       0.284   3.117   5.468  1.00  0.00     0.067 C 
BRANCH  14  17
ATOM     17  C   UNL     1      -1.045   4.206   2.788  1.00  0.00     0.123 C 
ATOM     18  C   UNL     1      -2.091   5.003   1.966  1.00  0.00     0.044 C 
ATOM     19  C   UNL     1      -0.084   5.285   3.284  1.00  0.00     0.164 C 
ATOM     20  C   UNL     1      -1.330   5.939   1.034  1.00  0.00     0.139 C 
ATOM     21  S   UNL     1       0.189   6.323   1.875  1.00  0.00     0.152 S 
ATOM     22  O   UNL     1       1.284   5.767   1.120  1.00  0.00    -0.229 OA
ATOM     23  O   UNL     1       0.166   7.710   2.308  1.00  0.00    -0.229 OA
ENDBRANCH  14  17
ENDBRANCH   9  10
BRANCH   8  24
ATOM     24  C   UNL     1      -2.423   3.224   9.535  1.00  0.00     0.121 A 
ATOM     25  N   UNL     1      -3.227   4.012  10.216  1.00  0.00    -0.236 NA
ATOM     26  S   UNL     1      -1.643   2.012  10.485  1.00  0.00    -0.114 S 
ATOM     27  C   UNL     1      -2.965   3.895  11.570  1.00  0.00     0.082 A 
ATOM     28  C   UNL     1      -2.099   2.857  11.917  1.00  0.00     0.055 A 
ATOM     29  C   UNL     1      -3.436   4.755  12.582  1.00  0.00     0.030 A 
ATOM     30  C   UNL     1      -1.686   2.644  13.242  1.00  0.00     0.021 A 
ATOM     31  C   UNL     1      -2.982   4.590  13.895  1.00  0.00     0.002 A 
ATOM     32  C   UNL     1      -2.117   3.549  14.218  1.00  0.00     0.002 A 
ENDBRANCH   8  24
ENDBRANCH   7   8
ENDBRANCH   4   7
ENDBRANCH   2   3
ENDBRANCH   1   2
BRANCH   1  33
ATOM     33  C   UNL     1      -5.921   6.289   7.331  1.00  0.00     0.118 C 
BRANCH  33  34
ATOM     34  N   UNL     1      -6.485   6.937   6.143  1.00  0.00    -0.352 N 
ATOM     35  C   UNL     1      -7.272   8.070   6.072  1.00  0.00     0.251 C 
ATOM     36  H   UNL     1      -6.276   6.508   5.282  1.00  0.00     0.163 HD
ATOM     37  O   UNL     1      -7.967   8.284   5.085  1.00  0.00    -0.269 OA
BRANCH  35  38
ATOM     38  C   UNL     1      -7.254   9.006   7.207  1.00  0.00     0.039 A 
ATOM     39  C   UNL     1      -8.428   9.568   7.720  1.00  0.00     0.014 A 
ATOM     40  C   UNL     1      -6.021   9.253   7.801  1.00  0.00     0.014 A 
ATOM     41  C   UNL     1      -8.358  10.312   8.898  1.00  0.00     0.010 A 
ATOM     42  C   UNL     1      -5.983   9.827   9.042  1.00  0.00     0.010 A 
ATOM     43  C   UNL     1      -7.130  10.421   9.564  1.00  0.00    -0.014 A 
BRANCH  43  44
ATOM     44  C   UNL     1      -7.010  11.069  10.868  1.00  0.00     0.031 A 
ATOM     45  C   UNL     1      -7.811  10.457  11.964  1.00  0.00     0.074 A 
ATOM     46  C   UNL     1      -6.007  11.940  11.124  1.00  0.00     0.049 A 
ATOM     47  N   UNL     1      -8.766  10.987  12.653  1.00  0.00    -0.248 NA
ATOM     48  C   UNL     1      -7.610   9.025  12.247  1.00  0.00     0.031 C 
ATOM     49  C   UNL     1      -4.930  12.359  10.216  1.00  0.00     0.029 A 
ATOM     50  N   UNL     1      -5.636  12.508  12.302  1.00  0.00    -0.354 N 
ATOM     51  C   UNL     1      -9.119  10.043  13.617  1.00  0.00     0.074 A 
ATOM     52  C   UNL     1      -8.547   8.803  13.170  1.00  0.00     0.031 C 
ATOM     53  C   UNL     1      -3.910  12.879  10.932  1.00  0.00     0.029 A 
ATOM     54  C   UNL     1      -4.336  13.007  12.313  1.00  0.00     0.049 A 
ATOM     55  H   UNL     1      -6.236  12.563  13.081  1.00  0.00     0.167 HD
ATOM     56  C   UNL     1      -9.637  10.417  14.824  1.00  0.00     0.034 A 
ATOM     57  C   UNL     1      -3.634  13.464  13.382  1.00  0.00     0.034 A 
ATOM     58  C   UNL     1     -10.073  11.799  14.784  1.00  0.00     0.049 A 
ATOM     59  C   UNL     1      -4.628  13.802  14.429  1.00  0.00     0.074 A 
ATOM     60  C   UNL     1     -10.968  12.509  14.007  1.00  0.00     0.029 A 
ATOM     61  N   UNL     1      -9.265  12.750  15.370  1.00  0.00    -0.354 N 
ATOM     62  N   UNL     1      -5.521  14.744  14.288  1.00  0.00    -0.248 NA
ATOM     63  C   UNL     1      -4.960  12.784  15.415  1.00  0.00     0.031 C 
ATOM     64  C   UNL     1     -10.323  13.758  13.758  1.00  0.00     0.029 A 
ATOM     65  C   UNL     1      -9.121  13.777  14.469  1.00  0.00     0.049 A 
ATOM     66  H   UNL     1      -8.866  12.703  16.268  1.00  0.00     0.167 HD
ATOM     67  C   UNL     1      -6.690  14.212  14.811  1.00  0.00     0.074 A 
ATOM     68  C   UNL     1      -6.257  13.056  15.595  1.00  0.00     0.031 C 
ATOM     69  C   UNL     1      -7.916  14.576  14.325  1.00  0.00     0.034 A 
BRANCH  56  70
ATOM     70  C   UNL     1      -9.426   9.688  16.141  1.00  0.00     0.023 A 
ATOM     71  C   UNL     1      -9.980  10.278  17.296  1.00  0.00     0.031 A 
ATOM     72  C   UNL     1      -8.513   8.636  16.383  1.00  0.00     0.131 A 
ATOM     73  C   UNL     1      -9.538   9.922  18.583  1.00  0.00     0.055 A 
ATOM     74  C   UNL     1      -8.127   8.237  17.668  1.00  0.00     0.041 A 
ATOM     75  F   UNL     1      -7.874   7.984  15.407  1.00  0.00    -0.206 F 
ATOM     76  C   UNL     1      -8.610   8.906  18.777  1.00  0.00     0.022 A 
BRANCH  73  77
ATOM     77  S   UNL     1     -10.056  10.947  19.984  1.00  0.00     0.124 S 
ATOM     78  O   UNL     1      -9.724  12.285  19.507  1.00  0.00    -0.237 OA
ATOM     79  O   UNL     1     -11.476  10.628  20.078  1.00  0.00    -0.237 OA
ATOM     80  O   UNL     1      -9.231  10.455  21.085  1.00  0.00    -0.744 OA
ENDBRANCH  73  77
ENDBRANCH  56  70
BRANCH  57  81
ATOM     81  C   UNL     1      -2.173  13.317  13.623  1.00  0.00     0.023 A 
ATOM     82  C   UNL     1      -1.441  14.170  14.474  1.00  0.00     0.031 A 
ATOM     83  C   UNL     1      -1.508  12.157  13.163  1.00  0.00     0.131 A 
ATOM     84  C   UNL     1      -0.106  13.850  14.825  1.00  0.00     0.055 A 
ATOM     85  C   UNL     1      -0.190  11.849  13.507  1.00  0.00     0.041 A 
ATOM     86  F   UNL     1      -2.151  11.238  12.425  1.00  0.00    -0.206 F 
ATOM     87  C   UNL     1       0.516  12.693  14.348  1.00  0.00     0.022 A 
BRANCH  84  88
ATOM     88  S   UNL     1       0.820  14.903  15.990  1.00  0.00     0.124 S 
ATOM     89  O   UNL     1       0.978  16.141  15.235  1.00  0.00    -0.237 OA
ATOM     90  O   UNL     1      -0.073  14.955  17.142  1.00  0.00    -0.237 OA
ATOM     91  O   UNL     1       2.061  14.159  16.213  1.00  0.00    -0.744 OA
ENDBRANCH  84  88
ENDBRANCH  57  81
BRANCH  69  92
ATOM     92  C   UNL     1      -7.996  15.772  13.391  1.00  0.00     0.023 A 
ATOM     93  C   UNL     1      -7.317  15.881  12.154  1.00  0.00     0.031 A 
ATOM     94  C   UNL     1      -8.912  16.787  13.719  1.00  0.00     0.131 A 
ATOM     95  C   UNL     1      -7.562  16.981  11.306  1.00  0.00     0.055 A 
ATOM     96  C   UNL     1      -9.166  17.863  12.869  1.00  0.00     0.041 A 
ATOM     97  F   UNL     1      -9.612  16.728  14.864  1.00  0.00    -0.206 F 
ATOM     98  C   UNL     1      -8.488  17.967  11.661  1.00  0.00     0.022 A 
BRANCH  95  99
ATOM     99  S   UNL     1      -6.669  17.160   9.726  1.00  0.00     0.124 S 
ATOM    100  O   UNL     1      -5.277  16.920  10.088  1.00  0.00    -0.237 OA
ATOM    101  O   UNL     1      -7.298  16.142   8.889  1.00  0.00    -0.237 OA
ATOM    102  O   UNL     1      -6.963  18.538   9.325  1.00  0.00    -0.744 OA
ENDBRANCH  95  99
ENDBRANCH  69  92
ENDBRANCH  43  44
ENDBRANCH  35  38
ENDBRANCH  33  34
ENDBRANCH   1  33
TORSDOF 17
