REMARK SMILES Cc1cccc(C(=O)NCCCNC(=O)c2ccc(-c3c4nc(c(-c5cc(S(=O)(=O)[O-])ccc5F)c5ccc([nH]5)c(-c5cc(S(=O)(=O)[O-])ccc5F)c5nc(c(-c6cc(S(=O)(=O)[O-])ccc6F)c6ccc3[nH]6)C=C5)C=C4)cc2)c1OC[C@@H]1C[C@H]2CC[C@@H]1C2
REMARK SMILES IDX 11 1 10 2 9 3 7 4 8 5 6 7 1 8 2 9 3 10 79 11 4 12 5 13 80 14
REMARK SMILES IDX 81 15 82 16 83 17 87 18 84 19 86 20 88 21 85 22 12 23 13 24
REMARK SMILES IDX 14 25 15 27 16 28 17 29 78 30 18 31 77 32 19 33 20 34 21 35
REMARK SMILES IDX 71 36 22 37 76 38 70 39 72 40 23 41 75 42 69 43 68 44 24 46
REMARK SMILES IDX 56 47 36 48 55 49 37 50 40 51 54 52 73 53 38 54 39 55 53 57
REMARK SMILES IDX 74 58 41 59 25 60 26 61 34 62 27 63 33 64 35 65 32 66 28 67
REMARK SMILES IDX 29 68 30 69 31 70 57 71 58 72 66 73 59 74 65 75 67 76 64 77
REMARK SMILES IDX 60 78 61 79 62 80 63 81 42 82 43 83 51 84 44 85 50 86 52 87
REMARK SMILES IDX 49 88 45 89 46 90 47 91 48 92
REMARK H PARENT 9 6 13 26 72 45 40 56
REMARK Flexibility Score: inf
ROOT
ATOM      1  C   UNL     1       0.952   4.433  -0.654  1.00  0.00     0.042 C 
ENDROOT
BRANCH   1   2
ATOM      2  C   UNL     1       0.323   3.964   0.653  1.00  0.00     0.118 C 
BRANCH   2   3
ATOM      3  N   UNL     1      -1.011   3.467   0.391  1.00  0.00    -0.352 N 
ATOM      4  C   UNL     1      -1.505   2.239   0.069  1.00  0.00     0.255 C 
ATOM      5  O   UNL     1      -2.704   2.205  -0.241  1.00  0.00    -0.269 OA
ATOM      6  H   UNL     1      -1.706   4.161   0.459  1.00  0.00     0.163 HD
BRANCH   4   7
ATOM      7  C   UNL     1      -0.780   0.926   0.108  1.00  0.00     0.082 A 
ATOM      8  C   UNL     1       1.954  -1.232  -1.489  1.00  0.00     0.048 C 
ATOM      9  C   UNL     1       0.821  -0.762  -0.616  1.00  0.00    -0.008 A 
ATOM     10  C   UNL     1      -0.059  -1.775  -0.187  1.00  0.00     0.007 A 
ATOM     11  C   UNL     1       0.514   0.597  -0.360  1.00  0.00     0.134 A 
ATOM     12  C   UNL     1      -1.273  -1.461   0.398  1.00  0.00     0.001 A 
ATOM     13  C   UNL     1      -1.639  -0.127   0.508  1.00  0.00     0.018 A 
BRANCH  11  14
ATOM     14  O   UNL     1       1.397   1.590  -0.667  1.00  0.00    -0.492 OA
BRANCH  14  15
ATOM     15  C   UNL     1       2.740   1.543  -0.131  1.00  0.00     0.233 C 
BRANCH  15  16
ATOM     16  C   UNL     1       2.923   1.122   1.345  1.00  0.00     0.030 C 
ATOM     17  C   UNL     1       3.779   2.140   2.158  1.00  0.00     0.011 C 
ATOM     18  C   UNL     1       3.810  -0.149   1.447  1.00  0.00    -0.004 C 
ATOM     19  C   UNL     1       4.999   1.318   2.614  1.00  0.00    -0.010 C 
ATOM     20  C   UNL     1       3.733  -0.704   2.877  1.00  0.00     0.004 C 
ATOM     21  C   UNL     1       5.231   0.418   1.407  1.00  0.00     0.007 C 
ATOM     22  C   UNL     1       4.558   0.307   3.683  1.00  0.00     0.004 C 
ENDBRANCH  15  16
ENDBRANCH  14  15
ENDBRANCH  11  14
ENDBRANCH   4   7
ENDBRANCH   2   3
ENDBRANCH   1   2
BRANCH   1  23
ATOM     23  C   UNL     1       1.033   5.941  -0.801  1.00  0.00     0.118 C 
BRANCH  23  24
ATOM     24  N   UNL     1       2.390   6.438  -0.546  1.00  0.00    -0.352 N 
ATOM     25  C   UNL     1       2.986   7.601  -0.999  1.00  0.00     0.251 C 
ATOM     26  H   UNL     1       2.953   5.866   0.025  1.00  0.00     0.163 HD
ATOM     27  O   UNL     1       4.145   7.896  -0.759  1.00  0.00    -0.269 OA
BRANCH  25  28
ATOM     28  C   UNL     1       2.100   8.562  -1.684  1.00  0.00     0.039 A 
ATOM     29  C   UNL     1       1.656   9.635  -0.907  1.00  0.00     0.014 A 
ATOM     30  C   UNL     1       1.421   8.152  -2.828  1.00  0.00     0.014 A 
ATOM     31  C   UNL     1       0.383  10.140  -1.130  1.00  0.00     0.010 A 
ATOM     32  C   UNL     1       0.117   8.586  -2.981  1.00  0.00     0.010 A 
ATOM     33  C   UNL     1      -0.424   9.524  -2.087  1.00  0.00    -0.014 A 
BRANCH  33  34
ATOM     34  C   UNL     1      -1.874   9.704  -2.111  1.00  0.00     0.031 A 
ATOM     35  C   UNL     1      -2.506  10.445  -3.219  1.00  0.00     0.074 A 
ATOM     36  C   UNL     1      -2.649   9.209  -1.118  1.00  0.00     0.049 A 
ATOM     37  N   UNL     1      -3.635  11.065  -3.134  1.00  0.00    -0.248 NA
ATOM     38  C   UNL     1      -1.864  10.598  -4.518  1.00  0.00     0.031 C 
ATOM     39  C   UNL     1      -4.107   9.114  -1.098  1.00  0.00     0.029 A 
ATOM     40  N   UNL     1      -2.265   8.934   0.195  1.00  0.00    -0.354 N 
ATOM     41  C   UNL     1      -3.995  11.457  -4.402  1.00  0.00     0.074 A 
ATOM     42  C   UNL     1      -2.833  11.192  -5.217  1.00  0.00     0.031 C 
ATOM     43  C   UNL     1      -4.521   9.077   0.177  1.00  0.00     0.029 A 
ATOM     44  C   UNL     1      -3.356   9.271   1.019  1.00  0.00     0.049 A 
ATOM     45  H   UNL     1      -1.397   8.574   0.489  1.00  0.00     0.167 HD
ATOM     46  C   UNL     1      -5.279  11.844  -4.649  1.00  0.00     0.034 A 
ATOM     47  C   UNL     1      -3.242  10.199   2.013  1.00  0.00     0.034 A 
ATOM     48  C   UNL     1      -6.080  11.878  -3.426  1.00  0.00     0.049 A 
ATOM     49  C   UNL     1      -4.188  11.368   1.860  1.00  0.00     0.074 A 
ATOM     50  C   UNL     1      -6.990  10.994  -2.869  1.00  0.00     0.029 A 
ATOM     51  N   UNL     1      -5.786  12.812  -2.439  1.00  0.00    -0.354 N 
ATOM     52  N   UNL     1      -4.823  11.656   0.757  1.00  0.00    -0.248 NA
ATOM     53  C   UNL     1      -4.478  12.315   2.931  1.00  0.00     0.031 C 
ATOM     54  C   UNL     1      -7.197  11.372  -1.517  1.00  0.00     0.029 A 
ATOM     55  C   UNL     1      -6.441  12.504  -1.262  1.00  0.00     0.049 A 
ATOM     56  H   UNL     1      -5.192  13.588  -2.562  1.00  0.00     0.167 HD
ATOM     57  C   UNL     1      -5.566  12.797   0.935  1.00  0.00     0.074 A 
ATOM     58  C   UNL     1      -5.337  13.153   2.325  1.00  0.00     0.031 C 
ATOM     59  C   UNL     1      -6.293  13.351  -0.084  1.00  0.00     0.034 A 
BRANCH  46  60
ATOM     60  C   UNL     1      -5.873  11.883  -6.040  1.00  0.00     0.023 A 
ATOM     61  C   UNL     1      -7.236  11.568  -6.220  1.00  0.00     0.031 A 
ATOM     62  C   UNL     1      -5.157  12.157  -7.221  1.00  0.00     0.131 A 
ATOM     63  C   UNL     1      -7.790  11.415  -7.505  1.00  0.00     0.055 A 
ATOM     64  C   UNL     1      -5.685  11.933  -8.499  1.00  0.00     0.041 A 
ATOM     65  F   UNL     1      -3.936  12.708  -7.190  1.00  0.00    -0.206 F 
ATOM     66  C   UNL     1      -7.006  11.543  -8.647  1.00  0.00     0.022 A 
BRANCH  63  67
ATOM     67  S   UNL     1      -9.562  11.064  -7.668  1.00  0.00     0.124 S 
ATOM     68  O   UNL     1      -9.704   9.818  -6.922  1.00  0.00    -0.237 OA
ATOM     69  O   UNL     1     -10.167  12.249  -7.070  1.00  0.00    -0.237 OA
ATOM     70  O   UNL     1      -9.752  10.941  -9.113  1.00  0.00    -0.744 OA
ENDBRANCH  63  67
ENDBRANCH  46  60
BRANCH  47  71
ATOM     71  C   UNL     1      -1.885  10.240   2.627  1.00  0.00     0.023 A 
ATOM     72  C   UNL     1      -1.401   9.036   3.185  1.00  0.00     0.031 A 
ATOM     73  C   UNL     1      -0.957  11.243   2.325  1.00  0.00     0.131 A 
ATOM     74  C   UNL     1      -0.023   8.790   3.247  1.00  0.00     0.055 A 
ATOM     75  C   UNL     1       0.420  11.021   2.463  1.00  0.00     0.041 A 
ATOM     76  F   UNL     1      -1.353  12.398   1.771  1.00  0.00    -0.206 F 
ATOM     77  C   UNL     1       0.894   9.774   2.878  1.00  0.00     0.022 A 
BRANCH  74  78
ATOM     78  S   UNL     1       0.561   7.092   3.541  1.00  0.00     0.124 S 
ATOM     79  O   UNL     1       0.998   7.151   4.931  1.00  0.00    -0.237 OA
ATOM     80  O   UNL     1      -0.627   6.282   3.284  1.00  0.00    -0.237 OA
ATOM     81  O   UNL     1       1.621   6.924   2.549  1.00  0.00    -0.744 OA
ENDBRANCH  74  78
ENDBRANCH  47  71
BRANCH  59  82
ATOM     82  C   UNL     1      -7.001  14.694  -0.057  1.00  0.00     0.023 A 
ATOM     83  C   UNL     1      -6.742  15.693   0.893  1.00  0.00     0.031 A 
ATOM     84  C   UNL     1      -7.933  15.044  -1.067  1.00  0.00     0.131 A 
ATOM     85  C   UNL     1      -7.438  16.918   0.876  1.00  0.00     0.055 A 
ATOM     86  C   UNL     1      -8.565  16.290  -1.129  1.00  0.00     0.041 A 
ATOM     87  F   UNL     1      -8.268  14.193  -2.048  1.00  0.00    -0.206 F 
ATOM     88  C   UNL     1      -8.332  17.234  -0.143  1.00  0.00     0.022 A 
BRANCH  85  89
ATOM     89  S   UNL     1      -7.186  18.072   2.251  1.00  0.00     0.124 S 
ATOM     90  O   UNL     1      -7.713  17.310   3.381  1.00  0.00    -0.237 OA
ATOM     91  O   UNL     1      -5.740  18.266   2.239  1.00  0.00    -0.237 OA
ATOM     92  O   UNL     1      -7.974  19.242   1.871  1.00  0.00    -0.744 OA
ENDBRANCH  85  89
ENDBRANCH  59  82
ENDBRANCH  33  34
ENDBRANCH  25  28
ENDBRANCH  23  24
ENDBRANCH   1  23
TORSDOF 16
