REMARK SMILES Cn1ccnc1[C@@H]1[C@@H](C(=O)NCCCNC(=O)c2ccc(-c3c4nc(c(-c5cc(S(=O)(=O)[O-])ccc5F)c5ccc([nH]5)c(-c5cc(S(=O)(=O)[O-])ccc5F)c5nc(c(-c6cc(S(=O)(=O)[O-])ccc6F)c6ccc3[nH]6)C=C5)C=C4)cc2)CC(=O)N1CCCOC1CCCCC1
REMARK SMILES IDX 12 1 11 2 9 3 10 4 8 6 7 7 84 8 81 9 82 10 83 11 6 12 1 13
REMARK SMILES IDX 2 14 3 15 4 16 5 17 85 18 86 19 87 20 88 21 89 22 90 23
REMARK SMILES IDX 94 24 91 25 93 26 92 27 13 28 14 29 15 30 16 31 17 33 18 34
REMARK SMILES IDX 19 35 80 36 20 37 79 38 21 39 22 40 23 41 73 42 24 43 78 44
REMARK SMILES IDX 72 45 74 46 25 47 77 48 71 49 70 50 26 52 58 53 38 54 57 55
REMARK SMILES IDX 39 56 42 57 56 58 75 59 40 60 41 61 55 63 76 64 43 65 27 66
REMARK SMILES IDX 28 67 36 68 29 69 35 70 37 71 34 72 30 73 31 74 32 75 33 76
REMARK SMILES IDX 59 77 60 78 68 79 61 80 67 81 69 82 66 83 62 84 63 85 64 86
REMARK SMILES IDX 65 87 44 88 45 89 53 90 46 91 52 92 54 93 51 94 47 95 48 96
REMARK SMILES IDX 49 97 50 98
REMARK H PARENT 11 5 15 32 74 51 42 62
REMARK Flexibility Score: inf
ROOT
ATOM      1  C   UNL     1      -1.367   5.339  -0.673  1.00  0.00     0.117 C 
ENDROOT
BRANCH   1   2
ATOM      2  N   UNL     1      -0.777   4.958  -1.949  1.00  0.00    -0.356 N 
ATOM      3  C   UNL     1       0.284   4.166  -2.232  1.00  0.00     0.226 C 
ATOM      4  O   UNL     1       0.596   3.999  -3.412  1.00  0.00    -0.275 OA
ATOM      5  H   UNL     1      -1.226   5.340  -2.737  1.00  0.00     0.163 HD
BRANCH   3   6
ATOM      6  C   UNL     1       1.084   3.507  -1.144  1.00  0.00     0.118 C 
ATOM      7  C   UNL     1       0.189   2.718  -0.193  1.00  0.00     0.164 C 
ATOM      8  N   UNL     1       0.697   2.989   1.145  1.00  0.00    -0.332 N 
ATOM      9  C   UNL     1       1.887   4.473  -0.298  1.00  0.00     0.116 C 
ATOM     10  C   UNL     1       1.716   3.965   1.107  1.00  0.00     0.224 C 
ATOM     11  O   UNL     1       2.296   4.431   2.062  1.00  0.00    -0.275 OA
BRANCH   7  12
ATOM     12  C   UNL     1      -0.037   1.298  -0.646  1.00  0.00     0.132 A 
ATOM     13  C   UNL     1       2.292   0.357  -1.221  1.00  0.00     0.151 C 
ATOM     14  N   UNL     1       0.855   0.342  -1.096  1.00  0.00    -0.336 N 
ATOM     15  C   UNL     1       0.126  -0.751  -1.509  1.00  0.00     0.107 A 
ATOM     16  C   UNL     1      -1.186  -0.403  -1.350  1.00  0.00     0.131 A 
ATOM     17  N   UNL     1      -1.274   0.859  -0.845  1.00  0.00    -0.239 NA
ENDBRANCH   7  12
BRANCH   8  18
ATOM     18  C   UNL     1      -0.050   2.977   2.422  1.00  0.00     0.122 C 
BRANCH  18  19
ATOM     19  C   UNL     1      -1.263   2.101   2.754  1.00  0.00     0.050 C 
BRANCH  19  20
ATOM     20  C   UNL     1      -1.386   0.608   2.449  1.00  0.00     0.162 C 
BRANCH  20  21
ATOM     21  O   UNL     1      -0.530  -0.295   3.152  1.00  0.00    -0.378 OA
BRANCH  21  22
ATOM     22  C   UNL     1       0.671  -0.643   2.452  1.00  0.00     0.118 C 
ATOM     23  C   UNL     1       1.721   0.395   2.794  1.00  0.00     0.032 C 
ATOM     24  C   UNL     1       1.153  -2.036   2.854  1.00  0.00     0.032 C 
ATOM     25  C   UNL     1       3.144   0.114   2.386  1.00  0.00     0.003 C 
ATOM     26  C   UNL     1       2.545  -2.317   2.280  1.00  0.00     0.003 C 
ATOM     27  C   UNL     1       3.567  -1.287   2.755  1.00  0.00     0.000 C 
ENDBRANCH  21  22
ENDBRANCH  20  21
ENDBRANCH  19  20
ENDBRANCH  18  19
ENDBRANCH   8  18
ENDBRANCH   3   6
ENDBRANCH   1   2
BRANCH   1  28
ATOM     28  C   UNL     1      -1.559   6.826  -0.546  1.00  0.00     0.042 C 
BRANCH  28  29
ATOM     29  C   UNL     1      -2.441   7.383  -1.638  1.00  0.00     0.118 C 
BRANCH  29  30
ATOM     30  N   UNL     1      -3.791   6.835  -1.599  1.00  0.00    -0.352 N 
ATOM     31  C   UNL     1      -4.973   7.469  -1.298  1.00  0.00     0.251 C 
ATOM     32  H   UNL     1      -3.867   5.878  -1.817  1.00  0.00     0.163 HD
ATOM     33  O   UNL     1      -5.989   6.812  -1.098  1.00  0.00    -0.269 OA
BRANCH  31  34
ATOM     34  C   UNL     1      -4.982   8.941  -1.184  1.00  0.00     0.039 A 
ATOM     35  C   UNL     1      -5.662   9.544  -0.128  1.00  0.00     0.014 A 
ATOM     36  C   UNL     1      -4.254   9.714  -2.090  1.00  0.00     0.014 A 
ATOM     37  C   UNL     1      -5.543  10.922   0.061  1.00  0.00     0.010 A 
ATOM     38  C   UNL     1      -4.017  11.051  -1.814  1.00  0.00     0.010 A 
ATOM     39  C   UNL     1      -4.682  11.678  -0.752  1.00  0.00    -0.014 A 
BRANCH  39  40
ATOM     40  C   UNL     1      -4.496  13.137  -0.552  1.00  0.00     0.031 A 
ATOM     41  C   UNL     1      -4.834  14.083  -1.676  1.00  0.00     0.074 A 
ATOM     42  C   UNL     1      -3.971  13.599   0.599  1.00  0.00     0.049 A 
ATOM     43  N   UNL     1      -4.661  15.377  -1.748  1.00  0.00    -0.248 NA
ATOM     44  C   UNL     1      -5.401  13.487  -2.897  1.00  0.00     0.031 C 
ATOM     45  C   UNL     1      -3.559  12.772   1.737  1.00  0.00     0.029 A 
ATOM     46  N   UNL     1      -3.688  14.879   1.004  1.00  0.00    -0.354 N 
ATOM     47  C   UNL     1      -5.079  15.741  -3.024  1.00  0.00     0.074 A 
ATOM     48  C   UNL     1      -5.432  14.524  -3.717  1.00  0.00     0.031 C 
ATOM     49  C   UNL     1      -3.115  13.568   2.723  1.00  0.00     0.029 A 
ATOM     50  C   UNL     1      -3.158  14.955   2.272  1.00  0.00     0.049 A 
ATOM     51  H   UNL     1      -3.850  15.669   0.440  1.00  0.00     0.167 HD
ATOM     52  C   UNL     1      -5.194  16.982  -3.556  1.00  0.00     0.034 A 
ATOM     53  C   UNL     1      -2.745  16.023   2.983  1.00  0.00     0.034 A 
ATOM     54  C   UNL     1      -4.864  18.186  -2.838  1.00  0.00     0.049 A 
ATOM     55  C   UNL     1      -2.864  17.393   2.362  1.00  0.00     0.074 A 
ATOM     56  C   UNL     1      -4.994  19.499  -3.253  1.00  0.00     0.029 A 
ATOM     57  N   UNL     1      -4.337  18.225  -1.553  1.00  0.00    -0.354 N 
ATOM     58  N   UNL     1      -3.313  17.726   1.173  1.00  0.00    -0.248 NA
ATOM     59  C   UNL     1      -2.432  18.532   3.182  1.00  0.00     0.031 C 
ATOM     60  C   UNL     1      -4.479  20.327  -2.251  1.00  0.00     0.029 A 
ATOM     61  C   UNL     1      -4.106  19.537  -1.174  1.00  0.00     0.049 A 
ATOM     62  H   UNL     1      -4.153  17.435  -0.994  1.00  0.00     0.167 HD
ATOM     63  C   UNL     1      -3.250  19.116   1.120  1.00  0.00     0.074 A 
ATOM     64  C   UNL     1      -2.736  19.556   2.400  1.00  0.00     0.031 C 
ATOM     65  C   UNL     1      -3.589  19.955   0.107  1.00  0.00     0.034 A 
BRANCH  52  66
ATOM     66  C   UNL     1      -5.682  17.086  -4.982  1.00  0.00     0.023 A 
ATOM     67  C   UNL     1      -6.957  16.632  -5.362  1.00  0.00     0.031 A 
ATOM     68  C   UNL     1      -4.850  17.620  -5.981  1.00  0.00     0.131 A 
ATOM     69  C   UNL     1      -7.334  16.647  -6.713  1.00  0.00     0.055 A 
ATOM     70  C   UNL     1      -5.265  17.714  -7.311  1.00  0.00     0.041 A 
ATOM     71  F   UNL     1      -3.612  18.046  -5.686  1.00  0.00    -0.206 F 
ATOM     72  C   UNL     1      -6.508  17.212  -7.687  1.00  0.00     0.022 A 
BRANCH  69  73
ATOM     73  S   UNL     1      -8.854  15.785  -7.198  1.00  0.00     0.124 S 
ATOM     74  O   UNL     1      -8.570  14.420  -6.759  1.00  0.00    -0.237 OA
ATOM     75  O   UNL     1      -9.877  16.499  -6.443  1.00  0.00    -0.237 OA
ATOM     76  O   UNL     1      -8.904  15.967  -8.647  1.00  0.00    -0.744 OA
ENDBRANCH  69  73
ENDBRANCH  52  66
BRANCH  53  77
ATOM     77  C   UNL     1      -2.178  15.853   4.353  1.00  0.00     0.023 A 
ATOM     78  C   UNL     1      -2.808  16.419   5.472  1.00  0.00     0.031 A 
ATOM     79  C   UNL     1      -0.967  15.167   4.558  1.00  0.00     0.131 A 
ATOM     80  C   UNL     1      -2.199  16.342   6.734  1.00  0.00     0.055 A 
ATOM     81  C   UNL     1      -0.395  15.040   5.825  1.00  0.00     0.041 A 
ATOM     82  F   UNL     1      -0.322  14.602   3.524  1.00  0.00    -0.206 F 
ATOM     83  C   UNL     1      -1.004  15.645   6.921  1.00  0.00     0.022 A 
BRANCH  80  84
ATOM     84  S   UNL     1      -2.939  17.261   8.112  1.00  0.00     0.124 S 
ATOM     85  O   UNL     1      -2.955  18.621   7.585  1.00  0.00    -0.237 OA
ATOM     86  O   UNL     1      -4.237  16.610   8.247  1.00  0.00    -0.237 OA
ATOM     87  O   UNL     1      -2.008  17.029   9.214  1.00  0.00    -0.744 OA
ENDBRANCH  80  84
ENDBRANCH  53  77
BRANCH  65  88
ATOM     88  C   UNL     1      -3.462  21.436   0.370  1.00  0.00     0.023 A 
ATOM     89  C   UNL     1      -2.214  22.049   0.572  1.00  0.00     0.031 A 
ATOM     90  C   UNL     1      -4.613  22.243   0.420  1.00  0.00     0.131 A 
ATOM     91  C   UNL     1      -2.150  23.418   0.870  1.00  0.00     0.055 A 
ATOM     92  C   UNL     1      -4.537  23.616   0.651  1.00  0.00     0.041 A 
ATOM     93  F   UNL     1      -5.831  21.709   0.236  1.00  0.00    -0.206 F 
ATOM     94  C   UNL     1      -3.301  24.209   0.892  1.00  0.00     0.022 A 
BRANCH  91  95
ATOM     95  S   UNL     1      -0.547  24.134   1.325  1.00  0.00     0.124 S 
ATOM     96  O   UNL     1      -0.173  23.331   2.484  1.00  0.00    -0.237 OA
ATOM     97  O   UNL     1       0.244  23.919   0.118  1.00  0.00    -0.237 OA
ATOM     98  O   UNL     1      -0.866  25.531   1.615  1.00  0.00    -0.744 OA
ENDBRANCH  91  95
ENDBRANCH  65  88
ENDBRANCH  39  40
ENDBRANCH  31  34
ENDBRANCH  29  30
ENDBRANCH  28  29
ENDBRANCH   1  28
TORSDOF 19
