REMARK SMILES CC[C@@H]1CCC[C@@](C[C@@H]2CSc3ccccc32)(C(=O)NCCCNC(=O)c2ccc(-c3c4nc(c(-c5cc(S(=O)(=O)[O-])ccc5F)c5ccc([nH]5)c(-c5cc(S(=O)(=O)[O-])ccc5F)c5nc(c(-c6cc(S(=O)(=O)[O-])ccc6F)c6ccc3[nH]6)C=C5)C=C4)cc2)C1
REMARK SMILES IDX 22 1 21 2 20 3 18 4 19 5 7 7 3 8 4 9 90 10 5 11 6 12 2 13
REMARK SMILES IDX 1 14 8 15 9 16 10 17 17 18 11 19 12 20 16 21 13 22 15 23
REMARK SMILES IDX 14 24 23 25 24 26 25 27 26 29 27 30 28 31 89 32 29 33 88 34
REMARK SMILES IDX 30 35 31 36 32 37 82 38 33 39 87 40 81 41 83 42 34 43 86 44
REMARK SMILES IDX 80 45 79 46 35 48 67 49 47 50 66 51 48 52 51 53 65 54 84 55
REMARK SMILES IDX 49 56 50 57 64 59 85 60 52 61 36 62 37 63 45 64 38 65 44 66
REMARK SMILES IDX 46 67 43 68 39 69 40 70 41 71 42 72 68 73 69 74 77 75 70 76
REMARK SMILES IDX 76 77 78 78 75 79 71 80 72 81 73 82 74 83 53 84 54 85 62 86
REMARK SMILES IDX 55 87 61 88 63 89 60 90 56 91 57 92 58 93 59 94
REMARK H PARENT 20 6 24 28 83 47 51 58
REMARK Flexibility Score: inf
ROOT
ATOM      1  C   UNL     1       1.881   5.327   7.324  1.00  0.00     0.042 C 
ENDROOT
BRANCH   1   2
ATOM      2  C   UNL     1       0.985   5.635   6.150  1.00  0.00     0.117 C 
BRANCH   2   3
ATOM      3  N   UNL     1       0.242   6.862   6.218  1.00  0.00    -0.356 N 
ATOM      4  C   UNL     1      -0.027   7.699   5.176  1.00  0.00     0.226 C 
ATOM      5  O   UNL     1      -1.131   8.253   5.206  1.00  0.00    -0.274 OA
ATOM      6  H   UNL     1      -0.107   7.124   7.101  1.00  0.00     0.163 HD
BRANCH   4   7
ATOM      7  C   UNL     1       0.984   7.957   4.015  1.00  0.00     0.050 C 
ATOM      8  C   UNL     1       0.958  10.541   4.543  1.00  0.00    -0.010 C 
ATOM      9  C   UNL     1       2.406  10.457   5.040  1.00  0.00     0.003 C 
ATOM     10  C   UNL     1       0.664   9.427   3.515  1.00  0.00     0.020 C 
ATOM     11  C   UNL     1       2.766   9.060   5.519  1.00  0.00     0.001 C 
ATOM     12  C   UNL     1       2.467   8.009   4.450  1.00  0.00     0.017 C 
BRANCH   8  13
ATOM     13  C   UNL     1       0.701  11.949   3.969  1.00  0.00     0.000 C 
ATOM     14  C   UNL     1      -0.701  12.149   3.415  1.00  0.00     0.004 C 
ENDBRANCH   8  13
BRANCH   7  15
ATOM     15  C   UNL     1       0.677   7.056   2.747  1.00  0.00     0.026 C 
BRANCH  15  16
ATOM     16  C   UNL     1       1.093   5.575   2.509  1.00  0.00     0.032 C 
ATOM     17  C   UNL     1       0.154   4.537   3.160  1.00  0.00     0.083 C 
ATOM     18  C   UNL     1       2.521   5.193   2.794  1.00  0.00    -0.030 A 
ATOM     19  S   UNL     1       1.161   3.158   3.796  1.00  0.00    -0.125 SA
ATOM     20  C   UNL     1       2.682   4.019   3.533  1.00  0.00     0.011 A 
ATOM     21  C   UNL     1       3.644   5.898   2.368  1.00  0.00     0.005 A 
ATOM     22  C   UNL     1       3.931   3.633   4.000  1.00  0.00     0.015 A 
ATOM     23  C   UNL     1       4.906   5.510   2.819  1.00  0.00     0.000 A 
ATOM     24  C   UNL     1       5.045   4.401   3.659  1.00  0.00     0.001 A 
ENDBRANCH  15  16
ENDBRANCH   7  15
ENDBRANCH   4   7
ENDBRANCH   2   3
ENDBRANCH   1   2
BRANCH   1  25
ATOM     25  C   UNL     1       1.214   4.417   8.346  1.00  0.00     0.118 C 
BRANCH  25  26
ATOM     26  N   UNL     1       0.800   3.111   7.817  1.00  0.00    -0.352 N 
ATOM     27  C   UNL     1       1.143   1.815   8.149  1.00  0.00     0.251 C 
ATOM     28  H   UNL     1       0.150   3.172   7.081  1.00  0.00     0.163 HD
ATOM     29  O   UNL     1       0.678   0.887   7.507  1.00  0.00    -0.269 OA
BRANCH  27  30
ATOM     30  C   UNL     1       2.114   1.553   9.234  1.00  0.00     0.039 A 
ATOM     31  C   UNL     1       2.135   2.350  10.367  1.00  0.00     0.014 A 
ATOM     32  C   UNL     1       3.061   0.534   9.087  1.00  0.00     0.014 A 
ATOM     33  C   UNL     1       3.266   2.357  11.165  1.00  0.00     0.010 A 
ATOM     34  C   UNL     1       4.111   0.422  10.007  1.00  0.00     0.010 A 
ATOM     35  C   UNL     1       4.277   1.393  11.002  1.00  0.00    -0.014 A 
BRANCH  35  36
ATOM     36  C   UNL     1       5.478   1.470  11.886  1.00  0.00     0.031 A 
ATOM     37  C   UNL     1       6.866   1.617  11.314  1.00  0.00     0.074 A 
ATOM     38  C   UNL     1       5.290   1.543  13.220  1.00  0.00     0.049 A 
ATOM     39  N   UNL     1       7.995   1.817  11.947  1.00  0.00    -0.248 NA
ATOM     40  C   UNL     1       7.020   1.511   9.854  1.00  0.00     0.031 C 
ATOM     41  C   UNL     1       3.992   1.400  13.884  1.00  0.00     0.029 A 
ATOM     42  N   UNL     1       6.154   1.830  14.248  1.00  0.00    -0.354 N 
ATOM     43  C   UNL     1       8.989   1.820  10.974  1.00  0.00     0.074 A 
ATOM     44  C   UNL     1       8.337   1.576   9.708  1.00  0.00     0.031 C 
ATOM     45  C   UNL     1       4.117   1.737  15.172  1.00  0.00     0.029 A 
ATOM     46  C   UNL     1       5.522   2.006  15.460  1.00  0.00     0.049 A 
ATOM     47  H   UNL     1       7.128   1.903  14.131  1.00  0.00     0.167 HD
ATOM     48  C   UNL     1      10.321   2.020  11.123  1.00  0.00     0.034 A 
ATOM     49  C   UNL     1       6.010   2.346  16.672  1.00  0.00     0.034 A 
ATOM     50  C   UNL     1      10.949   2.306  12.389  1.00  0.00     0.049 A 
ATOM     51  C   UNL     1       7.485   2.605  16.803  1.00  0.00     0.074 A 
ATOM     52  C   UNL     1      12.291   2.522  12.649  1.00  0.00     0.029 A 
ATOM     53  N   UNL     1      10.283   2.443  13.600  1.00  0.00    -0.354 N 
ATOM     54  N   UNL     1       8.407   2.600  15.868  1.00  0.00    -0.248 NA
ATOM     55  C   UNL     1       7.995   2.906  18.146  1.00  0.00     0.031 C 
ATOM     56  C   UNL     1      12.443   2.740  14.019  1.00  0.00     0.029 A 
ATOM     57  C   UNL     1      11.188   2.732  14.608  1.00  0.00     0.049 A 
ATOM     58  H   UNL     1       9.311   2.348  13.723  1.00  0.00     0.167 HD
ATOM     59  C   UNL     1       9.603   2.903  16.509  1.00  0.00     0.074 A 
ATOM     60  C   UNL     1       9.280   3.127  17.903  1.00  0.00     0.031 C 
ATOM     61  C   UNL     1      10.855   2.972  15.991  1.00  0.00     0.034 A 
BRANCH  48  62
ATOM     62  C   UNL     1      11.210   1.946   9.904  1.00  0.00     0.023 A 
ATOM     63  C   UNL     1      12.207   0.956   9.821  1.00  0.00     0.031 A 
ATOM     64  C   UNL     1      11.157   2.920   8.891  1.00  0.00     0.131 A 
ATOM     65  C   UNL     1      13.134   0.982   8.771  1.00  0.00     0.055 A 
ATOM     66  C   UNL     1      12.056   2.917   7.822  1.00  0.00     0.041 A 
ATOM     67  F   UNL     1      10.224   3.885   8.919  1.00  0.00    -0.206 F 
ATOM     68  C   UNL     1      13.059   1.953   7.766  1.00  0.00     0.022 A 
BRANCH  65  69
ATOM     69  S   UNL     1      14.511  -0.197   8.701  1.00  0.00     0.124 S 
ATOM     70  O   UNL     1      14.273  -0.859   7.420  1.00  0.00    -0.237 OA
ATOM     71  O   UNL     1      15.672   0.688   8.739  1.00  0.00    -0.237 OA
ATOM     72  O   UNL     1      14.317  -1.034   9.879  1.00  0.00    -0.744 OA
ENDBRANCH  65  69
ENDBRANCH  48  62
BRANCH  49  73
ATOM     73  C   UNL     1       5.065   2.502  17.819  1.00  0.00     0.023 A 
ATOM     74  C   UNL     1       4.243   1.435  18.226  1.00  0.00     0.031 A 
ATOM     75  C   UNL     1       4.874   3.751  18.434  1.00  0.00     0.131 A 
ATOM     76  C   UNL     1       3.204   1.661  19.138  1.00  0.00     0.055 A 
ATOM     77  C   UNL     1       3.896   3.949  19.411  1.00  0.00     0.041 A 
ATOM     78  F   UNL     1       5.623   4.805  18.075  1.00  0.00    -0.206 F 
ATOM     79  C   UNL     1       3.038   2.906  19.749  1.00  0.00     0.022 A 
BRANCH  76  80
ATOM     80  S   UNL     1       1.931   0.398  19.417  1.00  0.00     0.124 S 
ATOM     81  O   UNL     1       2.125   0.077  20.827  1.00  0.00    -0.237 OA
ATOM     82  O   UNL     1       0.707   1.130  19.096  1.00  0.00    -0.237 OA
ATOM     83  O   UNL     1       2.282  -0.658  18.472  1.00  0.00    -0.744 OA
ENDBRANCH  76  80
ENDBRANCH  49  73
BRANCH  61  84
ATOM     84  C   UNL     1      11.995   3.310  16.919  1.00  0.00     0.023 A 
ATOM     85  C   UNL     1      12.742   4.486  16.713  1.00  0.00     0.031 A 
ATOM     86  C   UNL     1      12.428   2.410  17.907  1.00  0.00     0.131 A 
ATOM     87  C   UNL     1      13.901   4.715  17.464  1.00  0.00     0.055 A 
ATOM     88  C   UNL     1      13.559   2.664  18.684  1.00  0.00     0.041 A 
ATOM     89  F   UNL     1      11.757   1.269  18.131  1.00  0.00    -0.206 F 
ATOM     90  C   UNL     1      14.308   3.815  18.454  1.00  0.00     0.022 A 
BRANCH  87  91
ATOM     91  S   UNL     1      14.970   6.140  17.123  1.00  0.00     0.124 S 
ATOM     92  O   UNL     1      14.863   6.900  18.367  1.00  0.00    -0.237 OA
ATOM     93  O   UNL     1      16.264   5.506  16.889  1.00  0.00    -0.237 OA
ATOM     94  O   UNL     1      14.359   6.768  15.956  1.00  0.00    -0.744 OA
ENDBRANCH  87  91
ENDBRANCH  61  84
ENDBRANCH  35  36
ENDBRANCH  27  30
ENDBRANCH  25  26
ENDBRANCH   1  25
TORSDOF 16
