REMARK SMILES C[C@H](O)[C@@H](NS(=O)(=O)c1ccc(F)cc1)C(=O)NCCCNC(=O)c1ccc(-c2c3nc(c(-c4cc(S(=O)(=O)[O-])ccc4F)c4ccc([nH]4)c(-c4cc(S(=O)(=O)[O-])ccc4F)c4nc(c(-c5cc(S(=O)(=O)[O-])ccc5F)c5ccc2[nH]5)C=C4)C=C3)cc1
REMARK SMILES IDX 20 1 19 2 18 3 16 4 17 5 4 7 2 8 1 9 3 10 5 12 6 14 7 15
REMARK SMILES IDX 8 16 9 17 10 18 15 19 11 20 14 21 12 22 13 23 21 24 22 25
REMARK SMILES IDX 23 26 24 28 25 29 26 30 87 31 27 32 86 33 28 34 29 35 30 36
REMARK SMILES IDX 80 37 31 38 85 39 79 40 81 41 32 42 84 43 78 44 77 45 33 47
REMARK SMILES IDX 65 48 45 49 64 50 46 51 49 52 63 53 82 54 47 55 48 56 62 58
REMARK SMILES IDX 83 59 50 60 34 61 35 62 43 63 36 64 42 65 44 66 41 67 37 68
REMARK SMILES IDX 38 69 39 70 40 71 66 72 67 73 75 74 68 75 74 76 76 77 73 78
REMARK SMILES IDX 69 79 70 80 71 81 72 82 51 83 52 84 60 85 53 86 59 87 61 88
REMARK SMILES IDX 58 89 54 90 55 91 56 92 57 93
REMARK H PARENT 18 6 3 11 5 13 22 27 81 46 49 57
REMARK Flexibility Score: inf
ROOT
ATOM      1  C   UNL     1       0.923   4.583   0.887  1.00  0.00     0.042 C 
ENDROOT
BRANCH   1   2
ATOM      2  C   UNL     1      -0.403   3.838   0.872  1.00  0.00     0.117 C 
BRANCH   2   3
ATOM      3  N   UNL     1      -0.987   3.792  -0.460  1.00  0.00    -0.355 N 
ATOM      4  C   UNL     1      -1.387   2.727  -1.213  1.00  0.00     0.240 C 
ATOM      5  O   UNL     1      -1.891   2.959  -2.314  1.00  0.00    -0.273 OA
ATOM      6  H   UNL     1      -1.112   4.670  -0.887  1.00  0.00     0.163 HD
BRANCH   4   7
ATOM      7  C   UNL     1      -1.201   1.294  -0.728  1.00  0.00     0.187 C 
BRANCH   7   8
ATOM      8  C   UNL     1       0.296   0.902  -0.701  1.00  0.00     0.139 C 
ATOM      9  C   UNL     1       0.990   1.105  -2.045  1.00  0.00     0.040 C 
BRANCH   8  10
ATOM     10  O   UNL     1       0.392  -0.482  -0.324  1.00  0.00    -0.391 OA
ATOM     11  H   UNL     1      -0.065  -1.028  -0.983  1.00  0.00     0.211 HD
ENDBRANCH   8  10
ENDBRANCH   7   8
BRANCH   7  12
ATOM     12  N   UNL     1      -1.802   1.079   0.626  1.00  0.00    -0.196 NA
ATOM     13  H   UNL     1      -1.539   1.877   1.204  1.00  0.00     0.142 HD
BRANCH  12  14
ATOM     14  S   UNL     1      -3.478   0.913   0.733  1.00  0.00     0.241 S 
ATOM     15  O   UNL     1      -3.894  -0.011  -0.298  1.00  0.00    -0.207 OA
ATOM     16  O   UNL     1      -3.769   0.657   2.127  1.00  0.00    -0.207 OA
BRANCH  14  17
ATOM     17  C   UNL     1      -4.117   2.524   0.353  1.00  0.00     0.082 A 
ATOM     18  C   UNL     1      -4.847   2.718  -0.826  1.00  0.00     0.025 A 
ATOM     19  C   UNL     1      -3.873   3.591   1.226  1.00  0.00     0.025 A 
ATOM     20  C   UNL     1      -5.284   4.000  -1.160  1.00  0.00     0.040 A 
ATOM     21  C   UNL     1      -4.299   4.874   0.876  1.00  0.00     0.040 A 
ATOM     22  C   UNL     1      -4.993   5.067  -0.316  1.00  0.00     0.123 A 
ATOM     23  F   UNL     1      -5.387   6.301  -0.657  1.00  0.00    -0.207 F 
ENDBRANCH  14  17
ENDBRANCH  12  14
ENDBRANCH   7  12
ENDBRANCH   4   7
ENDBRANCH   2   3
ENDBRANCH   1   2
BRANCH   1  24
ATOM     24  C   UNL     1       0.793   6.071   0.582  1.00  0.00     0.118 C 
BRANCH  24  25
ATOM     25  N   UNL     1       0.014   6.786   1.583  1.00  0.00    -0.352 N 
ATOM     26  C   UNL     1       0.330   7.931   2.276  1.00  0.00     0.251 C 
ATOM     27  H   UNL     1      -0.864   6.394   1.795  1.00  0.00     0.163 HD
ATOM     28  O   UNL     1      -0.386   8.296   3.203  1.00  0.00    -0.269 OA
BRANCH  26  29
ATOM     29  C   UNL     1       1.543   8.693   1.916  1.00  0.00     0.039 A 
ATOM     30  C   UNL     1       2.399   9.126   2.931  1.00  0.00     0.014 A 
ATOM     31  C   UNL     1       1.845   8.960   0.577  1.00  0.00     0.014 A 
ATOM     32  C   UNL     1       3.596   9.763   2.599  1.00  0.00     0.010 A 
ATOM     33  C   UNL     1       3.071   9.526   0.246  1.00  0.00     0.010 A 
ATOM     34  C   UNL     1       3.960   9.931   1.253  1.00  0.00    -0.014 A 
BRANCH  34  35
ATOM     35  C   UNL     1       5.265  10.527   0.871  1.00  0.00     0.031 A 
ATOM     36  C   UNL     1       5.304  11.819   0.104  1.00  0.00     0.074 A 
ATOM     37  C   UNL     1       6.406   9.863   1.142  1.00  0.00     0.049 A 
ATOM     38  N   UNL     1       6.329  12.433  -0.426  1.00  0.00    -0.248 NA
ATOM     39  C   UNL     1       4.015  12.488  -0.129  1.00  0.00     0.031 C 
ATOM     40  C   UNL     1       6.492   8.578   1.840  1.00  0.00     0.029 A 
ATOM     41  N   UNL     1       7.711  10.170   0.853  1.00  0.00    -0.354 N 
ATOM     42  C   UNL     1       5.808  13.544  -1.080  1.00  0.00     0.074 A 
ATOM     43  C   UNL     1       4.371  13.494  -0.914  1.00  0.00     0.031 C 
ATOM     44  C   UNL     1       7.782   8.219   1.944  1.00  0.00     0.029 A 
ATOM     45  C   UNL     1       8.610   9.224   1.284  1.00  0.00     0.049 A 
ATOM     46  H   UNL     1       7.979  10.991   0.380  1.00  0.00     0.167 HD
ATOM     47  C   UNL     1       6.469  14.522  -1.743  1.00  0.00     0.034 A 
ATOM     48  C   UNL     1       9.949   9.162   1.153  1.00  0.00     0.034 A 
ATOM     49  C   UNL     1       7.904  14.582  -1.863  1.00  0.00     0.049 A 
ATOM     50  C   UNL     1      10.666  10.268   0.430  1.00  0.00     0.074 A 
ATOM     51  C   UNL     1       8.678  15.576  -2.436  1.00  0.00     0.029 A 
ATOM     52  N   UNL     1       8.781  13.609  -1.403  1.00  0.00    -0.354 N 
ATOM     53  N   UNL     1      10.161  11.326  -0.160  1.00  0.00    -0.248 NA
ATOM     54  C   UNL     1      12.130  10.175   0.356  1.00  0.00     0.031 C 
ATOM     55  C   UNL     1      10.017  15.179  -2.371  1.00  0.00     0.029 A 
ATOM     56  C   UNL     1      10.085  13.966  -1.705  1.00  0.00     0.049 A 
ATOM     57  H   UNL     1       8.515  12.787  -0.932  1.00  0.00     0.167 HD
ATOM     58  C   UNL     1      11.246  12.030  -0.669  1.00  0.00     0.074 A 
ATOM     59  C   UNL     1      12.434  11.282  -0.310  1.00  0.00     0.031 C 
ATOM     60  C   UNL     1      11.257  13.195  -1.363  1.00  0.00     0.034 A 
BRANCH  47  61
ATOM     61  C   UNL     1       5.644  15.594  -2.407  1.00  0.00     0.023 A 
ATOM     62  C   UNL     1       4.884  16.510  -1.660  1.00  0.00     0.031 A 
ATOM     63  C   UNL     1       5.613  15.695  -3.809  1.00  0.00     0.131 A 
ATOM     64  C   UNL     1       4.077  17.449  -2.320  1.00  0.00     0.055 A 
ATOM     65  C   UNL     1       4.863  16.677  -4.458  1.00  0.00     0.041 A 
ATOM     66  F   UNL     1       6.306  14.834  -4.571  1.00  0.00    -0.206 F 
ATOM     67  C   UNL     1       4.080  17.555  -3.713  1.00  0.00     0.022 A 
BRANCH  64  68
ATOM     68  S   UNL     1       2.947  18.467  -1.334  1.00  0.00     0.124 S 
ATOM     69  O   UNL     1       2.039  17.458  -0.796  1.00  0.00    -0.237 OA
ATOM     70  O   UNL     1       3.844  19.097  -0.372  1.00  0.00    -0.237 OA
ATOM     71  O   UNL     1       2.354  19.371  -2.317  1.00  0.00    -0.744 OA
ENDBRANCH  64  68
ENDBRANCH  47  61
BRANCH  48  72
ATOM     72  C   UNL     1      10.688   7.998   1.708  1.00  0.00     0.023 A 
ATOM     73  C   UNL     1      11.455   8.120   2.876  1.00  0.00     0.031 A 
ATOM     74  C   UNL     1      10.604   6.736   1.094  1.00  0.00     0.131 A 
ATOM     75  C   UNL     1      12.120   6.997   3.392  1.00  0.00     0.055 A 
ATOM     76  C   UNL     1      11.244   5.616   1.626  1.00  0.00     0.041 A 
ATOM     77  F   UNL     1       9.866   6.570  -0.015  1.00  0.00    -0.206 F 
ATOM     78  C   UNL     1      12.010   5.744   2.781  1.00  0.00     0.022 A 
BRANCH  75  79
ATOM     79  S   UNL     1      13.129   7.189   4.887  1.00  0.00     0.124 S 
ATOM     80  O   UNL     1      14.230   8.010   4.398  1.00  0.00    -0.237 OA
ATOM     81  O   UNL     1      12.199   7.840   5.804  1.00  0.00    -0.237 OA
ATOM     82  O   UNL     1      13.479   5.814   5.237  1.00  0.00    -0.744 OA
ENDBRANCH  75  79
ENDBRANCH  48  72
BRANCH  60  83
ATOM     83  C   UNL     1      12.597  13.744  -1.770  1.00  0.00     0.023 A 
ATOM     84  C   UNL     1      13.343  13.160  -2.807  1.00  0.00     0.031 A 
ATOM     85  C   UNL     1      13.111  14.891  -1.141  1.00  0.00     0.131 A 
ATOM     86  C   UNL     1      14.580  13.713  -3.170  1.00  0.00     0.055 A 
ATOM     87  C   UNL     1      14.321  15.462  -1.535  1.00  0.00     0.041 A 
ATOM     88  F   UNL     1      12.432  15.485  -0.146  1.00  0.00    -0.206 F 
ATOM     89  C   UNL     1      15.065  14.870  -2.552  1.00  0.00     0.022 A 
BRANCH  86  90
ATOM     90  S   UNL     1      15.566  12.886  -4.447  1.00  0.00     0.124 S 
ATOM     91  O   UNL     1      15.900  11.623  -3.797  1.00  0.00    -0.237 OA
ATOM     92  O   UNL     1      14.631  12.801  -5.564  1.00  0.00    -0.237 OA
ATOM     93  O   UNL     1      16.693  13.795  -4.652  1.00  0.00    -0.744 OA
ENDBRANCH  86  90
ENDBRANCH  60  83
ENDBRANCH  34  35
ENDBRANCH  26  29
ENDBRANCH  24  25
ENDBRANCH   1  24
TORSDOF 18
