REMARK SMILES O=C(NCCCNC(=O)c1cc(N2C(=O)[C@H]3[C@@H]4C=C[C@@H]([C@@H]5C[C@H]45)[C@@H]3C2=O)ccc1Cl)c1ccc(-c2c3nc(c(-c4cc(S(=O)(=O)[O-])ccc4F)c4ccc([nH]4)c(-c4cc(S(=O)(=O)[O-])ccc4F)c4nc(c(-c5cc(S(=O)(=O)[O-])ccc5F)c5ccc2[nH]5)C=C4)C=C3)cc1
REMARK SMILES IDX 4 1 3 2 1 3 2 4 31 6 32 7 93 8 33 9 92 10 34 11 35 12 36 13
REMARK SMILES IDX 86 14 37 15 91 16 85 17 87 18 38 19 90 20 84 21 83 22 39 24
REMARK SMILES IDX 71 25 51 26 70 27 52 28 55 29 69 30 88 31 53 32 54 33 68 35
REMARK SMILES IDX 89 36 56 37 40 38 41 39 49 40 42 41 48 42 50 43 47 44 43 45
REMARK SMILES IDX 44 46 45 47 46 48 72 49 73 50 81 51 74 52 80 53 82 54 79 55
REMARK SMILES IDX 75 56 76 57 77 58 78 59 57 60 58 61 66 62 59 63 65 64 67 65
REMARK SMILES IDX 64 66 60 67 61 68 62 69 63 70 5 71 6 72 7 73 8 74 9 76 10 77
REMARK SMILES IDX 11 78 29 79 12 80 28 81 30 82 27 83 13 84 14 85 25 86 15 87
REMARK SMILES IDX 16 88 24 89 26 90 17 91 20 92 18 93 23 94 19 95 21 96 22 97
REMARK H PARENT 3 5 87 23 55 34 7 75
REMARK Flexibility Score: inf
ROOT
ATOM      1  C   UNL     1       4.604  -1.023   0.707  1.00  0.00     0.118 C 
ENDROOT
BRANCH   1   2
ATOM      2  N   UNL     1       3.156  -1.010   0.541  1.00  0.00    -0.352 N 
ATOM      3  O   UNL     1       1.133  -0.213  -0.035  1.00  0.00    -0.269 OA
ATOM      4  C   UNL     1       2.353  -0.149  -0.166  1.00  0.00     0.251 C 
ATOM      5  H   UNL     1       2.679  -1.732   1.010  1.00  0.00     0.163 HD
BRANCH   4   6
ATOM      6  C   UNL     1       2.950   0.863  -1.063  1.00  0.00     0.039 A 
ATOM      7  C   UNL     1       4.005   0.535  -1.918  1.00  0.00     0.014 A 
ATOM      8  C   UNL     1       2.426   2.158  -1.065  1.00  0.00     0.014 A 
ATOM      9  C   UNL     1       4.637   1.531  -2.656  1.00  0.00     0.010 A 
ATOM     10  C   UNL     1       3.000   3.136  -1.880  1.00  0.00     0.010 A 
ATOM     11  C   UNL     1       4.130   2.838  -2.660  1.00  0.00    -0.014 A 
BRANCH  11  12
ATOM     12  C   UNL     1       4.754   3.880  -3.514  1.00  0.00     0.031 A 
ATOM     13  C   UNL     1       5.370   5.104  -2.900  1.00  0.00     0.074 A 
ATOM     14  C   UNL     1       4.733   3.731  -4.853  1.00  0.00     0.049 A 
ATOM     15  N   UNL     1       5.849   6.172  -3.483  1.00  0.00    -0.248 NA
ATOM     16  C   UNL     1       5.440   5.134  -1.433  1.00  0.00     0.031 C 
ATOM     17  C   UNL     1       4.176   2.576  -5.561  1.00  0.00     0.029 A 
ATOM     18  N   UNL     1       5.175   4.556  -5.856  1.00  0.00    -0.354 N 
ATOM     19  C   UNL     1       6.256   7.017  -2.456  1.00  0.00     0.074 A 
ATOM     20  C   UNL     1       5.930   6.346  -1.214  1.00  0.00     0.031 C 
ATOM     21  C   UNL     1       4.315   2.763  -6.880  1.00  0.00     0.029 A 
ATOM     22  C   UNL     1       4.893   4.081  -7.115  1.00  0.00     0.049 A 
ATOM     23  H   UNL     1       5.647   5.403  -5.690  1.00  0.00     0.167 HD
ATOM     24  C   UNL     1       6.849   8.235  -2.548  1.00  0.00     0.034 A 
ATOM     25  C   UNL     1       5.030   4.659  -8.324  1.00  0.00     0.034 A 
ATOM     26  C   UNL     1       7.148   8.885  -3.803  1.00  0.00     0.049 A 
ATOM     27  C   UNL     1       5.613   6.043  -8.406  1.00  0.00     0.074 A 
ATOM     28  C   UNL     1       7.773  10.101  -4.018  1.00  0.00     0.029 A 
ATOM     29  N   UNL     1       6.822   8.383  -5.059  1.00  0.00    -0.354 N 
ATOM     30  N   UNL     1       6.002   6.831  -7.430  1.00  0.00    -0.248 NA
ATOM     31  C   UNL     1       5.779   6.616  -9.746  1.00  0.00     0.031 C 
ATOM     32  C   UNL     1       7.741  10.376  -5.389  1.00  0.00     0.029 A 
ATOM     33  C   UNL     1       7.194   9.285  -6.046  1.00  0.00     0.049 A 
ATOM     34  H   UNL     1       6.391   7.514  -5.224  1.00  0.00     0.167 HD
ATOM     35  C   UNL     1       6.494   7.979  -8.042  1.00  0.00     0.074 A 
ATOM     36  C   UNL     1       6.346   7.783  -9.470  1.00  0.00     0.031 C 
ATOM     37  C   UNL     1       7.036   9.085  -7.470  1.00  0.00     0.034 A 
BRANCH  24  38
ATOM     38  C   UNL     1       7.144   8.962  -1.254  1.00  0.00     0.023 A 
ATOM     39  C   UNL     1       7.990   8.417  -0.271  1.00  0.00     0.031 A 
ATOM     40  C   UNL     1       6.522  10.192  -0.971  1.00  0.00     0.131 A 
ATOM     41  C   UNL     1       8.103   9.040   0.982  1.00  0.00     0.055 A 
ATOM     42  C   UNL     1       6.721  10.859   0.240  1.00  0.00     0.041 A 
ATOM     43  F   UNL     1       5.687  10.757  -1.857  1.00  0.00    -0.206 F 
ATOM     44  C   UNL     1       7.496  10.272   1.235  1.00  0.00     0.022 A 
BRANCH  41  45
ATOM     45  S   UNL     1       8.883   8.118   2.336  1.00  0.00     0.124 S 
ATOM     46  O   UNL     1       8.103   6.881   2.340  1.00  0.00    -0.237 OA
ATOM     47  O   UNL     1      10.264   8.000   1.885  1.00  0.00    -0.237 OA
ATOM     48  O   UNL     1       8.675   8.976   3.501  1.00  0.00    -0.744 OA
ENDBRANCH  41  45
ENDBRANCH  24  38
BRANCH  25  49
ATOM     49  C   UNL     1       4.553   3.939  -9.537  1.00  0.00     0.023 A 
ATOM     50  C   UNL     1       5.448   3.488 -10.517  1.00  0.00     0.031 A 
ATOM     51  C   UNL     1       3.183   3.668  -9.716  1.00  0.00     0.131 A 
ATOM     52  C   UNL     1       4.961   2.806 -11.644  1.00  0.00     0.055 A 
ATOM     53  C   UNL     1       2.710   2.945 -10.810  1.00  0.00     0.041 A 
ATOM     54  F   UNL     1       2.286   4.073  -8.802  1.00  0.00    -0.206 F 
ATOM     55  C   UNL     1       3.601   2.515 -11.787  1.00  0.00     0.022 A 
BRANCH  52  56
ATOM     56  S   UNL     1       6.127   2.347 -12.953  1.00  0.00     0.124 S 
ATOM     57  O   UNL     1       6.646   3.649 -13.357  1.00  0.00    -0.237 OA
ATOM     58  O   UNL     1       7.058   1.478 -12.241  1.00  0.00    -0.237 OA
ATOM     59  O   UNL     1       5.284   1.678 -13.941  1.00  0.00    -0.744 OA
ENDBRANCH  52  56
ENDBRANCH  25  49
BRANCH  37  60
ATOM     60  C   UNL     1       7.583  10.149  -8.392  1.00  0.00     0.023 A 
ATOM     61  C   UNL     1       6.754  10.946  -9.199  1.00  0.00     0.031 A 
ATOM     62  C   UNL     1       8.970  10.390  -8.425  1.00  0.00     0.131 A 
ATOM     63  C   UNL     1       7.323  11.928 -10.026  1.00  0.00     0.055 A 
ATOM     64  C   UNL     1       9.523  11.405  -9.204  1.00  0.00     0.041 A 
ATOM     65  F   UNL     1       9.808   9.652  -7.680  1.00  0.00    -0.206 F 
ATOM     66  C   UNL     1       8.699  12.177 -10.016  1.00  0.00     0.022 A 
BRANCH  63  67
ATOM     67  S   UNL     1       6.251  12.844 -11.168  1.00  0.00     0.124 S 
ATOM     68  O   UNL     1       5.710  11.774 -11.999  1.00  0.00    -0.237 OA
ATOM     69  O   UNL     1       5.306  13.489 -10.262  1.00  0.00    -0.237 OA
ATOM     70  O   UNL     1       7.172  13.752 -11.850  1.00  0.00    -0.744 OA
ENDBRANCH  63  67
ENDBRANCH  37  60
ENDBRANCH  11  12
ENDBRANCH   4   6
ENDBRANCH   1   2
BRANCH   1  71
ATOM     71  C   UNL     1       5.046  -0.680   2.122  1.00  0.00     0.042 C 
BRANCH  71  72
ATOM     72  C   UNL     1       4.539  -1.638   3.187  1.00  0.00     0.118 C 
BRANCH  72  73
ATOM     73  N   UNL     1       4.946  -3.014   2.946  1.00  0.00    -0.352 N 
ATOM     74  C   UNL     1       5.572  -3.900   3.779  1.00  0.00     0.252 C 
ATOM     75  H   UNL     1       4.739  -3.360   2.048  1.00  0.00     0.163 HD
ATOM     76  O   UNL     1       5.896  -5.011   3.367  1.00  0.00    -0.269 OA
BRANCH  74  77
ATOM     77  C   UNL     1       5.910  -3.533   5.164  1.00  0.00     0.060 A 
ATOM     78  C   UNL     1       7.258  -3.676   5.536  1.00  0.00     0.042 A 
ATOM     79  C   UNL     1       4.945  -3.179   6.117  1.00  0.00     0.053 A 
ATOM     80  C   UNL     1       7.628  -3.497   6.867  1.00  0.00     0.053 A 
ATOM     81  C   UNL     1       5.342  -2.892   7.422  1.00  0.00     0.023 A 
ATOM     82  Cl  UNL     1       3.247  -3.156   5.799  1.00  0.00    -0.083 Cl
ATOM     83  C   UNL     1       6.670  -3.075   7.800  1.00  0.00     0.028 A 
BRANCH  80  84
ATOM     84  N   UNL     1       8.956  -3.679   7.293  1.00  0.00    -0.250 N 
ATOM     85  C   UNL     1      10.031  -2.957   6.748  1.00  0.00     0.238 C 
ATOM     86  C   UNL     1       9.279  -4.271   8.532  1.00  0.00     0.238 C 
ATOM     87  O   UNL     1      10.060  -2.202   5.796  1.00  0.00    -0.274 OA
ATOM     88  C   UNL     1      11.188  -3.332   7.621  1.00  0.00     0.100 C 
ATOM     89  C   UNL     1      10.447  -3.461   8.955  1.00  0.00     0.100 C 
ATOM     90  O   UNL     1       8.667  -5.080   9.201  1.00  0.00    -0.274 OA
ATOM     91  C   UNL     1      12.519  -2.598   7.856  1.00  0.00     0.028 C 
ATOM     92  C   UNL     1      11.450  -3.460  10.097  1.00  0.00     0.028 C 
ATOM     93  C   UNL     1      13.321  -3.722   8.560  1.00  0.00    -0.026 C 
ATOM     94  C   UNL     1      12.476  -1.460   8.893  1.00  0.00     0.001 C 
ATOM     95  C   UNL     1      12.732  -4.200   9.682  1.00  0.00    -0.026 C 
ATOM     96  C   UNL     1      11.866  -1.947  10.217  1.00  0.00     0.001 C 
ATOM     97  C   UNL     1      11.271  -0.761   9.451  1.00  0.00     0.009 C 
ENDBRANCH  80  84
ENDBRANCH  74  77
ENDBRANCH  72  73
ENDBRANCH  71  72
ENDBRANCH   1  71
TORSDOF 14
