REMARK SMILES CCC[N@@H+](C1CC1)[C@@H]1CC[C@]([NH2+]C2CC2)(C(=O)NCCCNC(=O)c2ccc(-c3c4nc(c(-c5cc(S(=O)(=O)[O-])ccc5F)c5ccc([nH]5)c(-c5cc(S(=O)(=O)[O-])ccc5F)c5nc(c(-c6cc(S(=O)(=O)[O-])ccc6F)c6ccc3[nH]6)C=C5)C=C4)cc2)C1
REMARK SMILES IDX 20 1 19 2 18 3 16 4 17 5 11 7 8 8 9 9 88 10 10 11 4 12 3 14
REMARK SMILES IDX 2 15 1 16 5 17 6 18 7 19 12 20 13 23 14 24 15 25 21 26 22 27
REMARK SMILES IDX 23 28 24 30 25 31 26 32 87 33 27 34 86 35 28 36 29 37 30 38
REMARK SMILES IDX 80 39 31 40 85 41 79 42 81 43 32 44 84 45 78 46 77 47 33 49
REMARK SMILES IDX 65 50 45 51 64 52 46 53 49 54 63 55 82 56 47 57 48 58 62 60
REMARK SMILES IDX 83 61 50 62 34 63 35 64 43 65 36 66 42 67 44 68 41 69 37 70
REMARK SMILES IDX 38 71 39 72 40 73 66 74 67 75 75 76 68 77 74 78 76 79 73 80
REMARK SMILES IDX 69 81 70 82 71 83 72 84 51 85 52 86 60 87 53 88 59 89 61 90
REMARK SMILES IDX 58 91 54 92 55 93 56 94 57 95
REMARK H PARENT 18 6 4 13 12 21 12 22 22 29 81 48 49 59
REMARK Flexibility Score: inf
ROOT
ATOM      1  C   UNL     1      -3.075  -1.382  -3.513  1.00  0.00     0.042 C 
ENDROOT
BRANCH   1   2
ATOM      2  C   UNL     1      -2.229  -1.116  -2.274  1.00  0.00     0.118 C 
BRANCH   2   3
ATOM      3  N   UNL     1      -1.246  -2.167  -2.082  1.00  0.00    -0.351 N 
ATOM      4  C   UNL     1       0.086  -2.230  -2.356  1.00  0.00     0.281 C 
ATOM      5  O   UNL     1       0.587  -3.359  -2.270  1.00  0.00    -0.268 OA
ATOM      6  H   UNL     1      -1.611  -2.988  -1.679  1.00  0.00     0.163 HD
BRANCH   4   7
ATOM      7  C   UNL     1       0.955  -0.967  -2.701  1.00  0.00     0.181 C 
ATOM      8  C   UNL     1       1.048   1.404  -2.135  1.00  0.00     0.191 C 
ATOM      9  C   UNL     1       0.281   1.285  -3.463  1.00  0.00     0.072 C 
ATOM     10  C   UNL     1       0.873   0.019  -1.529  1.00  0.00     0.144 C 
ATOM     11  C   UNL     1       0.467  -0.172  -3.927  1.00  0.00     0.085 C 
BRANCH   8  12
ATOM     12  N   UNL     1       0.649   2.557  -1.287  1.00  0.00    -0.330 N 
ATOM     13  H   UNL     1      -0.364   2.553  -1.168  1.00  0.00     0.348 HD
BRANCH  12  14
ATOM     14  C   UNL     1       1.232   2.465   0.078  1.00  0.00     0.262 C 
BRANCH  14  15
ATOM     15  C   UNL     1       0.371   1.719   1.124  1.00  0.00     0.058 C 
ATOM     16  C   UNL     1       0.939   0.388   1.613  1.00  0.00     0.010 C 
ENDBRANCH  14  15
ENDBRANCH  12  14
BRANCH  12  17
ATOM     17  C   UNL     1       1.076   3.819  -1.972  1.00  0.00     0.184 C 
ATOM     18  C   UNL     1       0.010   4.736  -2.517  1.00  0.00     0.071 C 
ATOM     19  C   UNL     1       0.870   5.187  -1.378  1.00  0.00     0.071 C 
ENDBRANCH  12  17
ENDBRANCH   8  12
BRANCH   7  20
ATOM     20  N   UNL     1       2.352  -1.459  -2.887  1.00  0.00    -0.331 N 
ATOM     21  H   UNL     1       2.342  -2.091  -3.687  1.00  0.00     0.347 HD
ATOM     22  H   UNL     1       2.589  -1.870  -1.984  1.00  0.00     0.347 HD
BRANCH  20  23
ATOM     23  C   UNL     1       3.416  -0.489  -3.121  1.00  0.00     0.183 C 
ATOM     24  C   UNL     1       4.274  -0.084  -1.951  1.00  0.00     0.071 C 
ATOM     25  C   UNL     1       4.851  -0.928  -3.045  1.00  0.00     0.071 C 
ENDBRANCH  20  23
ENDBRANCH   7  20
ENDBRANCH   4   7
ENDBRANCH   2   3
ENDBRANCH   1   2
BRANCH   1  26
ATOM     26  C   UNL     1      -4.031  -2.554  -3.336  1.00  0.00     0.118 C 
BRANCH  26  27
ATOM     27  N   UNL     1      -5.116  -2.244  -2.415  1.00  0.00    -0.352 N 
ATOM     28  C   UNL     1      -6.468  -2.161  -2.656  1.00  0.00     0.251 C 
ATOM     29  H   UNL     1      -4.842  -2.067  -1.486  1.00  0.00     0.163 HD
ATOM     30  O   UNL     1      -7.207  -1.670  -1.813  1.00  0.00    -0.269 OA
BRANCH  28  31
ATOM     31  C   UNL     1      -7.010  -2.643  -3.946  1.00  0.00     0.039 A 
ATOM     32  C   UNL     1      -7.946  -1.861  -4.627  1.00  0.00     0.014 A 
ATOM     33  C   UNL     1      -6.578  -3.855  -4.489  1.00  0.00     0.014 A 
ATOM     34  C   UNL     1      -8.386  -2.257  -5.893  1.00  0.00     0.010 A 
ATOM     35  C   UNL     1      -6.948  -4.201  -5.784  1.00  0.00     0.010 A 
ATOM     36  C   UNL     1      -7.854  -3.405  -6.502  1.00  0.00    -0.014 A 
BRANCH  36  37
ATOM     37  C   UNL     1      -8.227  -3.809  -7.883  1.00  0.00     0.031 A 
ATOM     38  C   UNL     1      -8.895  -5.137  -8.115  1.00  0.00     0.074 A 
ATOM     39  C   UNL     1      -7.884  -3.030  -8.929  1.00  0.00     0.049 A 
ATOM     40  N   UNL     1      -9.159  -5.746  -9.242  1.00  0.00    -0.248 NA
ATOM     41  C   UNL     1      -9.287  -5.893  -6.916  1.00  0.00     0.031 C 
ATOM     42  C   UNL     1      -7.216  -1.730  -8.832  1.00  0.00     0.029 A 
ATOM     43  N   UNL     1      -8.031  -3.224 -10.280  1.00  0.00    -0.354 N 
ATOM     44  C   UNL     1      -9.729  -6.965  -8.888  1.00  0.00     0.074 A 
ATOM     45  C   UNL     1      -9.715  -7.030  -7.442  1.00  0.00     0.031 C 
ATOM     46  C   UNL     1      -7.027  -1.239 -10.067  1.00  0.00     0.029 A 
ATOM     47  C   UNL     1      -7.500  -2.212 -11.047  1.00  0.00     0.049 A 
ATOM     48  H   UNL     1      -8.476  -4.014 -10.665  1.00  0.00     0.167 HD
ATOM     49  C   UNL     1     -10.234  -7.930  -9.695  1.00  0.00     0.034 A 
ATOM     50  C   UNL     1      -7.381  -2.093 -12.385  1.00  0.00     0.034 A 
ATOM     51  C   UNL     1     -10.247  -7.841 -11.135  1.00  0.00     0.049 A 
ATOM     52  C   UNL     1      -7.900  -3.204 -13.265  1.00  0.00     0.074 A 
ATOM     53  C   UNL     1     -10.777  -8.736 -12.047  1.00  0.00     0.029 A 
ATOM     54  N   UNL     1      -9.696  -6.801 -11.873  1.00  0.00    -0.354 N 
ATOM     55  N   UNL     1      -8.466  -4.336 -12.915  1.00  0.00    -0.248 NA
ATOM     56  C   UNL     1      -7.768  -3.023 -14.717  1.00  0.00     0.031 C 
ATOM     57  C   UNL     1     -10.476  -8.280 -13.334  1.00  0.00     0.029 A 
ATOM     58  C   UNL     1      -9.842  -7.052 -13.229  1.00  0.00     0.049 A 
ATOM     59  H   UNL     1      -9.265  -6.003 -11.491  1.00  0.00     0.167 HD
ATOM     60  C   UNL     1      -8.796  -4.980 -14.106  1.00  0.00     0.074 A 
ATOM     61  C   UNL     1      -8.365  -4.112 -15.181  1.00  0.00     0.031 C 
ATOM     62  C   UNL     1      -9.411  -6.175 -14.291  1.00  0.00     0.034 A 
BRANCH  49  63
ATOM     63  C   UNL     1     -10.782  -9.174  -9.038  1.00  0.00     0.023 A 
ATOM     64  C   UNL     1     -11.877  -9.125  -8.158  1.00  0.00     0.031 A 
ATOM     65  C   UNL     1     -10.190 -10.427  -9.279  1.00  0.00     0.131 A 
ATOM     66  C   UNL     1     -12.293 -10.287  -7.492  1.00  0.00     0.055 A 
ATOM     67  C   UNL     1     -10.666 -11.595  -8.682  1.00  0.00     0.041 A 
ATOM     68  F   UNL     1      -9.127 -10.536 -10.092  1.00  0.00    -0.206 F 
ATOM     69  C   UNL     1     -11.714 -11.527  -7.769  1.00  0.00     0.022 A 
BRANCH  66  70
ATOM     70  S   UNL     1     -13.498 -10.126  -6.146  1.00  0.00     0.124 S 
ATOM     71  O   UNL     1     -12.812  -9.204  -5.244  1.00  0.00    -0.237 OA
ATOM     72  O   UNL     1     -14.669  -9.595  -6.833  1.00  0.00    -0.237 OA
ATOM     73  O   UNL     1     -13.634 -11.491  -5.643  1.00  0.00    -0.744 OA
ENDBRANCH  66  70
ENDBRANCH  49  63
BRANCH  50  74
ATOM     74  C   UNL     1      -6.723  -0.893 -12.982  1.00  0.00     0.023 A 
ATOM     75  C   UNL     1      -7.437  -0.018 -13.817  1.00  0.00     0.031 A 
ATOM     76  C   UNL     1      -5.359  -0.627 -12.764  1.00  0.00     0.131 A 
ATOM     77  C   UNL     1      -6.774   1.050 -14.442  1.00  0.00     0.055 A 
ATOM     78  C   UNL     1      -4.719   0.473 -13.339  1.00  0.00     0.041 A 
ATOM     79  F   UNL     1      -4.628  -1.429 -11.974  1.00  0.00    -0.206 F 
ATOM     80  C   UNL     1      -5.425   1.311 -14.196  1.00  0.00     0.022 A 
BRANCH  77  81
ATOM     81  S   UNL     1      -7.681   2.037 -15.664  1.00  0.00     0.124 S 
ATOM     82  O   UNL     1      -8.086   1.018 -16.625  1.00  0.00    -0.237 OA
ATOM     83  O   UNL     1      -8.747   2.617 -14.854  1.00  0.00    -0.237 OA
ATOM     84  O   UNL     1      -6.679   2.986 -16.145  1.00  0.00    -0.744 OA
ENDBRANCH  77  81
ENDBRANCH  50  74
BRANCH  62  85
ATOM     85  C   UNL     1      -9.722  -6.588 -15.709  1.00  0.00     0.023 A 
ATOM     86  C   UNL     1      -8.716  -6.932 -16.627  1.00  0.00     0.031 A 
ATOM     87  C   UNL     1     -11.062  -6.673 -16.131  1.00  0.00     0.131 A 
ATOM     88  C   UNL     1      -9.065  -7.317 -17.932  1.00  0.00     0.055 A 
ATOM     89  C   UNL     1     -11.405  -7.112 -17.410  1.00  0.00     0.041 A 
ATOM     90  F   UNL     1     -12.063  -6.351 -15.295  1.00  0.00    -0.206 F 
ATOM     91  C   UNL     1     -10.403  -7.429 -18.321  1.00  0.00     0.022 A 
BRANCH  88  92
ATOM     92  S   UNL     1      -7.744  -7.614 -19.139  1.00  0.00     0.124 S 
ATOM     93  O   UNL     1      -7.081  -6.315 -19.188  1.00  0.00    -0.237 OA
ATOM     94  O   UNL     1      -6.986  -8.694 -18.516  1.00  0.00    -0.237 OA
ATOM     95  O   UNL     1      -8.467  -7.987 -20.354  1.00  0.00    -0.744 OA
ENDBRANCH  88  92
ENDBRANCH  62  85
ENDBRANCH  36  37
ENDBRANCH  28  31
ENDBRANCH  26  27
ENDBRANCH   1  26
TORSDOF 19
