REMARK SMILES CCC[NH2+]CC(=O)N1[C@@H](C(=O)NCCCNC(=O)c2ccc(-c3c4nc(c(-c5cc(S(=O)(=O)[O-])ccc5F)c5ccc([nH]5)c(-c5cc(S(=O)(=O)[O-])ccc5F)c5nc(c(-c6cc(S(=O)(=O)[O-])ccc6F)c6ccc3[nH]6)C=C5)C=C4)cc2)CC[C@@H]2CCCC[C@@H]21
REMARK SMILES IDX 13 1 12 2 10 3 11 4 9 6 8 7 89 8 82 9 84 10 88 11 83 12
REMARK SMILES IDX 85 13 87 14 86 15 6 16 7 17 5 18 4 19 3 22 2 23 1 24 14 25
REMARK SMILES IDX 15 26 16 27 17 28 18 30 19 31 20 32 81 33 21 34 80 35 22 36
REMARK SMILES IDX 23 37 24 38 74 39 25 40 79 41 73 42 75 43 26 44 78 45 72 46
REMARK SMILES IDX 71 47 27 49 59 50 39 51 58 52 40 53 43 54 57 55 76 56 41 57
REMARK SMILES IDX 42 58 56 60 77 61 44 62 28 63 29 64 37 65 30 66 36 67 38 68
REMARK SMILES IDX 35 69 31 70 32 71 33 72 34 73 60 74 61 75 69 76 62 77 68 78
REMARK SMILES IDX 70 79 67 80 63 81 64 82 65 83 66 84 45 85 46 86 54 87 47 88
REMARK SMILES IDX 53 89 55 90 52 91 48 92 49 93 50 94 51 95
REMARK H PARENT 12 5 4 20 4 21 16 29 75 48 43 59
REMARK Flexibility Score: inf
ROOT
ATOM      1  C   UNL     1       3.518  -2.101   0.691  1.00  0.00     0.117 C 
ENDROOT
BRANCH   1   2
ATOM      2  N   UNL     1       2.570  -1.238   0.004  1.00  0.00    -0.354 N 
ATOM      3  C   UNL     1       2.606  -0.751  -1.263  1.00  0.00     0.242 C 
ATOM      4  O   UNL     1       2.078   0.342  -1.486  1.00  0.00    -0.273 OA
ATOM      5  H   UNL     1       1.788  -0.966   0.537  1.00  0.00     0.163 HD
BRANCH   3   6
ATOM      6  C   UNL     1       3.388  -1.451  -2.363  1.00  0.00     0.175 C 
ATOM      7  N   UNL     1       3.539  -2.920  -2.300  1.00  0.00    -0.323 N 
ATOM      8  C   UNL     1       4.607  -3.496  -3.153  1.00  0.00     0.089 C 
ATOM      9  C   UNL     1       4.748  -0.721  -2.254  1.00  0.00     0.036 C 
ATOM     10  C   UNL     1       5.944  -2.762  -3.014  1.00  0.00     0.012 C 
ATOM     11  C   UNL     1       4.123  -3.634  -4.619  1.00  0.00     0.025 C 
ATOM     12  C   UNL     1       5.793  -1.254  -3.200  1.00  0.00     0.008 C 
ATOM     13  C   UNL     1       6.951  -3.349  -4.000  1.00  0.00     0.006 C 
ATOM     14  C   UNL     1       5.073  -3.216  -5.749  1.00  0.00     0.002 C 
ATOM     15  C   UNL     1       6.563  -3.070  -5.443  1.00  0.00     0.000 C 
BRANCH   7  16
ATOM     16  C   UNL     1       2.601  -3.837  -1.810  1.00  0.00     0.278 C 
ATOM     17  O   UNL     1       3.008  -4.904  -1.329  1.00  0.00    -0.268 OA
BRANCH  16  18
ATOM     18  C   UNL     1       1.081  -3.671  -2.038  1.00  0.00     0.362 C 
BRANCH  18  19
ATOM     19  N   UNL     1       0.350  -2.715  -1.187  1.00  0.00    -0.338 N 
ATOM     20  H   UNL     1      -0.366  -3.217  -0.663  1.00  0.00     0.346 HD
ATOM     21  H   UNL     1       1.017  -2.272  -0.556  1.00  0.00     0.346 HD
BRANCH  19  22
ATOM     22  C   UNL     1      -0.290  -1.671  -1.987  1.00  0.00     0.260 C 
BRANCH  22  23
ATOM     23  C   UNL     1      -1.116  -0.601  -1.249  1.00  0.00     0.058 C 
ATOM     24  C   UNL     1      -0.636  -0.078   0.097  1.00  0.00     0.010 C 
ENDBRANCH  22  23
ENDBRANCH  19  22
ENDBRANCH  18  19
ENDBRANCH  16  18
ENDBRANCH   7  16
ENDBRANCH   3   6
ENDBRANCH   1   2
BRANCH   1  25
ATOM     25  C   UNL     1       4.189  -1.309   1.800  1.00  0.00     0.042 C 
BRANCH  25  26
ATOM     26  C   UNL     1       3.204  -0.812   2.848  1.00  0.00     0.118 C 
BRANCH  26  27
ATOM     27  N   UNL     1       2.565  -1.901   3.567  1.00  0.00    -0.352 N 
ATOM     28  C   UNL     1       2.505  -2.091   4.927  1.00  0.00     0.251 C 
ATOM     29  H   UNL     1       2.123  -2.586   3.014  1.00  0.00     0.163 HD
ATOM     30  O   UNL     1       2.139  -3.159   5.388  1.00  0.00    -0.269 OA
BRANCH  28  31
ATOM     31  C   UNL     1       2.921  -0.978   5.805  1.00  0.00     0.039 A 
ATOM     32  C   UNL     1       3.788  -1.240   6.864  1.00  0.00     0.014 A 
ATOM     33  C   UNL     1       2.484   0.325   5.544  1.00  0.00     0.014 A 
ATOM     34  C   UNL     1       4.239  -0.182   7.650  1.00  0.00     0.010 A 
ATOM     35  C   UNL     1       3.021   1.387   6.259  1.00  0.00     0.010 A 
ATOM     36  C   UNL     1       3.874   1.141   7.344  1.00  0.00    -0.014 A 
BRANCH  36  37
ATOM     37  C   UNL     1       4.318   2.269   8.200  1.00  0.00     0.031 A 
ATOM     38  C   UNL     1       3.291   3.088   8.938  1.00  0.00     0.074 A 
ATOM     39  C   UNL     1       5.628   2.562   8.302  1.00  0.00     0.049 A 
ATOM     40  N   UNL     1       3.463   4.114   9.731  1.00  0.00    -0.248 NA
ATOM     41  C   UNL     1       1.880   2.726   8.729  1.00  0.00     0.031 C 
ATOM     42  C   UNL     1       6.708   1.867   7.596  1.00  0.00     0.029 A 
ATOM     43  N   UNL     1       6.278   3.514   9.045  1.00  0.00    -0.354 N 
ATOM     44  C   UNL     1       2.186   4.522  10.104  1.00  0.00     0.074 A 
ATOM     45  C   UNL     1       1.251   3.690   9.381  1.00  0.00     0.031 C 
ATOM     46  C   UNL     1       7.887   2.386   7.976  1.00  0.00     0.029 A 
ATOM     47  C   UNL     1       7.647   3.477   8.916  1.00  0.00     0.049 A 
ATOM     48  H   UNL     1       5.809   4.163   9.617  1.00  0.00     0.167 HD
ATOM     49  C   UNL     1       1.826   5.478  10.995  1.00  0.00     0.034 A 
ATOM     50  C   UNL     1       8.599   4.236   9.493  1.00  0.00     0.034 A 
ATOM     51  C   UNL     1       2.775   6.289  11.716  1.00  0.00     0.049 A 
ATOM     52  C   UNL     1       8.174   5.303  10.472  1.00  0.00     0.074 A 
ATOM     53  C   UNL     1       2.531   7.261  12.670  1.00  0.00     0.029 A 
ATOM     54  N   UNL     1       4.155   6.225  11.559  1.00  0.00    -0.354 N 
ATOM     55  N   UNL     1       6.963   5.643  10.855  1.00  0.00    -0.248 NA
ATOM     56  C   UNL     1       9.246   6.071  11.113  1.00  0.00     0.031 C 
ATOM     57  C   UNL     1       3.754   7.834  13.034  1.00  0.00     0.029 A 
ATOM     58  C   UNL     1       4.772   7.159  12.379  1.00  0.00     0.049 A 
ATOM     59  H   UNL     1       4.626   5.608  10.954  1.00  0.00     0.167 HD
ATOM     60  C   UNL     1       7.135   6.639  11.812  1.00  0.00     0.074 A 
ATOM     61  C   UNL     1       8.564   6.823  11.962  1.00  0.00     0.031 C 
ATOM     62  C   UNL     1       6.200   7.338  12.508  1.00  0.00     0.034 A 
BRANCH  49  63
ATOM     63  C   UNL     1       0.346   5.702  11.211  1.00  0.00     0.023 A 
ATOM     64  C   UNL     1      -0.495   4.684  11.697  1.00  0.00     0.031 A 
ATOM     65  C   UNL     1      -0.242   6.937  10.888  1.00  0.00     0.131 A 
ATOM     66  C   UNL     1      -1.881   4.889  11.763  1.00  0.00     0.055 A 
ATOM     67  C   UNL     1      -1.611   7.165  11.044  1.00  0.00     0.041 A 
ATOM     68  F   UNL     1       0.501   7.941  10.395  1.00  0.00    -0.206 F 
ATOM     69  C   UNL     1      -2.442   6.133  11.468  1.00  0.00     0.022 A 
BRANCH  66  70
ATOM     70  S   UNL     1      -2.954   3.461  12.082  1.00  0.00     0.124 S 
ATOM     71  O   UNL     1      -2.603   2.576  10.973  1.00  0.00    -0.237 OA
ATOM     72  O   UNL     1      -2.521   3.030  13.406  1.00  0.00    -0.237 OA
ATOM     73  O   UNL     1      -4.301   4.024  12.017  1.00  0.00    -0.744 OA
ENDBRANCH  66  70
ENDBRANCH  49  63
BRANCH  50  74
ATOM     74  C   UNL     1      10.041   4.020   9.176  1.00  0.00     0.023 A 
ATOM     75  C   UNL     1      10.951   3.623  10.169  1.00  0.00     0.031 A 
ATOM     76  C   UNL     1      10.541   4.261   7.884  1.00  0.00     0.131 A 
ATOM     77  C   UNL     1      12.320   3.536   9.871  1.00  0.00     0.055 A 
ATOM     78  C   UNL     1      11.895   4.114   7.577  1.00  0.00     0.041 A 
ATOM     79  F   UNL     1       9.715   4.638   6.895  1.00  0.00    -0.206 F 
ATOM     80  C   UNL     1      12.796   3.765   8.578  1.00  0.00     0.022 A 
BRANCH  77  81
ATOM     81  S   UNL     1      13.486   3.217  11.224  1.00  0.00     0.124 S 
ATOM     82  O   UNL     1      13.201   4.325  12.128  1.00  0.00    -0.237 OA
ATOM     83  O   UNL     1      13.070   1.894  11.676  1.00  0.00    -0.237 OA
ATOM     84  O   UNL     1      14.790   3.267  10.566  1.00  0.00    -0.744 OA
ENDBRANCH  77  81
ENDBRANCH  50  74
BRANCH  62  85
ATOM     85  C   UNL     1       6.708   8.325  13.534  1.00  0.00     0.023 A 
ATOM     86  C   UNL     1       7.487   9.438  13.171  1.00  0.00     0.031 A 
ATOM     87  C   UNL     1       6.448   8.121  14.901  1.00  0.00     0.131 A 
ATOM     88  C   UNL     1       8.053  10.249  14.166  1.00  0.00     0.055 A 
ATOM     89  C   UNL     1       6.946   8.980  15.882  1.00  0.00     0.041 A 
ATOM     90  F   UNL     1       5.713   7.075  15.310  1.00  0.00    -0.206 F 
ATOM     91  C   UNL     1       7.772  10.039  15.518  1.00  0.00     0.022 A 
BRANCH  88  92
ATOM     92  S   UNL     1       9.286  11.487  13.676  1.00  0.00     0.124 S 
ATOM     93  O   UNL     1      10.254  10.677  12.943  1.00  0.00    -0.237 OA
ATOM     94  O   UNL     1       8.494  12.414  12.875  1.00  0.00    -0.237 OA
ATOM     95  O   UNL     1       9.762  12.019  14.951  1.00  0.00    -0.744 OA
ENDBRANCH  88  92
ENDBRANCH  62  85
ENDBRANCH  36  37
ENDBRANCH  28  31
ENDBRANCH  26  27
ENDBRANCH  25  26
ENDBRANCH   1  25
TORSDOF 18
