REMARK SMILES COc1nc(-c2ccccc2)nc(C)c1CC(=O)NCCCNC(=O)c1ccc(-c2c3nc(c(-c4cc(S(=O)(=O)[O-])ccc4F)c4ccc([nH]4)c(-c4cc(S(=O)(=O)[O-])ccc4F)c4nc(c(-c5cc(S(=O)(=O)[O-])ccc5F)c5ccc2[nH]5)C=C4)C=C3)cc1
REMARK SMILES IDX 21 1 20 2 19 3 17 4 18 5 16 7 15 8 3 9 4 10 5 11 13 12 12 13
REMARK SMILES IDX 14 14 2 15 1 16 6 17 7 18 11 19 8 20 10 21 9 22 22 23 23 24
REMARK SMILES IDX 24 25 25 27 26 28 27 29 88 30 28 31 87 32 29 33 30 34 31 35
REMARK SMILES IDX 81 36 32 37 86 38 80 39 82 40 33 41 85 42 79 43 78 44 34 46
REMARK SMILES IDX 66 47 46 48 65 49 47 50 50 51 64 52 83 53 48 54 49 55 63 57
REMARK SMILES IDX 84 58 51 59 35 60 36 61 44 62 37 63 43 64 45 65 42 66 38 67
REMARK SMILES IDX 39 68 40 69 41 70 67 71 68 72 76 73 69 74 75 75 77 76 74 77
REMARK SMILES IDX 70 78 71 79 72 80 73 81 52 82 53 83 61 84 54 85 60 86 62 87
REMARK SMILES IDX 59 88 55 89 56 90 57 91 58 92
REMARK H PARENT 19 6 23 26 82 45 50 56
REMARK Flexibility Score: inf
ROOT
ATOM      1  C   UNL     1       1.978  -3.903  -2.178  1.00  0.00     0.042 C 
ENDROOT
BRANCH   1   2
ATOM      2  C   UNL     1       3.336  -3.246  -1.940  1.00  0.00     0.117 C 
BRANCH   2   3
ATOM      3  N   UNL     1       3.257  -1.804  -1.809  1.00  0.00    -0.356 N 
ATOM      4  C   UNL     1       3.371  -1.002  -0.713  1.00  0.00     0.224 C 
ATOM      5  O   UNL     1       3.397   0.216  -0.909  1.00  0.00    -0.275 OA
ATOM      6  H   UNL     1       3.095  -1.323  -2.653  1.00  0.00     0.163 HD
BRANCH   4   7
ATOM      7  C   UNL     1       3.536  -1.566   0.693  1.00  0.00     0.143 C 
BRANCH   7   8
ATOM      8  C   UNL     1       2.451  -2.503   1.141  1.00  0.00     0.045 A 
ATOM      9  C   UNL     1       1.141  -2.058   1.297  1.00  0.00     0.220 A 
ATOM     10  N   UNL     1       0.083  -2.839   1.580  1.00  0.00    -0.193 NA
ATOM     11  C   UNL     1       0.367  -4.135   1.778  1.00  0.00     0.163 A 
ATOM     12  C   UNL     1       2.637  -3.847   1.425  1.00  0.00     0.049 A 
ATOM     13  N   UNL     1       1.607  -4.657   1.740  1.00  0.00    -0.233 NA
ATOM     14  C   UNL     1       3.962  -4.550   1.441  1.00  0.00     0.067 C 
BRANCH   9  15
ATOM     15  O   UNL     1       0.937  -0.702   1.417  1.00  0.00    -0.481 OA
ATOM     16  C   UNL     1       0.393  -0.127   0.236  1.00  0.00     0.280 C 
ENDBRANCH   9  15
BRANCH  11  17
ATOM     17  C   UNL     1      -0.712  -5.088   2.065  1.00  0.00     0.019 A 
ATOM     18  C   UNL     1      -0.593  -5.998   3.135  1.00  0.00     0.012 A 
ATOM     19  C   UNL     1      -1.848  -5.189   1.246  1.00  0.00     0.012 A 
ATOM     20  C   UNL     1      -1.563  -6.974   3.374  1.00  0.00     0.001 A 
ATOM     21  C   UNL     1      -2.812  -6.178   1.472  1.00  0.00     0.001 A 
ATOM     22  C   UNL     1      -2.670  -7.069   2.535  1.00  0.00     0.000 A 
ENDBRANCH  11  17
ENDBRANCH   7   8
ENDBRANCH   4   7
ENDBRANCH   2   3
ENDBRANCH   1   2
BRANCH   1  23
ATOM     23  C   UNL     1       1.339  -3.565  -3.525  1.00  0.00     0.118 C 
BRANCH  23  24
ATOM     24  N   UNL     1       2.160  -3.976  -4.655  1.00  0.00    -0.352 N 
ATOM     25  C   UNL     1       1.911  -4.868  -5.670  1.00  0.00     0.251 C 
ATOM     26  H   UNL     1       3.042  -3.541  -4.700  1.00  0.00     0.163 HD
ATOM     27  O   UNL     1       2.842  -5.211  -6.394  1.00  0.00    -0.269 OA
BRANCH  25  28
ATOM     28  C   UNL     1       0.556  -5.423  -5.890  1.00  0.00     0.039 A 
ATOM     29  C   UNL     1       0.432  -6.765  -6.264  1.00  0.00     0.014 A 
ATOM     30  C   UNL     1      -0.587  -4.625  -5.787  1.00  0.00     0.014 A 
ATOM     31  C   UNL     1      -0.834  -7.320  -6.469  1.00  0.00     0.010 A 
ATOM     32  C   UNL     1      -1.852  -5.197  -5.922  1.00  0.00     0.010 A 
ATOM     33  C   UNL     1      -1.991  -6.551  -6.263  1.00  0.00    -0.014 A 
BRANCH  33  34
ATOM     34  C   UNL     1      -3.349  -7.143  -6.403  1.00  0.00     0.031 A 
ATOM     35  C   UNL     1      -4.289  -6.639  -7.466  1.00  0.00     0.074 A 
ATOM     36  C   UNL     1      -3.755  -8.094  -5.537  1.00  0.00     0.049 A 
ATOM     37  N   UNL     1      -5.542  -6.951  -7.679  1.00  0.00    -0.248 NA
ATOM     38  C   UNL     1      -3.755  -5.633  -8.396  1.00  0.00     0.031 C 
ATOM     39  C   UNL     1      -2.945  -8.644  -4.447  1.00  0.00     0.029 A 
ATOM     40  N   UNL     1      -4.952  -8.758  -5.425  1.00  0.00    -0.354 N 
ATOM     41  C   UNL     1      -5.948  -6.179  -8.763  1.00  0.00     0.074 A 
ATOM     42  C   UNL     1      -4.824  -5.339  -9.122  1.00  0.00     0.031 C 
ATOM     43  C   UNL     1      -3.663  -9.568  -3.789  1.00  0.00     0.029 A 
ATOM     44  C   UNL     1      -4.998  -9.643  -4.372  1.00  0.00     0.049 A 
ATOM     45  H   UNL     1      -5.706  -8.614  -6.041  1.00  0.00     0.167 HD
ATOM     46  C   UNL     1      -7.137  -6.189  -9.416  1.00  0.00     0.034 A 
ATOM     47  C   UNL     1      -6.008 -10.412  -3.915  1.00  0.00     0.034 A 
ATOM     48  C   UNL     1      -8.247  -7.035  -9.052  1.00  0.00     0.049 A 
ATOM     49  C   UNL     1      -7.334 -10.376  -4.636  1.00  0.00     0.074 A 
ATOM     50  C   UNL     1      -9.489  -7.137  -9.657  1.00  0.00     0.029 A 
ATOM     51  N   UNL     1      -8.252  -7.928  -7.988  1.00  0.00    -0.354 N 
ATOM     52  N   UNL     1      -7.688  -9.659  -5.678  1.00  0.00    -0.248 NA
ATOM     53  C   UNL     1      -8.391 -11.260  -4.128  1.00  0.00     0.031 C 
ATOM     54  C   UNL     1     -10.262  -8.045  -8.926  1.00  0.00     0.029 A 
ATOM     55  C   UNL     1      -9.479  -8.568  -7.909  1.00  0.00     0.049 A 
ATOM     56  H   UNL     1      -7.495  -8.083  -7.378  1.00  0.00     0.167 HD
ATOM     57  C   UNL     1      -8.996 -10.038  -5.970  1.00  0.00     0.074 A 
ATOM     58  C   UNL     1      -9.359 -11.056  -5.008  1.00  0.00     0.031 C 
ATOM     59  C   UNL     1      -9.825  -9.585  -6.945  1.00  0.00     0.034 A 
BRANCH  46  60
ATOM     60  C   UNL     1      -7.299  -5.246 -10.584  1.00  0.00     0.023 A 
ATOM     61  C   UNL     1      -6.522  -5.381 -11.748  1.00  0.00     0.031 A 
ATOM     62  C   UNL     1      -8.239  -4.202 -10.537  1.00  0.00     0.131 A 
ATOM     63  C   UNL     1      -6.654  -4.452 -12.790  1.00  0.00     0.055 A 
ATOM     64  C   UNL     1      -8.420  -3.326 -11.611  1.00  0.00     0.041 A 
ATOM     65  F   UNL     1      -8.995  -4.010  -9.445  1.00  0.00    -0.206 F 
ATOM     66  C   UNL     1      -7.617  -3.442 -12.742  1.00  0.00     0.022 A 
BRANCH  63  67
ATOM     67  S   UNL     1      -5.468  -4.514 -14.160  1.00  0.00     0.124 S 
ATOM     68  O   UNL     1      -4.204  -4.278 -13.466  1.00  0.00    -0.237 OA
ATOM     69  O   UNL     1      -5.664  -5.858 -14.690  1.00  0.00    -0.237 OA
ATOM     70  O   UNL     1      -5.901  -3.428 -15.038  1.00  0.00    -0.744 OA
ENDBRANCH  63  67
ENDBRANCH  46  60
BRANCH  47  71
ATOM     71  C   UNL     1      -5.829 -11.265  -2.702  1.00  0.00     0.023 A 
ATOM     72  C   UNL     1      -5.965 -12.660  -2.773  1.00  0.00     0.031 A 
ATOM     73  C   UNL     1      -5.597 -10.691  -1.439  1.00  0.00     0.131 A 
ATOM     74  C   UNL     1      -5.940 -13.427  -1.597  1.00  0.00     0.055 A 
ATOM     75  C   UNL     1      -5.505 -11.465  -0.281  1.00  0.00     0.041 A 
ATOM     76  F   UNL     1      -5.456  -9.361  -1.311  1.00  0.00    -0.206 F 
ATOM     77  C   UNL     1      -5.697 -12.841  -0.354  1.00  0.00     0.022 A 
BRANCH  74  78
ATOM     78  S   UNL     1      -6.361 -15.189  -1.704  1.00  0.00     0.124 S 
ATOM     79  O   UNL     1      -7.662 -15.143  -2.362  1.00  0.00    -0.237 OA
ATOM     80  O   UNL     1      -5.257 -15.715  -2.498  1.00  0.00    -0.237 OA
ATOM     81  O   UNL     1      -6.383 -15.617  -0.307  1.00  0.00    -0.744 OA
ENDBRANCH  74  78
ENDBRANCH  47  71
BRANCH  59  82
ATOM     82  C   UNL     1     -11.183 -10.236  -7.050  1.00  0.00     0.023 A 
ATOM     83  C   UNL     1     -12.155 -10.089  -6.046  1.00  0.00     0.031 A 
ATOM     84  C   UNL     1     -11.501 -11.027  -8.169  1.00  0.00     0.131 A 
ATOM     85  C   UNL     1     -13.377 -10.771  -6.152  1.00  0.00     0.055 A 
ATOM     86  C   UNL     1     -12.741 -11.652  -8.298  1.00  0.00     0.041 A 
ATOM     87  F   UNL     1     -10.609 -11.203  -9.157  1.00  0.00    -0.206 F 
ATOM     88  C   UNL     1     -13.683 -11.537  -7.280  1.00  0.00     0.022 A 
BRANCH  85  89
ATOM     89  S   UNL     1     -14.529 -10.716  -4.752  1.00  0.00     0.124 S 
ATOM     90  O   UNL     1     -13.721 -11.270  -3.671  1.00  0.00    -0.237 OA
ATOM     91  O   UNL     1     -14.835  -9.293  -4.654  1.00  0.00    -0.237 OA
ATOM     92  O   UNL     1     -15.641 -11.559  -5.190  1.00  0.00    -0.744 OA
ENDBRANCH  85  89
ENDBRANCH  59  82
ENDBRANCH  33  34
ENDBRANCH  25  28
ENDBRANCH  23  24
ENDBRANCH   1  23
TORSDOF 16
