REMARK SMILES O=C(NCCCNC(=O)c1ccc(-c2c3nc(c(-c4cc(S(=O)(=O)[O-])ccc4F)c4ccc([nH]4)c(-c4cc(S(=O)(=O)[O-])ccc4F)c4nc(c(-c5cc(S(=O)(=O)[O-])ccc5F)c5ccc2[nH]5)C=C4)C=C3)cc1)C1=NN(c2cc(F)ccc2F)[C@@H](c2ccccc2)C1
REMARK SMILES IDX 6 1 5 2 4 3 3 4 1 5 2 6 73 8 74 9 91 10 75 11 84 12 76 13
REMARK SMILES IDX 77 14 82 15 78 16 81 17 83 18 79 19 80 20 85 21 86 22 90 23
REMARK SMILES IDX 87 24 89 25 88 26 7 27 8 28 9 30 10 31 11 32 72 33 12 34
REMARK SMILES IDX 71 35 13 36 14 37 15 38 65 39 16 40 70 41 64 42 66 43 17 44
REMARK SMILES IDX 69 45 63 46 62 47 18 49 50 50 30 51 49 52 31 53 34 54 48 55
REMARK SMILES IDX 67 56 32 57 33 58 47 60 68 61 35 62 19 63 20 64 28 65 21 66
REMARK SMILES IDX 27 67 29 68 26 69 22 70 23 71 24 72 25 73 51 74 52 75 60 76
REMARK SMILES IDX 53 77 59 78 61 79 58 80 54 81 55 82 56 83 57 84 36 85 37 86
REMARK SMILES IDX 45 87 38 88 44 89 46 90 43 91 39 92 40 93 41 94 42 95
REMARK H PARENT 3 7 7 29 66 48 34 59
REMARK Flexibility Score: inf
ROOT
ATOM      1  C   UNL     1       4.452   3.443   0.079  1.00  0.00     0.118 C 
ENDROOT
BRANCH   1   2
ATOM      2  C   UNL     1       4.913   2.009  -0.155  1.00  0.00     0.042 C 
BRANCH   2   3
ATOM      3  C   UNL     1       4.349   1.007   0.846  1.00  0.00     0.118 C 
BRANCH   3   4
ATOM      4  N   UNL     1       2.927   0.755   0.651  1.00  0.00    -0.351 N 
ATOM      5  O   UNL     1       1.099  -0.465   0.049  1.00  0.00    -0.268 OA
ATOM      6  C   UNL     1       2.316  -0.375   0.163  1.00  0.00     0.267 C 
ATOM      7  H   UNL     1       2.324   1.492   0.903  1.00  0.00     0.163 HD
BRANCH   6   8
ATOM      8  C   UNL     1       3.163  -1.528  -0.296  1.00  0.00     0.128 C 
ATOM      9  N   UNL     1       4.130  -2.023   0.412  1.00  0.00    -0.171 NA
ATOM     10  C   UNL     1       2.917  -2.142  -1.636  1.00  0.00     0.096 C 
ATOM     11  N   UNL     1       4.753  -2.917  -0.397  1.00  0.00    -0.254 N 
ATOM     12  C   UNL     1       4.024  -3.204  -1.639  1.00  0.00     0.144 C 
BRANCH  11  13
ATOM     13  C   UNL     1       5.896  -3.590   0.021  1.00  0.00     0.099 A 
ATOM     14  C   UNL     1       6.064  -3.927   1.372  1.00  0.00     0.070 A 
ATOM     15  C   UNL     1       6.913  -3.974  -0.870  1.00  0.00     0.148 A 
ATOM     16  C   UNL     1       7.174  -4.655   1.789  1.00  0.00     0.125 A 
ATOM     17  C   UNL     1       8.040  -4.680  -0.447  1.00  0.00     0.044 A 
ATOM     18  F   UNL     1       6.838  -3.643  -2.169  1.00  0.00    -0.205 F 
ATOM     19  F   UNL     1       7.283  -5.012   3.076  1.00  0.00    -0.207 F 
ATOM     20  C   UNL     1       8.165  -5.034   0.892  1.00  0.00     0.042 A 
ENDBRANCH  11  13
BRANCH  12  21
ATOM     21  C   UNL     1       3.547  -4.652  -1.601  1.00  0.00    -0.023 A 
ATOM     22  C   UNL     1       2.600  -5.097  -0.663  1.00  0.00     0.006 A 
ATOM     23  C   UNL     1       4.195  -5.609  -2.401  1.00  0.00     0.006 A 
ATOM     24  C   UNL     1       2.327  -6.458  -0.516  1.00  0.00     0.000 A 
ATOM     25  C   UNL     1       3.926  -6.970  -2.247  1.00  0.00     0.000 A 
ATOM     26  C   UNL     1       2.997  -7.394  -1.300  1.00  0.00     0.000 A 
ENDBRANCH  12  21
ENDBRANCH   6   8
ENDBRANCH   3   4
ENDBRANCH   2   3
ENDBRANCH   1   2
BRANCH   1  27
ATOM     27  N   UNL     1       4.945   3.995   1.335  1.00  0.00    -0.352 N 
ATOM     28  C   UNL     1       5.722   5.104   1.573  1.00  0.00     0.251 C 
ATOM     29  H   UNL     1       4.680   3.494   2.140  1.00  0.00     0.163 HD
ATOM     30  O   UNL     1       6.171   5.295   2.700  1.00  0.00    -0.269 OA
BRANCH  28  31
ATOM     31  C   UNL     1       6.036   6.047   0.477  1.00  0.00     0.039 A 
ATOM     32  C   UNL     1       7.344   6.524   0.346  1.00  0.00     0.014 A 
ATOM     33  C   UNL     1       5.045   6.469  -0.412  1.00  0.00     0.014 A 
ATOM     34  C   UNL     1       7.678   7.355  -0.728  1.00  0.00     0.010 A 
ATOM     35  C   UNL     1       5.392   7.242  -1.516  1.00  0.00     0.010 A 
ATOM     36  C   UNL     1       6.713   7.684  -1.692  1.00  0.00    -0.014 A 
BRANCH  36  37
ATOM     37  C   UNL     1       7.042   8.484  -2.899  1.00  0.00     0.031 A 
ATOM     38  C   UNL     1       6.388   9.821  -3.105  1.00  0.00     0.074 A 
ATOM     39  C   UNL     1       7.832   7.962  -3.857  1.00  0.00     0.049 A 
ATOM     40  N   UNL     1       6.349  10.572  -4.175  1.00  0.00    -0.248 NA
ATOM     41  C   UNL     1       5.647  10.364  -1.957  1.00  0.00     0.031 C 
ATOM     42  C   UNL     1       8.514   6.668  -3.783  1.00  0.00     0.029 A 
ATOM     43  N   UNL     1       8.172   8.446  -5.095  1.00  0.00    -0.354 N 
ATOM     44  C   UNL     1       5.551  11.661  -3.843  1.00  0.00     0.074 A 
ATOM     45  C   UNL     1       5.100  11.449  -2.482  1.00  0.00     0.031 C 
ATOM     46  C   UNL     1       9.192   6.463  -4.923  1.00  0.00     0.029 A 
ATOM     47  C   UNL     1       8.951   7.582  -5.828  1.00  0.00     0.049 A 
ATOM     48  H   UNL     1       7.886   9.327  -5.426  1.00  0.00     0.167 HD
ATOM     49  C   UNL     1       5.232  12.741  -4.600  1.00  0.00     0.034 A 
ATOM     50  C   UNL     1       9.394   7.667  -7.098  1.00  0.00     0.034 A 
ATOM     51  C   UNL     1       5.708  12.947  -5.946  1.00  0.00     0.049 A 
ATOM     52  C   UNL     1       9.018   8.866  -7.926  1.00  0.00     0.074 A 
ATOM     53  C   UNL     1       5.477  14.018  -6.793  1.00  0.00     0.029 A 
ATOM     54  N   UNL     1       6.519  12.061  -6.644  1.00  0.00    -0.354 N 
ATOM     55  N   UNL     1       8.253   9.882  -7.605  1.00  0.00    -0.248 NA
ATOM     56  C   UNL     1       9.564   8.925  -9.289  1.00  0.00     0.031 C 
ATOM     57  C   UNL     1       6.113  13.761  -8.014  1.00  0.00     0.029 A 
ATOM     58  C   UNL     1       6.785  12.553  -7.912  1.00  0.00     0.049 A 
ATOM     59  H   UNL     1       6.855  11.206  -6.289  1.00  0.00     0.167 HD
ATOM     60  C   UNL     1       8.248  10.716  -8.718  1.00  0.00     0.074 A 
ATOM     61  C   UNL     1       9.084  10.084  -9.718  1.00  0.00     0.031 C 
ATOM     62  C   UNL     1       7.615  11.903  -8.895  1.00  0.00     0.034 A 
BRANCH  49  63
ATOM     63  C   UNL     1       4.294  13.752  -3.989  1.00  0.00     0.023 A 
ATOM     64  C   UNL     1       4.652  14.495  -2.851  1.00  0.00     0.031 A 
ATOM     65  C   UNL     1       3.002  13.932  -4.514  1.00  0.00     0.131 A 
ATOM     66  C   UNL     1       3.703  15.313  -2.222  1.00  0.00     0.055 A 
ATOM     67  C   UNL     1       2.088  14.812  -3.931  1.00  0.00     0.041 A 
ATOM     68  F   UNL     1       2.597  13.236  -5.588  1.00  0.00    -0.206 F 
ATOM     69  C   UNL     1       2.429  15.495  -2.767  1.00  0.00     0.022 A 
BRANCH  66  70
ATOM     70  S   UNL     1       4.104  16.009  -0.596  1.00  0.00     0.124 S 
ATOM     71  O   UNL     1       4.359  14.801   0.186  1.00  0.00    -0.237 OA
ATOM     72  O   UNL     1       5.267  16.839  -0.887  1.00  0.00    -0.237 OA
ATOM     73  O   UNL     1       2.893  16.738  -0.227  1.00  0.00    -0.744 OA
ENDBRANCH  66  70
ENDBRANCH  49  63
BRANCH  50  74
ATOM     74  C   UNL     1      10.218   6.573  -7.678  1.00  0.00     0.023 A 
ATOM     75  C   UNL     1      11.578   6.771  -7.957  1.00  0.00     0.031 A 
ATOM     76  C   UNL     1       9.652   5.322  -7.979  1.00  0.00     0.131 A 
ATOM     77  C   UNL     1      12.324   5.743  -8.554  1.00  0.00     0.055 A 
ATOM     78  C   UNL     1      10.407   4.291  -8.539  1.00  0.00     0.041 A 
ATOM     79  F   UNL     1       8.357   5.083  -7.719  1.00  0.00    -0.206 F 
ATOM     80  C   UNL     1      11.750   4.502  -8.839  1.00  0.00     0.022 A 
BRANCH  77  81
ATOM     81  S   UNL     1      14.050   6.071  -9.001  1.00  0.00     0.124 S 
ATOM     82  O   UNL     1      13.910   7.179  -9.939  1.00  0.00    -0.237 OA
ATOM     83  O   UNL     1      14.641   6.396  -7.707  1.00  0.00    -0.237 OA
ATOM     84  O   UNL     1      14.495   4.808  -9.587  1.00  0.00    -0.744 OA
ENDBRANCH  77  81
ENDBRANCH  50  74
BRANCH  62  85
ATOM     85  C   UNL     1       7.859  12.612 -10.200  1.00  0.00     0.023 A 
ATOM     86  C   UNL     1       7.280  12.168 -11.401  1.00  0.00     0.031 A 
ATOM     87  C   UNL     1       8.695  13.741 -10.237  1.00  0.00     0.131 A 
ATOM     88  C   UNL     1       7.577  12.831 -12.601  1.00  0.00     0.055 A 
ATOM     89  C   UNL     1       8.955  14.420 -11.427  1.00  0.00     0.041 A 
ATOM     90  F   UNL     1       9.272  14.200  -9.115  1.00  0.00    -0.206 F 
ATOM     91  C   UNL     1       8.402  13.961 -12.620  1.00  0.00     0.022 A 
BRANCH  88  92
ATOM     92  S   UNL     1       6.912  12.169 -14.153  1.00  0.00     0.124 S 
ATOM     93  O   UNL     1       7.541  10.854 -14.216  1.00  0.00    -0.237 OA
ATOM     94  O   UNL     1       5.473  12.176 -13.906  1.00  0.00    -0.237 OA
ATOM     95  O   UNL     1       7.370  13.125 -15.159  1.00  0.00    -0.744 OA
ENDBRANCH  88  92
ENDBRANCH  62  85
ENDBRANCH  36  37
ENDBRANCH  28  31
ENDBRANCH   1  27
TORSDOF 15
