REMARK SMILES COc1cccc(OC)c1[C@@H](C(=O)NCCCNC(=O)c1ccc(-c2c3nc(c(-c4cc(S(=O)(=O)[O-])ccc4F)c4ccc([nH]4)c(-c4cc(S(=O)(=O)[O-])ccc4F)c4nc(c(-c5cc(S(=O)(=O)[O-])ccc5F)c5ccc2[nH]5)C=C4)C=C3)cc1)[N@@H+](C)Cc1c(C)n[nH]c1C
REMARK SMILES IDX 16 1 15 2 14 3 12 4 13 5 11 7 10 8 3 9 4 10 5 11 7 12 6 13
REMARK SMILES IDX 2 14 1 15 8 16 9 17 84 18 85 19 86 21 87 22 88 23 92 24
REMARK SMILES IDX 89 25 90 26 91 27 93 28 17 30 18 31 19 32 20 34 21 35 22 36
REMARK SMILES IDX 83 37 23 38 82 39 24 40 25 41 26 42 76 43 27 44 81 45 75 46
REMARK SMILES IDX 77 47 28 48 80 49 74 50 73 51 29 53 61 54 41 55 60 56 42 57
REMARK SMILES IDX 45 58 59 59 78 60 43 61 44 62 58 64 79 65 46 66 30 67 31 68
REMARK SMILES IDX 39 69 32 70 38 71 40 72 37 73 33 74 34 75 35 76 36 77 62 78
REMARK SMILES IDX 63 79 71 80 64 81 70 82 72 83 69 84 65 85 66 86 67 87 68 88
REMARK SMILES IDX 47 89 48 90 56 91 49 92 55 93 57 94 54 95 50 96 51 97 52 98
REMARK SMILES IDX 53 99
REMARK H PARENT 14 6 84 20 91 29 18 33 77 52 45 63
REMARK Flexibility Score: inf
ROOT
ATOM      1  C   UNL     1       2.102   3.782   2.160  1.00  0.00     0.042 C 
ENDROOT
BRANCH   1   2
ATOM      2  C   UNL     1       2.332   3.015   0.869  1.00  0.00     0.118 C 
BRANCH   2   3
ATOM      3  N   UNL     1       3.598   2.326   0.819  1.00  0.00    -0.351 N 
ATOM      4  C   UNL     1       3.984   1.035   0.960  1.00  0.00     0.283 C 
ATOM      5  O   UNL     1       5.101   0.842   0.451  1.00  0.00    -0.268 OA
ATOM      6  H   UNL     1       4.354   2.931   0.642  1.00  0.00     0.163 HD
BRANCH   4   7
ATOM      7  C   UNL     1       3.145  -0.150   1.539  1.00  0.00     0.313 C 
BRANCH   7   8
ATOM      8  C   UNL     1       1.970   0.085   2.537  1.00  0.00     0.103 A 
ATOM      9  C   UNL     1       0.658   0.371   2.059  1.00  0.00     0.132 A 
ATOM     10  C   UNL     1      -0.395   0.710   2.927  1.00  0.00     0.047 A 
ATOM     11  C   UNL     1      -0.223   0.666   4.299  1.00  0.00     0.008 A 
ATOM     12  C   UNL     1       2.106   0.066   3.954  1.00  0.00     0.132 A 
ATOM     13  C   UNL     1       1.015   0.311   4.808  1.00  0.00     0.047 A 
BRANCH   9  14
ATOM     14  O   UNL     1       0.326   0.560   0.739  1.00  0.00    -0.496 OA
ATOM     15  C   UNL     1       0.290  -0.604  -0.073  1.00  0.00     0.278 C 
ENDBRANCH   9  14
BRANCH  12  16
ATOM     16  O   UNL     1       3.336  -0.189   4.472  1.00  0.00    -0.496 OA
ATOM     17  C   UNL     1       3.622   0.056   5.842  1.00  0.00     0.278 C 
ENDBRANCH  12  16
ENDBRANCH   7   8
BRANCH   7  18
ATOM     18  N   UNL     1       3.969  -1.403   1.718  1.00  0.00    -0.319 N 
ATOM     19  C   UNL     1       4.463  -1.959   0.454  1.00  0.00     0.333 C 
ATOM     20  H   UNL     1       3.211  -1.949   2.127  1.00  0.00     0.349 HD
BRANCH  18  21
ATOM     21  C   UNL     1       4.968  -1.567   2.788  1.00  0.00     0.303 C 
BRANCH  21  22
ATOM     22  C   UNL     1       6.183  -0.666   2.920  1.00  0.00     0.050 A 
ATOM     23  C   UNL     1       6.358   0.729   3.245  1.00  0.00     0.068 A 
ATOM     24  C   UNL     1       7.495  -1.144   2.981  1.00  0.00     0.041 A 
ATOM     25  C   UNL     1       5.411   1.834   3.529  1.00  0.00     0.069 C 
ATOM     26  N   UNL     1       7.651   1.067   3.353  1.00  0.00    -0.180 NA
ATOM     27  N   UNL     1       8.308  -0.064   3.143  1.00  0.00    -0.282 N 
ATOM     28  C   UNL     1       8.057  -2.515   2.967  1.00  0.00     0.066 C 
ATOM     29  H   UNL     1       9.290  -0.119   3.107  1.00  0.00     0.190 HD
ENDBRANCH  21  22
ENDBRANCH  18  21
ENDBRANCH   7  18
ENDBRANCH   4   7
ENDBRANCH   2   3
ENDBRANCH   1   2
BRANCH   1  30
ATOM     30  C   UNL     1       3.102   4.912   2.391  1.00  0.00     0.118 C 
BRANCH  30  31
ATOM     31  N   UNL     1       3.181   5.836   1.269  1.00  0.00    -0.352 N 
ATOM     32  C   UNL     1       2.890   7.171   1.168  1.00  0.00     0.251 C 
ATOM     33  H   UNL     1       3.502   5.428   0.432  1.00  0.00     0.163 HD
ATOM     34  O   UNL     1       2.830   7.674   0.049  1.00  0.00    -0.269 OA
BRANCH  32  35
ATOM     35  C   UNL     1       2.640   8.001   2.367  1.00  0.00     0.039 A 
ATOM     36  C   UNL     1       1.704   9.036   2.273  1.00  0.00     0.014 A 
ATOM     37  C   UNL     1       3.360   7.826   3.552  1.00  0.00     0.014 A 
ATOM     38  C   UNL     1       1.462   9.859   3.374  1.00  0.00     0.010 A 
ATOM     39  C   UNL     1       3.057   8.593   4.676  1.00  0.00     0.010 A 
ATOM     40  C   UNL     1       2.115   9.627   4.596  1.00  0.00    -0.014 A 
BRANCH  40  41
ATOM     41  C   UNL     1       1.822  10.476   5.781  1.00  0.00     0.031 A 
ATOM     42  C   UNL     1       2.893  11.352   6.377  1.00  0.00     0.074 A 
ATOM     43  C   UNL     1       0.593  10.441   6.331  1.00  0.00     0.049 A 
ATOM     44  N   UNL     1       2.822  12.164   7.401  1.00  0.00    -0.248 NA
ATOM     45  C   UNL     1       4.224  11.285   5.757  1.00  0.00     0.031 C 
ATOM     46  C   UNL     1      -0.512   9.595   5.872  1.00  0.00     0.029 A 
ATOM     47  N   UNL     1       0.061  11.133   7.389  1.00  0.00    -0.354 N 
ATOM     48  C   UNL     1       4.097  12.700   7.552  1.00  0.00     0.074 A 
ATOM     49  C   UNL     1       4.935  12.067   6.556  1.00  0.00     0.031 C 
ATOM     50  C   UNL     1      -1.599   9.848   6.618  1.00  0.00     0.029 A 
ATOM     51  C   UNL     1      -1.261  10.840   7.633  1.00  0.00     0.049 A 
ATOM     52  H   UNL     1       0.577  11.778   7.924  1.00  0.00     0.167 HD
ATOM     53  C   UNL     1       4.523  13.650   8.422  1.00  0.00     0.034 A 
ATOM     54  C   UNL     1      -2.107  11.319   8.566  1.00  0.00     0.034 A 
ATOM     55  C   UNL     1       3.671  14.276   9.407  1.00  0.00     0.049 A 
ATOM     56  C   UNL     1      -1.611  12.373   9.522  1.00  0.00     0.074 A 
ATOM     57  C   UNL     1       3.986  15.275  10.312  1.00  0.00     0.029 A 
ATOM     58  N   UNL     1       2.335  13.958   9.622  1.00  0.00    -0.354 N 
ATOM     59  N   UNL     1      -0.415  12.908   9.617  1.00  0.00    -0.248 NA
ATOM     60  C   UNL     1      -2.587  12.902  10.481  1.00  0.00     0.031 C 
ATOM     61  C   UNL     1       2.864  15.514  11.114  1.00  0.00     0.029 A 
ATOM     62  C   UNL     1       1.821  14.724  10.659  1.00  0.00     0.049 A 
ATOM     63  H   UNL     1       1.827  13.287   9.111  1.00  0.00     0.167 HD
ATOM     64  C   UNL     1      -0.507  13.863  10.626  1.00  0.00     0.074 A 
ATOM     65  C   UNL     1      -1.881  13.843  11.088  1.00  0.00     0.031 C 
ATOM     66  C   UNL     1       0.453  14.685  11.123  1.00  0.00     0.034 A 
BRANCH  53  67
ATOM     67  C   UNL     1       5.981  14.046   8.359  1.00  0.00     0.023 A 
ATOM     68  C   UNL     1       6.540  14.630   7.208  1.00  0.00     0.031 A 
ATOM     69  C   UNL     1       6.833  13.813   9.454  1.00  0.00     0.131 A 
ATOM     70  C   UNL     1       7.919  14.887   7.148  1.00  0.00     0.055 A 
ATOM     71  C   UNL     1       8.188  14.150   9.419  1.00  0.00     0.041 A 
ATOM     72  F   UNL     1       6.365  13.240  10.574  1.00  0.00    -0.206 F 
ATOM     73  C   UNL     1       8.742  14.675   8.256  1.00  0.00     0.022 A 
BRANCH  70  74
ATOM     74  S   UNL     1       8.645  15.362   5.555  1.00  0.00     0.124 S 
ATOM     75  O   UNL     1       8.283  14.222   4.715  1.00  0.00    -0.237 OA
ATOM     76  O   UNL     1       7.964  16.616   5.259  1.00  0.00    -0.237 OA
ATOM     77  O   UNL     1      10.072  15.480   5.850  1.00  0.00    -0.744 OA
ENDBRANCH  70  74
ENDBRANCH  53  67
BRANCH  54  78
ATOM     78  C   UNL     1      -3.510  10.818   8.641  1.00  0.00     0.023 A 
ATOM     79  C   UNL     1      -4.598  11.671   8.397  1.00  0.00     0.031 A 
ATOM     80  C   UNL     1      -3.784   9.487   9.001  1.00  0.00     0.131 A 
ATOM     81  C   UNL     1      -5.909  11.199   8.566  1.00  0.00     0.055 A 
ATOM     82  C   UNL     1      -5.090   9.007   9.113  1.00  0.00     0.041 A 
ATOM     83  F   UNL     1      -2.780   8.627   9.237  1.00  0.00    -0.206 F 
ATOM     84  C   UNL     1      -6.162   9.870   8.909  1.00  0.00     0.022 A 
BRANCH  81  85
ATOM     85  S   UNL     1      -7.282  12.376   8.416  1.00  0.00     0.124 S 
ATOM     86  O   UNL     1      -6.935  13.368   9.427  1.00  0.00    -0.237 OA
ATOM     87  O   UNL     1      -7.161  12.805   7.027  1.00  0.00    -0.237 OA
ATOM     88  O   UNL     1      -8.459  11.563   8.715  1.00  0.00    -0.744 OA
ENDBRANCH  81  85
ENDBRANCH  54  78
BRANCH  66  89
ATOM     89  C   UNL     1       0.026  15.661  12.194  1.00  0.00     0.023 A 
ATOM     90  C   UNL     1      -0.438  15.229  13.450  1.00  0.00     0.031 A 
ATOM     91  C   UNL     1       0.038  17.044  11.936  1.00  0.00     0.131 A 
ATOM     92  C   UNL     1      -0.946  16.162  14.367  1.00  0.00     0.055 A 
ATOM     93  C   UNL     1      -0.401  17.973  12.881  1.00  0.00     0.041 A 
ATOM     94  F   UNL     1       0.468  17.516  10.755  1.00  0.00    -0.206 F 
ATOM     95  C   UNL     1      -0.915  17.532  14.097  1.00  0.00     0.022 A 
BRANCH  92  96
ATOM     96  S   UNL     1      -1.772  15.549  15.861  1.00  0.00     0.124 S 
ATOM     97  O   UNL     1      -2.786  14.659  15.305  1.00  0.00    -0.237 OA
ATOM     98  O   UNL     1      -0.678  14.899  16.577  1.00  0.00    -0.237 OA
ATOM     99  O   UNL     1      -2.289  16.763  16.490  1.00  0.00    -0.744 OA
ENDBRANCH  92  96
ENDBRANCH  66  89
ENDBRANCH  40  41
ENDBRANCH  32  35
ENDBRANCH  30  31
ENDBRANCH   1  30
TORSDOF 19
