REMARK SMILES Cc1cc(NS(=O)(=O)CC(=O)NCCCNC(=O)c2ccc(-c3c4nc(c(-c5cc(S(=O)(=O)[O-])ccc5F)c5ccc([nH]5)c(-c5cc(S(=O)(=O)[O-])ccc5F)c5nc(c(-c6cc(S(=O)(=O)[O-])ccc6F)c6ccc3[nH]6)C=C5)C=C4)cc2)ccn1
REMARK SMILES IDX 14 1 13 2 12 3 10 4 11 5 9 7 6 8 7 9 8 10 5 11 4 13 1 14
REMARK SMILES IDX 2 15 3 16 84 17 83 18 82 19 15 20 16 21 17 22 18 24 19 25
REMARK SMILES IDX 20 26 81 27 21 28 80 29 22 30 23 31 24 32 74 33 25 34 79 35
REMARK SMILES IDX 73 36 75 37 26 38 78 39 72 40 71 41 27 43 59 44 39 45 58 46
REMARK SMILES IDX 40 47 43 48 57 49 76 50 41 51 42 52 56 54 77 55 44 56 28 57
REMARK SMILES IDX 29 58 37 59 30 60 36 61 38 62 35 63 31 64 32 65 33 66 34 67
REMARK SMILES IDX 60 68 61 69 69 70 62 71 68 72 70 73 67 74 63 75 64 76 65 77
REMARK SMILES IDX 66 78 45 79 46 80 54 81 47 82 53 83 55 84 52 85 48 86 49 87
REMARK SMILES IDX 50 88 51 89
REMARK H PARENT 12 6 5 12 16 23 75 42 43 53
REMARK Flexibility Score: inf
ROOT
ATOM      1  C   UNL     1      -4.583  -2.676   3.508  1.00  0.00     0.042 C 
ENDROOT
BRANCH   1   2
ATOM      2  C   UNL     1      -5.418  -1.647   2.760  1.00  0.00     0.117 C 
BRANCH   2   3
ATOM      3  N   UNL     1      -4.646  -0.468   2.419  1.00  0.00    -0.355 N 
ATOM      4  C   UNL     1      -4.270  -0.001   1.203  1.00  0.00     0.237 C 
ATOM      5  O   UNL     1      -3.691   1.089   1.176  1.00  0.00    -0.274 OA
ATOM      6  H   UNL     1      -4.350   0.074   3.186  1.00  0.00     0.163 HD
BRANCH   4   7
ATOM      7  C   UNL     1      -4.653  -0.701  -0.058  1.00  0.00     0.259 C 
BRANCH   7   8
ATOM      8  S   UNL     1      -3.566  -2.023  -0.535  1.00  0.00     0.241 S 
ATOM      9  O   UNL     1      -3.370  -1.961  -1.966  1.00  0.00    -0.206 OA
ATOM     10  O   UNL     1      -4.096  -3.237   0.064  1.00  0.00    -0.206 OA
BRANCH   8  11
ATOM     11  N   UNL     1      -2.093  -1.807   0.212  1.00  0.00    -0.283 N 
ATOM     12  H   UNL     1      -1.883  -2.364   0.996  1.00  0.00     0.180 HD
BRANCH  11  13
ATOM     13  C   UNL     1      -1.112  -0.855  -0.224  1.00  0.00     0.052 A 
ATOM     14  C   UNL     1       2.632  -0.372   0.125  1.00  0.00     0.067 C 
ATOM     15  C   UNL     1       1.178  -0.129  -0.144  1.00  0.00     0.039 A 
ATOM     16  C   UNL     1       0.229  -1.131   0.046  1.00  0.00     0.050 A 
ATOM     17  N   UNL     1       0.845   1.126  -0.520  1.00  0.00    -0.261 NA
ATOM     18  C   UNL     1      -0.456   1.371  -0.760  1.00  0.00     0.113 A 
ATOM     19  C   UNL     1      -1.450   0.416  -0.665  1.00  0.00     0.047 A 
ENDBRANCH  11  13
ENDBRANCH   8  11
ENDBRANCH   7   8
ENDBRANCH   4   7
ENDBRANCH   2   3
ENDBRANCH   1   2
BRANCH   1  20
ATOM     20  C   UNL     1      -4.007  -2.173   4.829  1.00  0.00     0.118 C 
BRANCH  20  21
ATOM     21  N   UNL     1      -5.035  -1.720   5.755  1.00  0.00    -0.352 N 
ATOM     22  C   UNL     1      -5.453  -2.242   6.954  1.00  0.00     0.251 C 
ATOM     23  H   UNL     1      -5.509  -0.903   5.476  1.00  0.00     0.163 HD
ATOM     24  O   UNL     1      -6.497  -1.827   7.450  1.00  0.00    -0.269 OA
BRANCH  22  25
ATOM     25  C   UNL     1      -4.676  -3.303   7.633  1.00  0.00     0.039 A 
ATOM     26  C   UNL     1      -5.367  -4.330   8.280  1.00  0.00     0.014 A 
ATOM     27  C   UNL     1      -3.279  -3.277   7.667  1.00  0.00     0.014 A 
ATOM     28  C   UNL     1      -4.657  -5.362   8.897  1.00  0.00     0.010 A 
ATOM     29  C   UNL     1      -2.574  -4.354   8.199  1.00  0.00     0.010 A 
ATOM     30  C   UNL     1      -3.255  -5.408   8.824  1.00  0.00    -0.014 A 
BRANCH  30  31
ATOM     31  C   UNL     1      -2.507  -6.568   9.377  1.00  0.00     0.031 A 
ATOM     32  C   UNL     1      -1.515  -6.386  10.493  1.00  0.00     0.074 A 
ATOM     33  C   UNL     1      -2.694  -7.786   8.832  1.00  0.00     0.049 A 
ATOM     34  N   UNL     1      -0.782  -7.284  11.102  1.00  0.00    -0.248 NA
ATOM     35  C   UNL     1      -1.295  -5.012  10.964  1.00  0.00     0.031 C 
ATOM     36  C   UNL     1      -3.573  -8.072   7.696  1.00  0.00     0.029 A 
ATOM     37  N   UNL     1      -2.161  -9.008   9.153  1.00  0.00    -0.354 N 
ATOM     38  C   UNL     1      -0.006  -6.583  12.020  1.00  0.00     0.074 A 
ATOM     39  C   UNL     1      -0.310  -5.180  11.833  1.00  0.00     0.031 C 
ATOM     40  C   UNL     1      -3.549  -9.389   7.441  1.00  0.00     0.029 A 
ATOM     41  C   UNL     1      -2.617 -10.034   8.359  1.00  0.00     0.049 A 
ATOM     42  H   UNL     1      -1.513  -9.139   9.883  1.00  0.00     0.167 HD
ATOM     43  C   UNL     1       0.861  -7.068  12.945  1.00  0.00     0.034 A 
ATOM     44  C   UNL     1      -2.313 -11.347   8.359  1.00  0.00     0.034 A 
ATOM     45  C   UNL     1       1.150  -8.475  13.108  1.00  0.00     0.049 A 
ATOM     46  C   UNL     1      -1.350 -11.867   9.391  1.00  0.00     0.074 A 
ATOM     47  C   UNL     1       1.947  -9.087  14.060  1.00  0.00     0.029 A 
ATOM     48  N   UNL     1       0.673  -9.489  12.284  1.00  0.00    -0.354 N 
ATOM     49  N   UNL     1      -0.693 -11.204  10.316  1.00  0.00    -0.248 NA
ATOM     50  C   UNL     1      -1.101 -13.312   9.390  1.00  0.00     0.031 C 
ATOM     51  C   UNL     1       2.025 -10.451  13.757  1.00  0.00     0.029 A 
ATOM     52  C   UNL     1       1.200 -10.713  12.675  1.00  0.00     0.049 A 
ATOM     53  H   UNL     1       0.051  -9.358  11.532  1.00  0.00     0.167 HD
ATOM     54  C   UNL     1       0.041 -12.157  11.016  1.00  0.00     0.074 A 
ATOM     55  C   UNL     1      -0.285 -13.441  10.425  1.00  0.00     0.031 C 
ATOM     56  C   UNL     1       0.904 -11.986  12.052  1.00  0.00     0.034 A 
BRANCH  43  57
ATOM     57  C   UNL     1       1.584  -6.061  13.815  1.00  0.00     0.023 A 
ATOM     58  C   UNL     1       0.891  -5.162  14.646  1.00  0.00     0.031 A 
ATOM     59  C   UNL     1       2.987  -5.961  13.775  1.00  0.00     0.131 A 
ATOM     60  C   UNL     1       1.587  -4.145  15.318  1.00  0.00     0.055 A 
ATOM     61  C   UNL     1       3.682  -5.008  14.524  1.00  0.00     0.041 A 
ATOM     62  F   UNL     1       3.709  -6.773  12.987  1.00  0.00    -0.206 F 
ATOM     63  C   UNL     1       2.981  -4.078  15.284  1.00  0.00     0.022 A 
BRANCH  60  64
ATOM     64  S   UNL     1       0.632  -2.799  16.075  1.00  0.00     0.124 S 
ATOM     65  O   UNL     1      -0.163  -2.328  14.943  1.00  0.00    -0.237 OA
ATOM     66  O   UNL     1      -0.101  -3.488  17.129  1.00  0.00    -0.237 OA
ATOM     67  O   UNL     1       1.660  -1.866  16.533  1.00  0.00    -0.744 OA
ENDBRANCH  60  64
ENDBRANCH  43  57
BRANCH  44  68
ATOM     68  C   UNL     1      -2.919 -12.248   7.337  1.00  0.00     0.023 A 
ATOM     69  C   UNL     1      -3.819 -13.264   7.694  1.00  0.00     0.031 A 
ATOM     70  C   UNL     1      -2.604 -12.094   5.974  1.00  0.00     0.131 A 
ATOM     71  C   UNL     1      -4.353 -14.103   6.703  1.00  0.00     0.055 A 
ATOM     72  C   UNL     1      -3.178 -12.897   4.988  1.00  0.00     0.041 A 
ATOM     73  F   UNL     1      -1.754 -11.133   5.579  1.00  0.00    -0.206 F 
ATOM     74  C   UNL     1      -4.052 -13.915   5.352  1.00  0.00     0.022 A 
BRANCH  71  75
ATOM     75  S   UNL     1      -5.413 -15.487   7.208  1.00  0.00     0.124 S 
ATOM     76  O   UNL     1      -4.513 -16.254   8.062  1.00  0.00    -0.237 OA
ATOM     77  O   UNL     1      -6.508 -14.799   7.883  1.00  0.00    -0.237 OA
ATOM     78  O   UNL     1      -5.768 -16.124   5.942  1.00  0.00    -0.744 OA
ENDBRANCH  71  75
ENDBRANCH  44  68
BRANCH  56  79
ATOM     79  C   UNL     1       1.546 -13.235  12.614  1.00  0.00     0.023 A 
ATOM     80  C   UNL     1       2.395 -14.041  11.834  1.00  0.00     0.031 A 
ATOM     81  C   UNL     1       1.271 -13.650  13.929  1.00  0.00     0.131 A 
ATOM     82  C   UNL     1       2.868 -15.259  12.345  1.00  0.00     0.055 A 
ATOM     83  C   UNL     1       1.812 -14.823  14.460  1.00  0.00     0.041 A 
ATOM     84  F   UNL     1       0.463 -12.927  14.721  1.00  0.00    -0.206 F 
ATOM     85  C   UNL     1       2.599 -15.645  13.660  1.00  0.00     0.022 A 
BRANCH  82  86
ATOM     86  S   UNL     1       3.718 -16.401  11.220  1.00  0.00     0.124 S 
ATOM     87  O   UNL     1       2.728 -16.574  10.162  1.00  0.00    -0.237 OA
ATOM     88  O   UNL     1       4.914 -15.648  10.857  1.00  0.00    -0.237 OA
ATOM     89  O   UNL     1       3.956 -17.583  12.046  1.00  0.00    -0.744 OA
ENDBRANCH  82  86
ENDBRANCH  56  79
ENDBRANCH  30  31
ENDBRANCH  22  25
ENDBRANCH  20  21
ENDBRANCH   1  20
TORSDOF 16
