REMARK SMILES O=C(NCCCNC(=O)c1ccc(-n2cc(CSc3nc4ccccc4c(=O)n3-c3ccc(Cl)cc3)nn2)cc1)c1ccc(-c2c3nc(c(-c4cc(S(=O)(=O)[O-])ccc4F)c4ccc([nH]4)c(-c4cc(S(=O)(=O)[O-])ccc4F)c4nc(c(-c5cc(S(=O)(=O)[O-])ccc5F)c5ccc2[nH]5)C=C4)C=C3)cc1
REMARK SMILES IDX 6 1 5 2 4 3 3 4 1 5 2 6 41 8 42 9 103 10 43 11 102 12 44 13
REMARK SMILES IDX 45 14 46 15 96 16 47 17 101 18 95 19 97 20 48 21 100 22
REMARK SMILES IDX 94 23 93 24 49 26 81 27 61 28 80 29 62 30 65 31 79 32 98 33
REMARK SMILES IDX 63 34 64 35 78 37 99 38 66 39 50 40 51 41 59 42 52 43 58 44
REMARK SMILES IDX 60 45 57 46 53 47 54 48 55 49 56 50 82 51 83 52 91 53 84 54
REMARK SMILES IDX 90 55 92 56 89 57 85 58 86 59 87 60 88 61 67 62 68 63 76 64
REMARK SMILES IDX 69 65 75 66 77 67 74 68 70 69 71 70 72 71 73 72 7 73 8 74
REMARK SMILES IDX 9 76 10 77 11 78 40 79 12 80 39 81 13 82 14 83 15 84 38 85
REMARK SMILES IDX 16 86 37 87 17 88 18 89 19 90 20 91 29 92 21 93 27 94 22 95
REMARK SMILES IDX 26 96 28 97 23 98 25 99 24 100 30 101 31 102 36 103 32 104
REMARK SMILES IDX 35 105 33 106 34 107
REMARK H PARENT 3 7 97 25 65 36 7 75
REMARK Flexibility Score: inf
ROOT
ATOM      1  C   UNL     1       4.330  -1.466  -3.210  1.00  0.00     0.118 C 
ENDROOT
BRANCH   1   2
ATOM      2  C   UNL     1       4.925  -1.193  -1.831  1.00  0.00     0.042 C 
BRANCH   2   3
ATOM      3  C   UNL     1       4.702   0.226  -1.311  1.00  0.00     0.118 C 
BRANCH   3   4
ATOM      4  N   UNL     1       3.321   0.658  -1.228  1.00  0.00    -0.352 N 
ATOM      5  O   UNL     1       1.295   1.145  -0.488  1.00  0.00    -0.269 OA
ATOM      6  C   UNL     1       2.309   0.461  -0.329  1.00  0.00     0.251 C 
ATOM      7  H   UNL     1       3.050   1.220  -1.990  1.00  0.00     0.163 HD
BRANCH   6   8
ATOM      8  C   UNL     1       2.325  -0.567   0.745  1.00  0.00     0.039 A 
ATOM      9  C   UNL     1       3.466  -1.190   1.256  1.00  0.00     0.014 A 
ATOM     10  C   UNL     1       1.065  -0.951   1.234  1.00  0.00     0.014 A 
ATOM     11  C   UNL     1       3.349  -2.266   2.131  1.00  0.00     0.010 A 
ATOM     12  C   UNL     1       0.945  -2.001   2.132  1.00  0.00     0.010 A 
ATOM     13  C   UNL     1       2.087  -2.693   2.536  1.00  0.00    -0.014 A 
BRANCH  13  14
ATOM     14  C   UNL     1       1.983  -3.805   3.479  1.00  0.00     0.031 A 
ATOM     15  C   UNL     1       2.461  -3.524   4.869  1.00  0.00     0.074 A 
ATOM     16  C   UNL     1       1.294  -4.921   3.161  1.00  0.00     0.049 A 
ATOM     17  N   UNL     1       3.241  -4.230   5.624  1.00  0.00    -0.248 NA
ATOM     18  C   UNL     1       2.068  -2.237   5.471  1.00  0.00     0.031 C 
ATOM     19  C   UNL     1       0.543  -5.179   1.927  1.00  0.00     0.029 A 
ATOM     20  N   UNL     1       0.984  -5.998   3.937  1.00  0.00    -0.354 N 
ATOM     21  C   UNL     1       3.283  -3.579   6.859  1.00  0.00     0.074 A 
ATOM     22  C   UNL     1       2.662  -2.297   6.662  1.00  0.00     0.031 C 
ATOM     23  C   UNL     1      -0.329  -6.188   2.141  1.00  0.00     0.029 A 
ATOM     24  C   UNL     1      -0.114  -6.721   3.475  1.00  0.00     0.049 A 
ATOM     25  H   UNL     1       1.488  -6.242   4.747  1.00  0.00     0.167 HD
ATOM     26  C   UNL     1       3.650  -4.211   8.009  1.00  0.00     0.034 A 
ATOM     27  C   UNL     1      -0.867  -7.612   4.174  1.00  0.00     0.034 A 
ATOM     28  C   UNL     1       4.435  -5.387   7.743  1.00  0.00     0.049 A 
ATOM     29  C   UNL     1      -0.053  -8.057   5.332  1.00  0.00     0.074 A 
ATOM     30  C   UNL     1       5.643  -5.621   7.113  1.00  0.00     0.029 A 
ATOM     31  N   UNL     1       3.835  -6.620   7.842  1.00  0.00    -0.354 N 
ATOM     32  N   UNL     1       1.058  -8.731   5.211  1.00  0.00    -0.248 NA
ATOM     33  C   UNL     1      -0.211  -7.348   6.593  1.00  0.00     0.031 C 
ATOM     34  C   UNL     1       5.451  -6.844   6.404  1.00  0.00     0.029 A 
ATOM     35  C   UNL     1       4.165  -7.304   6.697  1.00  0.00     0.049 A 
ATOM     36  H   UNL     1       3.280  -6.948   8.585  1.00  0.00     0.167 HD
ATOM     37  C   UNL     1       1.909  -8.196   6.165  1.00  0.00     0.074 A 
ATOM     38  C   UNL     1       1.042  -7.419   7.051  1.00  0.00     0.031 C 
ATOM     39  C   UNL     1       3.264  -8.194   5.993  1.00  0.00     0.034 A 
BRANCH  26  40
ATOM     40  C   UNL     1       3.038  -3.936   9.366  1.00  0.00     0.023 A 
ATOM     41  C   UNL     1       3.562  -4.620  10.481  1.00  0.00     0.031 A 
ATOM     42  C   UNL     1       1.803  -3.279   9.572  1.00  0.00     0.131 A 
ATOM     43  C   UNL     1       2.839  -4.698  11.686  1.00  0.00     0.055 A 
ATOM     44  C   UNL     1       1.122  -3.302  10.793  1.00  0.00     0.041 A 
ATOM     45  F   UNL     1       1.138  -2.667   8.585  1.00  0.00    -0.206 F 
ATOM     46  C   UNL     1       1.623  -4.040  11.850  1.00  0.00     0.022 A 
BRANCH  43  47
ATOM     47  S   UNL     1       3.418  -5.835  12.975  1.00  0.00     0.124 S 
ATOM     48  O   UNL     1       3.615  -7.068  12.220  1.00  0.00    -0.237 OA
ATOM     49  O   UNL     1       4.627  -5.166  13.443  1.00  0.00    -0.237 OA
ATOM     50  O   UNL     1       2.310  -5.861  13.927  1.00  0.00    -0.744 OA
ENDBRANCH  43  47
ENDBRANCH  26  40
BRANCH  27  51
ATOM     51  C   UNL     1      -2.349  -7.753   4.090  1.00  0.00     0.023 A 
ATOM     52  C   UNL     1      -3.041  -8.921   4.472  1.00  0.00     0.031 A 
ATOM     53  C   UNL     1      -3.140  -6.614   3.809  1.00  0.00     0.131 A 
ATOM     54  C   UNL     1      -4.457  -8.920   4.535  1.00  0.00     0.055 A 
ATOM     55  C   UNL     1      -4.534  -6.622   3.859  1.00  0.00     0.041 A 
ATOM     56  F   UNL     1      -2.576  -5.423   3.549  1.00  0.00    -0.206 F 
ATOM     57  C   UNL     1      -5.200  -7.777   4.228  1.00  0.00     0.022 A 
BRANCH  54  58
ATOM     58  S   UNL     1      -5.360 -10.400   5.098  1.00  0.00     0.124 S 
ATOM     59  O   UNL     1      -5.091 -11.354   4.029  1.00  0.00    -0.237 OA
ATOM     60  O   UNL     1      -4.736 -10.675   6.387  1.00  0.00    -0.237 OA
ATOM     61  O   UNL     1      -6.749  -9.943   5.178  1.00  0.00    -0.744 OA
ENDBRANCH  54  58
ENDBRANCH  27  51
BRANCH  39  62
ATOM     62  C   UNL     1       3.847  -8.979   4.834  1.00  0.00     0.023 A 
ATOM     63  C   UNL     1       3.544  -8.734   3.474  1.00  0.00     0.031 A 
ATOM     64  C   UNL     1       4.862  -9.907   5.118  1.00  0.00     0.131 A 
ATOM     65  C   UNL     1       4.243  -9.416   2.458  1.00  0.00     0.055 A 
ATOM     66  C   UNL     1       5.564 -10.569   4.110  1.00  0.00     0.041 A 
ATOM     67  F   UNL     1       5.223 -10.155   6.388  1.00  0.00    -0.206 F 
ATOM     68  C   UNL     1       5.254 -10.329   2.776  1.00  0.00     0.022 A 
BRANCH  65  69
ATOM     69  S   UNL     1       3.851  -9.123   0.702  1.00  0.00     0.124 S 
ATOM     70  O   UNL     1       2.406  -9.308   0.638  1.00  0.00    -0.237 OA
ATOM     71  O   UNL     1       4.333  -7.761   0.486  1.00  0.00    -0.237 OA
ATOM     72  O   UNL     1       4.624 -10.152   0.002  1.00  0.00    -0.744 OA
ENDBRANCH  65  69
ENDBRANCH  39  62
ENDBRANCH  13  14
ENDBRANCH   6   8
ENDBRANCH   3   4
ENDBRANCH   2   3
ENDBRANCH   1   2
BRANCH   1  73
ATOM     73  N   UNL     1       4.790  -0.525  -4.221  1.00  0.00    -0.352 N 
ATOM     74  C   UNL     1       5.729  -0.665  -5.213  1.00  0.00     0.251 C 
ATOM     75  H   UNL     1       4.356   0.358  -4.187  1.00  0.00     0.163 HD
ATOM     76  O   UNL     1       6.082   0.302  -5.865  1.00  0.00    -0.269 OA
BRANCH  74  77
ATOM     77  C   UNL     1       6.328  -1.989  -5.482  1.00  0.00     0.039 A 
ATOM     78  C   UNL     1       7.721  -2.099  -5.497  1.00  0.00     0.016 A 
ATOM     79  C   UNL     1       5.528  -3.095  -5.780  1.00  0.00     0.016 A 
ATOM     80  C   UNL     1       8.322  -3.336  -5.746  1.00  0.00     0.029 A 
ATOM     81  C   UNL     1       6.124  -4.329  -6.047  1.00  0.00     0.029 A 
ATOM     82  C   UNL     1       7.525  -4.452  -6.033  1.00  0.00     0.066 A 
BRANCH  82  83
ATOM     83  N   UNL     1       8.141  -5.683  -6.361  1.00  0.00    -0.220 N 
ATOM     84  C   UNL     1       7.574  -6.749  -7.011  1.00  0.00     0.141 A 
ATOM     85  N   UNL     1       9.445  -5.959  -6.114  1.00  0.00    -0.062 NA
ATOM     86  C   UNL     1       8.588  -7.665  -7.178  1.00  0.00     0.093 A 
ATOM     87  N   UNL     1       9.715  -7.177  -6.576  1.00  0.00    -0.134 NA
BRANCH  86  88
ATOM     88  C   UNL     1       8.504  -9.035  -7.724  1.00  0.00     0.138 C 
BRANCH  88  89
ATOM     89  S   UNL     1       9.061  -9.429  -9.390  1.00  0.00    -0.081 SA
BRANCH  89  90
ATOM     90  C   UNL     1       9.319  -7.992 -10.345  1.00  0.00     0.176 A 
ATOM     91  N   UNL     1      10.383  -8.084 -11.091  1.00  0.00    -0.223 NA
ATOM     92  N   UNL     1       8.500  -6.870 -10.378  1.00  0.00    -0.255 N 
ATOM     93  C   UNL     1      10.759  -6.979 -11.861  1.00  0.00     0.079 A 
ATOM     94  C   UNL     1       9.192  -5.665 -10.568  1.00  0.00     0.266 A 
ATOM     95  C   UNL     1      11.658  -7.106 -12.920  1.00  0.00     0.029 A 
ATOM     96  C   UNL     1      10.302  -5.714 -11.528  1.00  0.00     0.066 A 
ATOM     97  O   UNL     1       8.947  -4.589 -10.026  1.00  0.00    -0.268 OA
ATOM     98  C   UNL     1      12.127  -5.969 -13.591  1.00  0.00     0.002 A 
ATOM     99  C   UNL     1      10.799  -4.563 -12.149  1.00  0.00     0.016 A 
ATOM    100  C   UNL     1      11.723  -4.696 -13.183  1.00  0.00     0.001 A 
BRANCH  92 101
ATOM    101  C   UNL     1       7.057  -6.814 -10.229  1.00  0.00     0.051 A 
ATOM    102  C   UNL     1       6.372  -5.604 -10.477  1.00  0.00     0.028 A 
ATOM    103  C   UNL     1       6.244  -7.902  -9.888  1.00  0.00     0.028 A 
ATOM    104  C   UNL     1       5.016  -5.430 -10.181  1.00  0.00     0.022 A 
ATOM    105  C   UNL     1       4.895  -7.729  -9.533  1.00  0.00     0.022 A 
ATOM    106  C   UNL     1       4.298  -6.482  -9.643  1.00  0.00     0.041 A 
ATOM    107  Cl  UNL     1       2.683  -6.240  -9.118  1.00  0.00    -0.084 Cl
ENDBRANCH  92 101
ENDBRANCH  89  90
ENDBRANCH  88  89
ENDBRANCH  86  88
ENDBRANCH  82  83
ENDBRANCH  74  77
ENDBRANCH   1  73
TORSDOF 18
