REMARK SMILES Cc1cccc(-c2ccc(Cl)c(C(=O)NCCCNC(=O)c3ccc(-c4c5nc(c(-c6cc(S(=O)(=O)[O-])ccc6F)c6ccc([nH]6)c(-c6cc(S(=O)(=O)[O-])ccc6F)c6nc(c(-c7cc(S(=O)(=O)[O-])ccc7F)c7ccc4[nH]7)C=C6)C=C5)cc3)c2)c1
REMARK SMILES IDX 18 1 17 2 16 3 15 4 13 5 14 6 12 8 7 9 8 10 85 11 9 12 10 13
REMARK SMILES IDX 11 14 6 15 1 16 2 17 3 18 86 19 4 20 5 21 19 22 20 23 21 25
REMARK SMILES IDX 22 26 23 27 84 28 24 29 83 30 25 31 26 32 27 33 77 34 28 35
REMARK SMILES IDX 82 36 76 37 78 38 29 39 81 40 75 41 74 42 30 44 62 45 42 46
REMARK SMILES IDX 61 47 43 48 46 49 60 50 79 51 44 52 45 53 59 55 80 56 47 57
REMARK SMILES IDX 31 58 32 59 40 60 33 61 39 62 41 63 38 64 34 65 35 66 36 67
REMARK SMILES IDX 37 68 63 69 64 70 72 71 65 72 71 73 73 74 70 75 66 76 67 77
REMARK SMILES IDX 68 78 69 79 48 80 49 81 57 82 50 83 56 84 58 85 55 86 51 87
REMARK SMILES IDX 52 88 53 89 54 90
REMARK H PARENT 15 7 19 24 78 43 46 54
REMARK Flexibility Score: inf
ROOT
ATOM      1  C   UNL     1      -6.855   7.791   1.090  1.00  0.00     0.118 C 
ENDROOT
BRANCH   1   2
ATOM      2  C   UNL     1      -5.930   6.809   0.393  1.00  0.00     0.042 C 
BRANCH   2   3
ATOM      3  C   UNL     1      -4.512   6.847   0.926  1.00  0.00     0.118 C 
BRANCH   3   4
ATOM      4  N   UNL     1      -4.257   5.883   1.989  1.00  0.00    -0.352 N 
ATOM      5  C   UNL     1      -3.455   4.766   2.045  1.00  0.00     0.252 C 
ATOM      6  O   UNL     1      -3.469   4.065   3.058  1.00  0.00    -0.269 OA
ATOM      7  H   UNL     1      -4.751   6.063   2.821  1.00  0.00     0.163 HD
BRANCH   5   8
ATOM      8  C   UNL     1      -2.624   4.306   0.898  1.00  0.00     0.059 A 
ATOM      9  C   UNL     1      -1.663   2.372  -0.272  1.00  0.00    -0.017 A 
ATOM     10  C   UNL     1      -1.206   3.240  -1.273  1.00  0.00     0.010 A 
ATOM     11  C   UNL     1      -2.466   2.908   0.749  1.00  0.00     0.024 A 
ATOM     12  C   UNL     1      -1.290   4.616  -1.098  1.00  0.00     0.022 A 
ATOM     13  C   UNL     1      -1.881   5.137   0.055  1.00  0.00     0.053 A 
ATOM     14  Cl  UNL     1      -1.393   6.749   0.471  1.00  0.00    -0.083 Cl
BRANCH   9  15
ATOM     15  C   UNL     1      -1.076   1.023  -0.181  1.00  0.00    -0.018 A 
ATOM     16  C   UNL     1       2.495  -0.341   0.036  1.00  0.00     0.044 C 
ATOM     17  C   UNL     1       0.997  -0.298  -0.013  1.00  0.00    -0.051 A 
ATOM     18  C   UNL     1       0.235  -1.463   0.052  1.00  0.00     0.003 A 
ATOM     19  C   UNL     1       0.333   0.926  -0.130  1.00  0.00     0.012 A 
ATOM     20  C   UNL     1      -1.162  -1.393   0.018  1.00  0.00     0.001 A 
ATOM     21  C   UNL     1      -1.817  -0.157  -0.093  1.00  0.00     0.009 A 
ENDBRANCH   9  15
ENDBRANCH   5   8
ENDBRANCH   3   4
ENDBRANCH   2   3
ENDBRANCH   1   2
BRANCH   1  22
ATOM     22  N   UNL     1      -6.801   9.141   0.510  1.00  0.00    -0.352 N 
ATOM     23  C   UNL     1      -7.752  10.153   0.552  1.00  0.00     0.251 C 
ATOM     24  H   UNL     1      -5.973   9.359   0.023  1.00  0.00     0.163 HD
ATOM     25  O   UNL     1      -7.572  11.245   0.045  1.00  0.00    -0.269 OA
BRANCH  23  26
ATOM     26  C   UNL     1      -8.980   9.891   1.330  1.00  0.00     0.039 A 
ATOM     27  C   UNL     1      -9.139  10.595   2.528  1.00  0.00     0.014 A 
ATOM     28  C   UNL     1      -9.703   8.736   1.066  1.00  0.00     0.014 A 
ATOM     29  C   UNL     1      -9.819   9.986   3.576  1.00  0.00     0.010 A 
ATOM     30  C   UNL     1     -10.255   8.076   2.144  1.00  0.00     0.010 A 
ATOM     31  C   UNL     1     -10.255   8.672   3.414  1.00  0.00    -0.014 A 
BRANCH  31  32
ATOM     32  C   UNL     1     -10.610   7.807   4.535  1.00  0.00     0.031 A 
ATOM     33  C   UNL     1     -12.005   7.353   4.698  1.00  0.00     0.074 A 
ATOM     34  C   UNL     1      -9.659   7.371   5.393  1.00  0.00     0.049 A 
ATOM     35  N   UNL     1     -12.523   6.949   5.807  1.00  0.00    -0.248 NA
ATOM     36  C   UNL     1     -12.962   7.379   3.599  1.00  0.00     0.031 C 
ATOM     37  C   UNL     1      -9.787   6.315   6.396  1.00  0.00     0.029 A 
ATOM     38  N   UNL     1      -8.448   7.991   5.697  1.00  0.00    -0.354 N 
ATOM     39  C   UNL     1     -13.750   6.395   5.521  1.00  0.00     0.074 A 
ATOM     40  C   UNL     1     -14.004   6.750   4.147  1.00  0.00     0.031 C 
ATOM     41  C   UNL     1      -8.872   6.516   7.356  1.00  0.00     0.029 A 
ATOM     42  C   UNL     1      -8.215   7.778   7.070  1.00  0.00     0.049 A 
ATOM     43  H   UNL     1      -7.867   8.483   5.072  1.00  0.00     0.167 HD
ATOM     44  C   UNL     1     -14.346   5.582   6.441  1.00  0.00     0.034 A 
ATOM     45  C   UNL     1      -8.098   8.825   7.938  1.00  0.00     0.034 A 
ATOM     46  C   UNL     1     -13.599   5.568   7.700  1.00  0.00     0.049 A 
ATOM     47  C   UNL     1      -9.148   8.818   9.027  1.00  0.00     0.074 A 
ATOM     48  C   UNL     1     -12.700   4.673   8.256  1.00  0.00     0.029 A 
ATOM     49  N   UNL     1     -13.503   6.736   8.452  1.00  0.00    -0.354 N 
ATOM     50  N   UNL     1     -10.235   8.097   8.987  1.00  0.00    -0.248 NA
ATOM     51  C   UNL     1      -9.064   9.628  10.239  1.00  0.00     0.031 C 
ATOM     52  C   UNL     1     -12.003   5.341   9.297  1.00  0.00     0.029 A 
ATOM     53  C   UNL     1     -12.504   6.628   9.401  1.00  0.00     0.049 A 
ATOM     54  H   UNL     1     -14.070   7.531   8.325  1.00  0.00     0.167 HD
ATOM     55  C   UNL     1     -10.991   8.336  10.106  1.00  0.00     0.074 A 
ATOM     56  C   UNL     1     -10.200   9.285  10.871  1.00  0.00     0.031 C 
ATOM     57  C   UNL     1     -12.207   7.737  10.300  1.00  0.00     0.034 A 
BRANCH  44  58
ATOM     58  C   UNL     1     -15.412   4.562   6.089  1.00  0.00     0.023 A 
ATOM     59  C   UNL     1     -15.502   3.374   6.845  1.00  0.00     0.031 A 
ATOM     60  C   UNL     1     -16.309   4.647   5.006  1.00  0.00     0.131 A 
ATOM     61  C   UNL     1     -16.343   2.313   6.457  1.00  0.00     0.055 A 
ATOM     62  C   UNL     1     -17.096   3.569   4.577  1.00  0.00     0.041 A 
ATOM     63  F   UNL     1     -16.518   5.794   4.350  1.00  0.00    -0.206 F 
ATOM     64  C   UNL     1     -17.106   2.386   5.296  1.00  0.00     0.022 A 
BRANCH  61  65
ATOM     65  S   UNL     1     -16.438   0.832   7.499  1.00  0.00     0.124 S 
ATOM     66  O   UNL     1     -15.060   0.352   7.484  1.00  0.00    -0.237 OA
ATOM     67  O   UNL     1     -16.922   1.375   8.763  1.00  0.00    -0.237 OA
ATOM     68  O   UNL     1     -17.394  -0.019   6.791  1.00  0.00    -0.744 OA
ENDBRANCH  61  65
ENDBRANCH  44  58
BRANCH  45  69
ATOM     69  C   UNL     1      -7.472  10.025   7.309  1.00  0.00     0.023 A 
ATOM     70  C   UNL     1      -6.211   9.827   6.703  1.00  0.00     0.031 A 
ATOM     71  C   UNL     1      -8.220  11.141   6.915  1.00  0.00     0.131 A 
ATOM     72  C   UNL     1      -5.838  10.588   5.588  1.00  0.00     0.055 A 
ATOM     73  C   UNL     1      -7.789  11.968   5.868  1.00  0.00     0.041 A 
ATOM     74  F   UNL     1      -9.437  11.367   7.431  1.00  0.00    -0.206 F 
ATOM     75  C   UNL     1      -6.621  11.661   5.164  1.00  0.00     0.022 A 
BRANCH  72  76
ATOM     76  S   UNL     1      -4.516   9.944   4.511  1.00  0.00     0.124 S 
ATOM     77  O   UNL     1      -3.325  10.541   5.104  1.00  0.00    -0.237 OA
ATOM     78  O   UNL     1      -4.653   8.495   4.659  1.00  0.00    -0.237 OA
ATOM     79  O   UNL     1      -4.880  10.437   3.185  1.00  0.00    -0.744 OA
ENDBRANCH  72  76
ENDBRANCH  45  69
BRANCH  57  80
ATOM     80  C   UNL     1     -13.193   8.077  11.398  1.00  0.00     0.023 A 
ATOM     81  C   UNL     1     -13.176   9.287  12.107  1.00  0.00     0.031 A 
ATOM     82  C   UNL     1     -14.259   7.198  11.714  1.00  0.00     0.131 A 
ATOM     83  C   UNL     1     -14.111   9.548  13.127  1.00  0.00     0.055 A 
ATOM     84  C   UNL     1     -15.237   7.495  12.669  1.00  0.00     0.041 A 
ATOM     85  F   UNL     1     -14.403   6.012  11.103  1.00  0.00    -0.206 F 
ATOM     86  C   UNL     1     -15.157   8.670  13.397  1.00  0.00     0.022 A 
BRANCH  83  87
ATOM     87  S   UNL     1     -13.887  11.034  14.140  1.00  0.00     0.124 S 
ATOM     88  O   UNL     1     -12.589  10.779  14.761  1.00  0.00    -0.237 OA
ATOM     89  O   UNL     1     -13.914  12.100  13.144  1.00  0.00    -0.237 OA
ATOM     90  O   UNL     1     -15.027  11.006  15.053  1.00  0.00    -0.744 OA
ENDBRANCH  83  87
ENDBRANCH  57  80
ENDBRANCH  31  32
ENDBRANCH  23  26
ENDBRANCH   1  22
TORSDOF 14
