REMARK SMILES O=C(Cn1c(-c2nc(-c3ccc(C(F)(F)F)cc3)no2)cc2ccccc21)NCCCNC(=O)c1ccc(-c2c3nc(c(-c4cc(S(=O)(=O)[O-])ccc4F)c4ccc([nH]4)c(-c4cc(S(=O)(=O)[O-])ccc4F)c4nc(c(-c5cc(S(=O)(=O)[O-])ccc5F)c5ccc2[nH]5)C=C4)C=C3)cc1
REMARK SMILES IDX 29 1 28 2 1 3 2 4 3 6 4 7 5 8 27 9 21 10 22 11 26 12 23 13
REMARK SMILES IDX 25 14 24 15 6 16 7 17 20 18 8 19 19 20 9 21 10 22 18 23
REMARK SMILES IDX 11 24 17 25 12 26 13 27 14 28 15 29 16 30 30 31 31 32 32 33
REMARK SMILES IDX 33 34 34 36 35 37 36 38 97 39 37 40 96 41 38 42 39 43 40 44
REMARK SMILES IDX 90 45 41 46 95 47 89 48 91 49 42 50 94 51 88 52 87 53 43 55
REMARK SMILES IDX 75 56 55 57 74 58 56 59 59 60 73 61 92 62 57 63 58 64 72 66
REMARK SMILES IDX 93 67 60 68 44 69 45 70 53 71 46 72 52 73 54 74 51 75 47 76
REMARK SMILES IDX 48 77 49 78 50 79 76 80 77 81 85 82 78 83 84 84 86 85 83 86
REMARK SMILES IDX 79 87 80 88 81 89 82 90 61 91 62 92 70 93 63 94 69 95 71 96
REMARK SMILES IDX 68 97 64 98 65 99 66 100 67 101
REMARK H PARENT 28 5 32 35 91 54 59 65
REMARK Flexibility Score: inf
ROOT
ATOM      1  C   UNL     1       2.175  -1.902   1.560  1.00  0.00     0.117 C 
ENDROOT
BRANCH   1   2
ATOM      2  N   UNL     1       2.807  -0.963   0.650  1.00  0.00    -0.354 N 
ATOM      3  O   UNL     1       1.071   0.519   0.394  1.00  0.00    -0.273 OA
ATOM      4  C   UNL     1       2.228   0.188   0.160  1.00  0.00     0.239 C 
ATOM      5  H   UNL     1       3.725  -1.164   0.359  1.00  0.00     0.163 HD
BRANCH   4   6
ATOM      6  C   UNL     1       3.153   1.016  -0.726  1.00  0.00     0.222 C 
BRANCH   6   7
ATOM      7  N   UNL     1       3.900   2.019   0.030  1.00  0.00    -0.327 N 
ATOM      8  C   UNL     1       3.638   3.378   0.068  1.00  0.00     0.109 A 
ATOM      9  C   UNL     1       4.986   1.727   0.849  1.00  0.00     0.049 A 
ATOM     10  C   UNL     1       4.486   3.930   1.009  1.00  0.00     0.042 A 
ATOM     11  C   UNL     1       5.272   2.889   1.569  1.00  0.00     0.000 A 
ATOM     12  C   UNL     1       5.719   0.544   1.059  1.00  0.00     0.027 A 
ATOM     13  C   UNL     1       6.213   2.831   2.617  1.00  0.00     0.010 A 
ATOM     14  C   UNL     1       6.626   0.500   2.121  1.00  0.00     0.002 A 
ATOM     15  C   UNL     1       6.853   1.622   2.907  1.00  0.00     0.001 A 
BRANCH   8  16
ATOM     16  C   UNL     1       2.594   4.042  -0.654  1.00  0.00     0.274 A 
ATOM     17  N   UNL     1       2.748   5.123  -1.399  1.00  0.00    -0.185 NA
ATOM     18  O   UNL     1       1.290   3.634  -0.590  1.00  0.00    -0.332 OA
ATOM     19  C   UNL     1       1.456   5.403  -1.789  1.00  0.00     0.202 A 
ATOM     20  N   UNL     1       0.543   4.538  -1.327  1.00  0.00    -0.057 NA
BRANCH  19  21
ATOM     21  C   UNL     1       1.061   6.506  -2.652  1.00  0.00     0.023 A 
ATOM     22  C   UNL     1       0.102   7.423  -2.198  1.00  0.00     0.013 A 
ATOM     23  C   UNL     1       1.480   6.563  -3.987  1.00  0.00     0.013 A 
ATOM     24  C   UNL     1      -0.491   8.329  -3.081  1.00  0.00     0.014 A 
ATOM     25  C   UNL     1       0.875   7.464  -4.876  1.00  0.00     0.014 A 
ATOM     26  C   UNL     1      -0.142   8.330  -4.439  1.00  0.00     0.056 A 
BRANCH  26  27
ATOM     27  C   UNL     1      -0.909   9.203  -5.404  1.00  0.00     0.416 C 
ATOM     28  F   UNL     1      -2.232   8.876  -5.457  1.00  0.00    -0.166 F 
ATOM     29  F   UNL     1      -0.868  10.523  -5.071  1.00  0.00    -0.166 F 
ATOM     30  F   UNL     1      -0.461   9.129  -6.689  1.00  0.00    -0.166 F 
ENDBRANCH  26  27
ENDBRANCH  19  21
ENDBRANCH   8  16
ENDBRANCH   6   7
ENDBRANCH   4   6
ENDBRANCH   1   2
BRANCH   1  31
ATOM     31  C   UNL     1       2.607  -3.346   1.280  1.00  0.00     0.042 C 
BRANCH  31  32
ATOM     32  C   UNL     1       4.122  -3.587   1.268  1.00  0.00     0.118 C 
BRANCH  32  33
ATOM     33  N   UNL     1       4.795  -3.321   2.521  1.00  0.00    -0.352 N 
ATOM     34  C   UNL     1       5.202  -4.116   3.561  1.00  0.00     0.251 C 
ATOM     35  H   UNL     1       5.006  -2.369   2.655  1.00  0.00     0.163 HD
ATOM     36  O   UNL     1       6.040  -3.619   4.317  1.00  0.00    -0.269 OA
BRANCH  34  37
ATOM     37  C   UNL     1       4.639  -5.459   3.878  1.00  0.00     0.039 A 
ATOM     38  C   UNL     1       3.759  -6.179   3.071  1.00  0.00     0.014 A 
ATOM     39  C   UNL     1       4.962  -5.979   5.148  1.00  0.00     0.014 A 
ATOM     40  C   UNL     1       3.128  -7.316   3.561  1.00  0.00     0.010 A 
ATOM     41  C   UNL     1       4.346  -7.127   5.636  1.00  0.00     0.010 A 
ATOM     42  C   UNL     1       3.383  -7.762   4.860  1.00  0.00    -0.014 A 
BRANCH  42  43
ATOM     43  C   UNL     1       2.662  -8.949   5.316  1.00  0.00     0.031 A 
ATOM     44  C   UNL     1       2.930 -10.176   4.517  1.00  0.00     0.074 A 
ATOM     45  C   UNL     1       1.870  -8.974   6.407  1.00  0.00     0.049 A 
ATOM     46  N   UNL     1       2.115 -10.822   3.749  1.00  0.00    -0.248 NA
ATOM     47  C   UNL     1       4.318 -10.653   4.449  1.00  0.00     0.031 C 
ATOM     48  C   UNL     1       1.760  -7.945   7.447  1.00  0.00     0.029 A 
ATOM     49  N   UNL     1       1.071  -9.976   6.880  1.00  0.00    -0.354 N 
ATOM     50  C   UNL     1       2.834 -11.915   3.260  1.00  0.00     0.074 A 
ATOM     51  C   UNL     1       4.214 -11.664   3.587  1.00  0.00     0.031 C 
ATOM     52  C   UNL     1       1.152  -8.473   8.533  1.00  0.00     0.029 A 
ATOM     53  C   UNL     1       0.685  -9.809   8.203  1.00  0.00     0.049 A 
ATOM     54  H   UNL     1       0.794 -10.746   6.333  1.00  0.00     0.167 HD
ATOM     55  C   UNL     1       2.208 -13.048   2.832  1.00  0.00     0.034 A 
ATOM     56  C   UNL     1       0.082 -10.724   8.999  1.00  0.00     0.034 A 
ATOM     57  C   UNL     1       0.796 -12.835   2.692  1.00  0.00     0.049 A 
ATOM     58  C   UNL     1      -0.556 -11.749   8.148  1.00  0.00     0.074 A 
ATOM     59  C   UNL     1      -0.045 -12.248   1.777  1.00  0.00     0.029 A 
ATOM     60  N   UNL     1       0.086 -13.030   3.847  1.00  0.00    -0.354 N 
ATOM     61  N   UNL     1      -1.595 -11.527   7.394  1.00  0.00    -0.248 NA
ATOM     62  C   UNL     1       0.160 -12.991   7.876  1.00  0.00     0.031 C 
ATOM     63  C   UNL     1      -1.222 -11.901   2.500  1.00  0.00     0.029 A 
ATOM     64  C   UNL     1      -1.077 -12.312   3.826  1.00  0.00     0.049 A 
ATOM     65  H   UNL     1       0.374 -13.608   4.590  1.00  0.00     0.167 HD
ATOM     66  C   UNL     1      -1.388 -12.334   6.293  1.00  0.00     0.074 A 
ATOM     67  C   UNL     1      -0.426 -13.338   6.728  1.00  0.00     0.031 C 
ATOM     68  C   UNL     1      -1.762 -11.928   5.047  1.00  0.00     0.034 A 
BRANCH  55  69
ATOM     69  C   UNL     1       2.765 -14.452   2.969  1.00  0.00     0.023 A 
ATOM     70  C   UNL     1       3.906 -14.752   3.732  1.00  0.00     0.031 A 
ATOM     71  C   UNL     1       1.996 -15.564   2.555  1.00  0.00     0.131 A 
ATOM     72  C   UNL     1       4.244 -16.071   4.065  1.00  0.00     0.055 A 
ATOM     73  C   UNL     1       2.298 -16.877   2.941  1.00  0.00     0.041 A 
ATOM     74  F   UNL     1       0.888 -15.404   1.814  1.00  0.00    -0.206 F 
ATOM     75  C   UNL     1       3.426 -17.136   3.706  1.00  0.00     0.022 A 
BRANCH  72  76
ATOM     76  S   UNL     1       5.756 -16.410   5.008  1.00  0.00     0.124 S 
ATOM     77  O   UNL     1       5.225 -17.076   6.197  1.00  0.00    -0.237 OA
ATOM     78  O   UNL     1       6.492 -17.270   4.081  1.00  0.00    -0.237 OA
ATOM     79  O   UNL     1       6.332 -15.093   5.218  1.00  0.00    -0.744 OA
ENDBRANCH  72  76
ENDBRANCH  55  69
BRANCH  56  80
ATOM     80  C   UNL     1       0.357 -10.973  10.431  1.00  0.00     0.023 A 
ATOM     81  C   UNL     1       1.663 -10.787  10.921  1.00  0.00     0.031 A 
ATOM     82  C   UNL     1      -0.542 -11.693  11.236  1.00  0.00     0.131 A 
ATOM     83  C   UNL     1       2.053 -11.361  12.137  1.00  0.00     0.055 A 
ATOM     84  C   UNL     1      -0.156 -12.249  12.461  1.00  0.00     0.041 A 
ATOM     85  F   UNL     1      -1.793 -11.932  10.812  1.00  0.00    -0.206 F 
ATOM     86  C   UNL     1       1.153 -12.099  12.909  1.00  0.00     0.022 A 
BRANCH  83  87
ATOM     87  S   UNL     1       3.775 -11.247  12.694  1.00  0.00     0.124 S 
ATOM     88  O   UNL     1       3.622 -10.791  14.073  1.00  0.00    -0.237 OA
ATOM     89  O   UNL     1       4.230 -12.624  12.534  1.00  0.00    -0.237 OA
ATOM     90  O   UNL     1       4.366 -10.272  11.783  1.00  0.00    -0.744 OA
ENDBRANCH  83  87
ENDBRANCH  56  80
BRANCH  68  91
ATOM     91  C   UNL     1      -2.822 -10.868   4.923  1.00  0.00     0.023 A 
ATOM     92  C   UNL     1      -3.928 -11.184   4.116  1.00  0.00     0.031 A 
ATOM     93  C   UNL     1      -2.706  -9.549   5.393  1.00  0.00     0.131 A 
ATOM     94  C   UNL     1      -4.841 -10.193   3.750  1.00  0.00     0.055 A 
ATOM     95  C   UNL     1      -3.667  -8.579   5.091  1.00  0.00     0.041 A 
ATOM     96  F   UNL     1      -1.632  -9.141   6.085  1.00  0.00    -0.206 F 
ATOM     97  C   UNL     1      -4.730  -8.893   4.249  1.00  0.00     0.022 A 
BRANCH  94  98
ATOM     98  S   UNL     1      -6.086 -10.535   2.481  1.00  0.00     0.124 S 
ATOM     99  O   UNL     1      -7.333 -10.402   3.228  1.00  0.00    -0.237 OA
ATOM    100  O   UNL     1      -5.826  -9.482   1.501  1.00  0.00    -0.237 OA
ATOM    101  O   UNL     1      -5.769 -11.887   2.029  1.00  0.00    -0.744 OA
ENDBRANCH  94  98
ENDBRANCH  68  91
ENDBRANCH  42  43
ENDBRANCH  34  37
ENDBRANCH  32  33
ENDBRANCH  31  32
ENDBRANCH   1  31
TORSDOF 17
