REMARK SMILES COc1cc(OC)c(-c2cc(C(=O)NCCCNC(=O)c3ccc(-c4c5nc(c(-c6cc(S(=O)(=O)[O-])ccc6F)c6ccc([nH]6)c(-c6cc(S(=O)(=O)[O-])ccc6F)c6nc(c(-c7cc(S(=O)(=O)[O-])ccc7F)c7ccc4[nH]7)C=C6)C=C5)cc3)c3c(-c4ccc(Cl)cc4)[nH]nc3n2)cc1OC
REMARK SMILES IDX 16 1 15 2 14 3 12 4 13 5 11 7 9 8 10 9 96 10 95 11 84 12
REMARK SMILES IDX 94 13 85 14 93 15 8 17 3 18 4 19 98 20 5 21 97 22 2 23 1 24
REMARK SMILES IDX 99 25 100 26 6 27 7 28 86 29 87 30 92 31 88 32 91 33 89 34
REMARK SMILES IDX 90 35 17 36 18 37 19 38 20 40 21 41 22 42 83 43 23 44 82 45
REMARK SMILES IDX 24 46 25 47 26 48 76 49 27 50 81 51 75 52 77 53 28 54 80 55
REMARK SMILES IDX 74 56 73 57 29 59 61 60 41 61 60 62 42 63 45 64 59 65 78 66
REMARK SMILES IDX 43 67 44 68 58 70 79 71 46 72 30 73 31 74 39 75 32 76 38 77
REMARK SMILES IDX 40 78 37 79 33 80 34 81 35 82 36 83 62 84 63 85 71 86 64 87
REMARK SMILES IDX 70 88 72 89 69 90 65 91 66 92 67 93 68 94 47 95 48 96 56 97
REMARK SMILES IDX 49 98 55 99 57 100 54 101 50 102 51 103 52 104 53 105
REMARK H PARENT 14 6 93 16 18 39 77 58 45 69
REMARK Flexibility Score: inf
ROOT
ATOM      1  C   UNL     1       4.364   4.797   5.272  1.00  0.00     0.042 C 
ENDROOT
BRANCH   1   2
ATOM      2  C   UNL     1       5.239   3.678   5.851  1.00  0.00     0.118 C 
BRANCH   2   3
ATOM      3  N   UNL     1       5.272   3.692   7.305  1.00  0.00    -0.352 N 
ATOM      4  C   UNL     1       4.630   2.978   8.286  1.00  0.00     0.252 C 
ATOM      5  O   UNL     1       5.157   3.041   9.391  1.00  0.00    -0.269 OA
ATOM      6  H   UNL     1       5.894   4.364   7.667  1.00  0.00     0.163 HD
BRANCH   4   7
ATOM      7  C   UNL     1       3.438   2.127   8.056  1.00  0.00     0.055 A 
ATOM      8  C   UNL     1       1.846   1.024   6.488  1.00  0.00     0.077 A 
ATOM      9  C   UNL     1       2.808   2.011   6.813  1.00  0.00     0.043 A 
ATOM     10  N   UNL     1       1.319   0.128   7.356  1.00  0.00    -0.226 NA
ATOM     11  C   UNL     1       1.770   0.309   8.626  1.00  0.00     0.182 A 
ATOM     12  C   UNL     1       2.786   1.281   8.975  1.00  0.00     0.059 A 
ATOM     13  N   UNL     1       1.335  -0.360   9.693  1.00  0.00    -0.154 NA
ATOM     14  C   UNL     1       2.887   1.196  10.356  1.00  0.00     0.075 A 
ATOM     15  N   UNL     1       2.009   0.196  10.709  1.00  0.00    -0.275 N 
ATOM     16  H   UNL     1       1.884  -0.090  11.643  1.00  0.00     0.190 HD
BRANCH   8  17
ATOM     17  C   UNL     1       1.429   0.949   5.076  1.00  0.00     0.046 A 
ATOM     18  C   UNL     1       0.979   0.988   2.272  1.00  0.00     0.164 A 
ATOM     19  C   UNL     1      -0.035   1.339   3.179  1.00  0.00     0.097 A 
ATOM     20  C   UNL     1       2.233   0.619   2.750  1.00  0.00     0.161 A 
ATOM     21  C   UNL     1       0.187   1.355   4.570  1.00  0.00     0.132 A 
ATOM     22  C   UNL     1       2.423   0.572   4.138  1.00  0.00     0.064 A 
BRANCH  18  23
ATOM     23  O   UNL     1       0.724   1.191   0.943  1.00  0.00    -0.493 OA
ATOM     24  C   UNL     1       0.147   0.043   0.320  1.00  0.00     0.278 C 
ENDBRANCH  18  23
BRANCH  20  25
ATOM     25  O   UNL     1       3.382   0.341   2.066  1.00  0.00    -0.493 OA
ATOM     26  C   UNL     1       3.343   0.185   0.659  1.00  0.00     0.278 C 
ENDBRANCH  20  25
BRANCH  21  27
ATOM     27  O   UNL     1      -0.896   1.797   5.287  1.00  0.00    -0.496 OA
ATOM     28  C   UNL     1      -0.634   2.652   6.397  1.00  0.00     0.278 C 
ENDBRANCH  21  27
ENDBRANCH   8  17
BRANCH  14  29
ATOM     29  C   UNL     1       3.602   1.930  11.397  1.00  0.00     0.000 A 
ATOM     30  C   UNL     1       4.534   1.267  12.209  1.00  0.00     0.012 A 
ATOM     31  C   UNL     1       3.389   3.304  11.584  1.00  0.00     0.012 A 
ATOM     32  C   UNL     1       5.280   1.978  13.153  1.00  0.00     0.021 A 
ATOM     33  C   UNL     1       4.149   4.018  12.517  1.00  0.00     0.021 A 
ATOM     34  C   UNL     1       5.097   3.353  13.291  1.00  0.00     0.041 A 
ATOM     35  Cl  UNL     1       6.055   4.232  14.416  1.00  0.00    -0.084 Cl
ENDBRANCH  14  29
ENDBRANCH   4   7
ENDBRANCH   2   3
ENDBRANCH   1   2
BRANCH   1  36
ATOM     36  C   UNL     1       5.149   6.092   5.139  1.00  0.00     0.118 C 
BRANCH  36  37
ATOM     37  N   UNL     1       6.225   5.970   4.146  1.00  0.00    -0.352 N 
ATOM     38  C   UNL     1       7.183   6.890   3.776  1.00  0.00     0.251 C 
ATOM     39  H   UNL     1       6.270   5.105   3.678  1.00  0.00     0.163 HD
ATOM     40  O   UNL     1       7.789   6.749   2.709  1.00  0.00    -0.269 OA
BRANCH  38  41
ATOM     41  C   UNL     1       7.473   8.022   4.666  1.00  0.00     0.039 A 
ATOM     42  C   UNL     1       7.783   9.299   4.186  1.00  0.00     0.014 A 
ATOM     43  C   UNL     1       7.402   7.780   6.033  1.00  0.00     0.014 A 
ATOM     44  C   UNL     1       7.958  10.335   5.105  1.00  0.00     0.010 A 
ATOM     45  C   UNL     1       7.348   8.826   6.906  1.00  0.00     0.010 A 
ATOM     46  C   UNL     1       7.730  10.084   6.466  1.00  0.00    -0.014 A 
BRANCH  46  47
ATOM     47  C   UNL     1       7.710  11.131   7.481  1.00  0.00     0.031 A 
ATOM     48  C   UNL     1       6.608  12.100   7.250  1.00  0.00     0.074 A 
ATOM     49  C   UNL     1       8.392  11.005   8.645  1.00  0.00     0.049 A 
ATOM     50  N   UNL     1       6.691  13.286   6.742  1.00  0.00    -0.248 NA
ATOM     51  C   UNL     1       5.220  11.598   7.331  1.00  0.00     0.031 C 
ATOM     52  C   UNL     1       9.241   9.880   9.068  1.00  0.00     0.029 A 
ATOM     53  N   UNL     1       8.391  11.792   9.757  1.00  0.00    -0.354 N 
ATOM     54  C   UNL     1       5.390  13.781   6.777  1.00  0.00     0.074 A 
ATOM     55  C   UNL     1       4.547  12.623   6.806  1.00  0.00     0.031 C 
ATOM     56  C   UNL     1       9.483   9.954  10.397  1.00  0.00     0.029 A 
ATOM     57  C   UNL     1       8.949  11.207  10.901  1.00  0.00     0.049 A 
ATOM     58  H   UNL     1       8.025  12.706   9.756  1.00  0.00     0.167 HD
ATOM     59  C   UNL     1       5.149  15.058   7.193  1.00  0.00     0.034 A 
ATOM     60  C   UNL     1       8.967  11.715  12.168  1.00  0.00     0.034 A 
ATOM     61  C   UNL     1       6.400  15.791   7.257  1.00  0.00     0.049 A 
ATOM     62  C   UNL     1       8.735  13.170  12.025  1.00  0.00     0.074 A 
ATOM     63  C   UNL     1       7.366  16.189   6.357  1.00  0.00     0.029 A 
ATOM     64  N   UNL     1       6.981  15.837   8.505  1.00  0.00    -0.354 N 
ATOM     65  N   UNL     1       9.572  13.966  11.418  1.00  0.00    -0.248 NA
ATOM     66  C   UNL     1       7.372  13.672  12.128  1.00  0.00     0.031 C 
ATOM     67  C   UNL     1       8.602  16.116   7.070  1.00  0.00     0.029 A 
ATOM     68  C   UNL     1       8.345  15.771   8.399  1.00  0.00     0.049 A 
ATOM     69  H   UNL     1       6.487  15.907   9.353  1.00  0.00     0.167 HD
ATOM     70  C   UNL     1       8.774  14.827  10.682  1.00  0.00     0.074 A 
ATOM     71  C   UNL     1       7.444  14.702  11.278  1.00  0.00     0.031 C 
ATOM     72  C   UNL     1       9.206  15.304   9.476  1.00  0.00     0.034 A 
BRANCH  59  73
ATOM     73  C   UNL     1       3.947  15.503   8.025  1.00  0.00     0.023 A 
ATOM     74  C   UNL     1       3.975  16.833   8.497  1.00  0.00     0.031 A 
ATOM     75  C   UNL     1       2.962  14.679   8.616  1.00  0.00     0.131 A 
ATOM     76  C   UNL     1       3.178  17.241   9.582  1.00  0.00     0.055 A 
ATOM     77  C   UNL     1       2.138  15.104   9.664  1.00  0.00     0.041 A 
ATOM     78  F   UNL     1       2.767  13.402   8.278  1.00  0.00    -0.206 F 
ATOM     79  C   UNL     1       2.267  16.379  10.179  1.00  0.00     0.022 A 
BRANCH  76  80
ATOM     80  S   UNL     1       3.484  18.870  10.307  1.00  0.00     0.124 S 
ATOM     81  O   UNL     1       4.905  18.786  10.620  1.00  0.00    -0.237 OA
ATOM     82  O   UNL     1       3.113  19.758   9.210  1.00  0.00    -0.237 OA
ATOM     83  O   UNL     1       2.589  18.898  11.461  1.00  0.00    -0.744 OA
ENDBRANCH  76  80
ENDBRANCH  59  73
BRANCH  60  84
ATOM     84  C   UNL     1       8.852  11.002  13.480  1.00  0.00     0.023 A 
ATOM     85  C   UNL     1       9.282  11.544  14.718  1.00  0.00     0.031 A 
ATOM     86  C   UNL     1       8.040   9.849  13.550  1.00  0.00     0.131 A 
ATOM     87  C   UNL     1       8.890  10.941  15.943  1.00  0.00     0.055 A 
ATOM     88  C   UNL     1       7.650   9.265  14.760  1.00  0.00     0.041 A 
ATOM     89  F   UNL     1       7.519   9.305  12.439  1.00  0.00    -0.206 F 
ATOM     90  C   UNL     1       8.065   9.814  15.962  1.00  0.00     0.022 A 
BRANCH  87  91
ATOM     91  S   UNL     1       9.387  11.649  17.556  1.00  0.00     0.124 S 
ATOM     92  O   UNL     1      10.838  11.501  17.533  1.00  0.00    -0.237 OA
ATOM     93  O   UNL     1       8.872  13.011  17.476  1.00  0.00    -0.237 OA
ATOM     94  O   UNL     1       8.704  10.797  18.532  1.00  0.00    -0.744 OA
ENDBRANCH  87  91
ENDBRANCH  60  84
BRANCH  72  95
ATOM     95  C   UNL     1      10.694  15.231   9.190  1.00  0.00     0.023 A 
ATOM     96  C   UNL     1      11.464  14.047   9.089  1.00  0.00     0.031 A 
ATOM     97  C   UNL     1      11.341  16.453   8.940  1.00  0.00     0.131 A 
ATOM     98  C   UNL     1      12.834  14.127   8.758  1.00  0.00     0.055 A 
ATOM     99  C   UNL     1      12.686  16.525   8.589  1.00  0.00     0.041 A 
ATOM    100  F   UNL     1      10.658  17.608   9.004  1.00  0.00    -0.206 F 
ATOM    101  C   UNL     1      13.440  15.362   8.503  1.00  0.00     0.022 A 
BRANCH  98 102
ATOM    102  S   UNL     1      13.872  12.629   8.682  1.00  0.00     0.124 S 
ATOM    103  O   UNL     1      13.546  11.923   9.915  1.00  0.00    -0.237 OA
ATOM    104  O   UNL     1      13.423  11.995   7.445  1.00  0.00    -0.237 OA
ATOM    105  O   UNL     1      15.235  13.162   8.628  1.00  0.00    -0.744 OA
ENDBRANCH  98 102
ENDBRANCH  72  95
ENDBRANCH  46  47
ENDBRANCH  38  41
ENDBRANCH  36  37
ENDBRANCH   1  36
TORSDOF 18
