REMARK SMILES C[C@](NC(=O)c1ccc(Br)o1)(C(=O)NCCCNC(=O)c1ccc(-c2c3nc(c(-c4cc(S(=O)(=O)[O-])ccc4F)c4ccc([nH]4)c(-c4cc(S(=O)(=O)[O-])ccc4F)c4nc(c(-c5cc(S(=O)(=O)[O-])ccc5F)c5ccc2[nH]5)C=C4)C=C3)cc1)C(F)(F)F
REMARK SMILES IDX 16 1 15 2 14 3 12 4 13 5 2 7 1 8 84 9 85 10 86 11 87 12 3 13
REMARK SMILES IDX 4 14 5 16 6 17 7 18 11 19 8 20 9 21 10 22 17 23 18 24 19 25
REMARK SMILES IDX 20 27 21 28 22 29 83 30 23 31 82 32 24 33 25 34 26 35 76 36
REMARK SMILES IDX 27 37 81 38 75 39 77 40 28 41 80 42 74 43 73 44 29 46 61 47
REMARK SMILES IDX 41 48 60 49 42 50 45 51 59 52 78 53 43 54 44 55 58 57 79 58
REMARK SMILES IDX 46 59 30 60 31 61 39 62 32 63 38 64 40 65 37 66 33 67 34 68
REMARK SMILES IDX 35 69 36 70 62 71 63 72 71 73 64 74 70 75 72 76 69 77 65 78
REMARK SMILES IDX 66 79 67 80 68 81 47 82 48 83 56 84 49 85 55 86 57 87 54 88
REMARK SMILES IDX 50 89 51 90 52 91 53 92
REMARK H PARENT 14 6 3 15 18 26 77 45 45 56
REMARK Flexibility Score: inf
ROOT
ATOM      1  C   UNL     1      -1.451  -2.540   0.607  1.00  0.00     0.042 C 
ENDROOT
BRANCH   1   2
ATOM      2  C   UNL     1      -1.337  -2.062  -0.834  1.00  0.00     0.117 C 
BRANCH   2   3
ATOM      3  N   UNL     1      -1.751  -0.681  -1.012  1.00  0.00    -0.354 N 
ATOM      4  C   UNL     1      -1.032   0.437  -1.342  1.00  0.00     0.254 C 
ATOM      5  O   UNL     1      -1.690   1.458  -1.548  1.00  0.00    -0.272 OA
ATOM      6  H   UNL     1      -2.712  -0.521  -0.872  1.00  0.00     0.163 HD
BRANCH   4   7
ATOM      7  C   UNL     1       0.498   0.383  -1.546  1.00  0.00     0.212 C 
ATOM      8  C   UNL     1       0.805  -0.370  -2.848  1.00  0.00     0.056 C 
BRANCH   7   9
ATOM      9  C   UNL     1       0.976   1.842  -1.752  1.00  0.00     0.420 C 
ATOM     10  F   UNL     1       0.715   2.624  -0.679  1.00  0.00    -0.168 F 
ATOM     11  F   UNL     1       2.329   1.861  -1.916  1.00  0.00    -0.168 F 
ATOM     12  F   UNL     1       0.457   2.430  -2.852  1.00  0.00    -0.168 F 
ENDBRANCH   7   9
BRANCH   7  13
ATOM     13  N   UNL     1       1.093  -0.153  -0.278  1.00  0.00    -0.328 N 
ATOM     14  C   UNL     1       2.010  -1.104   0.069  1.00  0.00     0.288 C 
ATOM     15  H   UNL     1       0.724   0.300   0.515  1.00  0.00     0.165 HD
ATOM     16  O   UNL     1       2.357  -1.129   1.249  1.00  0.00    -0.266 OA
BRANCH  14  17
ATOM     17  C   UNL     1       2.478  -2.060  -0.894  1.00  0.00     0.192 A 
ATOM     18  C   UNL     1       3.491  -2.036  -1.832  1.00  0.00     0.057 A 
ATOM     19  O   UNL     1       1.891  -3.296  -0.889  1.00  0.00    -0.444 OA
ATOM     20  C   UNL     1       3.499  -3.313  -2.450  1.00  0.00     0.059 A 
ATOM     21  C   UNL     1       2.514  -4.047  -1.831  1.00  0.00     0.170 A 
ATOM     22  Br  UNL     1       2.080  -5.819  -2.216  1.00  0.00    -0.008 Br
ENDBRANCH  14  17
ENDBRANCH   7  13
ENDBRANCH   4   7
ENDBRANCH   2   3
ENDBRANCH   1   2
BRANCH   1  23
ATOM     23  C   UNL     1      -2.887  -2.766   1.068  1.00  0.00     0.118 C 
BRANCH  23  24
ATOM     24  N   UNL     1      -3.546  -3.838   0.334  1.00  0.00    -0.352 N 
ATOM     25  C   UNL     1      -4.200  -4.953   0.797  1.00  0.00     0.251 C 
ATOM     26  H   UNL     1      -3.518  -3.749  -0.646  1.00  0.00     0.163 HD
ATOM     27  O   UNL     1      -4.526  -5.826  -0.004  1.00  0.00    -0.269 OA
BRANCH  25  28
ATOM     28  C   UNL     1      -4.496  -5.114   2.237  1.00  0.00     0.039 A 
ATOM     29  C   UNL     1      -4.338  -6.376   2.820  1.00  0.00     0.014 A 
ATOM     30  C   UNL     1      -4.960  -4.044   3.007  1.00  0.00     0.014 A 
ATOM     31  C   UNL     1      -4.588  -6.550   4.183  1.00  0.00     0.010 A 
ATOM     32  C   UNL     1      -5.147  -4.203   4.378  1.00  0.00     0.010 A 
ATOM     33  C   UNL     1      -4.967  -5.458   4.979  1.00  0.00    -0.014 A 
BRANCH  33  34
ATOM     34  C   UNL     1      -5.196  -5.606   6.438  1.00  0.00     0.031 A 
ATOM     35  C   UNL     1      -6.573  -5.398   7.007  1.00  0.00     0.074 A 
ATOM     36  C   UNL     1      -4.154  -5.851   7.256  1.00  0.00     0.049 A 
ATOM     37  N   UNL     1      -6.959  -5.367   8.256  1.00  0.00    -0.248 NA
ATOM     38  C   UNL     1      -7.651  -5.157   6.037  1.00  0.00     0.031 C 
ATOM     39  C   UNL     1      -2.765  -6.030   6.825  1.00  0.00     0.029 A 
ATOM     40  N   UNL     1      -4.097  -5.975   8.620  1.00  0.00    -0.354 N 
ATOM     41  C   UNL     1      -8.319  -5.080   8.226  1.00  0.00     0.074 A 
ATOM     42  C   UNL     1      -8.677  -4.899   6.834  1.00  0.00     0.031 C 
ATOM     43  C   UNL     1      -1.996  -6.251   7.904  1.00  0.00     0.029 A 
ATOM     44  C   UNL     1      -2.827  -6.192   9.102  1.00  0.00     0.049 A 
ATOM     45  H   UNL     1      -4.890  -5.913   9.200  1.00  0.00     0.167 HD
ATOM     46  C   UNL     1      -9.192  -4.992   9.261  1.00  0.00     0.034 A 
ATOM     47  C   UNL     1      -2.382  -6.316  10.367  1.00  0.00     0.034 A 
ATOM     48  C   UNL     1      -8.824  -5.198  10.641  1.00  0.00     0.049 A 
ATOM     49  C   UNL     1      -3.370  -6.229  11.500  1.00  0.00     0.074 A 
ATOM     50  C   UNL     1      -9.634  -5.188  11.763  1.00  0.00     0.029 A 
ATOM     51  N   UNL     1      -7.533  -5.450  11.088  1.00  0.00    -0.354 N 
ATOM     52  N   UNL     1      -4.660  -5.992  11.454  1.00  0.00    -0.248 NA
ATOM     53  C   UNL     1      -2.842  -6.439  12.855  1.00  0.00     0.031 C 
ATOM     54  C   UNL     1      -8.828  -5.387  12.891  1.00  0.00     0.029 A 
ATOM     55  C   UNL     1      -7.522  -5.579  12.469  1.00  0.00     0.049 A 
ATOM     56  H   UNL     1      -6.740  -5.526  10.509  1.00  0.00     0.167 HD
ATOM     57  C   UNL     1      -5.102  -6.048  12.772  1.00  0.00     0.074 A 
ATOM     58  C   UNL     1      -3.943  -6.351  13.587  1.00  0.00     0.031 C 
ATOM     59  C   UNL     1      -6.354  -5.869  13.265  1.00  0.00     0.034 A 
BRANCH  46  60
ATOM     60  C   UNL     1     -10.619  -4.628   8.930  1.00  0.00     0.023 A 
ATOM     61  C   UNL     1     -11.431  -5.468   8.149  1.00  0.00     0.031 A 
ATOM     62  C   UNL     1     -11.161  -3.406   9.364  1.00  0.00     0.131 A 
ATOM     63  C   UNL     1     -12.708  -5.040   7.755  1.00  0.00     0.055 A 
ATOM     64  C   UNL     1     -12.463  -3.020   9.035  1.00  0.00     0.041 A 
ATOM     65  F   UNL     1     -10.427  -2.554  10.097  1.00  0.00    -0.206 F 
ATOM     66  C   UNL     1     -13.239  -3.832   8.212  1.00  0.00     0.022 A 
BRANCH  63  67
ATOM     67  S   UNL     1     -13.606  -6.017   6.519  1.00  0.00     0.124 S 
ATOM     68  O   UNL     1     -12.688  -5.970   5.383  1.00  0.00    -0.237 OA
ATOM     69  O   UNL     1     -13.742  -7.311   7.177  1.00  0.00    -0.237 OA
ATOM     70  O   UNL     1     -14.852  -5.276   6.335  1.00  0.00    -0.744 OA
ENDBRANCH  63  67
ENDBRANCH  46  60
BRANCH  47  71
ATOM     71  C   UNL     1      -0.934  -6.525  10.636  1.00  0.00     0.023 A 
ATOM     72  C   UNL     1      -0.464  -7.746  11.144  1.00  0.00     0.031 A 
ATOM     73  C   UNL     1      -0.002  -5.496  10.414  1.00  0.00     0.131 A 
ATOM     74  C   UNL     1       0.897  -7.897  11.450  1.00  0.00     0.055 A 
ATOM     75  C   UNL     1       1.357  -5.665  10.681  1.00  0.00     0.041 A 
ATOM     76  F   UNL     1      -0.403  -4.314   9.919  1.00  0.00    -0.206 F 
ATOM     77  C   UNL     1       1.812  -6.868  11.213  1.00  0.00     0.022 A 
BRANCH  74  78
ATOM     78  S   UNL     1       1.446  -9.443  12.222  1.00  0.00     0.124 S 
ATOM     79  O   UNL     1       0.633  -9.477  13.433  1.00  0.00    -0.237 OA
ATOM     80  O   UNL     1       1.113 -10.428  11.198  1.00  0.00    -0.237 OA
ATOM     81  O   UNL     1       2.876  -9.228  12.435  1.00  0.00    -0.744 OA
ENDBRANCH  74  78
ENDBRANCH  47  71
BRANCH  59  82
ATOM     82  C   UNL     1      -6.527  -6.043  14.751  1.00  0.00     0.023 A 
ATOM     83  C   UNL     1      -6.005  -5.114  15.668  1.00  0.00     0.031 A 
ATOM     84  C   UNL     1      -7.205  -7.166  15.254  1.00  0.00     0.131 A 
ATOM     85  C   UNL     1      -6.126  -5.351  17.045  1.00  0.00     0.055 A 
ATOM     86  C   UNL     1      -7.364  -7.373  16.625  1.00  0.00     0.041 A 
ATOM     87  F   UNL     1      -7.721  -8.083  14.419  1.00  0.00    -0.206 F 
ATOM     88  C   UNL     1      -6.813  -6.469  17.529  1.00  0.00     0.022 A 
BRANCH  85  89
ATOM     89  S   UNL     1      -5.306  -4.219  18.200  1.00  0.00     0.124 S 
ATOM     90  O   UNL     1      -3.909  -4.328  17.793  1.00  0.00    -0.237 OA
ATOM     91  O   UNL     1      -5.958  -2.947  17.907  1.00  0.00    -0.237 OA
ATOM     92  O   UNL     1      -5.615  -4.784  19.513  1.00  0.00    -0.744 OA
ENDBRANCH  85  89
ENDBRANCH  59  82
ENDBRANCH  33  34
ENDBRANCH  25  28
ENDBRANCH  23  24
ENDBRANCH   1  23
TORSDOF 16
