REMARK SMILES CC[C@H](O)C[C@@H](Cc1ccccc1OC)C(=O)NCCCNC(=O)c1ccc(-c2c3nc(c(-c4cc(S(=O)(=O)[O-])ccc4F)c4ccc([nH]4)c(-c4cc(S(=O)(=O)[O-])ccc4F)c4nc(c(-c5cc(S(=O)(=O)[O-])ccc5F)c5ccc2[nH]5)C=C4)C=C3)cc1
REMARK SMILES IDX 20 1 19 2 18 3 16 4 17 5 6 7 5 8 3 9 2 10 1 11 4 12 7 14
REMARK SMILES IDX 8 15 9 16 13 17 10 18 12 19 11 20 14 21 15 22 21 23 22 24
REMARK SMILES IDX 23 25 24 27 25 28 26 29 87 30 27 31 86 32 28 33 29 34 30 35
REMARK SMILES IDX 80 36 31 37 85 38 79 39 81 40 32 41 84 42 78 43 77 44 33 46
REMARK SMILES IDX 65 47 45 48 64 49 46 50 49 51 63 52 82 53 47 54 48 55 62 57
REMARK SMILES IDX 83 58 50 59 34 60 35 61 43 62 36 63 42 64 44 65 41 66 37 67
REMARK SMILES IDX 38 68 39 69 40 70 66 71 67 72 75 73 68 74 74 75 76 76 73 77
REMARK SMILES IDX 69 78 70 79 71 80 72 81 51 82 52 83 60 84 53 85 59 86 61 87
REMARK SMILES IDX 58 88 54 89 55 90 56 91 57 92
REMARK H PARENT 18 6 4 13 22 26 81 45 49 56
REMARK Flexibility Score: inf
ROOT
ATOM      1  C   UNL     1       0.307   7.412   0.074  1.00  0.00     0.042 C 
ENDROOT
BRANCH   1   2
ATOM      2  C   UNL     1       0.908   6.479   1.099  1.00  0.00     0.117 C 
BRANCH   2   3
ATOM      3  N   UNL     1      -0.055   5.791   1.932  1.00  0.00    -0.356 N 
ATOM      4  C   UNL     1      -0.008   4.516   2.407  1.00  0.00     0.223 C 
ATOM      5  O   UNL     1      -0.731   4.236   3.369  1.00  0.00    -0.275 OA
ATOM      6  H   UNL     1      -0.849   6.314   2.189  1.00  0.00     0.163 HD
BRANCH   4   7
ATOM      7  C   UNL     1       0.853   3.432   1.758  1.00  0.00     0.085 C 
BRANCH   7   8
ATOM      8  C   UNL     1       0.550   3.321   0.248  1.00  0.00     0.045 C 
BRANCH   8   9
ATOM      9  C   UNL     1       1.115   2.087  -0.457  1.00  0.00     0.115 C 
BRANCH   9  10
ATOM     10  C   UNL     1       0.630   2.046  -1.913  1.00  0.00     0.028 C 
ATOM     11  C   UNL     1       1.407   1.037  -2.745  1.00  0.00     0.006 C 
ENDBRANCH   9  10
BRANCH   9  12
ATOM     12  O   UNL     1       0.709   0.902   0.220  1.00  0.00    -0.393 OA
ATOM     13  H   UNL     1      -0.259   0.842   0.214  1.00  0.00     0.210 HD
ENDBRANCH   9  12
ENDBRANCH   8   9
ENDBRANCH   7   8
BRANCH   7  14
ATOM     14  C   UNL     1       2.325   3.367   2.230  1.00  0.00     0.053 C 
BRANCH  14  15
ATOM     15  C   UNL     1       3.270   4.519   1.970  1.00  0.00    -0.005 A 
ATOM     16  C   UNL     1       4.006   4.476   0.763  1.00  0.00     0.007 A 
ATOM     17  C   UNL     1       3.416   5.661   2.783  1.00  0.00     0.122 A 
ATOM     18  C   UNL     1       4.799   5.546   0.343  1.00  0.00     0.001 A 
ATOM     19  C   UNL     1       4.223   6.729   2.349  1.00  0.00     0.047 A 
ATOM     20  C   UNL     1       4.901   6.681   1.133  1.00  0.00     0.004 A 
BRANCH  17  21
ATOM     21  O   UNL     1       2.670   5.995   3.882  1.00  0.00    -0.496 OA
ATOM     22  C   UNL     1       2.521   5.030   4.908  1.00  0.00     0.278 C 
ENDBRANCH  17  21
ENDBRANCH  14  15
ENDBRANCH   7  14
ENDBRANCH   4   7
ENDBRANCH   2   3
ENDBRANCH   1   2
BRANCH   1  23
ATOM     23  C   UNL     1       0.042   8.786   0.666  1.00  0.00     0.118 C 
BRANCH  23  24
ATOM     24  N   UNL     1       1.272   9.495   1.039  1.00  0.00    -0.352 N 
ATOM     25  C   UNL     1       1.846  10.632   0.513  1.00  0.00     0.251 C 
ATOM     26  H   UNL     1       1.767   9.092   1.788  1.00  0.00     0.163 HD
ATOM     27  O   UNL     1       2.972  10.965   0.848  1.00  0.00    -0.269 OA
BRANCH  25  28
ATOM     28  C   UNL     1       1.094  11.410  -0.493  1.00  0.00     0.039 A 
ATOM     29  C   UNL     1       1.737  11.839  -1.655  1.00  0.00     0.014 A 
ATOM     30  C   UNL     1      -0.270  11.631  -0.317  1.00  0.00     0.014 A 
ATOM     31  C   UNL     1       0.977  12.377  -2.696  1.00  0.00     0.010 A 
ATOM     32  C   UNL     1      -1.036  12.032  -1.398  1.00  0.00     0.010 A 
ATOM     33  C   UNL     1      -0.424  12.408  -2.603  1.00  0.00    -0.014 A 
BRANCH  33  34
ATOM     34  C   UNL     1      -1.288  12.823  -3.738  1.00  0.00     0.031 A 
ATOM     35  C   UNL     1      -2.268  13.950  -3.549  1.00  0.00     0.074 A 
ATOM     36  C   UNL     1      -1.279  12.116  -4.885  1.00  0.00     0.049 A 
ATOM     37  N   UNL     1      -3.227  14.359  -4.338  1.00  0.00    -0.248 NA
ATOM     38  C   UNL     1      -2.191  14.671  -2.270  1.00  0.00     0.031 C 
ATOM     39  C   UNL     1      -0.416  10.966  -5.169  1.00  0.00     0.029 A 
ATOM     40  N   UNL     1      -2.028  12.253  -6.026  1.00  0.00    -0.354 N 
ATOM     41  C   UNL     1      -3.889  15.360  -3.634  1.00  0.00     0.074 A 
ATOM     42  C   UNL     1      -3.277  15.423  -2.324  1.00  0.00     0.031 C 
ATOM     43  C   UNL     1      -0.650  10.537  -6.420  1.00  0.00     0.029 A 
ATOM     44  C   UNL     1      -1.719  11.339  -7.005  1.00  0.00     0.049 A 
ATOM     45  H   UNL     1      -2.723  12.943  -6.133  1.00  0.00     0.167 HD
ATOM     46  C   UNL     1      -4.888  16.177  -4.052  1.00  0.00     0.034 A 
ATOM     47  C   UNL     1      -2.244  11.163  -8.233  1.00  0.00     0.034 A 
ATOM     48  C   UNL     1      -5.462  16.114  -5.373  1.00  0.00     0.049 A 
ATOM     49  C   UNL     1      -3.368  12.062  -8.675  1.00  0.00     0.074 A 
ATOM     50  C   UNL     1      -6.426  16.928  -5.939  1.00  0.00     0.029 A 
ATOM     51  N   UNL     1      -5.122  15.172  -6.339  1.00  0.00    -0.354 N 
ATOM     52  N   UNL     1      -3.955  13.037  -8.019  1.00  0.00    -0.248 NA
ATOM     53  C   UNL     1      -3.900  11.836 -10.024  1.00  0.00     0.031 C 
ATOM     54  C   UNL     1      -6.714  16.442  -7.220  1.00  0.00     0.029 A 
ATOM     55  C   UNL     1      -5.880  15.367  -7.484  1.00  0.00     0.049 A 
ATOM     56  H   UNL     1      -4.442  14.470  -6.227  1.00  0.00     0.167 HD
ATOM     57  C   UNL     1      -4.907  13.560  -8.888  1.00  0.00     0.074 A 
ATOM     58  C   UNL     1      -4.808  12.797 -10.117  1.00  0.00     0.031 C 
ATOM     59  C   UNL     1      -5.778  14.583  -8.693  1.00  0.00     0.034 A 
BRANCH  46  60
ATOM     60  C   UNL     1      -5.415  17.182  -3.052  1.00  0.00     0.023 A 
ATOM     61  C   UNL     1      -4.573  18.142  -2.461  1.00  0.00     0.031 A 
ATOM     62  C   UNL     1      -6.750  17.128  -2.614  1.00  0.00     0.131 A 
ATOM     63  C   UNL     1      -5.032  18.911  -1.382  1.00  0.00     0.055 A 
ATOM     64  C   UNL     1      -7.231  17.974  -1.613  1.00  0.00     0.041 A 
ATOM     65  F   UNL     1      -7.602  16.226  -3.126  1.00  0.00    -0.206 F 
ATOM     66  C   UNL     1      -6.364  18.855  -0.971  1.00  0.00     0.022 A 
BRANCH  63  67
ATOM     67  S   UNL     1      -3.811  19.820  -0.395  1.00  0.00     0.124 S 
ATOM     68  O   UNL     1      -2.906  18.747   0.014  1.00  0.00    -0.237 OA
ATOM     69  O   UNL     1      -3.275  20.776  -1.357  1.00  0.00    -0.237 OA
ATOM     70  O   UNL     1      -4.606  20.398   0.687  1.00  0.00    -0.744 OA
ENDBRANCH  63  67
ENDBRANCH  46  60
BRANCH  47  71
ATOM     71  C   UNL     1      -1.704  10.111  -9.139  1.00  0.00     0.023 A 
ATOM     72  C   UNL     1      -1.014  10.466 -10.308  1.00  0.00     0.031 A 
ATOM     73  C   UNL     1      -1.875   8.744  -8.861  1.00  0.00     0.131 A 
ATOM     74  C   UNL     1      -0.546   9.467 -11.176  1.00  0.00     0.055 A 
ATOM     75  C   UNL     1      -1.371   7.753  -9.706  1.00  0.00     0.041 A 
ATOM     76  F   UNL     1      -2.519   8.352  -7.750  1.00  0.00    -0.206 F 
ATOM     77  C   UNL     1      -0.710   8.113 -10.876  1.00  0.00     0.022 A 
BRANCH  74  78
ATOM     78  S   UNL     1       0.238   9.967 -12.732  1.00  0.00     0.124 S 
ATOM     79  O   UNL     1      -0.841  10.697 -13.388  1.00  0.00    -0.237 OA
ATOM     80  O   UNL     1       1.363  10.768 -12.261  1.00  0.00    -0.237 OA
ATOM     81  O   UNL     1       0.600   8.695 -13.354  1.00  0.00    -0.744 OA
ENDBRANCH  74  78
ENDBRANCH  47  71
BRANCH  59  82
ATOM     82  C   UNL     1      -6.663  14.954  -9.856  1.00  0.00     0.023 A 
ATOM     83  C   UNL     1      -7.682  14.100 -10.311  1.00  0.00     0.031 A 
ATOM     84  C   UNL     1      -6.475  16.178 -10.523  1.00  0.00     0.131 A 
ATOM     85  C   UNL     1      -8.444  14.460 -11.432  1.00  0.00     0.055 A 
ATOM     86  C   UNL     1      -7.274  16.556 -11.601  1.00  0.00     0.041 A 
ATOM     87  F   UNL     1      -5.513  17.029 -10.130  1.00  0.00    -0.206 F 
ATOM     88  C   UNL     1      -8.258  15.690 -12.069  1.00  0.00     0.022 A 
BRANCH  85  89
ATOM     89  S   UNL     1      -9.632  13.262 -12.099  1.00  0.00     0.124 S 
ATOM     90  O   UNL     1      -8.767  12.136 -12.438  1.00  0.00    -0.237 OA
ATOM     91  O   UNL     1     -10.535  13.056 -10.972  1.00  0.00    -0.237 OA
ATOM     92  O   UNL     1     -10.218  13.960 -13.242  1.00  0.00    -0.744 OA
ENDBRANCH  85  89
ENDBRANCH  59  82
ENDBRANCH  33  34
ENDBRANCH  25  28
ENDBRANCH  23  24
ENDBRANCH   1  23
TORSDOF 20
