REMARK SMILES Cc1ccccc1C[C@H](CCSc1ccccc1)C(=O)NCCCNC(=O)c1ccc(-c2c3nc(c(-c4cc(S(=O)(=O)[O-])ccc4F)c4ccc([nH]4)c(-c4cc(S(=O)(=O)[O-])ccc4F)c4nc(c(-c5cc(S(=O)(=O)[O-])ccc5F)c5ccc2[nH]5)C=C4)C=C3)cc1
REMARK SMILES IDX 22 1 21 2 19 3 20 4 9 6 8 7 7 8 1 9 2 10 3 11 4 12 6 13 5 14
REMARK SMILES IDX 10 15 11 16 12 17 13 18 14 19 18 20 15 21 17 22 16 23 23 24
REMARK SMILES IDX 24 25 25 26 26 27 27 29 28 30 29 31 90 32 30 33 89 34 31 35
REMARK SMILES IDX 32 36 33 37 83 38 34 39 88 40 82 41 84 42 35 43 87 44 81 45
REMARK SMILES IDX 80 46 36 48 68 49 48 50 67 51 49 52 52 53 66 54 85 55 50 56
REMARK SMILES IDX 51 57 65 59 86 60 53 61 37 62 38 63 46 64 39 65 45 66 47 67
REMARK SMILES IDX 44 68 40 69 41 70 42 71 43 72 69 73 70 74 78 75 71 76 77 77
REMARK SMILES IDX 79 78 76 79 72 80 73 81 74 82 75 83 54 84 55 85 63 86 56 87
REMARK SMILES IDX 62 88 64 89 61 90 57 91 58 92 59 93 60 94
REMARK H PARENT 21 5 25 28 84 47 52 58
REMARK Flexibility Score: inf
ROOT
ATOM      1  C   UNL     1       0.061   4.977   1.688  1.00  0.00     0.117 C 
ENDROOT
BRANCH   1   2
ATOM      2  N   UNL     1       1.162   5.079   0.744  1.00  0.00    -0.356 N 
ATOM      3  C   UNL     1       1.317   4.524  -0.488  1.00  0.00     0.223 C 
ATOM      4  O   UNL     1       2.350   4.784  -1.109  1.00  0.00    -0.275 OA
ATOM      5  H   UNL     1       1.915   5.639   1.043  1.00  0.00     0.163 HD
BRANCH   3   6
ATOM      6  C   UNL     1       0.309   3.531  -1.053  1.00  0.00     0.083 C 
BRANCH   6   7
ATOM      7  C   UNL     1      -1.164   3.996  -1.137  1.00  0.00     0.049 C 
BRANCH   7   8
ATOM      8  C   UNL     1      -1.483   5.229  -1.968  1.00  0.00    -0.044 A 
ATOM      9  C   UNL     1      -3.330   4.059  -3.341  1.00  0.00     0.044 C 
ATOM     10  C   UNL     1      -2.465   5.237  -2.985  1.00  0.00    -0.048 A 
ATOM     11  C   UNL     1      -2.765   6.445  -3.650  1.00  0.00     0.004 A 
ATOM     12  C   UNL     1      -2.130   7.636  -3.315  1.00  0.00     0.000 A 
ATOM     13  C   UNL     1      -0.880   6.458  -1.634  1.00  0.00     0.004 A 
ATOM     14  C   UNL     1      -1.192   7.642  -2.299  1.00  0.00     0.000 A 
ENDBRANCH   7   8
ENDBRANCH   6   7
BRANCH   6  15
ATOM     15  C   UNL     1       0.534   2.190  -0.312  1.00  0.00     0.025 C 
BRANCH  15  16
ATOM     16  C   UNL     1      -0.247   0.966  -0.796  1.00  0.00     0.076 C 
BRANCH  16  17
ATOM     17  S   UNL     1       0.501   0.107  -2.227  1.00  0.00    -0.126 SA
BRANCH  17  18
ATOM     18  C   UNL     1      -0.295   0.925  -3.592  1.00  0.00     0.007 A 
ATOM     19  C   UNL     1       0.323   2.016  -4.208  1.00  0.00     0.015 A 
ATOM     20  C   UNL     1      -1.499   0.442  -4.113  1.00  0.00     0.015 A 
ATOM     21  C   UNL     1      -0.288   2.668  -5.279  1.00  0.00     0.001 A 
ATOM     22  C   UNL     1      -2.089   1.065  -5.217  1.00  0.00     0.001 A 
ATOM     23  C   UNL     1      -1.490   2.187  -5.790  1.00  0.00     0.000 A 
ENDBRANCH  17  18
ENDBRANCH  16  17
ENDBRANCH  15  16
ENDBRANCH   6  15
ENDBRANCH   3   6
ENDBRANCH   1   2
BRANCH   1  24
ATOM     24  C   UNL     1       0.544   4.698   3.098  1.00  0.00     0.042 C 
BRANCH  24  25
ATOM     25  C   UNL     1       1.118   5.938   3.741  1.00  0.00     0.118 C 
BRANCH  25  26
ATOM     26  N   UNL     1       0.156   6.782   4.426  1.00  0.00    -0.352 N 
ATOM     27  C   UNL     1       0.359   7.972   5.114  1.00  0.00     0.251 C 
ATOM     28  H   UNL     1      -0.776   6.467   4.398  1.00  0.00     0.163 HD
ATOM     29  O   UNL     1      -0.526   8.417   5.820  1.00  0.00    -0.269 OA
BRANCH  27  30
ATOM     30  C   UNL     1       1.600   8.765   4.878  1.00  0.00     0.039 A 
ATOM     31  C   UNL     1       1.496  10.165   4.880  1.00  0.00     0.014 A 
ATOM     32  C   UNL     1       2.768   8.171   4.425  1.00  0.00     0.014 A 
ATOM     33  C   UNL     1       2.454  10.928   4.216  1.00  0.00     0.010 A 
ATOM     34  C   UNL     1       3.597   8.887   3.603  1.00  0.00     0.010 A 
ATOM     35  C   UNL     1       3.431  10.264   3.486  1.00  0.00    -0.014 A 
BRANCH  35  36
ATOM     36  C   UNL     1       4.374  10.877   2.574  1.00  0.00     0.031 A 
ATOM     37  C   UNL     1       5.785  10.978   2.987  1.00  0.00     0.074 A 
ATOM     38  C   UNL     1       3.985  11.127   1.307  1.00  0.00     0.049 A 
ATOM     39  N   UNL     1       6.645  11.745   2.422  1.00  0.00    -0.248 NA
ATOM     40  C   UNL     1       6.346  10.223   4.106  1.00  0.00     0.031 C 
ATOM     41  C   UNL     1       4.830  11.396   0.148  1.00  0.00     0.029 A 
ATOM     42  N   UNL     1       2.691  11.406   0.867  1.00  0.00    -0.354 N 
ATOM     43  C   UNL     1       7.891  11.393   2.885  1.00  0.00     0.074 A 
ATOM     44  C   UNL     1       7.649  10.476   3.970  1.00  0.00     0.031 C 
ATOM     45  C   UNL     1       4.105  12.057  -0.769  1.00  0.00     0.029 A 
ATOM     46  C   UNL     1       2.824  12.366  -0.157  1.00  0.00     0.049 A 
ATOM     47  H   UNL     1       1.854  11.012   1.203  1.00  0.00     0.167 HD
ATOM     48  C   UNL     1       8.985  11.824   2.204  1.00  0.00     0.034 A 
ATOM     49  C   UNL     1       2.330  13.626   0.024  1.00  0.00     0.034 A 
ATOM     50  C   UNL     1       8.592  12.672   1.081  1.00  0.00     0.049 A 
ATOM     51  C   UNL     1       3.399  14.698   0.011  1.00  0.00     0.074 A 
ATOM     52  C   UNL     1       8.438  12.437  -0.276  1.00  0.00     0.029 A 
ATOM     53  N   UNL     1       7.966  13.882   1.344  1.00  0.00    -0.354 N 
ATOM     54  N   UNL     1       4.676  14.473   0.166  1.00  0.00    -0.248 NA
ATOM     55  C   UNL     1       3.108  16.110  -0.195  1.00  0.00     0.031 C 
ATOM     56  C   UNL     1       7.676  13.507  -0.819  1.00  0.00     0.029 A 
ATOM     57  C   UNL     1       7.399  14.402   0.200  1.00  0.00     0.049 A 
ATOM     58  H   UNL     1       7.932  14.311   2.230  1.00  0.00     0.167 HD
ATOM     59  C   UNL     1       5.374  15.656   0.091  1.00  0.00     0.074 A 
ATOM     60  C   UNL     1       4.340  16.648  -0.152  1.00  0.00     0.031 C 
ATOM     61  C   UNL     1       6.737  15.700   0.246  1.00  0.00     0.034 A 
BRANCH  48  62
ATOM     62  C   UNL     1      10.379  11.282   2.382  1.00  0.00     0.023 A 
ATOM     63  C   UNL     1      11.258  11.309   1.280  1.00  0.00     0.031 A 
ATOM     64  C   UNL     1      10.903  10.720   3.562  1.00  0.00     0.131 A 
ATOM     65  C   UNL     1      12.536  10.730   1.343  1.00  0.00     0.055 A 
ATOM     66  C   UNL     1      12.158  10.098   3.613  1.00  0.00     0.041 A 
ATOM     67  F   UNL     1      10.251  10.795   4.730  1.00  0.00    -0.206 F 
ATOM     68  C   UNL     1      12.981  10.093   2.496  1.00  0.00     0.022 A 
BRANCH  65  69
ATOM     69  S   UNL     1      13.613  10.838  -0.111  1.00  0.00     0.124 S 
ATOM     70  O   UNL     1      12.841  10.119  -1.119  1.00  0.00    -0.237 OA
ATOM     71  O   UNL     1      13.737  12.280  -0.298  1.00  0.00    -0.237 OA
ATOM     72  O   UNL     1      14.836  10.167   0.325  1.00  0.00    -0.744 OA
ENDBRANCH  65  69
ENDBRANCH  48  62
BRANCH  49  73
ATOM     73  C   UNL     1       1.070  13.631   0.826  1.00  0.00     0.023 A 
ATOM     74  C   UNL     1      -0.030  12.933   0.279  1.00  0.00     0.031 A 
ATOM     75  C   UNL     1       1.078  13.857   2.210  1.00  0.00     0.131 A 
ATOM     76  C   UNL     1      -0.974  12.327   1.122  1.00  0.00     0.055 A 
ATOM     77  C   UNL     1       0.094  13.305   3.042  1.00  0.00     0.041 A 
ATOM     78  F   UNL     1       2.110  14.485   2.794  1.00  0.00    -0.206 F 
ATOM     79  C   UNL     1      -0.905  12.491   2.506  1.00  0.00     0.022 A 
BRANCH  76  80
ATOM     80  S   UNL     1      -2.132  11.101   0.438  1.00  0.00     0.124 S 
ATOM     81  O   UNL     1      -3.391  11.838   0.441  1.00  0.00    -0.237 OA
ATOM     82  O   UNL     1      -1.574  10.811  -0.880  1.00  0.00    -0.237 OA
ATOM     83  O   UNL     1      -2.038   9.999   1.394  1.00  0.00    -0.744 OA
ENDBRANCH  76  80
ENDBRANCH  49  73
BRANCH  61  84
ATOM     84  C   UNL     1       7.615  16.935   0.419  1.00  0.00     0.023 A 
ATOM     85  C   UNL     1       7.123  18.242   0.497  1.00  0.00     0.031 A 
ATOM     86  C   UNL     1       9.025  16.820   0.576  1.00  0.00     0.131 A 
ATOM     87  C   UNL     1       7.981  19.345   0.679  1.00  0.00     0.055 A 
ATOM     88  C   UNL     1       9.868  17.907   0.828  1.00  0.00     0.041 A 
ATOM     89  F   UNL     1       9.663  15.644   0.503  1.00  0.00    -0.206 F 
ATOM     90  C   UNL     1       9.349  19.186   0.872  1.00  0.00     0.022 A 
BRANCH  87  91
ATOM     91  S   UNL     1       7.262  21.005   0.598  1.00  0.00     0.124 S 
ATOM     92  O   UNL     1       6.733  21.038  -0.763  1.00  0.00    -0.237 OA
ATOM     93  O   UNL     1       6.264  20.963   1.663  1.00  0.00    -0.237 OA
ATOM     94  O   UNL     1       8.399  21.888   0.845  1.00  0.00    -0.744 OA
ENDBRANCH  87  91
ENDBRANCH  61  84
ENDBRANCH  35  36
ENDBRANCH  27  30
ENDBRANCH  25  26
ENDBRANCH  24  25
ENDBRANCH   1  24
TORSDOF 19
