REMARK SMILES Cc1cc(C(=O)NCCCNC(=O)c2ccc(-c3c4nc(c(-c5cc(S(=O)(=O)[O-])ccc5F)c5ccc([nH]5)c(-c5cc(S(=O)(=O)[O-])ccc5F)c5nc(c(-c6cc(S(=O)(=O)[O-])ccc6F)c6ccc3[nH]6)C=C5)C=C4)cc2)ccc1-c1ccc(C(=O)N2CCCCC2)cc1
REMARK SMILES IDX 9 1 8 2 7 3 5 4 6 5 4 7 1 8 2 9 3 10 79 11 78 12 77 13 80 14
REMARK SMILES IDX 81 15 93 16 82 17 92 18 83 19 84 20 85 21 86 22 87 23 91 24
REMARK SMILES IDX 88 25 90 26 89 27 10 28 11 29 12 30 13 32 14 33 15 34 76 35
REMARK SMILES IDX 16 36 75 37 17 38 18 39 19 40 69 41 20 42 74 43 68 44 70 45
REMARK SMILES IDX 21 46 73 47 67 48 66 49 22 51 54 52 34 53 53 54 35 55 38 56
REMARK SMILES IDX 52 57 71 58 36 59 37 60 51 62 72 63 39 64 23 65 24 66 32 67
REMARK SMILES IDX 25 68 31 69 33 70 30 71 26 72 27 73 28 74 29 75 55 76 56 77
REMARK SMILES IDX 64 78 57 79 63 80 65 81 62 82 58 83 59 84 60 85 61 86 40 87
REMARK SMILES IDX 41 88 49 89 42 90 48 91 50 92 47 93 43 94 44 95 45 96 46 97
REMARK H PARENT 7 6 11 31 70 50 38 61
REMARK Flexibility Score: inf
ROOT
ATOM      1  C   UNL     1      -4.785  -0.745  -1.905  1.00  0.00     0.042 C 
ENDROOT
BRANCH   1   2
ATOM      2  C   UNL     1      -3.858  -0.774  -0.714  1.00  0.00     0.118 C 
BRANCH   2   3
ATOM      3  N   UNL     1      -3.164  -2.035  -0.479  1.00  0.00    -0.352 N 
ATOM      4  C   UNL     1      -1.884  -2.234   0.001  1.00  0.00     0.251 C 
ATOM      5  O   UNL     1      -1.414  -3.367   0.089  1.00  0.00    -0.269 OA
ATOM      6  H   UNL     1      -3.674  -2.850  -0.690  1.00  0.00     0.163 HD
BRANCH   4   7
ATOM      7  C   UNL     1      -1.015  -1.065   0.305  1.00  0.00     0.040 A 
ATOM      8  C   UNL     1       2.643  -0.186  -0.074  1.00  0.00     0.045 C 
ATOM      9  C   UNL     1       1.160   0.016   0.083  1.00  0.00    -0.042 A 
ATOM     10  C   UNL     1       0.350  -1.136   0.018  1.00  0.00     0.018 A 
ATOM     11  C   UNL     1       0.557   1.274   0.318  1.00  0.00    -0.015 A 
ATOM     12  C   UNL     1      -0.785   1.288   0.734  1.00  0.00     0.010 A 
ATOM     13  C   UNL     1      -1.529   0.118   0.820  1.00  0.00     0.014 A 
BRANCH  11  14
ATOM     14  C   UNL     1       1.248   2.567   0.154  1.00  0.00    -0.018 A 
ATOM     15  C   UNL     1       2.032   2.838  -0.978  1.00  0.00     0.009 A 
ATOM     16  C   UNL     1       1.118   3.579   1.118  1.00  0.00     0.009 A 
ATOM     17  C   UNL     1       2.751   4.032  -1.087  1.00  0.00     0.014 A 
ATOM     18  C   UNL     1       1.796   4.792   0.991  1.00  0.00     0.014 A 
ATOM     19  C   UNL     1       2.644   5.015  -0.098  1.00  0.00     0.040 A 
BRANCH  19  20
ATOM     20  C   UNL     1       3.554   6.197  -0.037  1.00  0.00     0.253 C 
ATOM     21  O   UNL     1       3.711   6.774   1.038  1.00  0.00    -0.269 OA
ATOM     22  N   UNL     1       4.330   6.499  -1.146  1.00  0.00    -0.339 N 
ATOM     23  C   UNL     1       5.724   6.852  -0.933  1.00  0.00     0.120 C 
ATOM     24  C   UNL     1       3.796   6.681  -2.493  1.00  0.00     0.120 C 
ATOM     25  C   UNL     1       6.025   8.263  -1.410  1.00  0.00     0.022 C 
ATOM     26  C   UNL     1       4.086   8.094  -3.003  1.00  0.00     0.022 C 
ATOM     27  C   UNL     1       5.566   8.449  -2.855  1.00  0.00     0.004 C 
ENDBRANCH  19  20
ENDBRANCH  11  14
ENDBRANCH   4   7
ENDBRANCH   2   3
ENDBRANCH   1   2
BRANCH   1  28
ATOM     28  C   UNL     1      -6.075  -1.517  -1.713  1.00  0.00     0.118 C 
BRANCH  28  29
ATOM     29  N   UNL     1      -7.228  -0.680  -1.343  1.00  0.00    -0.352 N 
ATOM     30  C   UNL     1      -8.584  -0.827  -1.614  1.00  0.00     0.251 C 
ATOM     31  H   UNL     1      -7.000   0.119  -0.815  1.00  0.00     0.163 HD
ATOM     32  O   UNL     1      -9.419  -0.049  -1.161  1.00  0.00    -0.269 OA
BRANCH  30  33
ATOM     33  C   UNL     1      -9.056  -2.039  -2.332  1.00  0.00     0.039 A 
ATOM     34  C   UNL     1      -9.897  -2.885  -1.599  1.00  0.00     0.014 A 
ATOM     35  C   UNL     1      -8.273  -2.541  -3.353  1.00  0.00     0.014 A 
ATOM     36  C   UNL     1      -9.612  -4.242  -1.578  1.00  0.00     0.010 A 
ATOM     37  C   UNL     1      -7.859  -3.845  -3.204  1.00  0.00     0.010 A 
ATOM     38  C   UNL     1      -8.475  -4.665  -2.254  1.00  0.00    -0.014 A 
BRANCH  38  39
ATOM     39  C   UNL     1      -7.892  -5.983  -2.110  1.00  0.00     0.031 A 
ATOM     40  C   UNL     1      -8.272  -6.962  -3.133  1.00  0.00     0.074 A 
ATOM     41  C   UNL     1      -7.014  -6.263  -1.123  1.00  0.00     0.049 A 
ATOM     42  N   UNL     1      -8.316  -8.230  -2.952  1.00  0.00    -0.248 NA
ATOM     43  C   UNL     1      -8.745  -6.550  -4.452  1.00  0.00     0.031 C 
ATOM     44  C   UNL     1      -6.199  -7.463  -0.962  1.00  0.00     0.029 A 
ATOM     45  N   UNL     1      -6.841  -5.569   0.073  1.00  0.00    -0.354 N 
ATOM     46  C   UNL     1      -8.515  -8.809  -4.184  1.00  0.00     0.074 A 
ATOM     47  C   UNL     1      -8.908  -7.729  -5.048  1.00  0.00     0.031 C 
ATOM     48  C   UNL     1      -5.825  -7.565   0.326  1.00  0.00     0.029 A 
ATOM     49  C   UNL     1      -6.507  -6.519   1.065  1.00  0.00     0.049 A 
ATOM     50  H   UNL     1      -6.936  -4.598   0.203  1.00  0.00     0.167 HD
ATOM     51  C   UNL     1      -8.161 -10.112  -4.352  1.00  0.00     0.034 A 
ATOM     52  C   UNL     1      -7.360  -6.719   2.116  1.00  0.00     0.034 A 
ATOM     53  C   UNL     1      -7.731 -10.685  -3.068  1.00  0.00     0.049 A 
ATOM     54  C   UNL     1      -8.076  -8.061   2.043  1.00  0.00     0.074 A 
ATOM     55  C   UNL     1      -6.494 -10.905  -2.485  1.00  0.00     0.029 A 
ATOM     56  N   UNL     1      -8.651 -10.752  -2.032  1.00  0.00    -0.354 N 
ATOM     57  N   UNL     1      -7.917  -8.945   1.092  1.00  0.00    -0.248 NA
ATOM     58  C   UNL     1      -9.093  -8.469   3.008  1.00  0.00     0.031 C 
ATOM     59  C   UNL     1      -6.687 -11.048  -1.075  1.00  0.00     0.029 A 
ATOM     60  C   UNL     1      -8.042 -10.969  -0.809  1.00  0.00     0.049 A 
ATOM     61  H   UNL     1      -9.624 -10.657  -2.153  1.00  0.00     0.167 HD
ATOM     62  C   UNL     1      -8.800  -9.982   1.259  1.00  0.00     0.074 A 
ATOM     63  C   UNL     1      -9.532  -9.617   2.465  1.00  0.00     0.031 C 
ATOM     64  C   UNL     1      -8.882 -11.039   0.385  1.00  0.00     0.034 A 
BRANCH  51  65
ATOM     65  C   UNL     1      -7.918 -10.765  -5.697  1.00  0.00     0.023 A 
ATOM     66  C   UNL     1      -7.091 -11.905  -5.742  1.00  0.00     0.031 A 
ATOM     67  C   UNL     1      -8.385 -10.323  -6.954  1.00  0.00     0.131 A 
ATOM     68  C   UNL     1      -6.697 -12.484  -6.963  1.00  0.00     0.055 A 
ATOM     69  C   UNL     1      -7.957 -10.867  -8.172  1.00  0.00     0.041 A 
ATOM     70  F   UNL     1      -9.326  -9.383  -7.082  1.00  0.00    -0.206 F 
ATOM     71  C   UNL     1      -7.100 -11.951  -8.183  1.00  0.00     0.022 A 
BRANCH  68  72
ATOM     72  S   UNL     1      -5.643 -13.956  -6.933  1.00  0.00     0.124 S 
ATOM     73  O   UNL     1      -4.438 -13.456  -6.280  1.00  0.00    -0.237 OA
ATOM     74  O   UNL     1      -6.452 -14.898  -6.169  1.00  0.00    -0.237 OA
ATOM     75  O   UNL     1      -5.486 -14.287  -8.349  1.00  0.00    -0.744 OA
ENDBRANCH  68  72
ENDBRANCH  51  65
BRANCH  52  76
ATOM     76  C   UNL     1      -7.960  -5.417   2.569  1.00  0.00     0.023 A 
ATOM     77  C   UNL     1      -7.050  -4.416   2.988  1.00  0.00     0.031 A 
ATOM     78  C   UNL     1      -9.200  -5.006   2.063  1.00  0.00     0.131 A 
ATOM     79  C   UNL     1      -7.277  -3.077   2.627  1.00  0.00     0.055 A 
ATOM     80  C   UNL     1      -9.446  -3.660   1.777  1.00  0.00     0.041 A 
ATOM     81  F   UNL     1     -10.117  -5.905   1.675  1.00  0.00    -0.206 F 
ATOM     82  C   UNL     1      -8.454  -2.704   1.980  1.00  0.00     0.022 A 
BRANCH  79  83
ATOM     83  S   UNL     1      -5.904  -1.891   2.735  1.00  0.00     0.124 S 
ATOM     84  O   UNL     1      -5.943  -1.497   4.138  1.00  0.00    -0.237 OA
ATOM     85  O   UNL     1      -4.758  -2.695   2.324  1.00  0.00    -0.237 OA
ATOM     86  O   UNL     1      -6.269  -0.846   1.778  1.00  0.00    -0.744 OA
ENDBRANCH  79  83
ENDBRANCH  52  76
BRANCH  64  87
ATOM     87  C   UNL     1      -9.813 -12.229   0.559  1.00  0.00     0.023 A 
ATOM     88  C   UNL     1     -10.321 -12.602   1.808  1.00  0.00     0.031 A 
ATOM     89  C   UNL     1     -10.192 -13.073  -0.516  1.00  0.00     0.131 A 
ATOM     90  C   UNL     1     -11.280 -13.620   1.936  1.00  0.00     0.055 A 
ATOM     91  C   UNL     1     -11.085 -14.140  -0.378  1.00  0.00     0.041 A 
ATOM     92  F   UNL     1      -9.728 -12.911  -1.761  1.00  0.00    -0.206 F 
ATOM     93  C   UNL     1     -11.666 -14.399   0.850  1.00  0.00     0.022 A 
BRANCH  90  94
ATOM     94  S   UNL     1     -12.070 -13.850   3.546  1.00  0.00     0.124 S 
ATOM     95  O   UNL     1     -10.921 -14.003   4.440  1.00  0.00    -0.237 OA
ATOM     96  O   UNL     1     -12.813 -12.598   3.690  1.00  0.00    -0.237 OA
ATOM     97  O   UNL     1     -12.883 -15.041   3.367  1.00  0.00    -0.744 OA
ENDBRANCH  90  94
ENDBRANCH  64  87
ENDBRANCH  38  39
ENDBRANCH  30  33
ENDBRANCH  28  29
ENDBRANCH   1  28
TORSDOF 15
