REMARK SMILES C[C@H](C(=O)NCCCNC(=O)c1ccc(-c2c3nc(c(-c4cc(S(=O)(=O)[O-])ccc4F)c4ccc([nH]4)c(-c4cc(S(=O)(=O)[O-])ccc4F)c4nc(c(-c5cc(S(=O)(=O)[O-])ccc5F)c5ccc2[nH]5)C=C4)C=C3)cc1)N1CCc2ccccc21
REMARK SMILES IDX 8 1 7 2 6 3 5 4 3 5 4 6 2 8 1 9 75 10 76 11 83 12 77 13
REMARK SMILES IDX 78 14 82 15 79 16 81 17 80 18 9 19 10 20 11 22 12 23 13 24
REMARK SMILES IDX 74 25 14 26 73 27 15 28 16 29 17 30 67 31 18 32 72 33 66 34
REMARK SMILES IDX 68 35 19 36 71 37 65 38 64 39 20 41 52 42 32 43 51 44 33 45
REMARK SMILES IDX 36 46 50 47 69 48 34 49 35 50 49 52 70 53 37 54 21 55 22 56
REMARK SMILES IDX 30 57 23 58 29 59 31 60 28 61 24 62 25 63 26 64 27 65 53 66
REMARK SMILES IDX 54 67 62 68 55 69 61 70 63 71 60 72 56 73 57 74 58 75 59 76
REMARK SMILES IDX 38 77 39 78 47 79 40 80 46 81 48 82 45 83 41 84 42 85 43 86
REMARK SMILES IDX 44 87
REMARK H PARENT 5 7 9 21 68 40 36 51
REMARK Flexibility Score: inf
ROOT
ATOM      1  C   UNL     1      -1.154  -3.598  -0.337  1.00  0.00     0.118 C 
ENDROOT
BRANCH   1   2
ATOM      2  C   UNL     1      -1.375  -2.667   0.854  1.00  0.00     0.042 C 
BRANCH   2   3
ATOM      3  C   UNL     1      -0.110  -2.079   1.463  1.00  0.00     0.117 C 
BRANCH   3   4
ATOM      4  N   UNL     1       0.676  -1.313   0.520  1.00  0.00    -0.354 N 
ATOM      5  C   UNL     1       1.228  -0.072   0.651  1.00  0.00     0.242 C 
ATOM      6  O   UNL     1       2.197   0.155  -0.082  1.00  0.00    -0.273 OA
ATOM      7  H   UNL     1       0.837  -1.754  -0.346  1.00  0.00     0.163 HD
BRANCH   5   8
ATOM      8  C   UNL     1       0.635   0.981   1.645  1.00  0.00     0.168 C 
ATOM      9  C   UNL     1       1.747   1.503   2.553  1.00  0.00     0.042 C 
BRANCH   8  10
ATOM     10  N   UNL     1      -0.104   2.079   0.930  1.00  0.00    -0.359 N 
ATOM     11  C   UNL     1      -1.394   1.670   0.307  1.00  0.00     0.122 C 
ATOM     12  C   UNL     1       0.606   2.711  -0.117  1.00  0.00     0.041 A 
ATOM     13  C   UNL     1      -1.471   2.258  -1.109  1.00  0.00     0.059 C 
ATOM     14  C   UNL     1      -0.042   2.590  -1.344  1.00  0.00    -0.023 A 
ATOM     15  C   UNL     1       1.877   3.253  -0.058  1.00  0.00     0.026 A 
ATOM     16  C   UNL     1       0.648   2.733  -2.534  1.00  0.00     0.006 A 
ATOM     17  C   UNL     1       2.589   3.415  -1.245  1.00  0.00     0.002 A 
ATOM     18  C   UNL     1       1.996   3.093  -2.472  1.00  0.00     0.000 A 
ENDBRANCH   8  10
ENDBRANCH   5   8
ENDBRANCH   3   4
ENDBRANCH   2   3
ENDBRANCH   1   2
BRANCH   1  19
ATOM     19  N   UNL     1      -0.383  -4.788  -0.006  1.00  0.00    -0.352 N 
ATOM     20  C   UNL     1      -0.729  -6.119  -0.035  1.00  0.00     0.251 C 
ATOM     21  H   UNL     1       0.539  -4.611   0.287  1.00  0.00     0.163 HD
ATOM     22  O   UNL     1       0.053  -6.944   0.436  1.00  0.00    -0.269 OA
BRANCH  20  23
ATOM     23  C   UNL     1      -2.030  -6.566  -0.585  1.00  0.00     0.039 A 
ATOM     24  C   UNL     1      -2.736  -7.566   0.092  1.00  0.00     0.014 A 
ATOM     25  C   UNL     1      -2.552  -6.035  -1.767  1.00  0.00     0.014 A 
ATOM     26  C   UNL     1      -3.997  -7.965  -0.366  1.00  0.00     0.010 A 
ATOM     27  C   UNL     1      -3.841  -6.376  -2.177  1.00  0.00     0.010 A 
ATOM     28  C   UNL     1      -4.584  -7.339  -1.476  1.00  0.00    -0.014 A 
BRANCH  28  29
ATOM     29  C   UNL     1      -5.975  -7.663  -1.903  1.00  0.00     0.031 A 
ATOM     30  C   UNL     1      -6.240  -8.255  -3.262  1.00  0.00     0.074 A 
ATOM     31  C   UNL     1      -7.008  -7.372  -1.086  1.00  0.00     0.049 A 
ATOM     32  N   UNL     1      -7.384  -8.526  -3.838  1.00  0.00    -0.248 NA
ATOM     33  C   UNL     1      -5.064  -8.559  -4.090  1.00  0.00     0.031 C 
ATOM     34  C   UNL     1      -6.890  -6.775   0.246  1.00  0.00     0.029 A 
ATOM     35  N   UNL     1      -8.362  -7.533  -1.254  1.00  0.00    -0.354 N 
ATOM     36  C   UNL     1      -7.068  -9.026  -5.097  1.00  0.00     0.074 A 
ATOM     37  C   UNL     1      -5.627  -8.960  -5.220  1.00  0.00     0.031 C 
ATOM     38  C   UNL     1      -8.113  -6.652   0.785  1.00  0.00     0.029 A 
ATOM     39  C   UNL     1      -9.110  -7.106  -0.179  1.00  0.00     0.049 A 
ATOM     40  H   UNL     1      -8.761  -7.918  -2.067  1.00  0.00     0.167 HD
ATOM     41  C   UNL     1      -7.899  -9.516  -6.052  1.00  0.00     0.034 A 
ATOM     42  C   UNL     1     -10.445  -7.069   0.006  1.00  0.00     0.034 A 
ATOM     43  C   UNL     1      -9.335  -9.581  -5.916  1.00  0.00     0.049 A 
ATOM     44  C   UNL     1     -11.350  -7.569  -1.092  1.00  0.00     0.074 A 
ATOM     45  C   UNL     1     -10.262 -10.092  -6.808  1.00  0.00     0.029 A 
ATOM     46  N   UNL     1     -10.056  -9.117  -4.823  1.00  0.00    -0.354 N 
ATOM     47  N   UNL     1     -11.031  -8.063  -2.266  1.00  0.00    -0.248 NA
ATOM     48  C   UNL     1     -12.795  -7.511  -0.836  1.00  0.00     0.031 C 
ATOM     49  C   UNL     1     -11.542  -9.869  -6.290  1.00  0.00     0.029 A 
ATOM     50  C   UNL     1     -11.415  -9.299  -5.034  1.00  0.00     0.049 A 
ATOM     51  H   UNL     1      -9.659  -8.716  -4.015  1.00  0.00     0.167 HD
ATOM     52  C   UNL     1     -12.237  -8.409  -2.871  1.00  0.00     0.074 A 
ATOM     53  C   UNL     1     -13.285  -8.079  -1.928  1.00  0.00     0.031 C 
ATOM     54  C   UNL     1     -12.456  -8.958  -4.093  1.00  0.00     0.034 A 
BRANCH  41  55
ATOM     55  C   UNL     1      -7.272  -9.999  -7.339  1.00  0.00     0.023 A 
ATOM     56  C   UNL     1      -6.374 -11.081  -7.362  1.00  0.00     0.031 A 
ATOM     57  C   UNL     1      -7.564  -9.363  -8.559  1.00  0.00     0.131 A 
ATOM     58  C   UNL     1      -5.747 -11.447  -8.562  1.00  0.00     0.055 A 
ATOM     59  C   UNL     1      -7.001  -9.787  -9.765  1.00  0.00     0.041 A 
ATOM     60  F   UNL     1      -8.397  -8.312  -8.600  1.00  0.00    -0.206 F 
ATOM     61  C   UNL     1      -6.075 -10.826  -9.769  1.00  0.00     0.022 A 
BRANCH  58  62
ATOM     62  S   UNL     1      -4.391 -12.650  -8.498  1.00  0.00     0.124 S 
ATOM     63  O   UNL     1      -3.453 -11.987  -7.594  1.00  0.00    -0.237 OA
ATOM     64  O   UNL     1      -5.050 -13.841  -7.974  1.00  0.00    -0.237 OA
ATOM     65  O   UNL     1      -3.947 -12.741  -9.887  1.00  0.00    -0.744 OA
ENDBRANCH  58  62
ENDBRANCH  41  55
BRANCH  42  66
ATOM     66  C   UNL     1     -11.019  -6.535   1.276  1.00  0.00     0.023 A 
ATOM     67  C   UNL     1     -11.763  -7.361   2.134  1.00  0.00     0.031 A 
ATOM     68  C   UNL     1     -10.875  -5.181   1.627  1.00  0.00     0.131 A 
ATOM     69  C   UNL     1     -12.375  -6.816   3.273  1.00  0.00     0.055 A 
ATOM     70  C   UNL     1     -11.437  -4.656   2.792  1.00  0.00     0.041 A 
ATOM     71  F   UNL     1     -10.172  -4.346   0.844  1.00  0.00    -0.206 F 
ATOM     72  C   UNL     1     -12.205  -5.473   3.616  1.00  0.00     0.022 A 
BRANCH  69  73
ATOM     73  S   UNL     1     -13.476  -7.872   4.254  1.00  0.00     0.124 S 
ATOM     74  O   UNL     1     -14.473  -8.261   3.264  1.00  0.00    -0.237 OA
ATOM     75  O   UNL     1     -12.569  -8.923   4.701  1.00  0.00    -0.237 OA
ATOM     76  O   UNL     1     -13.956  -6.977   5.306  1.00  0.00    -0.744 OA
ENDBRANCH  69  73
ENDBRANCH  42  66
BRANCH  54  77
ATOM     77  C   UNL     1     -13.886  -9.283  -4.457  1.00  0.00     0.023 A 
ATOM     78  C   UNL     1     -14.855  -8.281  -4.634  1.00  0.00     0.031 A 
ATOM     79  C   UNL     1     -14.285 -10.623  -4.620  1.00  0.00     0.131 A 
ATOM     80  C   UNL     1     -16.186  -8.634  -4.905  1.00  0.00     0.055 A 
ATOM     81  C   UNL     1     -15.595 -10.965  -4.955  1.00  0.00     0.041 A 
ATOM     82  F   UNL     1     -13.403 -11.623  -4.460  1.00  0.00    -0.206 F 
ATOM     83  C   UNL     1     -16.558  -9.969  -5.085  1.00  0.00     0.022 A 
BRANCH  80  84
ATOM     84  S   UNL     1     -17.448  -7.332  -4.921  1.00  0.00     0.124 S 
ATOM     85  O   UNL     1     -17.317  -6.765  -3.583  1.00  0.00    -0.237 OA
ATOM     86  O   UNL     1     -17.004  -6.480  -6.020  1.00  0.00    -0.237 OA
ATOM     87  O   UNL     1     -18.692  -8.060  -5.166  1.00  0.00    -0.744 OA
ENDBRANCH  80  84
ENDBRANCH  54  77
ENDBRANCH  28  29
ENDBRANCH  20  23
ENDBRANCH   1  19
TORSDOF 14
