REMARK SMILES Cc1cc(C(=O)N[C@@H](C)C(=O)NCCCNC(=O)c2ccc(-c3c4nc(c(-c5cc(S(=O)(=O)[O-])ccc5F)c5ccc([nH]5)c(-c5cc(S(=O)(=O)[O-])ccc5F)c5nc(c(-c6cc(S(=O)(=O)[O-])ccc6F)c6ccc3[nH]6)C=C5)C=C4)cc2)cc(C)c1OC(F)F
REMARK SMILES IDX 13 1 12 2 10 3 11 4 8 6 9 7 7 8 5 9 6 10 4 12 1 13 2 14 3 15
REMARK SMILES IDX 85 16 83 17 82 18 84 19 86 20 87 21 88 22 89 23 14 24 15 25
REMARK SMILES IDX 16 26 17 27 18 29 19 30 20 31 81 32 21 33 80 34 22 35 23 36
REMARK SMILES IDX 24 37 74 38 25 39 79 40 73 41 75 42 26 43 78 44 72 45 71 46
REMARK SMILES IDX 27 48 59 49 39 50 58 51 40 52 43 53 57 54 76 55 41 56 42 57
REMARK SMILES IDX 56 59 77 60 44 61 28 62 29 63 37 64 30 65 36 66 38 67 35 68
REMARK SMILES IDX 31 69 32 70 33 71 34 72 60 73 61 74 69 75 62 76 68 77 70 78
REMARK SMILES IDX 67 79 63 80 64 81 65 82 66 83 45 84 46 85 54 86 47 87 53 88
REMARK SMILES IDX 55 89 52 90 48 91 49 92 50 93 51 94
REMARK H PARENT 12 5 7 11 16 28 75 47 43 58
REMARK Flexibility Score: inf
ROOT
ATOM      1  C   UNL     1      -6.767  -0.572  -0.353  1.00  0.00     0.117 C 
ENDROOT
BRANCH   1   2
ATOM      2  N   UNL     1      -5.851  -1.469  -1.036  1.00  0.00    -0.354 N 
ATOM      3  C   UNL     1      -4.599  -1.892  -0.698  1.00  0.00     0.242 C 
ATOM      4  O   UNL     1      -4.059  -2.727  -1.431  1.00  0.00    -0.273 OA
ATOM      5  H   UNL     1      -6.190  -1.832  -1.886  1.00  0.00     0.163 HD
BRANCH   3   6
ATOM      6  C   UNL     1      -3.859  -1.339   0.537  1.00  0.00     0.168 C 
ATOM      7  C   UNL     1      -4.547  -1.643   1.861  1.00  0.00     0.041 C 
BRANCH   6   8
ATOM      8  N   UNL     1      -3.563   0.076   0.312  1.00  0.00    -0.341 N 
ATOM      9  C   UNL     1      -2.437   0.733  -0.132  1.00  0.00     0.251 C 
ATOM     10  O   UNL     1      -2.543   1.939  -0.356  1.00  0.00    -0.269 OA
ATOM     11  H   UNL     1      -4.316   0.676   0.518  1.00  0.00     0.164 HD
BRANCH   9  12
ATOM     12  C   UNL     1      -1.093   0.096  -0.245  1.00  0.00     0.040 A 
ATOM     13  C   UNL     1       2.408   1.436   0.213  1.00  0.00     0.048 C 
ATOM     14  C   UNL     1       1.355   0.380   0.028  1.00  0.00    -0.008 A 
ATOM     15  C   UNL     1       0.034   0.900  -0.033  1.00  0.00     0.021 A 
ATOM     16  C   UNL     1       1.518  -1.014  -0.026  1.00  0.00     0.131 A 
ATOM     17  C   UNL     1       0.390  -1.819  -0.322  1.00  0.00    -0.008 A 
ATOM     18  C   UNL     1      -0.876  -1.241  -0.519  1.00  0.00     0.021 A 
ATOM     19  C   UNL     1       0.440  -3.328  -0.337  1.00  0.00     0.048 C 
BRANCH  16  20
ATOM     20  O   UNL     1       2.620  -1.767   0.248  1.00  0.00    -0.434 OA
BRANCH  20  21
ATOM     21  C   UNL     1       3.945  -1.320   0.067  1.00  0.00     0.542 C 
ATOM     22  F   UNL     1       4.072  -0.622  -1.083  1.00  0.00    -0.167 F 
ATOM     23  F   UNL     1       4.312  -0.548   1.115  1.00  0.00    -0.167 F 
ENDBRANCH  20  21
ENDBRANCH  16  20
ENDBRANCH   9  12
ENDBRANCH   6   8
ENDBRANCH   3   6
ENDBRANCH   1   2
BRANCH   1  24
ATOM     24  C   UNL     1      -7.262   0.568  -1.229  1.00  0.00     0.042 C 
BRANCH  24  25
ATOM     25  C   UNL     1      -8.076   0.131  -2.439  1.00  0.00     0.118 C 
BRANCH  25  26
ATOM     26  N   UNL     1      -9.286  -0.596  -2.076  1.00  0.00    -0.352 N 
ATOM     27  C   UNL     1     -10.610  -0.225  -2.147  1.00  0.00     0.251 C 
ATOM     28  H   UNL     1      -9.131  -1.502  -1.722  1.00  0.00     0.163 HD
ATOM     29  O   UNL     1     -11.456  -0.920  -1.597  1.00  0.00    -0.269 OA
BRANCH  27  30
ATOM     30  C   UNL     1     -11.005   1.016  -2.851  1.00  0.00     0.039 A 
ATOM     31  C   UNL     1     -11.960   1.852  -2.265  1.00  0.00     0.014 A 
ATOM     32  C   UNL     1     -10.442   1.359  -4.082  1.00  0.00     0.014 A 
ATOM     33  C   UNL     1     -12.270   3.077  -2.863  1.00  0.00     0.010 A 
ATOM     34  C   UNL     1     -10.687   2.615  -4.631  1.00  0.00     0.010 A 
ATOM     35  C   UNL     1     -11.592   3.495  -4.019  1.00  0.00    -0.014 A 
BRANCH  35  36
ATOM     36  C   UNL     1     -11.781   4.859  -4.582  1.00  0.00     0.031 A 
ATOM     37  C   UNL     1     -12.319   5.037  -5.977  1.00  0.00     0.074 A 
ATOM     38  C   UNL     1     -11.382   5.931  -3.866  1.00  0.00     0.049 A 
ATOM     39  N   UNL     1     -12.441   6.132  -6.681  1.00  0.00    -0.248 NA
ATOM     40  C   UNL     1     -12.754   3.820  -6.680  1.00  0.00     0.031 C 
ATOM     41  C   UNL     1     -10.812   5.881  -2.517  1.00  0.00     0.029 A 
ATOM     42  N   UNL     1     -11.376   7.270  -4.174  1.00  0.00    -0.354 N 
ATOM     43  C   UNL     1     -12.950   5.737  -7.914  1.00  0.00     0.074 A 
ATOM     44  C   UNL     1     -13.072   4.296  -7.875  1.00  0.00     0.031 C 
ATOM     45  C   UNL     1     -10.526   7.128  -2.111  1.00  0.00     0.029 A 
ATOM     46  C   UNL     1     -10.832   8.063  -3.188  1.00  0.00     0.049 A 
ATOM     47  H   UNL     1     -11.727   7.629  -5.021  1.00  0.00     0.167 HD
ATOM     48  C   UNL     1     -13.294   6.510  -8.973  1.00  0.00     0.034 A 
ATOM     49  C   UNL     1     -10.578   9.388  -3.164  1.00  0.00     0.034 A 
ATOM     50  C   UNL     1     -13.179   7.948  -8.989  1.00  0.00     0.049 A 
ATOM     51  C   UNL     1     -10.936  10.216  -4.375  1.00  0.00     0.074 A 
ATOM     52  C   UNL     1     -13.568   8.829  -9.983  1.00  0.00     0.029 A 
ATOM     53  N   UNL     1     -12.622   8.716  -7.975  1.00  0.00    -0.354 N 
ATOM     54  N   UNL     1     -11.480   9.832  -5.507  1.00  0.00    -0.248 NA
ATOM     55  C   UNL     1     -10.654  11.655  -4.302  1.00  0.00     0.031 C 
ATOM     56  C   UNL     1     -13.173  10.117  -9.607  1.00  0.00     0.029 A 
ATOM     57  C   UNL     1     -12.617  10.054  -8.340  1.00  0.00     0.049 A 
ATOM     58  H   UNL     1     -12.281   8.363  -7.121  1.00  0.00     0.167 HD
ATOM     59  C   UNL     1     -11.629  10.989  -6.267  1.00  0.00     0.074 A 
ATOM     60  C   UNL     1     -11.144  12.085  -5.454  1.00  0.00     0.031 C 
ATOM     61  C   UNL     1     -12.121  11.136  -7.523  1.00  0.00     0.034 A 
BRANCH  48  62
ATOM     62  C   UNL     1     -13.801   5.821 -10.216  1.00  0.00     0.023 A 
ATOM     63  C   UNL     1     -15.013   5.110 -10.230  1.00  0.00     0.031 A 
ATOM     64  C   UNL     1     -13.071   5.902 -11.416  1.00  0.00     0.131 A 
ATOM     65  C   UNL     1     -15.436   4.470 -11.405  1.00  0.00     0.055 A 
ATOM     66  C   UNL     1     -13.532   5.324 -12.600  1.00  0.00     0.041 A 
ATOM     67  F   UNL     1     -11.895   6.549 -11.457  1.00  0.00    -0.206 F 
ATOM     68  C   UNL     1     -14.718   4.596 -12.597  1.00  0.00     0.022 A 
BRANCH  65  69
ATOM     69  S   UNL     1     -16.886   3.384 -11.331  1.00  0.00     0.124 S 
ATOM     70  O   UNL     1     -16.459   2.389 -10.350  1.00  0.00    -0.237 OA
ATOM     71  O   UNL     1     -17.941   4.293 -10.900  1.00  0.00    -0.237 OA
ATOM     72  O   UNL     1     -17.012   2.885 -12.699  1.00  0.00    -0.744 OA
ENDBRANCH  65  69
ENDBRANCH  48  62
BRANCH  49  73
ATOM     73  C   UNL     1      -9.916  10.021  -1.984  1.00  0.00     0.023 A 
ATOM     74  C   UNL     1     -10.554  11.037  -1.255  1.00  0.00     0.031 A 
ATOM     75  C   UNL     1      -8.602   9.678  -1.618  1.00  0.00     0.131 A 
ATOM     76  C   UNL     1      -9.856  11.720  -0.247  1.00  0.00     0.055 A 
ATOM     77  C   UNL     1      -7.937  10.313  -0.568  1.00  0.00     0.041 A 
ATOM     78  F   UNL     1      -7.941   8.714  -2.280  1.00  0.00    -0.206 F 
ATOM     79  C   UNL     1      -8.557  11.355   0.112  1.00  0.00     0.022 A 
BRANCH  76  80
ATOM     80  S   UNL     1     -10.627  13.184   0.499  1.00  0.00     0.124 S 
ATOM     81  O   UNL     1     -10.908  14.001  -0.676  1.00  0.00    -0.237 OA
ATOM     82  O   UNL     1     -11.786  12.606   1.171  1.00  0.00    -0.237 OA
ATOM     83  O   UNL     1      -9.586  13.701   1.386  1.00  0.00    -0.744 OA
ENDBRANCH  76  80
ENDBRANCH  49  73
BRANCH  61  84
ATOM     84  C   UNL     1     -12.194  12.540  -8.073  1.00  0.00     0.023 A 
ATOM     85  C   UNL     1     -11.036  13.293  -8.334  1.00  0.00     0.031 A 
ATOM     86  C   UNL     1     -13.442  13.137  -8.327  1.00  0.00     0.131 A 
ATOM     87  C   UNL     1     -11.149  14.619  -8.775  1.00  0.00     0.055 A 
ATOM     88  C   UNL     1     -13.547  14.434  -8.832  1.00  0.00     0.041 A 
ATOM     89  F   UNL     1     -14.581  12.467  -8.093  1.00  0.00    -0.206 F 
ATOM     90  C   UNL     1     -12.397  15.188  -9.045  1.00  0.00     0.022 A 
BRANCH  87  91
ATOM     91  S   UNL     1      -9.647  15.627  -8.899  1.00  0.00     0.124 S 
ATOM     92  O   UNL     1      -9.139  15.584  -7.532  1.00  0.00    -0.237 OA
ATOM     93  O   UNL     1      -8.864  14.900  -9.893  1.00  0.00    -0.237 OA
ATOM     94  O   UNL     1     -10.143  16.931  -9.336  1.00  0.00    -0.744 OA
ENDBRANCH  87  91
ENDBRANCH  61  84
ENDBRANCH  35  36
ENDBRANCH  27  30
ENDBRANCH  25  26
ENDBRANCH  24  25
ENDBRANCH   1  24
TORSDOF 17
