REMARK SMILES CC1(C)CCN(C(=O)N[C@](C)(C(=O)NCCCNC(=O)c2ccc(-c3c4nc(c(-c5cc(S(=O)(=O)[O-])ccc5F)c5ccc([nH]5)c(-c5cc(S(=O)(=O)[O-])ccc5F)c5nc(c(-c6cc(S(=O)(=O)[O-])ccc6F)c6ccc3[nH]6)C=C5)C=C4)cc2)c2ccccc2)C1
REMARK SMILES IDX 16 1 15 2 14 3 12 4 13 5 10 7 11 8 9 9 7 10 8 11 6 13 1 14
REMARK SMILES IDX 2 15 3 16 4 17 90 18 5 19 84 20 85 21 89 22 86 23 88 24
REMARK SMILES IDX 87 25 17 26 18 27 19 28 20 30 21 31 22 32 83 33 23 34 82 35
REMARK SMILES IDX 24 36 25 37 26 38 76 39 27 40 81 41 75 42 77 43 28 44 80 45
REMARK SMILES IDX 74 46 73 47 29 49 61 50 41 51 60 52 42 53 45 54 59 55 78 56
REMARK SMILES IDX 43 57 44 58 58 60 79 61 46 62 30 63 31 64 39 65 32 66 38 67
REMARK SMILES IDX 40 68 37 69 33 70 34 71 35 72 36 73 62 74 63 75 71 76 64 77
REMARK SMILES IDX 70 78 72 79 69 80 65 81 66 82 67 83 68 84 47 85 48 86 56 87
REMARK SMILES IDX 49 88 55 89 57 90 54 91 50 92 51 93 52 94 53 95
REMARK H PARENT 14 6 9 12 18 29 77 48 45 59
REMARK Flexibility Score: inf
ROOT
ATOM      1  C   UNL     1       3.808   6.203  -1.912  1.00  0.00     0.042 C 
ENDROOT
BRANCH   1   2
ATOM      2  C   UNL     1       2.761   6.435  -0.818  1.00  0.00     0.117 C 
BRANCH   2   3
ATOM      3  N   UNL     1       1.444   6.012  -1.250  1.00  0.00    -0.354 N 
ATOM      4  C   UNL     1       0.810   4.809  -1.309  1.00  0.00     0.250 C 
ATOM      5  O   UNL     1      -0.047   4.774  -2.204  1.00  0.00    -0.272 OA
ATOM      6  H   UNL     1       0.886   6.758  -1.571  1.00  0.00     0.163 HD
BRANCH   4   7
ATOM      7  C   UNL     1       1.126   3.558  -0.362  1.00  0.00     0.143 C 
ATOM      8  C   UNL     1       2.621   3.179  -0.501  1.00  0.00     0.051 C 
BRANCH   7   9
ATOM      9  N   UNL     1       0.981   3.988   1.067  1.00  0.00    -0.320 N 
ATOM     10  C   UNL     1      -0.050   4.158   1.913  1.00  0.00     0.318 C 
ATOM     11  O   UNL     1      -0.144   5.288   2.407  1.00  0.00    -0.249 OA
ATOM     12  H   UNL     1       1.847   4.196   1.485  1.00  0.00     0.166 HD
BRANCH  10  13
ATOM     13  N   UNL     1      -0.819   3.129   2.369  1.00  0.00    -0.324 N 
ATOM     14  C   UNL     1      -1.408  -0.086   3.853  1.00  0.00     0.013 C 
ATOM     15  C   UNL     1      -1.849   1.022   2.894  1.00  0.00    -0.016 C 
ATOM     16  C   UNL     1      -2.781   0.398   1.843  1.00  0.00     0.013 C 
ATOM     17  C   UNL     1      -2.603   2.164   3.603  1.00  0.00     0.030 C 
ATOM     18  C   UNL     1      -0.605   1.698   2.273  1.00  0.00     0.127 C 
ATOM     19  C   UNL     1      -1.714   3.389   3.478  1.00  0.00     0.122 C 
ENDBRANCH  10  13
ENDBRANCH   7   9
BRANCH   7  20
ATOM     20  C   UNL     1       0.244   2.356  -0.772  1.00  0.00    -0.013 A 
ATOM     21  C   UNL     1      -1.145   2.522  -0.954  1.00  0.00     0.007 A 
ATOM     22  C   UNL     1       0.761   1.056  -0.969  1.00  0.00     0.007 A 
ATOM     23  C   UNL     1      -1.968   1.454  -1.320  1.00  0.00     0.000 A 
ATOM     24  C   UNL     1      -0.069  -0.021  -1.296  1.00  0.00     0.000 A 
ATOM     25  C   UNL     1      -1.432   0.180  -1.474  1.00  0.00     0.000 A 
ENDBRANCH   7  20
ENDBRANCH   4   7
ENDBRANCH   2   3
ENDBRANCH   1   2
BRANCH   1  26
ATOM     26  C   UNL     1       3.503   6.903  -3.239  1.00  0.00     0.118 C 
BRANCH  26  27
ATOM     27  N   UNL     1       3.411   8.348  -3.096  1.00  0.00    -0.352 N 
ATOM     28  C   UNL     1       4.223   9.339  -3.592  1.00  0.00     0.251 C 
ATOM     29  H   UNL     1       2.648   8.665  -2.560  1.00  0.00     0.163 HD
ATOM     30  O   UNL     1       4.119  10.478  -3.149  1.00  0.00    -0.269 OA
BRANCH  28  31
ATOM     31  C   UNL     1       5.223   9.032  -4.637  1.00  0.00     0.039 A 
ATOM     32  C   UNL     1       6.502   9.586  -4.534  1.00  0.00     0.014 A 
ATOM     33  C   UNL     1       4.896   8.226  -5.731  1.00  0.00     0.014 A 
ATOM     34  C   UNL     1       7.471   9.275  -5.491  1.00  0.00     0.010 A 
ATOM     35  C   UNL     1       5.884   7.857  -6.642  1.00  0.00     0.010 A 
ATOM     36  C   UNL     1       7.183   8.376  -6.531  1.00  0.00    -0.014 A 
BRANCH  36  37
ATOM     37  C   UNL     1       8.226   7.965  -7.509  1.00  0.00     0.031 A 
ATOM     38  C   UNL     1       8.065   8.294  -8.969  1.00  0.00     0.074 A 
ATOM     39  C   UNL     1       9.290   7.251  -7.088  1.00  0.00     0.049 A 
ATOM     40  N   UNL     1       8.815   7.946  -9.983  1.00  0.00    -0.248 NA
ATOM     41  C   UNL     1       6.892   9.101  -9.339  1.00  0.00     0.031 C 
ATOM     42  C   UNL     1       9.544   6.852  -5.701  1.00  0.00     0.029 A 
ATOM     43  N   UNL     1      10.353   6.726  -7.779  1.00  0.00    -0.354 N 
ATOM     44  C   UNL     1       8.207   8.489 -11.110  1.00  0.00     0.074 A 
ATOM     45  C   UNL     1       6.990   9.131 -10.660  1.00  0.00     0.031 C 
ATOM     46  C   UNL     1      10.700   6.172  -5.642  1.00  0.00     0.029 A 
ATOM     47  C   UNL     1      11.242   6.032  -6.989  1.00  0.00     0.049 A 
ATOM     48  H   UNL     1      10.469   6.835  -8.751  1.00  0.00     0.167 HD
ATOM     49  C   UNL     1       8.636   8.475 -12.396  1.00  0.00     0.034 A 
ATOM     50  C   UNL     1      12.357   5.346  -7.315  1.00  0.00     0.034 A 
ATOM     51  C   UNL     1       9.854   7.835 -12.828  1.00  0.00     0.049 A 
ATOM     52  C   UNL     1      12.777   5.293  -8.765  1.00  0.00     0.074 A 
ATOM     53  C   UNL     1      10.397   7.787 -14.100  1.00  0.00     0.029 A 
ATOM     54  N   UNL     1      10.718   7.127 -12.002  1.00  0.00    -0.354 N 
ATOM     55  N   UNL     1      12.206   5.843  -9.812  1.00  0.00    -0.248 NA
ATOM     56  C   UNL     1      13.994   4.532  -9.076  1.00  0.00     0.031 C 
ATOM     57  C   UNL     1      11.547   6.992 -14.057  1.00  0.00     0.029 A 
ATOM     58  C   UNL     1      11.771   6.614 -12.744  1.00  0.00     0.049 A 
ATOM     59  H   UNL     1      10.600   7.007 -11.032  1.00  0.00     0.167 HD
ATOM     60  C   UNL     1      13.020   5.527 -10.897  1.00  0.00     0.074 A 
ATOM     61  C   UNL     1      14.127   4.755 -10.374  1.00  0.00     0.031 C 
ATOM     62  C   UNL     1      12.869   5.846 -12.207  1.00  0.00     0.034 A 
BRANCH  49  63
ATOM     63  C   UNL     1       7.776   9.162 -13.428  1.00  0.00     0.023 A 
ATOM     64  C   UNL     1       7.545  10.549 -13.388  1.00  0.00     0.031 A 
ATOM     65  C   UNL     1       7.182   8.427 -14.470  1.00  0.00     0.131 A 
ATOM     66  C   UNL     1       6.696  11.146 -14.331  1.00  0.00     0.055 A 
ATOM     67  C   UNL     1       6.402   9.040 -15.452  1.00  0.00     0.041 A 
ATOM     68  F   UNL     1       7.349   7.097 -14.549  1.00  0.00    -0.206 F 
ATOM     69  C   UNL     1       6.145  10.406 -15.379  1.00  0.00     0.022 A 
BRANCH  66  70
ATOM     70  S   UNL     1       6.223  12.880 -14.094  1.00  0.00     0.124 S 
ATOM     71  O   UNL     1       5.567  12.831 -12.789  1.00  0.00    -0.237 OA
ATOM     72  O   UNL     1       7.508  13.567 -14.138  1.00  0.00    -0.237 OA
ATOM     73  O   UNL     1       5.332  13.149 -15.221  1.00  0.00    -0.744 OA
ENDBRANCH  66  70
ENDBRANCH  49  63
BRANCH  50  74
ATOM     74  C   UNL     1      13.152   4.633  -6.272  1.00  0.00     0.023 A 
ATOM     75  C   UNL     1      14.498   4.961  -6.044  1.00  0.00     0.031 A 
ATOM     76  C   UNL     1      12.607   3.558  -5.546  1.00  0.00     0.131 A 
ATOM     77  C   UNL     1      15.273   4.179  -5.173  1.00  0.00     0.055 A 
ATOM     78  C   UNL     1      13.363   2.829  -4.627  1.00  0.00     0.041 A 
ATOM     79  F   UNL     1      11.326   3.198  -5.722  1.00  0.00    -0.206 F 
ATOM     80  C   UNL     1      14.711   3.125  -4.450  1.00  0.00     0.022 A 
BRANCH  77  81
ATOM     81  S   UNL     1      17.061   4.477  -5.102  1.00  0.00     0.124 S 
ATOM     82  O   UNL     1      17.439   4.333  -6.503  1.00  0.00    -0.237 OA
ATOM     83  O   UNL     1      17.121   5.828  -4.556  1.00  0.00    -0.237 OA
ATOM     84  O   UNL     1      17.545   3.423  -4.213  1.00  0.00    -0.744 OA
ENDBRANCH  77  81
ENDBRANCH  50  74
BRANCH  62  85
ATOM     85  C   UNL     1      13.960   5.407 -13.154  1.00  0.00     0.023 A 
ATOM     86  C   UNL     1      14.204   4.050 -13.426  1.00  0.00     0.031 A 
ATOM     87  C   UNL     1      14.768   6.365 -13.792  1.00  0.00     0.131 A 
ATOM     88  C   UNL     1      15.266   3.686 -14.267  1.00  0.00     0.055 A 
ATOM     89  C   UNL     1      15.780   5.999 -14.680  1.00  0.00     0.041 A 
ATOM     90  F   UNL     1      14.582   7.676 -13.568  1.00  0.00    -0.206 F 
ATOM     91  C   UNL     1      16.042   4.652 -14.912  1.00  0.00     0.022 A 
BRANCH  88  92
ATOM     92  S   UNL     1      15.678   1.928 -14.438  1.00  0.00     0.124 S 
ATOM     93  O   UNL     1      15.968   1.549 -13.059  1.00  0.00    -0.237 OA
ATOM     94  O   UNL     1      14.454   1.373 -15.006  1.00  0.00    -0.237 OA
ATOM     95  O   UNL     1      16.831   1.931 -15.336  1.00  0.00    -0.744 OA
ENDBRANCH  88  92
ENDBRANCH  62  85
ENDBRANCH  36  37
ENDBRANCH  28  31
ENDBRANCH  26  27
ENDBRANCH   1  26
TORSDOF 16
