REMARK SMILES O=C(NCCCNC(=O)[C@@H]1CCCC[C@@H]1C(=O)Nc1cccc(C(F)(F)F)c1)c1ccc(-c2c3nc(c(-c4cc(S(=O)(=O)[O-])ccc4F)c4ccc([nH]4)c(-c4cc(S(=O)(=O)[O-])ccc4F)c4nc(c(-c5cc(S(=O)(=O)[O-])ccc5F)c5ccc2[nH]5)C=C4)C=C3)cc1
REMARK SMILES IDX 5 1 4 2 3 3 1 4 2 5 29 7 30 8 91 9 31 10 90 11 32 12 33 13
REMARK SMILES IDX 34 14 84 15 35 16 89 17 83 18 85 19 36 20 88 21 82 22 81 23
REMARK SMILES IDX 37 25 69 26 49 27 68 28 50 29 53 30 67 31 86 32 51 33 52 34
REMARK SMILES IDX 66 36 87 37 54 38 38 39 39 40 47 41 40 42 46 43 48 44 45 45
REMARK SMILES IDX 41 46 42 47 43 48 44 49 70 50 71 51 79 52 72 53 78 54 80 55
REMARK SMILES IDX 77 56 73 57 74 58 75 59 76 60 55 61 56 62 64 63 57 64 63 65
REMARK SMILES IDX 65 66 62 67 58 68 59 69 60 70 61 71 6 72 7 73 8 74 9 76
REMARK SMILES IDX 10 77 11 78 15 79 12 80 14 81 13 82 16 83 17 84 18 85 19 87
REMARK SMILES IDX 20 88 28 89 21 90 23 91 22 92 24 93 25 94 26 95 27 96
REMARK H PARENT 3 6 85 24 53 35 7 75 18 86
REMARK Flexibility Score: inf
ROOT
ATOM      1  C   UNL     1       5.116  -0.941   1.337  1.00  0.00     0.042 C 
ENDROOT
BRANCH   1   2
ATOM      2  C   UNL     1       4.484  -1.347   0.020  1.00  0.00     0.118 C 
BRANCH   2   3
ATOM      3  N   UNL     1       3.036  -1.157   0.007  1.00  0.00    -0.352 N 
ATOM      4  O   UNL     1       1.065  -0.079  -0.079  1.00  0.00    -0.269 OA
ATOM      5  C   UNL     1       2.264  -0.080  -0.361  1.00  0.00     0.251 C 
ATOM      6  H   UNL     1       2.522  -1.937   0.318  1.00  0.00     0.163 HD
BRANCH   5   7
ATOM      7  C   UNL     1       2.855   1.081  -1.063  1.00  0.00     0.039 A 
ATOM      8  C   UNL     1       3.853   0.907  -2.019  1.00  0.00     0.014 A 
ATOM      9  C   UNL     1       2.378   2.368  -0.793  1.00  0.00     0.014 A 
ATOM     10  C   UNL     1       4.516   2.006  -2.544  1.00  0.00     0.010 A 
ATOM     11  C   UNL     1       2.951   3.472  -1.434  1.00  0.00     0.010 A 
ATOM     12  C   UNL     1       4.050   3.302  -2.290  1.00  0.00    -0.014 A 
BRANCH  12  13
ATOM     13  C   UNL     1       4.684   4.454  -2.982  1.00  0.00     0.031 A 
ATOM     14  C   UNL     1       5.313   5.569  -2.197  1.00  0.00     0.074 A 
ATOM     15  C   UNL     1       4.688   4.482  -4.329  1.00  0.00     0.049 A 
ATOM     16  N   UNL     1       5.817   6.699  -2.624  1.00  0.00    -0.248 NA
ATOM     17  C   UNL     1       5.368   5.399  -0.739  1.00  0.00     0.031 C 
ATOM     18  C   UNL     1       4.123   3.442  -5.195  1.00  0.00     0.029 A 
ATOM     19  N   UNL     1       5.181   5.409  -5.210  1.00  0.00    -0.354 N 
ATOM     20  C   UNL     1       6.219   7.391  -1.487  1.00  0.00     0.074 A 
ATOM     21  C   UNL     1       5.869   6.563  -0.352  1.00  0.00     0.031 C 
ATOM     22  C   UNL     1       4.331   3.771  -6.476  1.00  0.00     0.029 A 
ATOM     23  C   UNL     1       4.946   5.090  -6.527  1.00  0.00     0.049 A 
ATOM     24  H   UNL     1       5.657   6.224  -4.928  1.00  0.00     0.167 HD
ATOM     25  C   UNL     1       6.825   8.604  -1.407  1.00  0.00     0.034 A 
ATOM     26  C   UNL     1       5.147   5.799  -7.654  1.00  0.00     0.034 A 
ATOM     27  C   UNL     1       7.158   9.404  -2.563  1.00  0.00     0.049 A 
ATOM     28  C   UNL     1       5.754   7.168  -7.542  1.00  0.00     0.074 A 
ATOM     29  C   UNL     1       7.791  10.635  -2.608  1.00  0.00     0.029 A 
ATOM     30  N   UNL     1       6.872   9.061  -3.881  1.00  0.00    -0.354 N 
ATOM     31  N   UNL     1       6.119   7.818  -6.461  1.00  0.00    -0.248 NA
ATOM     32  C   UNL     1       5.977   7.899  -8.793  1.00  0.00     0.031 C 
ATOM     33  C   UNL     1       7.811  11.070  -3.938  1.00  0.00     0.029 A 
ATOM     34  C   UNL     1       7.281  10.071  -4.739  1.00  0.00     0.049 A 
ATOM     35  H   UNL     1       6.441   8.222  -4.163  1.00  0.00     0.167 HD
ATOM     36  C   UNL     1       6.644   9.026  -6.905  1.00  0.00     0.074 A 
ATOM     37  C   UNL     1       6.547   9.011  -8.352  1.00  0.00     0.031 C 
ATOM     38  C   UNL     1       7.171  10.045  -6.181  1.00  0.00     0.034 A 
BRANCH  25  39
ATOM     39  C   UNL     1       7.096   9.155  -0.025  1.00  0.00     0.023 A 
ATOM     40  C   UNL     1       7.924   8.488   0.895  1.00  0.00     0.031 A 
ATOM     41  C   UNL     1       6.467  10.339   0.404  1.00  0.00     0.131 A 
ATOM     42  C   UNL     1       8.018   8.948   2.218  1.00  0.00     0.055 A 
ATOM     43  C   UNL     1       6.644  10.846   1.693  1.00  0.00     0.041 A 
ATOM     44  F   UNL     1       5.647  11.014  -0.417  1.00  0.00    -0.206 F 
ATOM     45  C   UNL     1       7.405  10.138   2.617  1.00  0.00     0.022 A 
BRANCH  42  46
ATOM     46  S   UNL     1       8.780   7.862   3.456  1.00  0.00     0.124 S 
ATOM     47  O   UNL     1       8.003   6.636   3.289  1.00  0.00    -0.237 OA
ATOM     48  O   UNL     1      10.168   7.805   3.012  1.00  0.00    -0.237 OA
ATOM     49  O   UNL     1       8.554   8.566   4.716  1.00  0.00    -0.744 OA
ENDBRANCH  42  46
ENDBRANCH  25  39
BRANCH  26  50
ATOM     50  C   UNL     1       4.712   5.236  -8.962  1.00  0.00     0.023 A 
ATOM     51  C   UNL     1       5.641   4.890  -9.953  1.00  0.00     0.031 A 
ATOM     52  C   UNL     1       3.347   5.007  -9.225  1.00  0.00     0.131 A 
ATOM     53  C   UNL     1       5.194   4.350 -11.169  1.00  0.00     0.055 A 
ATOM     54  C   UNL     1       2.912   4.421 -10.414  1.00  0.00     0.041 A 
ATOM     55  F   UNL     1       2.418   5.312  -8.305  1.00  0.00    -0.206 F 
ATOM     56  C   UNL     1       3.838   4.097 -11.399  1.00  0.00     0.022 A 
BRANCH  53  57
ATOM     57  S   UNL     1       6.409   4.027 -12.475  1.00  0.00     0.124 S 
ATOM     58  O   UNL     1       6.966   5.356 -12.697  1.00  0.00    -0.237 OA
ATOM     59  O   UNL     1       7.292   3.058 -11.834  1.00  0.00    -0.237 OA
ATOM     60  O   UNL     1       5.598   3.498 -13.570  1.00  0.00    -0.744 OA
ENDBRANCH  53  57
ENDBRANCH  26  50
BRANCH  38  61
ATOM     61  C   UNL     1       7.751  11.206  -6.950  1.00  0.00     0.023 A 
ATOM     62  C   UNL     1       6.947  12.097  -7.680  1.00  0.00     0.031 A 
ATOM     63  C   UNL     1       9.140  11.429  -6.929  1.00  0.00     0.131 A 
ATOM     64  C   UNL     1       7.544  13.151  -8.390  1.00  0.00     0.055 A 
ATOM     65  C   UNL     1       9.721  12.511  -7.588  1.00  0.00     0.041 A 
ATOM     66  F   UNL     1       9.954  10.602  -6.252  1.00  0.00    -0.206 F 
ATOM     67  C   UNL     1       8.923  13.375  -8.331  1.00  0.00     0.022 A 
BRANCH  64  68
ATOM     68  S   UNL     1       6.504  14.191  -9.451  1.00  0.00     0.124 S 
ATOM     69  O   UNL     1       5.968  13.217 -10.397  1.00  0.00    -0.237 OA
ATOM     70  O   UNL     1       5.549  14.751  -8.502  1.00  0.00    -0.237 OA
ATOM     71  O   UNL     1       7.448  15.152 -10.020  1.00  0.00    -0.744 OA
ENDBRANCH  64  68
ENDBRANCH  38  61
ENDBRANCH  12  13
ENDBRANCH   5   7
ENDBRANCH   2   3
ENDBRANCH   1   2
BRANCH   1  72
ATOM     72  C   UNL     1       4.721  -1.842   2.491  1.00  0.00     0.117 C 
BRANCH  72  73
ATOM     73  N   UNL     1       5.314  -3.166   2.441  1.00  0.00    -0.356 N 
ATOM     74  C   UNL     1       5.604  -4.086   3.394  1.00  0.00     0.223 C 
ATOM     75  H   UNL     1       5.553  -3.455   1.530  1.00  0.00     0.163 HD
ATOM     76  O   UNL     1       5.809  -5.229   2.960  1.00  0.00    -0.275 OA
BRANCH  74  77
ATOM     77  C   UNL     1       5.846  -3.803   4.890  1.00  0.00     0.091 C 
ATOM     78  C   UNL     1       5.322  -4.988   5.736  1.00  0.00     0.014 C 
ATOM     79  C   UNL     1       5.467  -2.446   5.505  1.00  0.00     0.091 C 
ATOM     80  C   UNL     1       5.615  -4.859   7.231  1.00  0.00     0.001 C 
ATOM     81  C   UNL     1       5.917  -2.389   6.973  1.00  0.00     0.014 C 
ATOM     82  C   UNL     1       5.272  -3.491   7.798  1.00  0.00     0.001 C 
BRANCH  79  83
ATOM     83  C   UNL     1       3.968  -2.130   5.379  1.00  0.00     0.228 C 
ATOM     84  O   UNL     1       3.162  -2.984   4.997  1.00  0.00    -0.274 OA
ATOM     85  N   UNL     1       3.449  -0.916   5.723  1.00  0.00    -0.326 N 
ATOM     86  H   UNL     1       2.469  -0.866   5.645  1.00  0.00     0.169 HD
BRANCH  85  87
ATOM     87  C   UNL     1       4.041   0.275   6.166  1.00  0.00     0.041 A 
ATOM     88  C   UNL     1       3.305   1.032   7.081  1.00  0.00     0.026 A 
ATOM     89  C   UNL     1       5.305   0.720   5.781  1.00  0.00     0.039 A 
ATOM     90  C   UNL     1       3.875   2.145   7.697  1.00  0.00     0.003 A 
ATOM     91  C   UNL     1       5.898   1.833   6.401  1.00  0.00     0.058 A 
ATOM     92  C   UNL     1       5.175   2.531   7.376  1.00  0.00     0.013 A 
BRANCH  91  93
ATOM     93  C   UNL     1       7.314   2.242   6.064  1.00  0.00     0.416 C 
ATOM     94  F   UNL     1       7.421   3.546   5.720  1.00  0.00    -0.166 F 
ATOM     95  F   UNL     1       8.151   2.052   7.124  1.00  0.00    -0.166 F 
ATOM     96  F   UNL     1       7.850   1.517   5.042  1.00  0.00    -0.166 F 
ENDBRANCH  91  93
ENDBRANCH  85  87
ENDBRANCH  79  83
ENDBRANCH  74  77
ENDBRANCH  72  73
ENDBRANCH   1  72
TORSDOF 16
