REMARK SMILES CCCCCCNC(=O)Oc1cccc(-c2ccc([C@@H](C)C(=O)NCCCNC(=O)c3ccc(-c4c5nc(c(-c6cc(S(=O)(=O)[O-])ccc6F)c6ccc([nH]6)c(-c6cc(S(=O)(=O)[O-])ccc6F)c6nc(c(-c7cc(S(=O)(=O)[O-])ccc7F)c7ccc4[nH]7)C=C6)C=C5)cc3)cc2)c1
REMARK SMILES IDX 20 1 21 2 19 3 16 4 17 5 95 6 18 7 94 8 15 9 11 10 12 11
REMARK SMILES IDX 96 12 13 13 14 14 10 15 8 16 7 17 9 19 6 20 5 21 4 22 3 23
REMARK SMILES IDX 2 24 1 25 22 26 23 27 24 28 25 30 26 31 27 32 28 33 29 34
REMARK SMILES IDX 30 36 31 37 32 38 93 39 33 40 92 41 34 42 35 43 36 44 86 45
REMARK SMILES IDX 37 46 91 47 85 48 87 49 38 50 90 51 84 52 83 53 39 55 71 56
REMARK SMILES IDX 51 57 70 58 52 59 55 60 69 61 88 62 53 63 54 64 68 66 89 67
REMARK SMILES IDX 56 68 40 69 41 70 49 71 42 72 48 73 50 74 47 75 43 76 44 77
REMARK SMILES IDX 45 78 46 79 72 80 73 81 81 82 74 83 80 84 82 85 79 86 75 87
REMARK SMILES IDX 76 88 77 89 78 90 57 91 58 92 66 93 59 94 65 95 67 96 64 97
REMARK SMILES IDX 60 98 61 99 62 100 63 101
REMARK H PARENT 7 18 24 29 28 35 87 54 55 65
REMARK Flexibility Score: inf
ROOT
ATOM      1  C   UNL     1      -4.510  -8.739 -10.627  1.00  0.00     0.105 C 
ATOM      2  C   UNL     1      -5.641  -9.358 -11.447  1.00  0.00     0.023 C 
ENDROOT
BRANCH   1   3
ATOM      3  C   UNL     1      -4.841  -7.426  -9.938  1.00  0.00    -0.036 A 
ATOM      4  C   UNL     1      -5.198  -4.897  -8.662  1.00  0.00    -0.018 A 
ATOM      5  C   UNL     1      -5.612  -5.121  -9.982  1.00  0.00     0.009 A 
ATOM      6  C   UNL     1      -4.652  -5.990  -7.972  1.00  0.00     0.009 A 
ATOM      7  C   UNL     1      -5.475  -6.370 -10.593  1.00  0.00     0.005 A 
ATOM      8  C   UNL     1      -4.457  -7.226  -8.603  1.00  0.00     0.005 A 
BRANCH   4   9
ATOM      9  C   UNL     1      -5.300  -3.552  -8.058  1.00  0.00    -0.015 A 
ATOM     10  C   UNL     1      -4.372  -1.755  -6.709  1.00  0.00     0.133 A 
ATOM     11  C   UNL     1      -5.445  -0.924  -7.012  1.00  0.00     0.047 A 
ATOM     12  C   UNL     1      -4.296  -3.056  -7.210  1.00  0.00     0.056 A 
ATOM     13  C   UNL     1      -6.454  -1.398  -7.841  1.00  0.00     0.004 A 
ATOM     14  C   UNL     1      -6.385  -2.699  -8.349  1.00  0.00     0.009 A 
BRANCH  10  15
ATOM     15  O   UNL     1      -3.429  -1.266  -5.794  1.00  0.00    -0.410 OA
BRANCH  15  16
ATOM     16  C   UNL     1      -2.090  -1.303  -6.151  1.00  0.00     0.412 C 
ATOM     17  N   UNL     1      -1.266  -0.837  -5.164  1.00  0.00    -0.321 N 
ATOM     18  H   UNL     1      -0.305  -0.800  -5.372  1.00  0.00     0.167 HD
ATOM     19  O   UNL     1      -1.635  -1.708  -7.213  1.00  0.00    -0.224 OA
BRANCH  17  20
ATOM     20  C   UNL     1      -1.664  -0.392  -3.845  1.00  0.00     0.119 C 
BRANCH  20  21
ATOM     21  C   UNL     1      -1.073  -1.282  -2.751  1.00  0.00     0.021 C 
BRANCH  21  22
ATOM     22  C   UNL     1       0.458  -1.244  -2.657  1.00  0.00     0.002 C 
BRANCH  22  23
ATOM     23  C   UNL     1       1.064   0.140  -2.398  1.00  0.00    -0.000 C 
BRANCH  23  24
ATOM     24  C   UNL     1       0.584   0.836  -1.122  1.00  0.00    -0.003 C 
ATOM     25  C   UNL     1       0.953   0.083   0.146  1.00  0.00     0.004 C 
ENDBRANCH  23  24
ENDBRANCH  22  23
ENDBRANCH  21  22
ENDBRANCH  20  21
ENDBRANCH  17  20
ENDBRANCH  15  16
ENDBRANCH  10  15
ENDBRANCH   4   9
ENDBRANCH   1   3
BRANCH   1  26
ATOM     26  C   UNL     1      -3.145  -8.738 -11.334  1.00  0.00     0.227 C 
ATOM     27  O   UNL     1      -2.195  -9.355 -10.835  1.00  0.00    -0.274 OA
ATOM     28  N   UNL     1      -2.897  -8.109 -12.515  1.00  0.00    -0.356 N 
ATOM     29  H   UNL     1      -1.985  -8.248 -12.860  1.00  0.00     0.163 HD
BRANCH  28  30
ATOM     30  C   UNL     1      -3.726  -7.274 -13.361  1.00  0.00     0.117 C 
BRANCH  30  31
ATOM     31  C   UNL     1      -3.469  -5.786 -13.143  1.00  0.00     0.042 C 
BRANCH  31  32
ATOM     32  C   UNL     1      -2.279  -5.247 -13.924  1.00  0.00     0.118 C 
BRANCH  32  33
ATOM     33  N   UNL     1      -2.527  -5.244 -15.359  1.00  0.00    -0.352 N 
ATOM     34  C   UNL     1      -2.579  -4.203 -16.253  1.00  0.00     0.251 C 
ATOM     35  H   UNL     1      -2.682  -6.133 -15.752  1.00  0.00     0.163 HD
ATOM     36  O   UNL     1      -3.051  -4.410 -17.369  1.00  0.00    -0.269 OA
BRANCH  34  37
ATOM     37  C   UNL     1      -2.089  -2.852 -15.891  1.00  0.00     0.039 A 
ATOM     38  C   UNL     1      -2.725  -1.734 -16.441  1.00  0.00     0.014 A 
ATOM     39  C   UNL     1      -0.973  -2.675 -15.069  1.00  0.00     0.014 A 
ATOM     40  C   UNL     1      -2.266  -0.450 -16.139  1.00  0.00     0.010 A 
ATOM     41  C   UNL     1      -0.579  -1.394 -14.690  1.00  0.00     0.010 A 
ATOM     42  C   UNL     1      -1.201  -0.267 -15.242  1.00  0.00    -0.014 A 
BRANCH  42  43
ATOM     43  C   UNL     1      -0.684   1.089 -14.920  1.00  0.00     0.031 A 
ATOM     44  C   UNL     1       0.735   1.452 -15.277  1.00  0.00     0.074 A 
ATOM     45  C   UNL     1      -1.468   1.974 -14.273  1.00  0.00     0.049 A 
ATOM     46  N   UNL     1       1.403   2.547 -15.020  1.00  0.00    -0.248 NA
ATOM     47  C   UNL     1       1.517   0.430 -15.992  1.00  0.00     0.031 C 
ATOM     48  C   UNL     1      -2.847   1.726 -13.848  1.00  0.00     0.029 A 
ATOM     49  N   UNL     1      -1.219   3.257 -13.856  1.00  0.00    -0.354 N 
ATOM     50  C   UNL     1       2.683   2.340 -15.524  1.00  0.00     0.074 A 
ATOM     51  C   UNL     1       2.717   0.988 -16.038  1.00  0.00     0.031 C 
ATOM     52  C   UNL     1      -3.331   2.831 -13.258  1.00  0.00     0.029 A 
ATOM     53  C   UNL     1      -2.285   3.847 -13.215  1.00  0.00     0.049 A 
ATOM     54  H   UNL     1      -0.359   3.713 -14.001  1.00  0.00     0.167 HD
ATOM     55  C   UNL     1       3.726   3.205 -15.580  1.00  0.00     0.034 A 
ATOM     56  C   UNL     1      -2.399   5.064 -12.645  1.00  0.00     0.034 A 
ATOM     57  C   UNL     1       3.668   4.555 -15.075  1.00  0.00     0.049 A 
ATOM     58  C   UNL     1      -1.216   5.999 -12.691  1.00  0.00     0.074 A 
ATOM     59  C   UNL     1       4.645   5.534 -15.116  1.00  0.00     0.029 A 
ATOM     60  N   UNL     1       2.572   5.117 -14.430  1.00  0.00    -0.354 N 
ATOM     61  N   UNL     1      -0.025   5.803 -13.210  1.00  0.00    -0.248 NA
ATOM     62  C   UNL     1      -1.396   7.325 -12.086  1.00  0.00     0.031 C 
ATOM     63  C   UNL     1       4.169   6.658 -14.433  1.00  0.00     0.029 A 
ATOM     64  C   UNL     1       2.861   6.416 -14.044  1.00  0.00     0.049 A 
ATOM     65  H   UNL     1       1.715   4.658 -14.271  1.00  0.00     0.167 HD
ATOM     66  C   UNL     1       0.670   6.996 -13.027  1.00  0.00     0.074 A 
ATOM     67  C   UNL     1      -0.240   7.907 -12.365  1.00  0.00     0.031 C 
ATOM     68  C   UNL     1       1.943   7.312 -13.380  1.00  0.00     0.034 A 
BRANCH  55  69
ATOM     69  C   UNL     1       5.017   2.704 -16.186  1.00  0.00     0.023 A 
ATOM     70  C   UNL     1       5.090   2.279 -17.525  1.00  0.00     0.031 A 
ATOM     71  C   UNL     1       6.186   2.623 -15.408  1.00  0.00     0.131 A 
ATOM     72  C   UNL     1       6.278   1.719 -18.020  1.00  0.00     0.055 A 
ATOM     73  C   UNL     1       7.390   2.148 -15.934  1.00  0.00     0.041 A 
ATOM     74  F   UNL     1       6.176   2.993 -14.118  1.00  0.00    -0.206 F 
ATOM     75  C   UNL     1       7.436   1.677 -17.242  1.00  0.00     0.022 A 
BRANCH  72  76
ATOM     76  S   UNL     1       6.242   0.909 -19.642  1.00  0.00     0.124 S 
ATOM     77  O   UNL     1       5.223  -0.118 -19.436  1.00  0.00    -0.237 OA
ATOM     78  O   UNL     1       5.876   2.003 -20.534  1.00  0.00    -0.237 OA
ATOM     79  O   UNL     1       7.604   0.401 -19.802  1.00  0.00    -0.744 OA
ENDBRANCH  72  76
ENDBRANCH  55  69
BRANCH  56  80
ATOM     80  C   UNL     1      -3.669   5.474 -11.977  1.00  0.00     0.023 A 
ATOM     81  C   UNL     1      -4.418   6.562 -12.452  1.00  0.00     0.031 A 
ATOM     82  C   UNL     1      -4.128   4.815 -10.822  1.00  0.00     0.131 A 
ATOM     83  C   UNL     1      -5.552   6.995 -11.746  1.00  0.00     0.055 A 
ATOM     84  C   UNL     1      -5.291   5.210 -10.159  1.00  0.00     0.041 A 
ATOM     85  F   UNL     1      -3.453   3.768 -10.324  1.00  0.00    -0.206 F 
ATOM     86  C   UNL     1      -6.002   6.317 -10.611  1.00  0.00     0.022 A 
BRANCH  83  87
ATOM     87  S   UNL     1      -6.372   8.525 -12.274  1.00  0.00     0.124 S 
ATOM     88  O   UNL     1      -5.279   9.488 -12.197  1.00  0.00    -0.237 OA
ATOM     89  O   UNL     1      -6.829   8.177 -13.614  1.00  0.00    -0.237 OA
ATOM     90  O   UNL     1      -7.431   8.701 -11.282  1.00  0.00    -0.744 OA
ENDBRANCH  83  87
ENDBRANCH  56  80
BRANCH  68  91
ATOM     91  C   UNL     1       2.401   8.726 -13.109  1.00  0.00     0.023 A 
ATOM     92  C   UNL     1       2.539   9.226 -11.802  1.00  0.00     0.031 A 
ATOM     93  C   UNL     1       2.697   9.587 -14.181  1.00  0.00     0.131 A 
ATOM     94  C   UNL     1       2.901  10.567 -11.603  1.00  0.00     0.055 A 
ATOM     95  C   UNL     1       3.124  10.899 -13.975  1.00  0.00     0.041 A 
ATOM     96  F   UNL     1       2.579   9.165 -15.450  1.00  0.00    -0.206 F 
ATOM     97  C   UNL     1       3.213  11.401 -12.680  1.00  0.00     0.022 A 
BRANCH  94  98
ATOM     98  S   UNL     1       2.857  11.239  -9.919  1.00  0.00     0.124 S 
ATOM     99  O   UNL     1       1.471  10.994  -9.530  1.00  0.00    -0.237 OA
ATOM    100  O   UNL     1       3.862  10.434  -9.234  1.00  0.00    -0.237 OA
ATOM    101  O   UNL     1       3.210  12.646 -10.101  1.00  0.00    -0.744 OA
ENDBRANCH  94  98
ENDBRANCH  68  91
ENDBRANCH  42  43
ENDBRANCH  34  37
ENDBRANCH  32  33
ENDBRANCH  31  32
ENDBRANCH  30  31
ENDBRANCH  28  30
ENDBRANCH   1  26
TORSDOF 22
