REMARK SMILES COc1ccc([C@H]2C[NH2+]C[C@@H]2C(=O)NCCCNC(=O)c2ccc(-c3c4nc(c(-c5cc(S(=O)(=O)[O-])ccc5F)c5ccc([nH]5)c(-c5cc(S(=O)(=O)[O-])ccc5F)c5nc(c(-c6cc(S(=O)(=O)[O-])ccc6F)c6ccc3[nH]6)C=C5)C=C4)cc2)cc1OC
REMARK SMILES IDX 16 1 15 2 14 3 12 4 13 5 11 7 7 8 8 9 9 10 10 11 6 14 3 15
REMARK SMILES IDX 4 16 85 17 5 18 84 19 2 20 1 21 86 22 87 23 17 24 18 25
REMARK SMILES IDX 19 26 20 28 21 29 22 30 83 31 23 32 82 33 24 34 25 35 26 36
REMARK SMILES IDX 76 37 27 38 81 39 75 40 77 41 28 42 80 43 74 44 73 45 29 47
REMARK SMILES IDX 61 48 41 49 60 50 42 51 45 52 59 53 78 54 43 55 44 56 58 58
REMARK SMILES IDX 79 59 46 60 30 61 31 62 39 63 32 64 38 65 40 66 37 67 33 68
REMARK SMILES IDX 34 69 35 70 36 71 62 72 63 73 71 74 64 75 70 76 72 77 69 78
REMARK SMILES IDX 65 79 66 80 67 81 68 82 47 83 48 84 56 85 49 86 55 87 57 88
REMARK SMILES IDX 54 89 50 90 51 91 52 92 53 93
REMARK H PARENT 14 6 9 12 9 13 18 27 77 46 45 57
REMARK Flexibility Score: inf
ROOT
ATOM      1  C   UNL     1       3.948  -1.573   8.275  1.00  0.00     0.042 C 
ENDROOT
BRANCH   1   2
ATOM      2  C   UNL     1       4.482  -0.204   7.886  1.00  0.00     0.117 C 
BRANCH   2   3
ATOM      3  N   UNL     1       4.366   0.073   6.461  1.00  0.00    -0.356 N 
ATOM      4  C   UNL     1       3.703   1.095   5.834  1.00  0.00     0.229 C 
ATOM      5  O   UNL     1       3.766   1.176   4.608  1.00  0.00    -0.275 OA
ATOM      6  H   UNL     1       4.827  -0.562   5.866  1.00  0.00     0.163 HD
BRANCH   4   7
ATOM      7  C   UNL     1       2.889   2.054   6.693  1.00  0.00     0.146 C 
ATOM      8  C   UNL     1       2.048   3.055   5.874  1.00  0.00     0.092 C 
ATOM      9  C   UNL     1       3.068   4.197   5.727  1.00  0.00     0.269 C 
ATOM     10  N   UNL     1       3.677   4.323   7.061  1.00  0.00    -0.345 N 
ATOM     11  C   UNL     1       3.812   2.938   7.539  1.00  0.00     0.274 C 
ATOM     12  H   UNL     1       3.074   4.862   7.683  1.00  0.00     0.346 HD
ATOM     13  H   UNL     1       4.572   4.812   7.034  1.00  0.00     0.346 HD
BRANCH   8  14
ATOM     14  C   UNL     1       0.726   3.501   6.522  1.00  0.00    -0.034 A 
ATOM     15  C   UNL     1      -1.806   4.231   7.596  1.00  0.00     0.160 A 
ATOM     16  C   UNL     1      -1.217   4.982   6.571  1.00  0.00     0.051 A 
ATOM     17  C   UNL     1      -1.146   3.106   8.086  1.00  0.00     0.161 A 
ATOM     18  C   UNL     1       0.029   4.618   6.038  1.00  0.00     0.008 A 
ATOM     19  C   UNL     1       0.102   2.764   7.542  1.00  0.00     0.054 A 
BRANCH  15  20
ATOM     20  O   UNL     1      -3.089   4.538   7.956  1.00  0.00    -0.493 OA
ATOM     21  C   UNL     1      -3.144   5.585   8.922  1.00  0.00     0.278 C 
ENDBRANCH  15  20
BRANCH  17  22
ATOM     22  O   UNL     1      -1.556   2.197   9.021  1.00  0.00    -0.493 OA
ATOM     23  C   UNL     1      -2.622   2.532   9.888  1.00  0.00     0.278 C 
ENDBRANCH  17  22
ENDBRANCH   8  14
ENDBRANCH   4   7
ENDBRANCH   2   3
ENDBRANCH   1   2
BRANCH   1  24
ATOM     24  C   UNL     1       4.711  -2.741   7.665  1.00  0.00     0.118 C 
BRANCH  24  25
ATOM     25  N   UNL     1       6.115  -2.766   8.052  1.00  0.00    -0.352 N 
ATOM     26  C   UNL     1       6.833  -3.711   8.744  1.00  0.00     0.251 C 
ATOM     27  H   UNL     1       6.634  -1.977   7.772  1.00  0.00     0.163 HD
ATOM     28  O   UNL     1       7.975  -3.441   9.114  1.00  0.00    -0.269 OA
BRANCH  26  29
ATOM     29  C   UNL     1       6.236  -5.024   9.071  1.00  0.00     0.039 A 
ATOM     30  C   UNL     1       6.468  -5.575  10.335  1.00  0.00     0.014 A 
ATOM     31  C   UNL     1       5.452  -5.716   8.145  1.00  0.00     0.014 A 
ATOM     32  C   UNL     1       5.844  -6.772  10.696  1.00  0.00     0.010 A 
ATOM     33  C   UNL     1       4.759  -6.858   8.537  1.00  0.00     0.010 A 
ATOM     34  C   UNL     1       4.943  -7.397   9.819  1.00  0.00    -0.014 A 
BRANCH  34  35
ATOM     35  C   UNL     1       4.172  -8.601  10.231  1.00  0.00     0.031 A 
ATOM     36  C   UNL     1       4.333  -9.899   9.487  1.00  0.00     0.074 A 
ATOM     37  C   UNL     1       3.271  -8.502  11.229  1.00  0.00     0.049 A 
ATOM     38  N   UNL     1       3.689 -11.027   9.643  1.00  0.00    -0.248 NA
ATOM     39  C   UNL     1       5.326  -9.919   8.403  1.00  0.00     0.031 C 
ATOM     40  C   UNL     1       2.990  -7.284  11.995  1.00  0.00     0.029 A 
ATOM     41  N   UNL     1       2.413  -9.431  11.764  1.00  0.00    -0.354 N 
ATOM     42  C   UNL     1       4.186 -11.886   8.668  1.00  0.00     0.074 A 
ATOM     43  C   UNL     1       5.141 -11.125   7.889  1.00  0.00     0.031 C 
ATOM     44  C   UNL     1       2.046  -7.548  12.912  1.00  0.00     0.029 A 
ATOM     45  C   UNL     1       1.611  -8.933  12.766  1.00  0.00     0.049 A 
ATOM     46  H   UNL     1       2.376 -10.367  11.460  1.00  0.00     0.167 HD
ATOM     47  C   UNL     1       3.886 -13.192   8.455  1.00  0.00     0.034 A 
ATOM     48  C   UNL     1       0.620  -9.514  13.472  1.00  0.00     0.034 A 
ATOM     49  C   UNL     1       2.936 -13.934   9.248  1.00  0.00     0.049 A 
ATOM     50  C   UNL     1       0.284 -10.958  13.199  1.00  0.00     0.074 A 
ATOM     51  C   UNL     1       2.614 -15.278   9.170  1.00  0.00     0.029 A 
ATOM     52  N   UNL     1       2.140 -13.396  10.253  1.00  0.00    -0.354 N 
ATOM     53  N   UNL     1       0.814 -11.777  12.320  1.00  0.00    -0.248 NA
ATOM     54  C   UNL     1      -0.777 -11.557  14.018  1.00  0.00     0.031 C 
ATOM     55  C   UNL     1       1.566 -15.531  10.060  1.00  0.00     0.029 A 
ATOM     56  C   UNL     1       1.295 -14.369  10.765  1.00  0.00     0.049 A 
ATOM     57  H   UNL     1       2.172 -12.460  10.556  1.00  0.00     0.167 HD
ATOM     58  C   UNL     1       0.166 -12.996  12.499  1.00  0.00     0.074 A 
ATOM     59  C   UNL     1      -0.779 -12.808  13.581  1.00  0.00     0.031 C 
ATOM     60  C   UNL     1       0.340 -14.166  11.831  1.00  0.00     0.034 A 
BRANCH  47  61
ATOM     61  C   UNL     1       4.566 -13.885   7.296  1.00  0.00     0.023 A 
ATOM     62  C   UNL     1       5.963 -14.029   7.231  1.00  0.00     0.031 A 
ATOM     63  C   UNL     1       3.806 -14.388   6.224  1.00  0.00     0.131 A 
ATOM     64  C   UNL     1       6.560 -14.581   6.087  1.00  0.00     0.055 A 
ATOM     65  C   UNL     1       4.401 -15.019   5.129  1.00  0.00     0.041 A 
ATOM     66  F   UNL     1       2.470 -14.262   6.215  1.00  0.00    -0.206 F 
ATOM     67  C   UNL     1       5.787 -15.102   5.048  1.00  0.00     0.022 A 
BRANCH  64  68
ATOM     68  S   UNL     1       8.361 -14.461   5.907  1.00  0.00     0.124 S 
ATOM     69  O   UNL     1       8.572 -13.018   6.011  1.00  0.00    -0.237 OA
ATOM     70  O   UNL     1       8.844 -15.260   7.027  1.00  0.00    -0.237 OA
ATOM     71  O   UNL     1       8.612 -15.025   4.583  1.00  0.00    -0.744 OA
ENDBRANCH  64  68
ENDBRANCH  47  61
BRANCH  48  72
ATOM     72  C   UNL     1      -0.145  -8.725  14.481  1.00  0.00     0.023 A 
ATOM     73  C   UNL     1      -0.105  -9.051  15.845  1.00  0.00     0.031 A 
ATOM     74  C   UNL     1      -0.955  -7.643  14.086  1.00  0.00     0.131 A 
ATOM     75  C   UNL     1      -0.889  -8.330  16.760  1.00  0.00     0.055 A 
ATOM     76  C   UNL     1      -1.688  -6.894  15.007  1.00  0.00     0.041 A 
ATOM     77  F   UNL     1      -1.028  -7.287  12.794  1.00  0.00    -0.206 F 
ATOM     78  C   UNL     1      -1.666  -7.244  16.353  1.00  0.00     0.022 A 
BRANCH  75  79
ATOM     79  S   UNL     1      -0.942  -8.884  18.487  1.00  0.00     0.124 S 
ATOM     80  O   UNL     1      -1.431 -10.250  18.346  1.00  0.00    -0.237 OA
ATOM     81  O   UNL     1       0.452  -8.740  18.894  1.00  0.00    -0.237 OA
ATOM     82  O   UNL     1      -1.872  -7.948  19.116  1.00  0.00    -0.744 OA
ENDBRANCH  75  79
ENDBRANCH  48  72
BRANCH  60  83
ATOM     83  C   UNL     1      -0.490 -15.346  12.281  1.00  0.00     0.023 A 
ATOM     84  C   UNL     1      -1.889 -15.366  12.141  1.00  0.00     0.031 A 
ATOM     85  C   UNL     1       0.131 -16.467  12.862  1.00  0.00     0.131 A 
ATOM     86  C   UNL     1      -2.624 -16.458  12.625  1.00  0.00     0.055 A 
ATOM     87  C   UNL     1      -0.600 -17.580  13.279  1.00  0.00     0.041 A 
ATOM     88  F   UNL     1       1.463 -16.502  13.027  1.00  0.00    -0.206 F 
ATOM     89  C   UNL     1      -1.987 -17.574  13.174  1.00  0.00     0.022 A 
BRANCH  86  90
ATOM     90  S   UNL     1      -4.436 -16.361  12.617  1.00  0.00     0.124 S 
ATOM     91  O   UNL     1      -4.678 -15.173  13.430  1.00  0.00    -0.237 OA
ATOM     92  O   UNL     1      -4.737 -16.234  11.195  1.00  0.00    -0.237 OA
ATOM     93  O   UNL     1      -4.849 -17.624  13.227  1.00  0.00    -0.744 OA
ENDBRANCH  86  90
ENDBRANCH  60  83
ENDBRANCH  34  35
ENDBRANCH  26  29
ENDBRANCH  24  25
ENDBRANCH   1  24
TORSDOF 16
