REMARK SMILES O=C(CN1C(=O)c2ccccc2C1=O)Nc1c(Br)cc(Br)cc1C(=O)NCCCNC(=O)c1ccc(-c2c3nc(c(-c4cc(S(=O)(=O)[O-])ccc4F)c4ccc([nH]4)c(-c4cc(S(=O)(=O)[O-])ccc4F)c4nc(c(-c5cc(S(=O)(=O)[O-])ccc5F)c5ccc2[nH]5)C=C4)C=C3)cc1
REMARK SMILES IDX 28 1 27 2 26 3 24 4 25 5 23 7 16 8 17 9 18 10 19 11 22 12
REMARK SMILES IDX 20 13 21 14 15 15 1 16 2 17 3 19 4 20 5 21 13 22 6 23 7 24
REMARK SMILES IDX 12 25 14 26 8 27 11 28 9 29 10 30 29 31 30 32 31 33 32 35
REMARK SMILES IDX 33 36 34 37 95 38 35 39 94 40 36 41 37 42 38 43 88 44 39 45
REMARK SMILES IDX 93 46 87 47 89 48 40 49 92 50 86 51 85 52 41 54 73 55 53 56
REMARK SMILES IDX 72 57 54 58 57 59 71 60 90 61 55 62 56 63 70 65 91 66 58 67
REMARK SMILES IDX 42 68 43 69 51 70 44 71 50 72 52 73 49 74 45 75 46 76 47 77
REMARK SMILES IDX 48 78 74 79 75 80 83 81 76 82 82 83 84 84 81 85 77 86 78 87
REMARK SMILES IDX 79 88 80 89 59 90 60 91 68 92 61 93 67 94 69 95 66 96 62 97
REMARK SMILES IDX 63 98 64 99 65 100
REMARK H PARENT 26 6 15 18 30 34 89 53 57 64
REMARK Flexibility Score: inf
ROOT
ATOM      1  C   UNL     1       5.555   0.669  -0.479  1.00  0.00     0.042 C 
ENDROOT
BRANCH   1   2
ATOM      2  C   UNL     1       5.371   1.653   0.690  1.00  0.00     0.118 C 
BRANCH   2   3
ATOM      3  N   UNL     1       4.700   2.880   0.279  1.00  0.00    -0.352 N 
ATOM      4  C   UNL     1       3.561   3.551   0.666  1.00  0.00     0.253 C 
ATOM      5  O   UNL     1       3.469   4.715   0.262  1.00  0.00    -0.269 OA
ATOM      6  H   UNL     1       5.174   3.338  -0.452  1.00  0.00     0.163 HD
BRANCH   4   7
ATOM      7  C   UNL     1       2.478   3.029   1.566  1.00  0.00     0.065 A 
ATOM      8  C   UNL     1       1.891   1.741   1.545  1.00  0.00     0.068 A 
ATOM      9  C   UNL     1       0.877   1.435   2.479  1.00  0.00     0.043 A 
ATOM     10  Br  UNL     1       0.340  -0.350   2.888  1.00  0.00    -0.048 Br
ATOM     11  C   UNL     1       0.299   2.438   3.262  1.00  0.00     0.033 A 
ATOM     12  C   UNL     1       1.874   4.024   2.364  1.00  0.00     0.031 A 
ATOM     13  C   UNL     1       0.774   3.737   3.166  1.00  0.00     0.020 A 
ATOM     14  Br  UNL     1      -0.073   5.120   4.137  1.00  0.00    -0.051 Br
BRANCH   8  15
ATOM     15  N   UNL     1       2.257   0.852   0.511  1.00  0.00    -0.323 N 
ATOM     16  O   UNL     1       0.148   0.108  -0.168  1.00  0.00    -0.273 OA
ATOM     17  C   UNL     1       1.370   0.098  -0.261  1.00  0.00     0.244 C 
ATOM     18  H   UNL     1       3.217   0.755   0.318  1.00  0.00     0.170 HD
BRANCH  17  19
ATOM     19  C   UNL     1       2.095  -0.638  -1.390  1.00  0.00     0.229 C 
BRANCH  19  20
ATOM     20  N   UNL     1       2.395   0.180  -2.559  1.00  0.00    -0.265 N 
ATOM     21  C   UNL     1       2.952  -0.374  -3.683  1.00  0.00     0.262 C 
ATOM     22  C   UNL     1       2.578   1.533  -2.557  1.00  0.00     0.262 C 
ATOM     23  O   UNL     1       3.192  -1.548  -3.887  1.00  0.00    -0.269 OA
ATOM     24  C   UNL     1       3.421   0.737  -4.517  1.00  0.00     0.053 A 
ATOM     25  C   UNL     1       3.235   1.896  -3.796  1.00  0.00     0.053 A 
ATOM     26  O   UNL     1       2.377   2.341  -1.673  1.00  0.00    -0.269 OA
ATOM     27  C   UNL     1       4.075   0.758  -5.727  1.00  0.00     0.015 A 
ATOM     28  C   UNL     1       3.739   3.122  -4.191  1.00  0.00     0.015 A 
ATOM     29  C   UNL     1       4.592   1.986  -6.164  1.00  0.00     0.001 A 
ATOM     30  C   UNL     1       4.440   3.156  -5.394  1.00  0.00     0.001 A 
ENDBRANCH  19  20
ENDBRANCH  17  19
ENDBRANCH   8  15
ENDBRANCH   4   7
ENDBRANCH   2   3
ENDBRANCH   1   2
BRANCH   1  31
ATOM     31  C   UNL     1       6.630   1.032  -1.515  1.00  0.00     0.118 C 
BRANCH  31  32
ATOM     32  N   UNL     1       7.784   0.154  -1.393  1.00  0.00    -0.352 N 
ATOM     33  C   UNL     1       8.160  -0.945  -2.134  1.00  0.00     0.251 C 
ATOM     34  H   UNL     1       8.398   0.384  -0.658  1.00  0.00     0.163 HD
ATOM     35  O   UNL     1       8.959  -1.733  -1.631  1.00  0.00    -0.269 OA
BRANCH  33  36
ATOM     36  C   UNL     1       7.648  -1.202  -3.507  1.00  0.00     0.039 A 
ATOM     37  C   UNL     1       7.390  -2.521  -3.902  1.00  0.00     0.014 A 
ATOM     38  C   UNL     1       7.550  -0.190  -4.460  1.00  0.00     0.014 A 
ATOM     39  C   UNL     1       6.980  -2.814  -5.217  1.00  0.00     0.010 A 
ATOM     40  C   UNL     1       7.106  -0.485  -5.761  1.00  0.00     0.010 A 
ATOM     41  C   UNL     1       6.786  -1.796  -6.164  1.00  0.00    -0.014 A 
BRANCH  41  42
ATOM     42  C   UNL     1       6.229  -2.075  -7.540  1.00  0.00     0.031 A 
ATOM     43  C   UNL     1       6.919  -1.568  -8.791  1.00  0.00     0.074 A 
ATOM     44  C   UNL     1       5.034  -2.691  -7.695  1.00  0.00     0.049 A 
ATOM     45  N   UNL     1       6.498  -1.569 -10.034  1.00  0.00    -0.248 NA
ATOM     46  C   UNL     1       8.231  -0.934  -8.611  1.00  0.00     0.031 C 
ATOM     47  C   UNL     1       4.182  -3.182  -6.612  1.00  0.00     0.029 A 
ATOM     48  N   UNL     1       4.307  -2.985  -8.831  1.00  0.00    -0.354 N 
ATOM     49  C   UNL     1       7.466  -0.895 -10.774  1.00  0.00     0.074 A 
ATOM     50  C   UNL     1       8.465  -0.450  -9.822  1.00  0.00     0.031 C 
ATOM     51  C   UNL     1       3.067  -3.723  -7.128  1.00  0.00     0.029 A 
ATOM     52  C   UNL     1       3.094  -3.591  -8.580  1.00  0.00     0.049 A 
ATOM     53  H   UNL     1       4.626  -2.780  -9.740  1.00  0.00     0.167 HD
ATOM     54  C   UNL     1       7.543  -0.689 -12.116  1.00  0.00     0.034 A 
ATOM     55  C   UNL     1       2.102  -3.989  -9.405  1.00  0.00     0.034 A 
ATOM     56  C   UNL     1       6.602  -1.202 -13.086  1.00  0.00     0.049 A 
ATOM     57  C   UNL     1       2.229  -3.797 -10.896  1.00  0.00     0.074 A 
ATOM     58  C   UNL     1       6.679  -1.144 -14.469  1.00  0.00     0.029 A 
ATOM     59  N   UNL     1       5.423  -1.867 -12.788  1.00  0.00    -0.354 N 
ATOM     60  N   UNL     1       3.189  -3.216 -11.574  1.00  0.00    -0.248 NA
ATOM     61  C   UNL     1       1.142  -4.329 -11.733  1.00  0.00     0.031 C 
ATOM     62  C   UNL     1       5.523  -1.723 -15.005  1.00  0.00     0.029 A 
ATOM     63  C   UNL     1       4.756  -2.203 -13.959  1.00  0.00     0.049 A 
ATOM     64  H   UNL     1       5.106  -2.072 -11.879  1.00  0.00     0.167 HD
ATOM     65  C   UNL     1       2.838  -3.351 -12.916  1.00  0.00     0.074 A 
ATOM     66  C   UNL     1       1.584  -4.068 -12.955  1.00  0.00     0.031 C 
ATOM     67  C   UNL     1       3.508  -2.924 -14.015  1.00  0.00     0.034 A 
BRANCH  54  68
ATOM     68  C   UNL     1       8.702   0.136 -12.631  1.00  0.00     0.023 A 
ATOM     69  C   UNL     1      10.033  -0.280 -12.468  1.00  0.00     0.031 A 
ATOM     70  C   UNL     1       8.472   1.358 -13.288  1.00  0.00     0.131 A 
ATOM     71  C   UNL     1      11.083   0.561 -12.863  1.00  0.00     0.055 A 
ATOM     72  C   UNL     1       9.521   2.146 -13.768  1.00  0.00     0.041 A 
ATOM     73  F   UNL     1       7.222   1.814 -13.468  1.00  0.00    -0.206 F 
ATOM     74  C   UNL     1      10.837   1.758 -13.538  1.00  0.00     0.022 A 
BRANCH  71  75
ATOM     75  S   UNL     1      12.763   0.141 -12.330  1.00  0.00     0.124 S 
ATOM     76  O   UNL     1      12.615   0.138 -10.876  1.00  0.00    -0.237 OA
ATOM     77  O   UNL     1      12.977  -1.160 -12.953  1.00  0.00    -0.237 OA
ATOM     78  O   UNL     1      13.575   1.233 -12.863  1.00  0.00    -0.744 OA
ENDBRANCH  71  75
ENDBRANCH  54  68
BRANCH  55  79
ATOM     79  C   UNL     1       0.867  -4.616  -8.851  1.00  0.00     0.023 A 
ATOM     80  C   UNL     1       0.567  -5.963  -9.112  1.00  0.00     0.031 A 
ATOM     81  C   UNL     1      -0.063  -3.861  -8.117  1.00  0.00     0.131 A 
ATOM     82  C   UNL     1      -0.661  -6.498  -8.696  1.00  0.00     0.055 A 
ATOM     83  C   UNL     1      -1.260  -4.414  -7.657  1.00  0.00     0.041 A 
ATOM     84  F   UNL     1       0.179  -2.570  -7.840  1.00  0.00    -0.206 F 
ATOM     85  C   UNL     1      -1.571  -5.736  -7.960  1.00  0.00     0.022 A 
BRANCH  82  86
ATOM     86  S   UNL     1      -1.094  -8.179  -9.223  1.00  0.00     0.124 S 
ATOM     87  O   UNL     1      -1.041  -8.057 -10.675  1.00  0.00    -0.237 OA
ATOM     88  O   UNL     1      -0.036  -8.972  -8.606  1.00  0.00    -0.237 OA
ATOM     89  O   UNL     1      -2.428  -8.379  -8.660  1.00  0.00    -0.744 OA
ENDBRANCH  82  86
ENDBRANCH  55  79
BRANCH  67  90
ATOM     90  C   UNL     1       2.938  -3.283 -15.366  1.00  0.00     0.023 A 
ATOM     91  C   UNL     1       1.740  -2.725 -15.847  1.00  0.00     0.031 A 
ATOM     92  C   UNL     1       3.614  -4.204 -16.189  1.00  0.00     0.131 A 
ATOM     93  C   UNL     1       1.235  -3.123 -17.096  1.00  0.00     0.055 A 
ATOM     94  C   UNL     1       3.131  -4.559 -17.450  1.00  0.00     0.041 A 
ATOM     95  F   UNL     1       4.761  -4.770 -15.780  1.00  0.00    -0.206 F 
ATOM     96  C   UNL     1       1.931  -4.025 -17.906  1.00  0.00     0.022 A 
BRANCH  93  97
ATOM     97  S   UNL     1      -0.380  -2.489 -17.632  1.00  0.00     0.124 S 
ATOM     98  O   UNL     1      -1.264  -2.984 -16.583  1.00  0.00    -0.237 OA
ATOM     99  O   UNL     1      -0.159  -1.046 -17.651  1.00  0.00    -0.237 OA
ATOM    100  O   UNL     1      -0.572  -3.102 -18.945  1.00  0.00    -0.744 OA
ENDBRANCH  93  97
ENDBRANCH  67  90
ENDBRANCH  41  42
ENDBRANCH  33  36
ENDBRANCH  31  32
ENDBRANCH   1  31
TORSDOF 16
