REMARK SMILES Cc1c(Br)c(C)c2c(c1Br)O[C@H](C(F)(F)F)C(C(=O)NCCCNC(=O)c1ccc(-c3c4nc(c(-c5cc(S(=O)(=O)[O-])ccc5F)c5ccc([nH]5)c(-c5cc(S(=O)(=O)[O-])ccc5F)c5nc(c(-c6cc(S(=O)(=O)[O-])ccc6F)c6ccc3[nH]6)C=C5)C=C4)cc1)=C2
REMARK SMILES IDX 23 1 22 2 21 3 20 4 18 5 19 6 17 8 1 9 2 10 3 11 9 12 4 13
REMARK SMILES IDX 5 14 8 15 10 16 6 17 7 18 11 19 90 20 12 21 13 22 14 23
REMARK SMILES IDX 15 24 16 25 24 26 25 27 26 29 27 30 28 31 89 32 29 33 88 34
REMARK SMILES IDX 30 35 31 36 32 37 82 38 33 39 87 40 81 41 83 42 34 43 86 44
REMARK SMILES IDX 80 45 79 46 35 48 67 49 47 50 66 51 48 52 51 53 65 54 84 55
REMARK SMILES IDX 49 56 50 57 64 59 85 60 52 61 36 62 37 63 45 64 38 65 44 66
REMARK SMILES IDX 46 67 43 68 39 69 40 70 41 71 42 72 68 73 69 74 77 75 70 76
REMARK SMILES IDX 76 77 78 78 75 79 71 80 72 81 73 82 74 83 53 84 54 85 62 86
REMARK SMILES IDX 55 87 61 88 63 89 60 90 56 91 57 92 58 93 59 94
REMARK H PARENT 20 7 24 28 83 47 51 58
REMARK Flexibility Score: inf
ROOT
ATOM      1  C   UNL     1       0.716 -11.059   0.757  1.00  0.00     0.118 C 
ENDROOT
BRANCH   1   2
ATOM      2  C   UNL     1       1.188  -9.621   0.941  1.00  0.00     0.042 C 
BRANCH   2   3
ATOM      3  C   UNL     1       1.591  -8.978  -0.378  1.00  0.00     0.118 C 
BRANCH   3   4
ATOM      4  N   UNL     1       0.431  -8.595  -1.170  1.00  0.00    -0.352 N 
ATOM      5  C   UNL     1      -0.212  -7.455  -1.504  1.00  0.00     0.251 C 
ATOM      6  O   UNL     1      -1.207  -7.602  -2.223  1.00  0.00    -0.270 OA
ATOM      7  H   UNL     1      -0.004  -9.382  -1.572  1.00  0.00     0.163 HD
BRANCH   5   8
ATOM      8  C   UNL     1       0.198  -6.082  -1.089  1.00  0.00     0.067 C 
ATOM      9  C   UNL     1       0.950   0.335  -0.020  1.00  0.00     0.047 C 
ATOM     10  C   UNL     1       0.511  -1.049  -0.437  1.00  0.00    -0.019 A 
ATOM     11  C   UNL     1      -0.548  -1.271  -1.353  1.00  0.00     0.025 A 
ATOM     12  C   UNL     1       1.135  -2.173   0.139  1.00  0.00     0.064 A 
ATOM     13  Br  UNL     1      -1.505   0.239  -2.054  1.00  0.00    -0.050 Br
ATOM     14  C   UNL     1      -0.935  -2.583  -1.738  1.00  0.00    -0.026 A 
ATOM     15  C   UNL     1       0.758  -3.472  -0.231  1.00  0.00     0.142 A 
ATOM     16  Br  UNL     1       2.520  -1.974   1.450  1.00  0.00    -0.046 Br
ATOM     17  C   UNL     1      -2.045  -2.846  -2.733  1.00  0.00     0.046 C 
ATOM     18  C   UNL     1      -0.265  -3.688  -1.161  1.00  0.00     0.022 A 
ATOM     19  O   UNL     1       1.391  -4.516   0.392  1.00  0.00    -0.474 OA
ATOM     20  C   UNL     1      -0.620  -5.082  -1.467  1.00  0.00     0.026 C 
ATOM     21  C   UNL     1       1.448  -5.769  -0.331  1.00  0.00     0.314 C 
BRANCH  21  22
ATOM     22  C   UNL     1       2.710  -5.810  -1.214  1.00  0.00     0.429 C 
ATOM     23  F   UNL     1       3.828  -5.872  -0.451  1.00  0.00    -0.167 F 
ATOM     24  F   UNL     1       2.739  -6.891  -2.029  1.00  0.00    -0.167 F 
ATOM     25  F   UNL     1       2.822  -4.722  -2.011  1.00  0.00    -0.167 F 
ENDBRANCH  21  22
ENDBRANCH   5   8
ENDBRANCH   3   4
ENDBRANCH   2   3
ENDBRANCH   1   2
BRANCH   1  26
ATOM     26  N   UNL     1       1.797 -11.926   0.297  1.00  0.00    -0.352 N 
ATOM     27  C   UNL     1       2.589 -12.796   1.004  1.00  0.00     0.251 C 
ATOM     28  H   UNL     1       1.987 -11.879  -0.667  1.00  0.00     0.163 HD
ATOM     29  O   UNL     1       3.641 -13.195   0.506  1.00  0.00    -0.269 OA
BRANCH  27  30
ATOM     30  C   UNL     1       2.182 -13.239   2.352  1.00  0.00     0.039 A 
ATOM     31  C   UNL     1       3.144 -13.365   3.357  1.00  0.00     0.014 A 
ATOM     32  C   UNL     1       0.847 -13.555   2.614  1.00  0.00     0.014 A 
ATOM     33  C   UNL     1       2.750 -13.745   4.641  1.00  0.00     0.010 A 
ATOM     34  C   UNL     1       0.442 -13.833   3.912  1.00  0.00     0.010 A 
ATOM     35  C   UNL     1       1.391 -13.948   4.936  1.00  0.00    -0.014 A 
BRANCH  35  36
ATOM     36  C   UNL     1       0.944 -14.326   6.298  1.00  0.00     0.031 A 
ATOM     37  C   UNL     1       0.281 -15.658   6.523  1.00  0.00     0.074 A 
ATOM     38  C   UNL     1       1.102 -13.461   7.319  1.00  0.00     0.049 A 
ATOM     39  N   UNL     1      -0.225 -16.155   7.621  1.00  0.00    -0.248 NA
ATOM     40  C   UNL     1       0.142 -16.533   5.348  1.00  0.00     0.031 C 
ATOM     41  C   UNL     1       1.707 -12.132   7.213  1.00  0.00     0.029 A 
ATOM     42  N   UNL     1       0.783 -13.576   8.647  1.00  0.00    -0.354 N 
ATOM     43  C   UNL     1      -0.738 -17.398   7.270  1.00  0.00     0.074 A 
ATOM     44  C   UNL     1      -0.564 -17.538   5.841  1.00  0.00     0.031 C 
ATOM     45  C   UNL     1       1.774 -11.582   8.436  1.00  0.00     0.029 A 
ATOM     46  C   UNL     1       1.176 -12.498   9.403  1.00  0.00     0.049 A 
ATOM     47  H   UNL     1       0.317 -14.357   9.024  1.00  0.00     0.167 HD
ATOM     48  C   UNL     1      -1.265 -18.355   8.070  1.00  0.00     0.034 A 
ATOM     49  C   UNL     1       1.075 -12.278  10.729  1.00  0.00     0.034 A 
ATOM     50  C   UNL     1      -1.415 -18.210   9.494  1.00  0.00     0.049 A 
ATOM     51  C   UNL     1       0.426 -13.326  11.592  1.00  0.00     0.074 A 
ATOM     52  C   UNL     1      -1.912 -19.122  10.407  1.00  0.00     0.029 A 
ATOM     53  N   UNL     1      -1.063 -17.076  10.213  1.00  0.00    -0.354 N 
ATOM     54  N   UNL     1      -0.053 -14.497  11.244  1.00  0.00    -0.248 NA
ATOM     55  C   UNL     1       0.295 -13.019  13.022  1.00  0.00     0.031 C 
ATOM     56  C   UNL     1      -1.908 -18.521  11.670  1.00  0.00     0.029 A 
ATOM     57  C   UNL     1      -1.356 -17.254  11.554  1.00  0.00     0.049 A 
ATOM     58  H   UNL     1      -0.663 -16.263   9.826  1.00  0.00     0.167 HD
ATOM     59  C   UNL     1      -0.529 -15.075  12.416  1.00  0.00     0.074 A 
ATOM     60  C   UNL     1      -0.277 -14.125  13.481  1.00  0.00     0.031 C 
ATOM     61  C   UNL     1      -1.116 -16.284  12.594  1.00  0.00     0.034 A 
BRANCH  48  62
ATOM     62  C   UNL     1      -1.706 -19.636   7.410  1.00  0.00     0.023 A 
ATOM     63  C   UNL     1      -0.778 -20.483   6.778  1.00  0.00     0.031 A 
ATOM     64  C   UNL     1      -3.063 -20.000   7.376  1.00  0.00     0.131 A 
ATOM     65  C   UNL     1      -1.225 -21.607   6.071  1.00  0.00     0.055 A 
ATOM     66  C   UNL     1      -3.493 -21.165   6.737  1.00  0.00     0.041 A 
ATOM     67  F   UNL     1      -3.995 -19.220   7.946  1.00  0.00    -0.206 F 
ATOM     68  C   UNL     1      -2.574 -21.969   6.067  1.00  0.00     0.022 A 
BRANCH  65  69
ATOM     69  S   UNL     1      -0.033 -22.515   5.051  1.00  0.00     0.124 S 
ATOM     70  O   UNL     1       0.351 -21.498   4.075  1.00  0.00    -0.237 OA
ATOM     71  O   UNL     1       0.991 -22.891   6.018  1.00  0.00    -0.237 OA
ATOM     72  O   UNL     1      -0.819 -23.623   4.511  1.00  0.00    -0.744 OA
ENDBRANCH  65  69
ENDBRANCH  48  62
BRANCH  49  73
ATOM     73  C   UNL     1       1.630 -11.030  11.316  1.00  0.00     0.023 A 
ATOM     74  C   UNL     1       2.792 -11.069  12.101  1.00  0.00     0.031 A 
ATOM     75  C   UNL     1       1.030  -9.781  11.077  1.00  0.00     0.131 A 
ATOM     76  C   UNL     1       3.315  -9.881  12.633  1.00  0.00     0.055 A 
ATOM     77  C   UNL     1       1.572  -8.598  11.583  1.00  0.00     0.041 A 
ATOM     78  F   UNL     1      -0.074  -9.693  10.319  1.00  0.00    -0.206 F 
ATOM     79  C   UNL     1       2.720  -8.644  12.368  1.00  0.00     0.022 A 
BRANCH  76  80
ATOM     80  S   UNL     1       4.791  -9.972  13.683  1.00  0.00     0.124 S 
ATOM     81  O   UNL     1       4.288 -10.710  14.836  1.00  0.00    -0.237 OA
ATOM     82  O   UNL     1       5.733 -10.682  12.825  1.00  0.00    -0.237 OA
ATOM     83  O   UNL     1       5.117  -8.569  13.932  1.00  0.00    -0.744 OA
ENDBRANCH  76  80
ENDBRANCH  49  73
BRANCH  61  84
ATOM     84  C   UNL     1      -1.522 -16.657  13.993  1.00  0.00     0.023 A 
ATOM     85  C   UNL     1      -2.652 -16.084  14.598  1.00  0.00     0.031 A 
ATOM     86  C   UNL     1      -0.817 -17.650  14.694  1.00  0.00     0.131 A 
ATOM     87  C   UNL     1      -3.038 -16.499  15.880  1.00  0.00     0.055 A 
ATOM     88  C   UNL     1      -1.229 -18.088  15.953  1.00  0.00     0.041 A 
ATOM     89  F   UNL     1       0.266 -18.230  14.152  1.00  0.00    -0.206 F 
ATOM     90  C   UNL     1      -2.345 -17.510  16.553  1.00  0.00     0.022 A 
BRANCH  87  91
ATOM     91  S   UNL     1      -4.462 -15.697  16.665  1.00  0.00     0.124 S 
ATOM     92  O   UNL     1      -3.960 -14.344  16.887  1.00  0.00    -0.237 OA
ATOM     93  O   UNL     1      -5.502 -15.831  15.650  1.00  0.00    -0.237 OA
ATOM     94  O   UNL     1      -4.676 -16.487  17.876  1.00  0.00    -0.744 OA
ENDBRANCH  87  91
ENDBRANCH  61  84
ENDBRANCH  35  36
ENDBRANCH  27  30
ENDBRANCH   1  26
TORSDOF 14
