REMARK SMILES COc1cc2c(cc1OC)-c1c(c(C(=O)Nc3ccc(C(=O)NCCCNC(=O)c4ccc(-c5c6nc(c(-c7cc(S(=O)(=O)[O-])ccc7F)c7ccc([nH]7)c(-c7cc(S(=O)(=O)[O-])ccc7F)c7nc(c(-c8cc(S(=O)(=O)[O-])ccc8F)c8ccc5[nH]8)C=C7)C=C6)cc4)cc3)nn1-c1ccc(F)cc1)C2
REMARK SMILES IDX 25 1 24 2 23 3 21 4 22 5 20 7 17 8 18 9 94 10 19 11 93 12
REMARK SMILES IDX 16 13 14 14 15 15 13 17 3 18 4 19 8 20 5 21 7 22 6 23 104 24
REMARK SMILES IDX 11 25 12 26 96 27 95 28 2 29 1 30 9 31 10 32 97 33 98 34
REMARK SMILES IDX 103 35 99 36 102 37 100 38 101 39 26 40 27 41 28 42 29 44
REMARK SMILES IDX 30 45 31 46 92 47 32 48 91 49 33 50 34 51 35 52 85 53 36 54
REMARK SMILES IDX 90 55 84 56 86 57 37 58 89 59 83 60 82 61 38 63 70 64 50 65
REMARK SMILES IDX 69 66 51 67 54 68 68 69 87 70 52 71 53 72 67 74 88 75 55 76
REMARK SMILES IDX 39 77 40 78 48 79 41 80 47 81 49 82 46 83 42 84 43 85 44 86
REMARK SMILES IDX 45 87 71 88 72 89 80 90 73 91 79 92 81 93 78 94 74 95 75 96
REMARK SMILES IDX 76 97 77 98 56 99 57 100 65 101 58 102 64 103 66 104 63 105
REMARK SMILES IDX 59 106 60 107 61 108 62 109
REMARK H PARENT 23 6 16 16 27 43 86 62 54 73
REMARK Flexibility Score: inf
ROOT
ATOM      1  C   UNL     1      -5.112  -6.826  -0.887  1.00  0.00     0.042 C 
ENDROOT
BRANCH   1   2
ATOM      2  C   UNL     1      -5.554  -5.850  -1.974  1.00  0.00     0.118 C 
BRANCH   2   3
ATOM      3  N   UNL     1      -4.889  -4.559  -1.951  1.00  0.00    -0.352 N 
ATOM      4  C   UNL     1      -4.438  -3.695  -2.922  1.00  0.00     0.251 C 
ATOM      5  O   UNL     1      -4.136  -2.562  -2.532  1.00  0.00    -0.269 OA
ATOM      6  H   UNL     1      -4.724  -4.229  -1.038  1.00  0.00     0.163 HD
BRANCH   4   7
ATOM      7  C   UNL     1      -4.125  -4.054  -4.347  1.00  0.00     0.039 A 
ATOM      8  C   UNL     1      -2.545  -4.892  -6.498  1.00  0.00     0.041 A 
ATOM      9  C   UNL     1      -2.523  -3.559  -6.127  1.00  0.00     0.027 A 
ATOM     10  C   UNL     1      -3.581  -5.698  -6.036  1.00  0.00     0.027 A 
ATOM     11  C   UNL     1      -3.323  -3.138  -5.054  1.00  0.00     0.016 A 
ATOM     12  C   UNL     1      -4.375  -5.273  -4.965  1.00  0.00     0.016 A 
BRANCH   8  13
ATOM     13  N   UNL     1      -1.593  -5.477  -7.324  1.00  0.00    -0.321 N 
ATOM     14  C   UNL     1      -0.248  -5.250  -7.526  1.00  0.00     0.276 C 
ATOM     15  O   UNL     1       0.197  -5.733  -8.576  1.00  0.00    -0.267 OA
ATOM     16  H   UNL     1      -1.954  -6.204  -7.881  1.00  0.00     0.170 HD
BRANCH  14  17
ATOM     17  C   UNL     1       0.675  -4.631  -6.525  1.00  0.00     0.155 A 
ATOM     18  C   UNL     1       1.137  -1.978  -1.177  1.00  0.00     0.161 A 
ATOM     19  C   UNL     1       0.188  -2.775  -1.834  1.00  0.00     0.055 A 
ATOM     20  C   UNL     1       2.463  -1.884  -1.651  1.00  0.00     0.161 A 
ATOM     21  C   UNL     1       0.569  -3.420  -3.005  1.00  0.00    -0.030 A 
ATOM     22  C   UNL     1       2.821  -2.502  -2.852  1.00  0.00     0.061 A 
ATOM     23  C   UNL     1       1.877  -3.270  -3.502  1.00  0.00     0.008 A 
ATOM     24  C   UNL     1      -0.355  -4.168  -3.983  1.00  0.00     0.076 C 
ATOM     25  C   UNL     1       1.849  -3.882  -4.791  1.00  0.00     0.079 A 
ATOM     26  C   UNL     1       0.586  -4.291  -5.142  1.00  0.00     0.016 A 
ATOM     27  N   UNL     1       2.667  -4.041  -5.854  1.00  0.00    -0.232 N 
ATOM     28  N   UNL     1       1.943  -4.348  -6.956  1.00  0.00    -0.162 NA
BRANCH  18  29
ATOM     29  O   UNL     1       0.712  -1.294  -0.066  1.00  0.00    -0.493 OA
ATOM     30  C   UNL     1       0.478   0.081  -0.386  1.00  0.00     0.278 C 
ENDBRANCH  18  29
BRANCH  20  31
ATOM     31  O   UNL     1       3.467  -1.146  -1.078  1.00  0.00    -0.493 OA
ATOM     32  C   UNL     1       3.533  -1.223   0.343  1.00  0.00     0.278 C 
ENDBRANCH  20  31
BRANCH  27  33
ATOM     33  C   UNL     1       4.069  -3.887  -5.877  1.00  0.00     0.065 A 
ATOM     34  C   UNL     1       4.684  -3.270  -6.969  1.00  0.00     0.031 A 
ATOM     35  C   UNL     1       4.828  -4.293  -4.765  1.00  0.00     0.031 A 
ATOM     36  C   UNL     1       6.044  -2.959  -6.893  1.00  0.00     0.041 A 
ATOM     37  C   UNL     1       6.189  -4.004  -4.710  1.00  0.00     0.041 A 
ATOM     38  C   UNL     1       6.778  -3.317  -5.764  1.00  0.00     0.123 A 
ATOM     39  F   UNL     1       8.074  -2.985  -5.685  1.00  0.00    -0.207 F 
ENDBRANCH  27  33
ENDBRANCH  14  17
ENDBRANCH   8  13
ENDBRANCH   4   7
ENDBRANCH   2   3
ENDBRANCH   1   2
BRANCH   1  40
ATOM     40  C   UNL     1      -5.465  -6.461   0.552  1.00  0.00     0.118 C 
BRANCH  40  41
ATOM     41  N   UNL     1      -6.790  -5.914   0.746  1.00  0.00    -0.352 N 
ATOM     42  C   UNL     1      -8.037  -6.425   0.965  1.00  0.00     0.251 C 
ATOM     43  H   UNL     1      -6.793  -4.930   0.711  1.00  0.00     0.163 HD
ATOM     44  O   UNL     1      -8.901  -5.587   1.242  1.00  0.00    -0.269 OA
BRANCH  42  45
ATOM     45  C   UNL     1      -8.439  -7.852   0.826  1.00  0.00     0.039 A 
ATOM     46  C   UNL     1      -7.604  -8.910   0.466  1.00  0.00     0.014 A 
ATOM     47  C   UNL     1      -9.813  -8.112   0.995  1.00  0.00     0.014 A 
ATOM     48  C   UNL     1      -8.146 -10.155   0.143  1.00  0.00     0.010 A 
ATOM     49  C   UNL     1     -10.353  -9.358   0.706  1.00  0.00     0.010 A 
ATOM     50  C   UNL     1      -9.527 -10.361   0.210  1.00  0.00    -0.014 A 
BRANCH  50  51
ATOM     51  C   UNL     1     -10.070 -11.655  -0.200  1.00  0.00     0.031 A 
ATOM     52  C   UNL     1      -9.679 -12.821   0.645  1.00  0.00     0.074 A 
ATOM     53  C   UNL     1     -10.990 -11.784  -1.179  1.00  0.00     0.049 A 
ATOM     54  N   UNL     1      -9.026 -13.888   0.310  1.00  0.00    -0.248 NA
ATOM     55  C   UNL     1      -9.977 -12.729   2.081  1.00  0.00     0.031 C 
ATOM     56  C   UNL     1     -11.734 -10.721  -1.864  1.00  0.00     0.029 A 
ATOM     57  N   UNL     1     -11.543 -12.919  -1.690  1.00  0.00    -0.354 N 
ATOM     58  C   UNL     1      -8.982 -14.691   1.455  1.00  0.00     0.074 A 
ATOM     59  C   UNL     1      -9.448 -13.863   2.539  1.00  0.00     0.031 C 
ATOM     60  C   UNL     1     -12.790 -11.262  -2.513  1.00  0.00     0.029 A 
ATOM     61  C   UNL     1     -12.704 -12.709  -2.422  1.00  0.00     0.049 A 
ATOM     62  H   UNL     1     -11.153 -13.813  -1.552  1.00  0.00     0.167 HD
ATOM     63  C   UNL     1      -8.736 -16.033   1.406  1.00  0.00     0.034 A 
ATOM     64  C   UNL     1     -13.576 -13.653  -2.855  1.00  0.00     0.034 A 
ATOM     65  C   UNL     1      -8.175 -16.419   0.142  1.00  0.00     0.049 A 
ATOM     66  C   UNL     1     -12.896 -14.968  -2.812  1.00  0.00     0.074 A 
ATOM     67  C   UNL     1      -7.000 -16.146  -0.528  1.00  0.00     0.029 A 
ATOM     68  N   UNL     1      -9.018 -16.970  -0.791  1.00  0.00    -0.354 N 
ATOM     69  N   UNL     1     -11.917 -15.318  -3.597  1.00  0.00    -0.248 NA
ATOM     70  C   UNL     1     -13.036 -15.753  -1.595  1.00  0.00     0.031 C 
ATOM     71  C   UNL     1      -7.366 -16.094  -1.903  1.00  0.00     0.029 A 
ATOM     72  C   UNL     1      -8.729 -16.388  -1.997  1.00  0.00     0.049 A 
ATOM     73  H   UNL     1      -9.703 -17.657  -0.624  1.00  0.00     0.167 HD
ATOM     74  C   UNL     1     -11.063 -16.045  -2.782  1.00  0.00     0.074 A 
ATOM     75  C   UNL     1     -11.854 -16.371  -1.597  1.00  0.00     0.031 C 
ATOM     76  C   UNL     1      -9.717 -16.078  -3.012  1.00  0.00     0.034 A 
BRANCH  63  77
ATOM     77  C   UNL     1      -9.281 -17.044   2.392  1.00  0.00     0.023 A 
ATOM     78  C   UNL     1     -10.276 -16.731   3.336  1.00  0.00     0.031 A 
ATOM     79  C   UNL     1      -8.977 -18.417   2.263  1.00  0.00     0.131 A 
ATOM     80  C   UNL     1     -10.907 -17.719   4.104  1.00  0.00     0.055 A 
ATOM     81  C   UNL     1      -9.656 -19.413   2.981  1.00  0.00     0.041 A 
ATOM     82  F   UNL     1      -8.050 -18.843   1.391  1.00  0.00    -0.206 F 
ATOM     83  C   UNL     1     -10.628 -19.066   3.909  1.00  0.00     0.022 A 
BRANCH  80  84
ATOM     84  S   UNL     1     -12.117 -17.254   5.374  1.00  0.00     0.124 S 
ATOM     85  O   UNL     1     -13.334 -17.881   4.871  1.00  0.00    -0.237 OA
ATOM     86  O   UNL     1     -11.538 -17.860   6.571  1.00  0.00    -0.237 OA
ATOM     87  O   UNL     1     -12.091 -15.795   5.349  1.00  0.00    -0.744 OA
ENDBRANCH  80  84
ENDBRANCH  63  77
BRANCH  64  88
ATOM     88  C   UNL     1     -15.054 -13.552  -2.820  1.00  0.00     0.023 A 
ATOM     89  C   UNL     1     -15.670 -12.793  -1.807  1.00  0.00     0.031 A 
ATOM     90  C   UNL     1     -15.865 -14.435  -3.552  1.00  0.00     0.131 A 
ATOM     91  C   UNL     1     -17.030 -12.965  -1.517  1.00  0.00     0.055 A 
ATOM     92  C   UNL     1     -17.228 -14.592  -3.272  1.00  0.00     0.041 A 
ATOM     93  F   UNL     1     -15.332 -15.216  -4.505  1.00  0.00    -0.206 F 
ATOM     94  C   UNL     1     -17.813 -13.865  -2.239  1.00  0.00     0.022 A 
BRANCH  91  95
ATOM     95  S   UNL     1     -17.779 -12.079  -0.123  1.00  0.00     0.124 S 
ATOM     96  O   UNL     1     -19.006 -11.548  -0.722  1.00  0.00    -0.237 OA
ATOM     97  O   UNL     1     -17.975 -13.162   0.842  1.00  0.00    -0.237 OA
ATOM     98  O   UNL     1     -16.784 -11.084   0.230  1.00  0.00    -0.744 OA
ENDBRANCH  91  95
ENDBRANCH  64  88
BRANCH  76  99
ATOM     99  C   UNL     1      -9.177 -15.507  -4.306  1.00  0.00     0.023 A 
ATOM    100  C   UNL     1      -8.246 -16.287  -5.015  1.00  0.00     0.031 A 
ATOM    101  C   UNL     1      -9.350 -14.172  -4.719  1.00  0.00     0.131 A 
ATOM    102  C   UNL     1      -7.492 -15.723  -6.050  1.00  0.00     0.055 A 
ATOM    103  C   UNL     1      -8.650 -13.635  -5.805  1.00  0.00     0.041 A 
ATOM    104  F   UNL     1     -10.126 -13.320  -4.037  1.00  0.00    -0.206 F 
ATOM    105  C   UNL     1      -7.700 -14.406  -6.464  1.00  0.00     0.022 A 
BRANCH 102 106
ATOM    106  S   UNL     1      -6.099 -16.634  -6.766  1.00  0.00     0.124 S 
ATOM    107  O   UNL     1      -6.520 -16.801  -8.153  1.00  0.00    -0.237 OA
ATOM    108  O   UNL     1      -4.987 -15.708  -6.556  1.00  0.00    -0.237 OA
ATOM    109  O   UNL     1      -6.036 -17.861  -5.978  1.00  0.00    -0.744 OA
ENDBRANCH 102 106
ENDBRANCH  76  99
ENDBRANCH  50  51
ENDBRANCH  42  45
ENDBRANCH  40  41
ENDBRANCH   1  40
TORSDOF 18
