REMARK SMILES N#Cc1ccccc1S(=O)(=O)N1CCC(C(=O)NCCCNC(=O)c2ccc(-c3c4nc(c(-c5cc(S(=O)(=O)[O-])ccc5F)c5ccc([nH]5)c(-c5cc(S(=O)(=O)[O-])ccc5F)c5nc(c(-c6cc(S(=O)(=O)[O-])ccc6F)c6ccc3[nH]6)C=C5)C=C4)cc2)CC1
REMARK SMILES IDX 20 1 19 2 18 3 16 4 17 5 15 7 12 8 13 9 89 10 14 11 88 12
REMARK SMILES IDX 9 13 10 14 11 15 8 16 3 17 4 18 5 19 7 20 6 21 2 22 1 23
REMARK SMILES IDX 21 24 22 25 23 26 24 28 25 29 26 30 87 31 27 32 86 33 28 34
REMARK SMILES IDX 29 35 30 36 80 37 31 38 85 39 79 40 81 41 32 42 84 43 78 44
REMARK SMILES IDX 77 45 33 47 65 48 45 49 64 50 46 51 49 52 63 53 82 54 47 55
REMARK SMILES IDX 48 56 62 58 83 59 50 60 34 61 35 62 43 63 36 64 42 65 44 66
REMARK SMILES IDX 41 67 37 68 38 69 39 70 40 71 66 72 67 73 75 74 68 75 74 76
REMARK SMILES IDX 76 77 73 78 69 79 70 80 71 81 72 82 51 83 52 84 60 85 53 86
REMARK SMILES IDX 59 87 61 88 58 89 54 90 55 91 56 92 57 93
REMARK H PARENT 18 6 22 27 81 46 49 57
REMARK Flexibility Score: inf
ROOT
ATOM      1  C   UNL     1      -6.883  -4.159   0.532  1.00  0.00     0.042 C 
ENDROOT
BRANCH   1   2
ATOM      2  C   UNL     1      -6.414  -3.393  -0.693  1.00  0.00     0.117 C 
BRANCH   2   3
ATOM      3  N   UNL     1      -6.952  -2.040  -0.734  1.00  0.00    -0.356 N 
ATOM      4  C   UNL     1      -6.337  -0.833  -0.603  1.00  0.00     0.223 C 
ATOM      5  O   UNL     1      -7.035   0.181  -0.640  1.00  0.00    -0.275 OA
ATOM      6  H   UNL     1      -7.924  -1.990  -0.880  1.00  0.00     0.163 HD
BRANCH   4   7
ATOM      7  C   UNL     1      -4.829  -0.738  -0.443  1.00  0.00     0.081 C 
ATOM      8  N   UNL     1      -2.208  -1.996  -0.247  1.00  0.00    -0.198 NA
ATOM      9  C   UNL     1      -2.912  -1.677   1.005  1.00  0.00     0.103 C 
ATOM     10  C   UNL     1      -2.651  -1.491  -1.556  1.00  0.00     0.103 C 
ATOM     11  C   UNL     1      -4.383  -1.360   0.872  1.00  0.00     0.030 C 
ATOM     12  C   UNL     1      -4.137  -1.266  -1.691  1.00  0.00     0.030 C 
BRANCH   8  13
ATOM     13  S   UNL     1      -0.563  -2.369  -0.100  1.00  0.00     0.244 S 
ATOM     14  O   UNL     1      -0.164  -3.011  -1.337  1.00  0.00    -0.207 OA
ATOM     15  O   UNL     1      -0.370  -3.027   1.175  1.00  0.00    -0.207 OA
BRANCH  13  16
ATOM     16  C   UNL     1       0.426  -0.883  -0.015  1.00  0.00     0.100 A 
ATOM     17  C   UNL     1      -0.004   0.445   0.040  1.00  0.00     0.072 A 
ATOM     18  C   UNL     1       0.957   1.477   0.055  1.00  0.00     0.021 A 
ATOM     19  C   UNL     1       2.320   1.203   0.038  1.00  0.00     0.001 A 
ATOM     20  C   UNL     1       1.813  -1.147  -0.022  1.00  0.00     0.023 A 
ATOM     21  C   UNL     1       2.750  -0.114   0.008  1.00  0.00     0.001 A 
BRANCH  17  22
ATOM     22  C   UNL     1      -1.349   0.918   0.099  1.00  0.00     0.101 C 
ATOM     23  N   UNL     1      -2.394   1.409   0.147  1.00  0.00    -0.192 NA
ENDBRANCH  17  22
ENDBRANCH  13  16
ENDBRANCH   8  13
ENDBRANCH   4   7
ENDBRANCH   2   3
ENDBRANCH   1   2
BRANCH   1  24
ATOM     24  C   UNL     1      -8.389  -4.322   0.591  1.00  0.00     0.118 C 
BRANCH  24  25
ATOM     25  N   UNL     1      -8.902  -5.044  -0.562  1.00  0.00    -0.352 N 
ATOM     26  C   UNL     1      -9.504  -6.274  -0.626  1.00  0.00     0.251 C 
ATOM     27  H   UNL     1      -8.804  -4.580  -1.425  1.00  0.00     0.163 HD
ATOM     28  O   UNL     1      -9.615  -6.833  -1.713  1.00  0.00    -0.269 OA
BRANCH  26  29
ATOM     29  C   UNL     1      -9.998  -6.918   0.609  1.00  0.00     0.039 A 
ATOM     30  C   UNL     1      -9.896  -8.303   0.739  1.00  0.00     0.014 A 
ATOM     31  C   UNL     1     -10.584  -6.161   1.628  1.00  0.00     0.014 A 
ATOM     32  C   UNL     1     -10.351  -8.919   1.905  1.00  0.00     0.010 A 
ATOM     33  C   UNL     1     -10.920  -6.759   2.835  1.00  0.00     0.010 A 
ATOM     34  C   UNL     1     -10.845  -8.150   2.973  1.00  0.00    -0.014 A 
BRANCH  34  35
ATOM     35  C   UNL     1     -11.347  -8.793   4.212  1.00  0.00     0.031 A 
ATOM     36  C   UNL     1     -12.790  -8.623   4.612  1.00  0.00     0.074 A 
ATOM     37  C   UNL     1     -10.503  -9.507   4.982  1.00  0.00     0.049 A 
ATOM     38  N   UNL     1     -13.420  -9.091   5.659  1.00  0.00    -0.248 NA
ATOM     39  C   UNL     1     -13.628  -7.787   3.738  1.00  0.00     0.031 C 
ATOM     40  C   UNL     1      -9.075  -9.699   4.717  1.00  0.00     0.029 A 
ATOM     41  N   UNL     1     -10.723 -10.212   6.137  1.00  0.00    -0.354 N 
ATOM     42  C   UNL     1     -14.719  -8.600   5.571  1.00  0.00     0.074 A 
ATOM     43  C   UNL     1     -14.761  -7.730   4.418  1.00  0.00     0.031 C 
ATOM     44  C   UNL     1      -8.559 -10.510   5.655  1.00  0.00     0.029 A 
ATOM     45  C   UNL     1      -9.604 -10.855   6.614  1.00  0.00     0.049 A 
ATOM     46  H   UNL     1     -11.599 -10.254   6.584  1.00  0.00     0.167 HD
ATOM     47  C   UNL     1     -15.787  -8.877   6.359  1.00  0.00     0.034 A 
ATOM     48  C   UNL     1      -9.440 -11.633   7.701  1.00  0.00     0.034 A 
ATOM     49  C   UNL     1     -15.725  -9.757   7.499  1.00  0.00     0.049 A 
ATOM     50  C   UNL     1     -10.639 -11.913   8.573  1.00  0.00     0.074 A 
ATOM     51  C   UNL     1     -16.747 -10.142   8.349  1.00  0.00     0.029 A 
ATOM     52  N   UNL     1     -14.573 -10.388   7.955  1.00  0.00    -0.354 N 
ATOM     53  N   UNL     1     -11.874 -11.480   8.449  1.00  0.00    -0.248 NA
ATOM     54  C   UNL     1     -10.425 -12.803   9.719  1.00  0.00     0.031 C 
ATOM     55  C   UNL     1     -16.200 -10.940   9.359  1.00  0.00     0.029 A 
ATOM     56  C   UNL     1     -14.855 -11.136   9.088  1.00  0.00     0.049 A 
ATOM     57  H   UNL     1     -13.686 -10.315   7.535  1.00  0.00     0.167 HD
ATOM     58  C   UNL     1     -12.591 -12.083   9.479  1.00  0.00     0.074 A 
ATOM     59  C   UNL     1     -11.653 -12.921  10.198  1.00  0.00     0.031 C 
ATOM     60  C   UNL     1     -13.906 -11.961   9.800  1.00  0.00     0.034 A 
BRANCH  47  61
ATOM     61  C   UNL     1     -17.096  -8.200   6.020  1.00  0.00     0.023 A 
ATOM     62  C   UNL     1     -17.737  -8.402   4.784  1.00  0.00     0.031 A 
ATOM     63  C   UNL     1     -17.696  -7.313   6.930  1.00  0.00     0.131 A 
ATOM     64  C   UNL     1     -18.888  -7.668   4.461  1.00  0.00     0.055 A 
ATOM     65  C   UNL     1     -18.893  -6.654   6.639  1.00  0.00     0.041 A 
ATOM     66  F   UNL     1     -17.121  -7.056   8.116  1.00  0.00    -0.206 F 
ATOM     67  C   UNL     1     -19.488  -6.817   5.391  1.00  0.00     0.022 A 
BRANCH  64  68
ATOM     68  S   UNL     1     -19.498  -7.719   2.752  1.00  0.00     0.124 S 
ATOM     69  O   UNL     1     -18.335  -7.239   2.010  1.00  0.00    -0.237 OA
ATOM     70  O   UNL     1     -19.830  -9.128   2.578  1.00  0.00    -0.237 OA
ATOM     71  O   UNL     1     -20.638  -6.805   2.768  1.00  0.00    -0.744 OA
ENDBRANCH  64  68
ENDBRANCH  47  61
BRANCH  48  72
ATOM     72  C   UNL     1      -8.104 -12.211   8.027  1.00  0.00     0.023 A 
ATOM     73  C   UNL     1      -7.899 -13.600   8.051  1.00  0.00     0.031 A 
ATOM     74  C   UNL     1      -7.021 -11.381   8.370  1.00  0.00     0.131 A 
ATOM     75  C   UNL     1      -6.663 -14.119   8.467  1.00  0.00     0.055 A 
ATOM     76  C   UNL     1      -5.774 -11.901   8.720  1.00  0.00     0.041 A 
ATOM     77  F   UNL     1      -7.159 -10.046   8.359  1.00  0.00    -0.206 F 
ATOM     78  C   UNL     1      -5.595 -13.279   8.787  1.00  0.00     0.022 A 
BRANCH  75  79
ATOM     79  S   UNL     1      -6.504 -15.913   8.685  1.00  0.00     0.124 S 
ATOM     80  O   UNL     1      -7.564 -16.189   9.648  1.00  0.00    -0.237 OA
ATOM     81  O   UNL     1      -6.724 -16.404   7.329  1.00  0.00    -0.237 OA
ATOM     82  O   UNL     1      -5.142 -16.074   9.191  1.00  0.00    -0.744 OA
ENDBRANCH  75  79
ENDBRANCH  48  72
BRANCH  60  83
ATOM     83  C   UNL     1     -14.412 -12.808  10.945  1.00  0.00     0.023 A 
ATOM     84  C   UNL     1     -13.933 -12.651  12.257  1.00  0.00     0.031 A 
ATOM     85  C   UNL     1     -15.364 -13.817  10.708  1.00  0.00     0.131 A 
ATOM     86  C   UNL     1     -14.338 -13.543  13.261  1.00  0.00     0.055 A 
ATOM     87  C   UNL     1     -15.826 -14.648  11.729  1.00  0.00     0.041 A 
ATOM     88  F   UNL     1     -15.857 -14.017   9.475  1.00  0.00    -0.206 F 
ATOM     89  C   UNL     1     -15.296 -14.528  13.010  1.00  0.00     0.022 A 
BRANCH  86  90
ATOM     90  S   UNL     1     -13.486 -13.493  14.861  1.00  0.00     0.124 S 
ATOM     91  O   UNL     1     -12.090 -13.646  14.466  1.00  0.00    -0.237 OA
ATOM     92  O   UNL     1     -13.863 -12.179  15.373  1.00  0.00    -0.237 OA
ATOM     93  O   UNL     1     -14.054 -14.627  15.588  1.00  0.00    -0.744 OA
ENDBRANCH  86  90
ENDBRANCH  60  83
ENDBRANCH  34  35
ENDBRANCH  26  29
ENDBRANCH  24  25
ENDBRANCH   1  24
TORSDOF 16
