REMARK SMILES CC(C)[C@H]([NH2+]C[C@H]1CC[C@@H](C(=O)NCCCNC(=O)c2ccc(-c3c4nc(c(-c5cc(S(=O)(=O)[O-])ccc5F)c5ccc([nH]5)c(-c5cc(S(=O)(=O)[O-])ccc5F)c5nc(c(-c6cc(S(=O)(=O)[O-])ccc6F)c6ccc3[nH]6)C=C5)C=C4)cc2)CC1)c1ccccc1
REMARK SMILES IDX 14 1 13 2 11 3 12 4 10 6 7 7 8 8 84 9 9 10 83 11 6 12 5 13
REMARK SMILES IDX 4 16 2 17 1 18 3 19 85 20 86 21 90 22 87 23 89 24 88 25
REMARK SMILES IDX 15 26 16 27 17 28 18 29 19 31 20 32 21 33 82 34 22 35 81 36
REMARK SMILES IDX 23 37 24 38 25 39 75 40 26 41 80 42 74 43 76 44 27 45 79 46
REMARK SMILES IDX 73 47 72 48 28 50 60 51 40 52 59 53 41 54 44 55 58 56 77 57
REMARK SMILES IDX 42 58 43 59 57 61 78 62 45 63 29 64 30 65 38 66 31 67 37 68
REMARK SMILES IDX 39 69 36 70 32 71 33 72 34 73 35 74 61 75 62 76 70 77 63 78
REMARK SMILES IDX 69 79 71 80 68 81 64 82 65 83 66 84 67 85 46 86 47 87 55 88
REMARK SMILES IDX 48 89 54 90 56 91 53 92 49 93 50 94 51 95 52 96
REMARK H PARENT 13 5 5 14 5 15 17 30 76 49 44 60
REMARK Flexibility Score: inf
ROOT
ATOM      1  C   UNL     1       2.677   2.277   0.015  1.00  0.00     0.117 C 
ENDROOT
BRANCH   1   2
ATOM      2  N   UNL     1       4.109   2.404   0.155  1.00  0.00    -0.356 N 
ATOM      3  C   UNL     1       5.129   1.583  -0.193  1.00  0.00     0.223 C 
ATOM      4  O   UNL     1       6.267   2.015   0.032  1.00  0.00    -0.275 OA
ATOM      5  H   UNL     1       4.397   3.243   0.582  1.00  0.00     0.163 HD
BRANCH   3   6
ATOM      6  C   UNL     1       4.966   0.197  -0.839  1.00  0.00     0.078 C 
ATOM      7  C   UNL     1       2.464  -1.168  -1.828  1.00  0.00     0.044 C 
ATOM      8  C   UNL     1       3.130  -0.056  -2.655  1.00  0.00     0.010 C 
ATOM      9  C   UNL     1       2.794  -1.127  -0.329  1.00  0.00     0.010 C 
ATOM     10  C   UNL     1       4.595   0.193  -2.322  1.00  0.00     0.014 C 
ATOM     11  C   UNL     1       4.261  -0.868  -0.004  1.00  0.00     0.014 C 
BRANCH   7  12
ATOM     12  C   UNL     1       0.929  -1.222  -2.067  1.00  0.00     0.264 C 
BRANCH  12  13
ATOM     13  N   UNL     1       0.261   0.083  -1.967  1.00  0.00    -0.340 N 
ATOM     14  H   UNL     1       0.396   0.447  -1.024  1.00  0.00     0.346 HD
ATOM     15  H   UNL     1       0.674   0.694  -2.671  1.00  0.00     0.346 HD
BRANCH  13  16
ATOM     16  C   UNL     1      -1.190   0.004  -2.241  1.00  0.00     0.216 C 
BRANCH  16  17
ATOM     17  C   UNL     1      -2.152   0.366  -1.041  1.00  0.00     0.046 C 
ATOM     18  C   UNL     1      -1.475   0.411   0.331  1.00  0.00     0.014 C 
ATOM     19  C   UNL     1      -2.982   1.649  -1.201  1.00  0.00     0.014 C 
ENDBRANCH  16  17
BRANCH  16  20
ATOM     20  C   UNL     1      -1.534   0.777  -3.514  1.00  0.00     0.009 A 
ATOM     21  C   UNL     1      -1.026   2.067  -3.751  1.00  0.00     0.010 A 
ATOM     22  C   UNL     1      -2.482   0.257  -4.411  1.00  0.00     0.010 A 
ATOM     23  C   UNL     1      -1.480   2.826  -4.832  1.00  0.00     0.001 A 
ATOM     24  C   UNL     1      -2.930   1.016  -5.494  1.00  0.00     0.001 A 
ATOM     25  C   UNL     1      -2.436   2.303  -5.699  1.00  0.00     0.000 A 
ENDBRANCH  16  20
ENDBRANCH  13  16
ENDBRANCH  12  13
ENDBRANCH   7  12
ENDBRANCH   3   6
ENDBRANCH   1   2
BRANCH   1  26
ATOM     26  C   UNL     1       1.985   1.976   1.340  1.00  0.00     0.042 C 
BRANCH  26  27
ATOM     27  C   UNL     1       1.498   3.211   2.088  1.00  0.00     0.118 C 
BRANCH  27  28
ATOM     28  N   UNL     1       0.510   3.987   1.348  1.00  0.00    -0.352 N 
ATOM     29  C   UNL     1      -0.856   4.117   1.413  1.00  0.00     0.251 C 
ATOM     30  H   UNL     1       0.912   4.543   0.642  1.00  0.00     0.163 HD
ATOM     31  O   UNL     1      -1.396   4.780   0.523  1.00  0.00    -0.269 OA
BRANCH  29  32
ATOM     32  C   UNL     1      -1.701   3.480   2.455  1.00  0.00     0.039 A 
ATOM     33  C   UNL     1      -3.038   3.185   2.135  1.00  0.00     0.014 A 
ATOM     34  C   UNL     1      -1.261   3.239   3.754  1.00  0.00     0.014 A 
ATOM     35  C   UNL     1      -3.894   2.594   3.071  1.00  0.00     0.010 A 
ATOM     36  C   UNL     1      -2.088   2.595   4.674  1.00  0.00     0.010 A 
ATOM     37  C   UNL     1      -3.419   2.290   4.348  1.00  0.00    -0.014 A 
BRANCH  37  38
ATOM     38  C   UNL     1      -4.326   1.866   5.443  1.00  0.00     0.031 A 
ATOM     39  C   UNL     1      -4.640   2.872   6.517  1.00  0.00     0.074 A 
ATOM     40  C   UNL     1      -4.793   0.608   5.520  1.00  0.00     0.049 A 
ATOM     41  N   UNL     1      -5.215   2.706   7.677  1.00  0.00    -0.248 NA
ATOM     42  C   UNL     1      -4.197   4.251   6.253  1.00  0.00     0.031 C 
ATOM     43  C   UNL     1      -4.569  -0.443   4.528  1.00  0.00     0.029 A 
ATOM     44  N   UNL     1      -5.537  -0.006   6.496  1.00  0.00    -0.354 N 
ATOM     45  C   UNL     1      -5.174   3.951   8.296  1.00  0.00     0.074 A 
ATOM     46  C   UNL     1      -4.467   4.843   7.404  1.00  0.00     0.031 C 
ATOM     47  C   UNL     1      -5.161  -1.575   4.950  1.00  0.00     0.029 A 
ATOM     48  C   UNL     1      -5.766  -1.342   6.259  1.00  0.00     0.049 A 
ATOM     49  H   UNL     1      -5.876   0.466   7.291  1.00  0.00     0.167 HD
ATOM     50  C   UNL     1      -5.692   4.320   9.494  1.00  0.00     0.034 A 
ATOM     51  C   UNL     1      -6.374  -2.268   7.029  1.00  0.00     0.034 A 
ATOM     52  C   UNL     1      -6.404   3.413  10.358  1.00  0.00     0.049 A 
ATOM     53  C   UNL     1      -6.918  -1.847   8.375  1.00  0.00     0.074 A 
ATOM     54  C   UNL     1      -6.981   3.663  11.590  1.00  0.00     0.029 A 
ATOM     55  N   UNL     1      -6.636   2.073  10.074  1.00  0.00    -0.354 N 
ATOM     56  N   UNL     1      -6.868  -0.669   8.957  1.00  0.00    -0.248 NA
ATOM     57  C   UNL     1      -7.603  -2.878   9.165  1.00  0.00     0.031 C 
ATOM     58  C   UNL     1      -7.519   2.463  12.072  1.00  0.00     0.029 A 
ATOM     59  C   UNL     1      -7.335   1.480  11.112  1.00  0.00     0.049 A 
ATOM     60  H   UNL     1      -6.346   1.612   9.254  1.00  0.00     0.167 HD
ATOM     61  C   UNL     1      -7.547  -0.812  10.165  1.00  0.00     0.074 A 
ATOM     62  C   UNL     1      -8.002  -2.186  10.223  1.00  0.00     0.031 C 
ATOM     63  C   UNL     1      -7.779   0.106  11.139  1.00  0.00     0.034 A 
BRANCH  50  64
ATOM     64  C   UNL     1      -5.457   5.746   9.931  1.00  0.00     0.023 A 
ATOM     65  C   UNL     1      -5.951   6.834   9.188  1.00  0.00     0.031 A 
ATOM     66  C   UNL     1      -4.656   6.026  11.051  1.00  0.00     0.131 A 
ATOM     67  C   UNL     1      -5.553   8.140   9.510  1.00  0.00     0.055 A 
ATOM     68  C   UNL     1      -4.341   7.335  11.422  1.00  0.00     0.041 A 
ATOM     69  F   UNL     1      -4.135   5.030  11.786  1.00  0.00    -0.206 F 
ATOM     70  C   UNL     1      -4.772   8.401  10.638  1.00  0.00     0.022 A 
BRANCH  67  71
ATOM     71  S   UNL     1      -5.920   9.469   8.331  1.00  0.00     0.124 S 
ATOM     72  O   UNL     1      -5.214   9.005   7.138  1.00  0.00    -0.237 OA
ATOM     73  O   UNL     1      -7.376   9.440   8.264  1.00  0.00    -0.237 OA
ATOM     74  O   UNL     1      -5.347  10.656   8.963  1.00  0.00    -0.744 OA
ENDBRANCH  67  71
ENDBRANCH  50  64
BRANCH  51  75
ATOM     75  C   UNL     1      -6.490  -3.684   6.573  1.00  0.00     0.023 A 
ATOM     76  C   UNL     1      -7.745  -4.260   6.318  1.00  0.00     0.031 A 
ATOM     77  C   UNL     1      -5.352  -4.499   6.435  1.00  0.00     0.131 A 
ATOM     78  C   UNL     1      -7.838  -5.621   5.985  1.00  0.00     0.055 A 
ATOM     79  C   UNL     1      -5.446  -5.840   6.057  1.00  0.00     0.041 A 
ATOM     80  F   UNL     1      -4.127  -4.000   6.663  1.00  0.00    -0.206 F 
ATOM     81  C   UNL     1      -6.697  -6.412   5.842  1.00  0.00     0.022 A 
BRANCH  78  82
ATOM     82  S   UNL     1      -9.485  -6.365   5.818  1.00  0.00     0.124 S 
ATOM     83  O   UNL     1     -10.061  -6.110   7.133  1.00  0.00    -0.237 OA
ATOM     84  O   UNL     1     -10.050  -5.601   4.710  1.00  0.00    -0.237 OA
ATOM     85  O   UNL     1      -9.197  -7.766   5.522  1.00  0.00    -0.744 OA
ENDBRANCH  78  82
ENDBRANCH  51  75
BRANCH  63  86
ATOM     86  C   UNL     1      -8.612  -0.339  12.314  1.00  0.00     0.023 A 
ATOM     87  C   UNL     1      -8.132  -1.267  13.254  1.00  0.00     0.031 A 
ATOM     88  C   UNL     1      -9.905   0.183  12.495  1.00  0.00     0.131 A 
ATOM     89  C   UNL     1      -8.960  -1.682  14.308  1.00  0.00     0.055 A 
ATOM     90  C   UNL     1     -10.703  -0.192  13.576  1.00  0.00     0.041 A 
ATOM     91  F   UNL     1     -10.409   1.074  11.627  1.00  0.00    -0.206 F 
ATOM     92  C   UNL     1     -10.236  -1.138  14.484  1.00  0.00     0.022 A 
BRANCH  89  93
ATOM     93  S   UNL     1      -8.376  -3.001  15.406  1.00  0.00     0.124 S 
ATOM     94  O   UNL     1      -8.155  -4.099  14.471  1.00  0.00    -0.237 OA
ATOM     95  O   UNL     1      -7.177  -2.412  15.993  1.00  0.00    -0.237 OA
ATOM     96  O   UNL     1      -9.489  -3.192  16.335  1.00  0.00    -0.744 OA
ENDBRANCH  89  93
ENDBRANCH  63  86
ENDBRANCH  37  38
ENDBRANCH  29  32
ENDBRANCH  27  28
ENDBRANCH  26  27
ENDBRANCH   1  26
TORSDOF 18
