REMARK SMILES C[C@@H](SCCC(=O)NCCCNC(=O)c1ccc(-c2c3nc(c(-c4cc(S(=O)(=O)[O-])ccc4F)c4ccc([nH]4)c(-c4cc(S(=O)(=O)[O-])ccc4F)c4nc(c(-c5cc(S(=O)(=O)[O-])ccc5F)c5ccc2[nH]5)C=C4)C=C3)cc1)C(=O)Nc1ccc(C(N)=O)cc1
REMARK SMILES IDX 6 1 7 2 8 3 5 5 4 6 3 7 2 8 1 9 78 10 79 11 80 12 81 14
REMARK SMILES IDX 82 15 89 16 83 17 88 18 84 19 85 20 86 21 87 22 9 25 10 26
REMARK SMILES IDX 11 27 12 28 13 29 14 31 15 32 16 33 77 34 17 35 76 36 18 37
REMARK SMILES IDX 19 38 20 39 70 40 21 41 75 42 69 43 71 44 22 45 74 46 68 47
REMARK SMILES IDX 67 48 23 50 55 51 35 52 54 53 36 54 39 55 53 56 72 57 37 58
REMARK SMILES IDX 38 59 52 61 73 62 40 63 24 64 25 65 33 66 26 67 32 68 34 69
REMARK SMILES IDX 31 70 27 71 28 72 29 73 30 74 56 75 57 76 65 77 58 78 64 79
REMARK SMILES IDX 66 80 63 81 59 82 60 83 61 84 62 85 41 86 42 87 50 88 43 89
REMARK SMILES IDX 49 90 51 91 48 92 44 93 45 94 46 95 47 96
REMARK H PARENT 8 4 80 13 86 23 86 24 12 30 71 49 39 60
REMARK Flexibility Score: inf
ROOT
ATOM      1  C   UNL     1       2.809  -2.319   1.138  1.00  0.00     0.220 C 
ATOM      2  O   UNL     1       3.568  -2.092   0.193  1.00  0.00    -0.275 OA
ATOM      3  N   UNL     1       1.784  -3.188   0.928  1.00  0.00    -0.356 N 
ATOM      4  H   UNL     1       1.694  -3.485  -0.006  1.00  0.00     0.163 HD
ENDROOT
BRANCH   1   5
ATOM      5  C   UNL     1       3.023  -1.653   2.479  1.00  0.00     0.111 C 
BRANCH   5   6
ATOM      6  C   UNL     1       3.023  -0.127   2.369  1.00  0.00     0.080 C 
BRANCH   6   7
ATOM      7  S   UNL     1       1.392   0.658   2.683  1.00  0.00    -0.148 SA
BRANCH   7   8
ATOM      8  C   UNL     1       0.480   0.218   1.158  1.00  0.00     0.133 C 
ATOM      9  C   UNL     1       1.141   0.676  -0.132  1.00  0.00     0.030 C 
BRANCH   8  10
ATOM     10  C   UNL     1      -1.036   0.485   1.308  1.00  0.00     0.237 C 
ATOM     11  O   UNL     1      -1.775  -0.327   1.877  1.00  0.00    -0.273 OA
ATOM     12  N   UNL     1      -1.637   1.621   0.835  1.00  0.00    -0.325 N 
ATOM     13  H   UNL     1      -2.451   1.561   0.284  1.00  0.00     0.169 HD
BRANCH  12  14
ATOM     14  C   UNL     1      -1.085   2.865   1.140  1.00  0.00     0.041 A 
ATOM     15  C   UNL     1      -1.311   3.382   2.415  1.00  0.00     0.027 A 
ATOM     16  C   UNL     1      -0.225   3.490   0.246  1.00  0.00     0.027 A 
ATOM     17  C   UNL     1      -0.548   4.455   2.857  1.00  0.00     0.016 A 
ATOM     18  C   UNL     1       0.555   4.549   0.693  1.00  0.00     0.016 A 
ATOM     19  C   UNL     1       0.418   5.011   2.008  1.00  0.00     0.039 A 
BRANCH  19  20
ATOM     20  C   UNL     1       1.375   6.024   2.500  1.00  0.00     0.248 C 
ATOM     21  N   UNL     1       0.943   6.867   3.476  1.00  0.00    -0.366 N 
ATOM     22  O   UNL     1       2.518   6.098   2.046  1.00  0.00    -0.270 OA
ATOM     23  H   UNL     1       0.025   6.789   3.823  1.00  0.00     0.159 HD
ATOM     24  H   UNL     1       1.548   7.555   3.836  1.00  0.00     0.159 HD
ENDBRANCH  19  20
ENDBRANCH  12  14
ENDBRANCH   8  10
ENDBRANCH   7   8
ENDBRANCH   6   7
ENDBRANCH   5   6
ENDBRANCH   1   5
BRANCH   3  25
ATOM     25  C   UNL     1       0.798  -3.757   1.829  1.00  0.00     0.117 C 
BRANCH  25  26
ATOM     26  C   UNL     1      -0.627  -3.199   1.694  1.00  0.00     0.042 C 
BRANCH  26  27
ATOM     27  C   UNL     1      -1.138  -2.929   0.260  1.00  0.00     0.118 C 
BRANCH  27  28
ATOM     28  N   UNL     1      -2.489  -3.432   0.076  1.00  0.00    -0.352 N 
ATOM     29  C   UNL     1      -3.736  -2.871  -0.021  1.00  0.00     0.251 C 
ATOM     30  H   UNL     1      -2.515  -4.413   0.005  1.00  0.00     0.163 HD
ATOM     31  O   UNL     1      -4.679  -3.659   0.110  1.00  0.00    -0.269 OA
BRANCH  29  32
ATOM     32  C   UNL     1      -4.065  -1.439  -0.293  1.00  0.00     0.039 A 
ATOM     33  C   UNL     1      -5.266  -0.965   0.264  1.00  0.00     0.014 A 
ATOM     34  C   UNL     1      -3.413  -0.620  -1.220  1.00  0.00     0.014 A 
ATOM     35  C   UNL     1      -5.812   0.277  -0.100  1.00  0.00     0.010 A 
ATOM     36  C   UNL     1      -3.950   0.651  -1.564  1.00  0.00     0.010 A 
ATOM     37  C   UNL     1      -5.165   1.116  -1.018  1.00  0.00    -0.014 A 
BRANCH  37  38
ATOM     38  C   UNL     1      -5.770   2.453  -1.358  1.00  0.00     0.031 A 
ATOM     39  C   UNL     1      -6.337   2.755  -2.732  1.00  0.00     0.074 A 
ATOM     40  C   UNL     1      -5.873   3.410  -0.408  1.00  0.00     0.049 A 
ATOM     41  N   UNL     1      -6.906   3.854  -3.171  1.00  0.00    -0.248 NA
ATOM     42  C   UNL     1      -6.259   1.686  -3.735  1.00  0.00     0.031 C 
ATOM     43  C   UNL     1      -5.421   3.271   0.977  1.00  0.00     0.029 A 
ATOM     44  N   UNL     1      -6.396   4.685  -0.453  1.00  0.00    -0.354 N 
ATOM     45  C   UNL     1      -7.249   3.616  -4.501  1.00  0.00     0.074 A 
ATOM     46  C   UNL     1      -6.795   2.271  -4.800  1.00  0.00     0.031 C 
ATOM     47  C   UNL     1      -5.693   4.402   1.647  1.00  0.00     0.029 A 
ATOM     48  C   UNL     1      -6.294   5.374   0.736  1.00  0.00     0.049 A 
ATOM     49  H   UNL     1      -6.807   5.068  -1.262  1.00  0.00     0.167 HD
ATOM     50  C   UNL     1      -7.886   4.428  -5.387  1.00  0.00     0.034 A 
ATOM     51  C   UNL     1      -6.620   6.643   1.068  1.00  0.00     0.034 A 
ATOM     52  C   UNL     1      -8.356   5.767  -5.096  1.00  0.00     0.049 A 
ATOM     53  C   UNL     1      -7.249   7.553   0.037  1.00  0.00     0.074 A 
ATOM     54  C   UNL     1      -9.057   6.630  -5.926  1.00  0.00     0.029 A 
ATOM     55  N   UNL     1      -8.166   6.447  -3.902  1.00  0.00    -0.354 N 
ATOM     56  N   UNL     1      -7.589   7.289  -1.202  1.00  0.00    -0.248 NA
ATOM     57  C   UNL     1      -7.544   8.932   0.456  1.00  0.00     0.031 C 
ATOM     58  C   UNL     1      -9.211   7.856  -5.269  1.00  0.00     0.029 A 
ATOM     59  C   UNL     1      -8.689   7.732  -3.994  1.00  0.00     0.049 A 
ATOM     60  H   UNL     1      -7.724   6.075  -3.105  1.00  0.00     0.167 HD
ATOM     61  C   UNL     1      -8.166   8.459  -1.694  1.00  0.00     0.074 A 
ATOM     62  C   UNL     1      -8.149   9.421  -0.616  1.00  0.00     0.031 C 
ATOM     63  C   UNL     1      -8.666   8.709  -2.931  1.00  0.00     0.034 A 
BRANCH  50  64
ATOM     64  C   UNL     1      -8.089   3.921  -6.799  1.00  0.00     0.023 A 
ATOM     65  C   UNL     1      -8.952   2.852  -7.093  1.00  0.00     0.031 A 
ATOM     66  C   UNL     1      -7.448   4.564  -7.876  1.00  0.00     0.131 A 
ATOM     67  C   UNL     1      -9.117   2.432  -8.424  1.00  0.00     0.055 A 
ATOM     68  C   UNL     1      -7.670   4.186  -9.202  1.00  0.00     0.041 A 
ATOM     69  F   UNL     1      -6.605   5.586  -7.657  1.00  0.00    -0.206 F 
ATOM     70  C   UNL     1      -8.502   3.107  -9.481  1.00  0.00     0.022 A 
BRANCH  67  71
ATOM     71  S   UNL     1     -10.069   0.922  -8.749  1.00  0.00     0.124 S 
ATOM     72  O   UNL     1      -9.331  -0.067  -7.968  1.00  0.00    -0.237 OA
ATOM     73  O   UNL     1     -11.394   1.271  -8.252  1.00  0.00    -0.237 OA
ATOM     74  O   UNL     1      -9.969   0.759 -10.198  1.00  0.00    -0.744 OA
ENDBRANCH  67  71
ENDBRANCH  50  64
BRANCH  51  75
ATOM     75  C   UNL     1      -6.311   7.175   2.432  1.00  0.00     0.023 A 
ATOM     76  C   UNL     1      -7.326   7.660   3.273  1.00  0.00     0.031 A 
ATOM     77  C   UNL     1      -4.980   7.295   2.872  1.00  0.00     0.131 A 
ATOM     78  C   UNL     1      -6.990   8.301   4.476  1.00  0.00     0.055 A 
ATOM     79  C   UNL     1      -4.657   7.871   4.102  1.00  0.00     0.041 A 
ATOM     80  F   UNL     1      -3.967   6.854   2.110  1.00  0.00    -0.206 F 
ATOM     81  C   UNL     1      -5.665   8.395   4.904  1.00  0.00     0.022 A 
BRANCH  78  82
ATOM     82  S   UNL     1      -8.303   9.129   5.417  1.00  0.00     0.124 S 
ATOM     83  O   UNL     1      -8.846  10.046   4.422  1.00  0.00    -0.237 OA
ATOM     84  O   UNL     1      -9.157   8.008   5.793  1.00  0.00    -0.237 OA
ATOM     85  O   UNL     1      -7.582   9.759   6.521  1.00  0.00    -0.744 OA
ENDBRANCH  78  82
ENDBRANCH  51  75
BRANCH  63  86
ATOM     86  C   UNL     1      -9.279  10.072  -3.173  1.00  0.00     0.023 A 
ATOM     87  C   UNL     1      -8.512  11.251  -3.132  1.00  0.00     0.031 A 
ATOM     88  C   UNL     1     -10.658  10.197  -3.427  1.00  0.00     0.131 A 
ATOM     89  C   UNL     1      -9.134  12.502  -3.282  1.00  0.00     0.055 A 
ATOM     90  C   UNL     1     -11.261  11.440  -3.638  1.00  0.00     0.041 A 
ATOM     91  F   UNL     1     -11.446   9.111  -3.473  1.00  0.00    -0.206 F 
ATOM     92  C   UNL     1     -10.501  12.602  -3.552  1.00  0.00     0.022 A 
BRANCH  89  93
ATOM     93  S   UNL     1      -8.151  14.005  -3.021  1.00  0.00     0.124 S 
ATOM     94  O   UNL     1      -7.672  13.822  -1.655  1.00  0.00    -0.237 OA
ATOM     95  O   UNL     1      -7.142  13.904  -4.070  1.00  0.00    -0.237 OA
ATOM     96  O   UNL     1      -9.121  15.085  -3.198  1.00  0.00    -0.744 OA
ENDBRANCH  89  93
ENDBRANCH  63  86
ENDBRANCH  37  38
ENDBRANCH  29  32
ENDBRANCH  27  28
ENDBRANCH  26  27
ENDBRANCH  25  26
ENDBRANCH   3  25
TORSDOF 19
