REMARK SMILES COc1ccc2c(c1)[C@@](NC=O)(C(=O)NCCCNC(=O)c1ccc(-c3c4nc(c(-c5cc(S(=O)(=O)[O-])ccc5F)c5ccc([nH]5)c(-c5cc(S(=O)(=O)[O-])ccc5F)c5nc(c(-c6cc(S(=O)(=O)[O-])ccc6F)c6ccc3[nH]6)C=C5)C=C4)cc1)CCC2
REMARK SMILES IDX 18 1 17 2 16 3 15 4 13 5 14 6 9 8 3 9 4 10 8 11 5 12 7 13
REMARK SMILES IDX 6 14 87 15 85 16 86 17 2 18 1 19 10 20 11 21 12 23 19 24
REMARK SMILES IDX 20 25 21 27 22 28 23 29 84 30 24 31 83 32 25 33 26 34 27 35
REMARK SMILES IDX 77 36 28 37 82 38 76 39 78 40 29 41 81 42 75 43 74 44 30 46
REMARK SMILES IDX 62 47 42 48 61 49 43 50 46 51 60 52 79 53 44 54 45 55 59 57
REMARK SMILES IDX 80 58 47 59 31 60 32 61 40 62 33 63 39 64 41 65 38 66 34 67
REMARK SMILES IDX 35 68 36 69 37 70 63 71 64 72 72 73 65 74 71 75 73 76 70 77
REMARK SMILES IDX 66 78 67 79 68 80 69 81 48 82 49 83 57 84 50 85 56 86 58 87
REMARK SMILES IDX 55 88 51 89 52 90 53 91 54 92
REMARK H PARENT 15 7 10 22 19 26 78 45 46 56
REMARK Flexibility Score: inf
ROOT
ATOM      1  C   UNL     1       4.082   3.707   4.347  1.00  0.00     0.118 C 
ENDROOT
BRANCH   1   2
ATOM      2  C   UNL     1       3.165   2.554   4.701  1.00  0.00     0.042 C 
BRANCH   2   3
ATOM      3  C   UNL     1       3.198   1.377   3.749  1.00  0.00     0.117 C 
BRANCH   3   4
ATOM      4  N   UNL     1       4.489   0.721   3.624  1.00  0.00    -0.354 N 
ATOM      5  C   UNL     1       4.803  -0.581   3.367  1.00  0.00     0.250 C 
ATOM      6  O   UNL     1       5.977  -0.782   3.011  1.00  0.00    -0.272 OA
ATOM      7  H   UNL     1       5.264   1.315   3.745  1.00  0.00     0.163 HD
BRANCH   5   8
ATOM      8  C   UNL     1       3.858  -1.820   3.626  1.00  0.00     0.144 C 
ATOM      9  C   UNL     1       0.567  -0.598   2.100  1.00  0.00     0.119 A 
ATOM     10  C   UNL     1      -0.304  -0.746   3.177  1.00  0.00     0.047 A 
ATOM     11  C   UNL     1       1.889  -1.022   2.227  1.00  0.00     0.053 A 
ATOM     12  C   UNL     1       0.121  -1.361   4.355  1.00  0.00     0.008 A 
ATOM     13  C   UNL     1       2.364  -1.556   3.446  1.00  0.00    -0.006 A 
ATOM     14  C   UNL     1       1.445  -1.794   4.493  1.00  0.00    -0.042 A 
ATOM     15  C   UNL     1       1.859  -2.431   5.796  1.00  0.00     0.036 C 
ATOM     16  C   UNL     1       4.227  -2.288   5.058  1.00  0.00     0.044 C 
ATOM     17  C   UNL     1       3.171  -3.192   5.674  1.00  0.00     0.008 C 
BRANCH   9  18
ATOM     18  O   UNL     1       0.034   0.031   1.010  1.00  0.00    -0.497 OA
ATOM     19  C   UNL     1       0.771  -0.062  -0.202  1.00  0.00     0.278 C 
ENDBRANCH   9  18
BRANCH   8  20
ATOM     20  N   UNL     1       4.320  -2.817   2.639  1.00  0.00    -0.341 N 
ATOM     21  C   UNL     1       3.654  -3.905   2.175  1.00  0.00     0.338 C 
ATOM     22  H   UNL     1       5.223  -2.675   2.272  1.00  0.00     0.164 HD
ATOM     23  O   UNL     1       4.147  -4.696   1.379  1.00  0.00    -0.279 OA
ENDBRANCH   8  20
ENDBRANCH   5   8
ENDBRANCH   3   4
ENDBRANCH   2   3
ENDBRANCH   1   2
BRANCH   1  24
ATOM     24  N   UNL     1       3.729   4.380   3.106  1.00  0.00    -0.352 N 
ATOM     25  C   UNL     1       3.322   5.674   2.871  1.00  0.00     0.251 C 
ATOM     26  H   UNL     1       3.791   3.816   2.301  1.00  0.00     0.163 HD
ATOM     27  O   UNL     1       2.958   5.985   1.739  1.00  0.00    -0.269 OA
BRANCH  25  28
ATOM     28  C   UNL     1       3.275   6.674   3.966  1.00  0.00     0.039 A 
ATOM     29  C   UNL     1       2.228   7.600   3.992  1.00  0.00     0.014 A 
ATOM     30  C   UNL     1       4.246   6.713   4.968  1.00  0.00     0.014 A 
ATOM     31  C   UNL     1       2.117   8.498   5.059  1.00  0.00     0.010 A 
ATOM     32  C   UNL     1       4.062   7.515   6.091  1.00  0.00     0.010 A 
ATOM     33  C   UNL     1       3.004   8.431   6.146  1.00  0.00    -0.014 A 
BRANCH  33  34
ATOM     34  C   UNL     1       2.852   9.325   7.328  1.00  0.00     0.031 A 
ATOM     35  C   UNL     1       3.970  10.261   7.721  1.00  0.00     0.074 A 
ATOM     36  C   UNL     1       1.730   9.261   8.075  1.00  0.00     0.049 A 
ATOM     37  N   UNL     1       4.038  11.091   8.731  1.00  0.00    -0.248 NA
ATOM     38  C   UNL     1       5.186  10.239   6.891  1.00  0.00     0.031 C 
ATOM     39  C   UNL     1       0.603   8.354   7.835  1.00  0.00     0.029 A 
ATOM     40  N   UNL     1       1.344   9.971   9.186  1.00  0.00    -0.354 N 
ATOM     41  C   UNL     1       5.303  11.667   8.669  1.00  0.00     0.074 A 
ATOM     42  C   UNL     1       5.993  11.046   7.561  1.00  0.00     0.031 C 
ATOM     43  C   UNL     1      -0.361   8.598   8.737  1.00  0.00     0.029 A 
ATOM     44  C   UNL     1       0.092   9.638   9.653  1.00  0.00     0.049 A 
ATOM     45  H   UNL     1       1.911  10.655   9.609  1.00  0.00     0.167 HD
ATOM     46  C   UNL     1       5.832  12.643   9.447  1.00  0.00     0.034 A 
ATOM     47  C   UNL     1      -0.610  10.116  10.700  1.00  0.00     0.034 A 
ATOM     48  C   UNL     1       5.119  13.281  10.526  1.00  0.00     0.049 A 
ATOM     49  C   UNL     1       0.002  11.212  11.540  1.00  0.00     0.074 A 
ATOM     50  C   UNL     1       5.531  14.332  11.327  1.00  0.00     0.029 A 
ATOM     51  N   UNL     1       3.848  12.927  10.960  1.00  0.00    -0.354 N 
ATOM     52  N   UNL     1       1.171  11.798  11.414  1.00  0.00    -0.248 NA
ATOM     53  C   UNL     1      -0.810  11.724  12.650  1.00  0.00     0.031 C 
ATOM     54  C   UNL     1       4.545  14.562  12.291  1.00  0.00     0.029 A 
ATOM     55  C   UNL     1       3.477  13.717  12.037  1.00  0.00     0.049 A 
ATOM     56  H   UNL     1       3.292  12.219  10.561  1.00  0.00     0.167 HD
ATOM     57  C   UNL     1       1.211  12.778  12.403  1.00  0.00     0.074 A 
ATOM     58  C   UNL     1      -0.060  12.720  13.093  1.00  0.00     0.031 C 
ATOM     59  C   UNL     1       2.206  13.647  12.717  1.00  0.00     0.034 A 
BRANCH  46  60
ATOM     60  C   UNL     1       7.256  13.071   9.176  1.00  0.00     0.023 A 
ATOM     61  C   UNL     1       7.635  13.680   7.968  1.00  0.00     0.031 A 
ATOM     62  C   UNL     1       8.248  12.878  10.155  1.00  0.00     0.131 A 
ATOM     63  C   UNL     1       8.977  14.027   7.748  1.00  0.00     0.055 A 
ATOM     64  C   UNL     1       9.566  13.296   9.960  1.00  0.00     0.041 A 
ATOM     65  F   UNL     1       7.952  12.280  11.319  1.00  0.00    -0.206 F 
ATOM     66  C   UNL     1       9.940  13.865   8.747  1.00  0.00     0.022 A 
BRANCH  63  67
ATOM     67  S   UNL     1       9.472  14.588   6.096  1.00  0.00     0.124 S 
ATOM     68  O   UNL     1       9.126  13.430   5.276  1.00  0.00    -0.237 OA
ATOM     69  O   UNL     1       8.647  15.775   5.905  1.00  0.00    -0.237 OA
ATOM     70  O   UNL     1      10.905  14.840   6.234  1.00  0.00    -0.744 OA
ENDBRANCH  63  67
ENDBRANCH  46  60
BRANCH  47  71
ATOM     71  C   UNL     1      -1.966   9.582  11.031  1.00  0.00     0.023 A 
ATOM     72  C   UNL     1      -3.091  10.423  11.039  1.00  0.00     0.031 A 
ATOM     73  C   UNL     1      -2.145   8.247  11.436  1.00  0.00     0.131 A 
ATOM     74  C   UNL     1      -4.321   9.948  11.521  1.00  0.00     0.055 A 
ATOM     75  C   UNL     1      -3.388   7.759  11.845  1.00  0.00     0.041 A 
ATOM     76  F   UNL     1      -1.108   7.395  11.446  1.00  0.00    -0.206 F 
ATOM     77  C   UNL     1      -4.481   8.617  11.911  1.00  0.00     0.022 A 
BRANCH  74  78
ATOM     78  S   UNL     1      -5.673  11.134  11.766  1.00  0.00     0.124 S 
ATOM     79  O   UNL     1      -5.041  12.129  12.625  1.00  0.00    -0.237 OA
ATOM     80  O   UNL     1      -5.957  11.554  10.398  1.00  0.00    -0.237 OA
ATOM     81  O   UNL     1      -6.717  10.332  12.401  1.00  0.00    -0.744 OA
ENDBRANCH  74  78
ENDBRANCH  47  71
BRANCH  59  82
ATOM     82  C   UNL     1       1.922  14.641  13.819  1.00  0.00     0.023 A 
ATOM     83  C   UNL     1       1.662  14.231  15.139  1.00  0.00     0.031 A 
ATOM     84  C   UNL     1       1.860  16.017  13.532  1.00  0.00     0.131 A 
ATOM     85  C   UNL     1       1.260  15.173  16.097  1.00  0.00     0.055 A 
ATOM     86  C   UNL     1       1.541  16.959  14.511  1.00  0.00     0.041 A 
ATOM     87  F   UNL     1       2.098  16.469  12.291  1.00  0.00    -0.206 F 
ATOM     88  C   UNL     1       1.216  16.537  15.797  1.00  0.00     0.022 A 
BRANCH  85  89
ATOM     89  S   UNL     1       0.652  14.575  17.698  1.00  0.00     0.124 S 
ATOM     90  O   UNL     1      -0.406  13.654  17.295  1.00  0.00    -0.237 OA
ATOM     91  O   UNL     1       1.845  13.962  18.273  1.00  0.00    -0.237 OA
ATOM     92  O   UNL     1       0.195  15.791  18.367  1.00  0.00    -0.744 OA
ENDBRANCH  85  89
ENDBRANCH  59  82
ENDBRANCH  33  34
ENDBRANCH  25  28
ENDBRANCH   1  24
TORSDOF 15
