REMARK SMILES COc1ccc2c(c1)c(CC(=O)NCCCNC(=O)c1ccc(-c3c4nc(c(-c5cc(S(=O)(=O)[O-])ccc5F)c5ccc([nH]5)c(-c5cc(S(=O)(=O)[O-])ccc5F)c5nc(c(-c6cc(S(=O)(=O)[O-])ccc6F)c6ccc3[nH]6)C=C5)C=C4)cc1)c(C)n2C(=O)c1ccc(Cl)cc1
REMARK SMILES IDX 15 1 14 2 13 3 11 4 12 5 10 7 9 8 3 9 4 10 8 11 5 12 7 13
REMARK SMILES IDX 6 14 85 15 83 16 84 17 2 18 1 19 86 20 87 21 88 22 89 23
REMARK SMILES IDX 94 24 90 25 93 26 91 27 92 28 16 29 17 30 18 31 19 33 20 34
REMARK SMILES IDX 21 35 82 36 22 37 81 38 23 39 24 40 25 41 75 42 26 43 80 44
REMARK SMILES IDX 74 45 76 46 27 47 79 48 73 49 72 50 28 52 60 53 40 54 59 55
REMARK SMILES IDX 41 56 44 57 58 58 77 59 42 60 43 61 57 63 78 64 45 65 29 66
REMARK SMILES IDX 30 67 38 68 31 69 37 70 39 71 36 72 32 73 33 74 34 75 35 76
REMARK SMILES IDX 61 77 62 78 70 79 63 80 69 81 71 82 68 83 64 84 65 85 66 86
REMARK SMILES IDX 67 87 46 88 47 89 55 90 48 91 54 92 56 93 53 94 49 95 50 96
REMARK SMILES IDX 51 97 52 98
REMARK H PARENT 13 6 17 32 76 51 44 62
REMARK Flexibility Score: inf
ROOT
ATOM      1  C   UNL     1       0.840   2.685   7.301  1.00  0.00     0.042 C 
ENDROOT
BRANCH   1   2
ATOM      2  C   UNL     1      -0.589   2.264   7.651  1.00  0.00     0.117 C 
BRANCH   2   3
ATOM      3  N   UNL     1      -1.501   2.355   6.523  1.00  0.00    -0.356 N 
ATOM      4  C   UNL     1      -2.079   1.353   5.798  1.00  0.00     0.224 C 
ATOM      5  O   UNL     1      -2.873   1.664   4.906  1.00  0.00    -0.275 OA
ATOM      6  H   UNL     1      -1.735   3.269   6.242  1.00  0.00     0.163 HD
BRANCH   4   7
ATOM      7  C   UNL     1      -1.794  -0.104   6.126  1.00  0.00     0.138 C 
BRANCH   7   8
ATOM      8  C   UNL     1      -0.370  -0.509   5.873  1.00  0.00    -0.009 A 
ATOM      9  C   UNL     1       0.846   0.067   2.296  1.00  0.00     0.119 A 
ATOM     10  C   UNL     1       2.093  -0.511   2.471  1.00  0.00     0.048 A 
ATOM     11  C   UNL     1      -0.037   0.131   3.375  1.00  0.00     0.057 A 
ATOM     12  C   UNL     1       2.473  -1.034   3.713  1.00  0.00     0.031 A 
ATOM     13  C   UNL     1       0.330  -0.379   4.643  1.00  0.00     0.008 A 
ATOM     14  C   UNL     1       1.605  -0.924   4.819  1.00  0.00     0.057 A 
ATOM     15  N   UNL     1       1.755  -1.250   6.183  1.00  0.00    -0.280 N 
ATOM     16  C   UNL     1       0.482  -1.147   6.769  1.00  0.00     0.028 A 
ATOM     17  C   UNL     1       0.125  -1.617   8.148  1.00  0.00     0.065 C 
BRANCH   9  18
ATOM     18  O   UNL     1       0.386   0.617   1.131  1.00  0.00    -0.497 OA
ATOM     19  C   UNL     1       0.967   0.108  -0.064  1.00  0.00     0.278 C 
ENDBRANCH   9  18
BRANCH  15  20
ATOM     20  C   UNL     1       2.967  -1.613   6.843  1.00  0.00     0.262 C 
ATOM     21  O   UNL     1       2.923  -1.902   8.040  1.00  0.00    -0.268 OA
BRANCH  20  22
ATOM     22  C   UNL     1       4.296  -1.684   6.214  1.00  0.00     0.040 A 
ATOM     23  C   UNL     1       4.912  -0.537   5.699  1.00  0.00     0.015 A 
ATOM     24  C   UNL     1       4.912  -2.935   6.104  1.00  0.00     0.015 A 
ATOM     25  C   UNL     1       6.097  -0.666   4.971  1.00  0.00     0.021 A 
ATOM     26  C   UNL     1       6.103  -3.056   5.386  1.00  0.00     0.021 A 
ATOM     27  C   UNL     1       6.674  -1.927   4.799  1.00  0.00     0.041 A 
ATOM     28  Cl  UNL     1       8.072  -2.095   3.809  1.00  0.00    -0.084 Cl
ENDBRANCH  20  22
ENDBRANCH  15  20
ENDBRANCH   7   8
ENDBRANCH   4   7
ENDBRANCH   2   3
ENDBRANCH   1   2
BRANCH   1  29
ATOM     29  C   UNL     1       0.979   4.169   6.967  1.00  0.00     0.118 C 
BRANCH  29  30
ATOM     30  N   UNL     1       0.486   5.057   8.001  1.00  0.00    -0.352 N 
ATOM     31  C   UNL     1       1.006   5.650   9.117  1.00  0.00     0.251 C 
ATOM     32  H   UNL     1      -0.461   5.291   7.866  1.00  0.00     0.163 HD
ATOM     33  O   UNL     1       0.256   6.456   9.677  1.00  0.00    -0.269 OA
BRANCH  31  34
ATOM     34  C   UNL     1       2.331   5.357   9.729  1.00  0.00     0.039 A 
ATOM     35  C   UNL     1       3.308   4.511   9.205  1.00  0.00     0.014 A 
ATOM     36  C   UNL     1       2.568   5.959  10.982  1.00  0.00     0.014 A 
ATOM     37  C   UNL     1       4.438   4.195   9.961  1.00  0.00     0.010 A 
ATOM     38  C   UNL     1       3.696   5.655  11.735  1.00  0.00     0.010 A 
ATOM     39  C   UNL     1       4.608   4.730  11.245  1.00  0.00    -0.014 A 
BRANCH  39  40
ATOM     40  C   UNL     1       5.823   4.389  11.987  1.00  0.00     0.031 A 
ATOM     41  C   UNL     1       7.079   4.857  11.337  1.00  0.00     0.074 A 
ATOM     42  C   UNL     1       5.830   3.798  13.201  1.00  0.00     0.049 A 
ATOM     43  N   UNL     1       8.018   4.140  10.813  1.00  0.00    -0.248 NA
ATOM     44  C   UNL     1       7.233   6.301  11.103  1.00  0.00     0.031 C 
ATOM     45  C   UNL     1       4.689   3.562  14.091  1.00  0.00     0.029 A 
ATOM     46  N   UNL     1       6.887   3.358  13.945  1.00  0.00    -0.354 N 
ATOM     47  C   UNL     1       8.986   5.038  10.361  1.00  0.00     0.074 A 
ATOM     48  C   UNL     1       8.373   6.340  10.412  1.00  0.00     0.031 C 
ATOM     49  C   UNL     1       5.141   3.244  15.327  1.00  0.00     0.029 A 
ATOM     50  C   UNL     1       6.586   3.101  15.278  1.00  0.00     0.049 A 
ATOM     51  H   UNL     1       7.788   3.232  13.568  1.00  0.00     0.167 HD
ATOM     52  C   UNL     1      10.283   4.656  10.177  1.00  0.00     0.034 A 
ATOM     53  C   UNL     1       7.459   2.845  16.288  1.00  0.00     0.034 A 
ATOM     54  C   UNL     1      10.396   3.222  10.167  1.00  0.00     0.049 A 
ATOM     55  C   UNL     1       8.747   2.428  15.692  1.00  0.00     0.074 A 
ATOM     56  C   UNL     1       9.954   2.212   9.341  1.00  0.00     0.029 A 
ATOM     57  N   UNL     1      10.764   2.625  11.347  1.00  0.00    -0.354 N 
ATOM     58  N   UNL     1       8.933   1.300  15.070  1.00  0.00    -0.248 NA
ATOM     59  C   UNL     1       9.724   3.468  15.414  1.00  0.00     0.031 C 
ATOM     60  C   UNL     1       9.665   1.124  10.212  1.00  0.00     0.029 A 
ATOM     61  C   UNL     1      10.011   1.496  11.514  1.00  0.00     0.049 A 
ATOM     62  H   UNL     1      11.454   2.954  11.967  1.00  0.00     0.167 HD
ATOM     63  C   UNL     1       9.726   1.639  13.986  1.00  0.00     0.074 A 
ATOM     64  C   UNL     1      10.278   2.952  14.315  1.00  0.00     0.031 C 
ATOM     65  C   UNL     1       9.627   0.960  12.806  1.00  0.00     0.034 A 
BRANCH  52  66
ATOM     66  C   UNL     1      11.486   5.556  10.376  1.00  0.00     0.023 A 
ATOM     67  C   UNL     1      11.401   6.862  10.888  1.00  0.00     0.031 A 
ATOM     68  C   UNL     1      12.793   5.025  10.277  1.00  0.00     0.131 A 
ATOM     69  C   UNL     1      12.540   7.574  11.291  1.00  0.00     0.055 A 
ATOM     70  C   UNL     1      13.925   5.709  10.738  1.00  0.00     0.041 A 
ATOM     71  F   UNL     1      13.007   3.793   9.790  1.00  0.00    -0.206 F 
ATOM     72  C   UNL     1      13.802   6.990  11.255  1.00  0.00     0.022 A 
BRANCH  69  73
ATOM     73  S   UNL     1      12.390   9.277  11.898  1.00  0.00     0.124 S 
ATOM     74  O   UNL     1      12.961   9.172  13.236  1.00  0.00    -0.237 OA
ATOM     75  O   UNL     1      13.194  10.008  10.922  1.00  0.00    -0.237 OA
ATOM     76  O   UNL     1      10.955   9.537  11.836  1.00  0.00    -0.744 OA
ENDBRANCH  69  73
ENDBRANCH  52  66
BRANCH  53  77
ATOM     77  C   UNL     1       7.403   3.392  17.668  1.00  0.00     0.023 A 
ATOM     78  C   UNL     1       6.798   4.643  17.883  1.00  0.00     0.031 A 
ATOM     79  C   UNL     1       8.220   2.885  18.696  1.00  0.00     0.131 A 
ATOM     80  C   UNL     1       7.059   5.369  19.052  1.00  0.00     0.055 A 
ATOM     81  C   UNL     1       8.460   3.603  19.875  1.00  0.00     0.041 A 
ATOM     82  F   UNL     1       8.865   1.718  18.541  1.00  0.00    -0.206 F 
ATOM     83  C   UNL     1       7.891   4.861  20.050  1.00  0.00     0.022 A 
BRANCH  80  84
ATOM     84  S   UNL     1       6.409   7.052  19.243  1.00  0.00     0.124 S 
ATOM     85  O   UNL     1       5.790   6.993  20.565  1.00  0.00    -0.237 OA
ATOM     86  O   UNL     1       7.625   7.851  19.151  1.00  0.00    -0.237 OA
ATOM     87  O   UNL     1       5.474   7.186  18.130  1.00  0.00    -0.744 OA
ENDBRANCH  80  84
ENDBRANCH  53  77
BRANCH  65  88
ATOM     88  C   UNL     1       8.861  -0.346  12.774  1.00  0.00     0.023 A 
ATOM     89  C   UNL     1       9.498  -1.430  12.146  1.00  0.00     0.031 A 
ATOM     90  C   UNL     1       7.500  -0.493  13.103  1.00  0.00     0.131 A 
ATOM     91  C   UNL     1       8.774  -2.575  11.800  1.00  0.00     0.055 A 
ATOM     92  C   UNL     1       6.800  -1.675  12.831  1.00  0.00     0.041 A 
ATOM     93  F   UNL     1       6.785   0.519  13.610  1.00  0.00    -0.206 F 
ATOM     94  C   UNL     1       7.431  -2.714  12.155  1.00  0.00     0.022 A 
BRANCH  91  95
ATOM     95  S   UNL     1       9.519  -3.824  10.721  1.00  0.00     0.124 S 
ATOM     96  O   UNL     1       9.576  -4.993  11.594  1.00  0.00    -0.237 OA
ATOM     97  O   UNL     1       8.555  -3.907   9.625  1.00  0.00    -0.237 OA
ATOM     98  O   UNL     1      10.813  -3.253  10.358  1.00  0.00    -0.744 OA
ENDBRANCH  91  95
ENDBRANCH  65  88
ENDBRANCH  39  40
ENDBRANCH  31  34
ENDBRANCH  29  30
ENDBRANCH   1  29
TORSDOF 17
