REMARK SMILES CCOc1cc(OCC)cc(-c2ccc([C@@H](C)C(=O)NCCCNC(=O)c3ccc(-c4c5nc(c(-c6cc(S(=O)(=O)[O-])ccc6F)c6ccc([nH]6)c(-c6cc(S(=O)(=O)[O-])ccc6F)c6nc(c(-c7cc(S(=O)(=O)[O-])ccc7F)c7ccc4[nH]7)C=C6)C=C5)cc3)cc2)c1
REMARK SMILES IDX 21 1 20 2 18 3 19 4 16 6 17 7 15 8 12 9 13 10 91 11 14 12
REMARK SMILES IDX 90 13 11 14 4 15 5 16 92 17 6 18 10 19 3 20 2 21 1 22 7 23
REMARK SMILES IDX 8 24 9 25 22 26 23 27 24 28 25 29 26 31 27 32 28 33 89 34
REMARK SMILES IDX 29 35 88 36 30 37 31 38 32 39 82 40 33 41 87 42 81 43 83 44
REMARK SMILES IDX 34 45 86 46 80 47 79 48 35 50 67 51 47 52 66 53 48 54 51 55
REMARK SMILES IDX 65 56 84 57 49 58 50 59 64 61 85 62 52 63 36 64 37 65 45 66
REMARK SMILES IDX 38 67 44 68 46 69 43 70 39 71 40 72 41 73 42 74 68 75 69 76
REMARK SMILES IDX 77 77 70 78 76 79 78 80 75 81 71 82 72 83 73 84 74 85 53 86
REMARK SMILES IDX 54 87 62 88 55 89 61 90 63 91 60 92 56 93 57 94 58 95 59 96
REMARK H PARENT 20 5 24 30 83 49 51 60
REMARK Flexibility Score: inf
ROOT
ATOM      1  C   UNL     1       9.766  -0.363   2.111  1.00  0.00     0.117 C 
ENDROOT
BRANCH   1   2
ATOM      2  N   UNL     1       9.027  -1.099   3.120  1.00  0.00    -0.356 N 
ATOM      3  C   UNL     1       8.338  -2.272   3.084  1.00  0.00     0.227 C 
ATOM      4  O   UNL     1       7.795  -2.616   4.142  1.00  0.00    -0.274 OA
ATOM      5  H   UNL     1       9.025  -0.665   4.004  1.00  0.00     0.163 HD
BRANCH   3   6
ATOM      6  C   UNL     1       8.213  -3.170   1.843  1.00  0.00     0.105 C 
ATOM      7  C   UNL     1       9.541  -3.683   1.288  1.00  0.00     0.023 C 
BRANCH   6   8
ATOM      8  C   UNL     1       7.247  -2.632   0.803  1.00  0.00    -0.036 A 
ATOM      9  C   UNL     1       5.369  -1.536  -1.041  1.00  0.00    -0.018 A 
ATOM     10  C   UNL     1       6.720  -1.157  -1.046  1.00  0.00     0.009 A 
ATOM     11  C   UNL     1       4.978  -2.490  -0.092  1.00  0.00     0.009 A 
ATOM     12  C   UNL     1       7.648  -1.728  -0.178  1.00  0.00     0.005 A 
ATOM     13  C   UNL     1       5.897  -3.013   0.830  1.00  0.00     0.005 A 
BRANCH   9  14
ATOM     14  C   UNL     1       4.431  -0.930  -2.009  1.00  0.00    -0.011 A 
ATOM     15  C   UNL     1       2.263  -0.012  -2.614  1.00  0.00     0.123 A 
ATOM     16  C   UNL     1       2.754   0.382  -3.859  1.00  0.00     0.092 A 
ATOM     17  C   UNL     1       3.090  -0.671  -1.702  1.00  0.00     0.055 A 
ATOM     18  C   UNL     1       4.076   0.111  -4.205  1.00  0.00     0.123 A 
ATOM     19  C   UNL     1       4.885  -0.561  -3.289  1.00  0.00     0.055 A 
BRANCH  15  20
ATOM     20  O   UNL     1       0.926   0.143  -2.364  1.00  0.00    -0.494 OA
BRANCH  20  21
ATOM     21  C   UNL     1       0.635   1.102  -1.339  1.00  0.00     0.226 C 
ATOM     22  C   UNL     1       0.516   0.445   0.029  1.00  0.00     0.049 C 
ENDBRANCH  20  21
ENDBRANCH  15  20
BRANCH  18  23
ATOM     23  O   UNL     1       4.487   0.553  -5.434  1.00  0.00    -0.494 OA
BRANCH  23  24
ATOM     24  C   UNL     1       5.765   0.126  -5.917  1.00  0.00     0.226 C 
ATOM     25  C   UNL     1       6.900   1.011  -5.416  1.00  0.00     0.049 C 
ENDBRANCH  23  24
ENDBRANCH  18  23
ENDBRANCH   9  14
ENDBRANCH   6   8
ENDBRANCH   3   6
ENDBRANCH   1   2
BRANCH   1  26
ATOM     26  C   UNL     1       8.970   0.805   1.532  1.00  0.00     0.042 C 
BRANCH  26  27
ATOM     27  C   UNL     1       9.006   2.069   2.384  1.00  0.00     0.118 C 
BRANCH  27  28
ATOM     28  N   UNL     1      10.328   2.679   2.406  1.00  0.00    -0.352 N 
ATOM     29  C   UNL     1      10.762   3.903   1.957  1.00  0.00     0.251 C 
ATOM     30  H   UNL     1      11.030   2.120   2.812  1.00  0.00     0.163 HD
ATOM     31  O   UNL     1      11.972   4.100   1.875  1.00  0.00    -0.269 OA
BRANCH  29  32
ATOM     32  C   UNL     1       9.809   4.967   1.560  1.00  0.00     0.039 A 
ATOM     33  C   UNL     1      10.152   5.812   0.499  1.00  0.00     0.014 A 
ATOM     34  C   UNL     1       8.615   5.183   2.252  1.00  0.00     0.014 A 
ATOM     35  C   UNL     1       9.277   6.825   0.097  1.00  0.00     0.010 A 
ATOM     36  C   UNL     1       7.706   6.139   1.800  1.00  0.00     0.010 A 
ATOM     37  C   UNL     1       8.028   6.975   0.721  1.00  0.00    -0.014 A 
BRANCH  37  38
ATOM     38  C   UNL     1       7.054   8.002   0.262  1.00  0.00     0.031 A 
ATOM     39  C   UNL     1       6.630   9.114   1.183  1.00  0.00     0.074 A 
ATOM     40  C   UNL     1       6.502   7.893  -0.962  1.00  0.00     0.049 A 
ATOM     41  N   UNL     1       5.736  10.052   0.997  1.00  0.00    -0.248 NA
ATOM     42  C   UNL     1       7.277   9.155   2.503  1.00  0.00     0.031 C 
ATOM     43  C   UNL     1       6.796   6.833  -1.928  1.00  0.00     0.029 A 
ATOM     44  N   UNL     1       5.570   8.672  -1.600  1.00  0.00    -0.354 N 
ATOM     45  C   UNL     1       5.705  10.788   2.177  1.00  0.00     0.074 A 
ATOM     46  C   UNL     1       6.620  10.140   3.094  1.00  0.00     0.031 C 
ATOM     47  C   UNL     1       6.073   7.038  -3.040  1.00  0.00     0.029 A 
ATOM     48  C   UNL     1       5.230   8.213  -2.852  1.00  0.00     0.049 A 
ATOM     49  H   UNL     1       5.181   9.483  -1.200  1.00  0.00     0.167 HD
ATOM     50  C   UNL     1       5.001  11.914   2.459  1.00  0.00     0.034 A 
ATOM     51  C   UNL     1       4.328   8.674  -3.741  1.00  0.00     0.034 A 
ATOM     52  C   UNL     1       4.094  12.545   1.530  1.00  0.00     0.049 A 
ATOM     53  C   UNL     1       3.534   9.908  -3.399  1.00  0.00     0.074 A 
ATOM     54  C   UNL     1       3.367  13.713   1.689  1.00  0.00     0.029 A 
ATOM     55  N   UNL     1       3.776  12.053   0.269  1.00  0.00    -0.354 N 
ATOM     56  N   UNL     1       3.555  10.625  -2.299  1.00  0.00    -0.248 NA
ATOM     57  C   UNL     1       2.603  10.399  -4.422  1.00  0.00     0.031 C 
ATOM     58  C   UNL     1       2.561  13.887   0.558  1.00  0.00     0.029 A 
ATOM     59  C   UNL     1       2.840  12.873  -0.344  1.00  0.00     0.049 A 
ATOM     60  H   UNL     1       4.160  11.239  -0.131  1.00  0.00     0.167 HD
ATOM     61  C   UNL     1       2.654  11.665  -2.507  1.00  0.00     0.074 A 
ATOM     62  C   UNL     1       2.124  11.491  -3.845  1.00  0.00     0.031 C 
ATOM     63  C   UNL     1       2.299  12.674  -1.669  1.00  0.00     0.034 A 
BRANCH  50  64
ATOM     64  C   UNL     1       5.173  12.508   3.840  1.00  0.00     0.023 A 
ATOM     65  C   UNL     1       6.426  12.954   4.299  1.00  0.00     0.031 A 
ATOM     66  C   UNL     1       4.087  12.584   4.730  1.00  0.00     0.131 A 
ATOM     67  C   UNL     1       6.583  13.361   5.633  1.00  0.00     0.055 A 
ATOM     68  C   UNL     1       4.231  13.079   6.029  1.00  0.00     0.041 A 
ATOM     69  F   UNL     1       2.869  12.158   4.361  1.00  0.00    -0.206 F 
ATOM     70  C   UNL     1       5.489  13.451   6.494  1.00  0.00     0.022 A 
BRANCH  67  71
ATOM     71  S   UNL     1       8.265  13.599   6.270  1.00  0.00     0.124 S 
ATOM     72  O   UNL     1       8.867  12.294   6.008  1.00  0.00    -0.237 OA
ATOM     73  O   UNL     1       8.757  14.705   5.457  1.00  0.00    -0.237 OA
ATOM     74  O   UNL     1       8.056  13.907   7.684  1.00  0.00    -0.744 OA
ENDBRANCH  67  71
ENDBRANCH  50  64
BRANCH  51  75
ATOM     75  C   UNL     1       4.117   7.955  -5.029  1.00  0.00     0.023 A 
ATOM     76  C   UNL     1       4.457   8.546  -6.256  1.00  0.00     0.031 A 
ATOM     77  C   UNL     1       3.560   6.663  -5.050  1.00  0.00     0.131 A 
ATOM     78  C   UNL     1       4.208   7.860  -7.455  1.00  0.00     0.055 A 
ATOM     79  C   UNL     1       3.361   5.965  -6.242  1.00  0.00     0.041 A 
ATOM     80  F   UNL     1       3.224   6.051  -3.903  1.00  0.00    -0.206 F 
ATOM     81  C   UNL     1       3.675   6.568  -7.455  1.00  0.00     0.022 A 
BRANCH  78  82
ATOM     82  S   UNL     1       4.537   8.706  -9.025  1.00  0.00     0.124 S 
ATOM     83  O   UNL     1       3.669   9.874  -8.922  1.00  0.00    -0.237 OA
ATOM     84  O   UNL     1       5.971   8.963  -8.936  1.00  0.00    -0.237 OA
ATOM     85  O   UNL     1       4.145   7.722 -10.032  1.00  0.00    -0.744 OA
ENDBRANCH  78  82
ENDBRANCH  51  75
BRANCH  63  86
ATOM     86  C   UNL     1       1.304  13.680  -2.196  1.00  0.00     0.023 A 
ATOM     87  C   UNL     1      -0.029  13.326  -2.472  1.00  0.00     0.031 A 
ATOM     88  C   UNL     1       1.700  15.007  -2.439  1.00  0.00     0.131 A 
ATOM     89  C   UNL     1      -0.902  14.274  -3.027  1.00  0.00     0.055 A 
ATOM     90  C   UNL     1       0.809  15.961  -2.934  1.00  0.00     0.041 A 
ATOM     91  F   UNL     1       2.961  15.400  -2.198  1.00  0.00    -0.206 F 
ATOM     92  C   UNL     1      -0.497  15.593  -3.243  1.00  0.00     0.022 A 
BRANCH  89  93
ATOM     93  S   UNL     1      -2.553  13.735  -3.551  1.00  0.00     0.124 S 
ATOM     94  O   UNL     1      -2.237  12.697  -4.527  1.00  0.00    -0.237 OA
ATOM     95  O   UNL     1      -3.144  13.273  -2.299  1.00  0.00    -0.237 OA
ATOM     96  O   UNL     1      -3.150  14.948  -4.106  1.00  0.00    -0.744 OA
ENDBRANCH  89  93
ENDBRANCH  63  86
ENDBRANCH  37  38
ENDBRANCH  29  32
ENDBRANCH  27  28
ENDBRANCH  26  27
ENDBRANCH   1  26
TORSDOF 19
