REMARK SMILES COc1ccc(C(=O)N[C@H](C(=O)NCCCNC(=O)c2ccc(-c3c4nc(c(-c5cc(S(=O)(=O)[O-])ccc5F)c5ccc([nH]5)c(-c5cc(S(=O)(=O)[O-])ccc5F)c5nc(c(-c6cc(S(=O)(=O)[O-])ccc6F)c6ccc3[nH]6)C=C5)C=C4)cc2)C2=C(C)N=N[C@H]2C)c(F)c1F
REMARK SMILES IDX 15 1 14 2 13 3 11 4 12 5 10 7 9 8 7 9 8 10 6 12 3 13 4 14
REMARK SMILES IDX 92 15 5 16 90 17 93 18 91 19 2 20 1 21 83 22 84 23 88 24
REMARK SMILES IDX 85 25 86 26 87 27 89 28 16 29 17 30 18 31 19 33 20 34 21 35
REMARK SMILES IDX 82 36 22 37 81 38 23 39 24 40 25 41 75 42 26 43 80 44 74 45
REMARK SMILES IDX 76 46 27 47 79 48 73 49 72 50 28 52 60 53 40 54 59 55 41 56
REMARK SMILES IDX 44 57 58 58 77 59 42 60 43 61 57 63 78 64 45 65 29 66 30 67
REMARK SMILES IDX 38 68 31 69 37 70 39 71 36 72 32 73 33 74 34 75 35 76 61 77
REMARK SMILES IDX 62 78 70 79 63 80 69 81 71 82 68 83 64 84 65 85 66 86 67 87
REMARK SMILES IDX 46 88 47 89 55 90 48 91 54 92 56 93 53 94 49 95 50 96 51 97
REMARK SMILES IDX 52 98
REMARK H PARENT 13 6 9 11 17 32 76 51 44 62
REMARK Flexibility Score: inf
ROOT
ATOM      1  C   UNL     1       2.865   2.093   6.287  1.00  0.00     0.042 C 
ENDROOT
BRANCH   1   2
ATOM      2  C   UNL     1       1.968   0.898   6.021  1.00  0.00     0.117 C 
BRANCH   2   3
ATOM      3  N   UNL     1       1.802   0.028   7.180  1.00  0.00    -0.354 N 
ATOM      4  C   UNL     1       0.693  -0.605   7.668  1.00  0.00     0.247 C 
ATOM      5  O   UNL     1       0.879  -1.447   8.554  1.00  0.00    -0.272 OA
ATOM      6  H   UNL     1       2.626  -0.129   7.696  1.00  0.00     0.163 HD
BRANCH   4   7
ATOM      7  C   UNL     1      -0.742  -0.248   7.180  1.00  0.00     0.202 C 
BRANCH   7   8
ATOM      8  N   UNL     1      -1.535  -1.473   6.982  1.00  0.00    -0.336 N 
ATOM      9  C   UNL     1      -1.718  -2.415   6.005  1.00  0.00     0.255 C 
ATOM     10  O   UNL     1      -2.492  -3.333   6.308  1.00  0.00    -0.269 OA
ATOM     11  H   UNL     1      -2.088  -1.669   7.772  1.00  0.00     0.165 HD
BRANCH   9  12
ATOM     12  C   UNL     1      -1.120  -2.472   4.638  1.00  0.00     0.078 A 
ATOM     13  C   UNL     1      -0.080  -2.779   2.015  1.00  0.00     0.157 A 
ATOM     14  C   UNL     1      -1.049  -3.658   2.479  1.00  0.00     0.050 A 
ATOM     15  C   UNL     1       0.380  -1.777   2.851  1.00  0.00     0.201 A 
ATOM     16  C   UNL     1      -1.564  -3.501   3.777  1.00  0.00     0.021 A 
ATOM     17  C   UNL     1      -0.143  -1.631   4.134  1.00  0.00     0.175 A 
ATOM     18  F   UNL     1       1.329  -0.926   2.432  1.00  0.00    -0.200 F 
ATOM     19  F   UNL     1       0.349  -0.640   4.855  1.00  0.00    -0.203 F 
BRANCH  13  20
ATOM     20  O   UNL     1       0.476  -2.946   0.780  1.00  0.00    -0.494 OA
ATOM     21  C   UNL     1      -0.309  -2.296  -0.220  1.00  0.00     0.278 C 
ENDBRANCH  13  20
ENDBRANCH   9  12
ENDBRANCH   7   8
BRANCH   7  22
ATOM     22  C   UNL     1      -1.385   0.605   8.247  1.00  0.00     0.011 C 
ATOM     23  C   UNL     1      -1.923   0.360   9.452  1.00  0.00     0.064 C 
ATOM     24  C   UNL     1      -1.528   2.088   8.072  1.00  0.00     0.156 C 
ATOM     25  C   UNL     1      -2.036  -0.900  10.240  1.00  0.00     0.069 C 
ATOM     26  N   UNL     1      -2.431   1.494  10.041  1.00  0.00    -0.160 NA
ATOM     27  N   UNL     1      -2.258   2.493   9.299  1.00  0.00    -0.181 NA
ATOM     28  C   UNL     1      -0.220   2.863   8.039  1.00  0.00     0.040 C 
ENDBRANCH   7  22
ENDBRANCH   4   7
ENDBRANCH   2   3
ENDBRANCH   1   2
BRANCH   1  29
ATOM     29  C   UNL     1       4.321   1.713   6.494  1.00  0.00     0.118 C 
BRANCH  29  30
ATOM     30  N   UNL     1       5.018   1.451   5.243  1.00  0.00    -0.352 N 
ATOM     31  C   UNL     1       5.919   2.219   4.540  1.00  0.00     0.251 C 
ATOM     32  H   UNL     1       4.811   0.580   4.832  1.00  0.00     0.163 HD
ATOM     33  O   UNL     1       6.238   1.870   3.407  1.00  0.00    -0.269 OA
BRANCH  31  34
ATOM     34  C   UNL     1       6.468   3.472   5.113  1.00  0.00     0.039 A 
ATOM     35  C   UNL     1       6.676   4.566   4.268  1.00  0.00     0.014 A 
ATOM     36  C   UNL     1       6.799   3.579   6.464  1.00  0.00     0.014 A 
ATOM     37  C   UNL     1       7.140   5.775   4.794  1.00  0.00     0.010 A 
ATOM     38  C   UNL     1       7.136   4.816   7.008  1.00  0.00     0.010 A 
ATOM     39  C   UNL     1       7.332   5.927   6.177  1.00  0.00    -0.014 A 
BRANCH  39  40
ATOM     40  C   UNL     1       7.763   7.226   6.761  1.00  0.00     0.031 A 
ATOM     41  C   UNL     1       9.052   7.320   7.539  1.00  0.00     0.074 A 
ATOM     42  C   UNL     1       6.972   8.311   6.632  1.00  0.00     0.049 A 
ATOM     43  N   UNL     1       9.580   8.353   8.146  1.00  0.00    -0.248 NA
ATOM     44  C   UNL     1       9.830   6.081   7.687  1.00  0.00     0.031 C 
ATOM     45  C   UNL     1       5.669   8.333   5.962  1.00  0.00     0.029 A 
ATOM     46  N   UNL     1       7.144   9.605   7.057  1.00  0.00    -0.354 N 
ATOM     47  C   UNL     1      10.737   7.883   8.760  1.00  0.00     0.074 A 
ATOM     48  C   UNL     1      10.791   6.459   8.515  1.00  0.00     0.031 C 
ATOM     49  C   UNL     1       5.182   9.583   5.985  1.00  0.00     0.029 A 
ATOM     50  C   UNL     1       6.111  10.445   6.709  1.00  0.00     0.049 A 
ATOM     51  H   UNL     1       7.933   9.905   7.564  1.00  0.00     0.167 HD
ATOM     52  C   UNL     1      11.684   8.579   9.438  1.00  0.00     0.034 A 
ATOM     53  C   UNL     1       5.929  11.759   6.947  1.00  0.00     0.034 A 
ATOM     54  C   UNL     1      11.627  10.004   9.651  1.00  0.00     0.049 A 
ATOM     55  C   UNL     1       6.998  12.514   7.694  1.00  0.00     0.074 A 
ATOM     56  C   UNL     1      12.566  10.824  10.253  1.00  0.00     0.029 A 
ATOM     57  N   UNL     1      10.569  10.823   9.275  1.00  0.00    -0.354 N 
ATOM     58  N   UNL     1       8.124  12.068   8.201  1.00  0.00    -0.248 NA
ATOM     59  C   UNL     1       6.778  13.953   7.886  1.00  0.00     0.031 C 
ATOM     60  C   UNL     1      12.045  12.122  10.306  1.00  0.00     0.029 A 
ATOM     61  C   UNL     1      10.816  12.131   9.666  1.00  0.00     0.049 A 
ATOM     62  H   UNL     1       9.762  10.519   8.801  1.00  0.00     0.167 HD
ATOM     63  C   UNL     1       8.756  13.178   8.755  1.00  0.00     0.074 A 
ATOM     64  C   UNL     1       7.897  14.315   8.494  1.00  0.00     0.031 C 
ATOM     65  C   UNL     1       9.938  13.252   9.419  1.00  0.00     0.034 A 
BRANCH  52  66
ATOM     66  C   UNL     1      12.845   7.798  10.012  1.00  0.00     0.023 A 
ATOM     67  C   UNL     1      13.733   7.079   9.192  1.00  0.00     0.031 A 
ATOM     68  C   UNL     1      13.052   7.747  11.402  1.00  0.00     0.131 A 
ATOM     69  C   UNL     1      14.729   6.275   9.768  1.00  0.00     0.055 A 
ATOM     70  C   UNL     1      14.099   7.014  11.966  1.00  0.00     0.041 A 
ATOM     71  F   UNL     1      12.227   8.395  12.240  1.00  0.00    -0.206 F 
ATOM     72  C   UNL     1      14.935   6.259  11.149  1.00  0.00     0.022 A 
BRANCH  69  73
ATOM     73  S   UNL     1      15.649   5.135   8.698  1.00  0.00     0.124 S 
ATOM     74  O   UNL     1      14.571   4.327   8.133  1.00  0.00    -0.237 OA
ATOM     75  O   UNL     1      16.320   6.042   7.774  1.00  0.00    -0.237 OA
ATOM     76  O   UNL     1      16.527   4.427   9.627  1.00  0.00    -0.744 OA
ENDBRANCH  69  73
ENDBRANCH  52  66
BRANCH  53  77
ATOM     77  C   UNL     1       4.689  12.446   6.480  1.00  0.00     0.023 A 
ATOM     78  C   UNL     1       4.741  13.458   5.509  1.00  0.00     0.031 A 
ATOM     79  C   UNL     1       3.434  12.118   7.024  1.00  0.00     0.131 A 
ATOM     80  C   UNL     1       3.568  14.137   5.142  1.00  0.00     0.055 A 
ATOM     81  C   UNL     1       2.263  12.760   6.618  1.00  0.00     0.041 A 
ATOM     82  F   UNL     1       3.327  11.152   7.950  1.00  0.00    -0.206 F 
ATOM     83  C   UNL     1       2.328  13.786   5.680  1.00  0.00     0.022 A 
BRANCH  80  84
ATOM     84  S   UNL     1       3.697  15.543   4.003  1.00  0.00     0.124 S 
ATOM     85  O   UNL     1       4.612  16.424   4.719  1.00  0.00    -0.237 OA
ATOM     86  O   UNL     1       4.224  14.910   2.799  1.00  0.00    -0.237 OA
ATOM     87  O   UNL     1       2.320  16.023   3.899  1.00  0.00    -0.744 OA
ENDBRANCH  80  84
ENDBRANCH  53  77
BRANCH  65  88
ATOM     88  C   UNL     1      10.375  14.620   9.883  1.00  0.00     0.023 A 
ATOM     89  C   UNL     1       9.659  15.329  10.863  1.00  0.00     0.031 A 
ATOM     90  C   UNL     1      11.508  15.233   9.319  1.00  0.00     0.131 A 
ATOM     91  C   UNL     1      10.043  16.635  11.201  1.00  0.00     0.055 A 
ATOM     92  C   UNL     1      11.925  16.506   9.708  1.00  0.00     0.041 A 
ATOM     93  F   UNL     1      12.228  14.604   8.376  1.00  0.00    -0.206 F 
ATOM     94  C   UNL     1      11.182  17.222  10.643  1.00  0.00     0.022 A 
BRANCH  91  95
ATOM     95  S   UNL     1       8.970  17.600  12.300  1.00  0.00     0.124 S 
ATOM     96  O   UNL     1       7.702  17.582  11.577  1.00  0.00    -0.237 OA
ATOM     97  O   UNL     1       9.010  16.824  13.535  1.00  0.00    -0.237 OA
ATOM     98  O   UNL     1       9.629  18.903  12.365  1.00  0.00    -0.744 OA
ENDBRANCH  91  95
ENDBRANCH  65  88
ENDBRANCH  39  40
ENDBRANCH  31  34
ENDBRANCH  29  30
ENDBRANCH   1  29
TORSDOF 17
