REMARK SMILES Cc1ccc(-c2ncccc2C(=O)NCCCNC(=O)c2ccc(-c3c4nc(c(-c5cc(S(=O)(=O)[O-])ccc5F)c5ccc([nH]5)c(-c5cc(S(=O)(=O)[O-])ccc5F)c5nc(c(-c6cc(S(=O)(=O)[O-])ccc6F)c6ccc3[nH]6)C=C5)C=C4)cc2)c(Cl)c1
REMARK SMILES IDX 17 1 16 2 15 3 14 4 12 5 13 6 11 8 6 9 7 10 8 11 10 12 9 13
REMARK SMILES IDX 5 14 1 15 2 16 3 17 86 18 4 19 84 20 85 21 18 22 19 23 20 25
REMARK SMILES IDX 21 26 22 27 83 28 23 29 82 30 24 31 25 32 26 33 76 34 27 35
REMARK SMILES IDX 81 36 75 37 77 38 28 39 80 40 74 41 73 42 29 44 61 45 41 46
REMARK SMILES IDX 60 47 42 48 45 49 59 50 78 51 43 52 44 53 58 55 79 56 46 57
REMARK SMILES IDX 30 58 31 59 39 60 32 61 38 62 40 63 37 64 33 65 34 66 35 67
REMARK SMILES IDX 36 68 62 69 63 70 71 71 64 72 70 73 72 74 69 75 65 76 66 77
REMARK SMILES IDX 67 78 68 79 47 80 48 81 56 82 49 83 55 84 57 85 54 86 50 87
REMARK SMILES IDX 51 88 52 89 53 90
REMARK H PARENT 14 7 18 24 77 43 45 54
REMARK Flexibility Score: inf
ROOT
ATOM      1  C   UNL     1       0.117  -6.623  -4.710  1.00  0.00     0.118 C 
ENDROOT
BRANCH   1   2
ATOM      2  C   UNL     1       1.252  -6.375  -3.712  1.00  0.00     0.042 C 
BRANCH   2   3
ATOM      3  C   UNL     1       1.856  -4.974  -3.811  1.00  0.00     0.118 C 
BRANCH   3   4
ATOM      4  N   UNL     1       0.912  -3.963  -3.375  1.00  0.00    -0.352 N 
ATOM      5  C   UNL     1       0.681  -3.258  -2.223  1.00  0.00     0.253 C 
ATOM      6  O   UNL     1      -0.256  -2.465  -2.315  1.00  0.00    -0.269 OA
ATOM      7  H   UNL     1       0.276  -3.723  -4.087  1.00  0.00     0.163 HD
BRANCH   5   8
ATOM      8  C   UNL     1       1.477  -3.369  -0.956  1.00  0.00     0.066 A 
ATOM      9  C   UNL     1       1.357  -2.397   0.062  1.00  0.00     0.084 A 
ATOM     10  N   UNL     1       2.127  -2.410   1.195  1.00  0.00    -0.255 NA
ATOM     11  C   UNL     1       3.023  -3.400   1.347  1.00  0.00     0.112 A 
ATOM     12  C   UNL     1       2.361  -4.424  -0.698  1.00  0.00     0.018 A 
ATOM     13  C   UNL     1       3.160  -4.433   0.446  1.00  0.00     0.021 A 
BRANCH   9  14
ATOM     14  C   UNL     1       0.348  -1.324   0.100  1.00  0.00     0.020 A 
ATOM     15  C   UNL     1      -2.760   1.700   0.075  1.00  0.00     0.044 C 
ATOM     16  C   UNL     1      -1.689   0.653   0.117  1.00  0.00    -0.050 A 
ATOM     17  C   UNL     1      -2.008  -0.689   0.327  1.00  0.00     0.004 A 
ATOM     18  C   UNL     1      -0.345   1.010  -0.055  1.00  0.00     0.024 A 
ATOM     19  C   UNL     1      -1.002  -1.659   0.334  1.00  0.00     0.012 A 
ATOM     20  C   UNL     1       0.662   0.034  -0.071  1.00  0.00     0.050 A 
ATOM     21  Cl  UNL     1       2.286   0.574  -0.340  1.00  0.00    -0.084 Cl
ENDBRANCH   9  14
ENDBRANCH   5   8
ENDBRANCH   3   4
ENDBRANCH   2   3
ENDBRANCH   1   2
BRANCH   1  22
ATOM     22  N   UNL     1       0.583  -6.574  -6.089  1.00  0.00    -0.352 N 
ATOM     23  C   UNL     1       0.630  -7.555  -7.048  1.00  0.00     0.251 C 
ATOM     24  H   UNL     1       0.918  -5.695  -6.380  1.00  0.00     0.163 HD
ATOM     25  O   UNL     1       1.313  -7.371  -8.051  1.00  0.00    -0.269 OA
BRANCH  23  26
ATOM     26  C   UNL     1      -0.123  -8.818  -6.881  1.00  0.00     0.039 A 
ATOM     27  C   UNL     1       0.466 -10.015  -7.302  1.00  0.00     0.014 A 
ATOM     28  C   UNL     1      -1.427  -8.823  -6.380  1.00  0.00     0.014 A 
ATOM     29  C   UNL     1      -0.232 -11.219  -7.173  1.00  0.00     0.010 A 
ATOM     30  C   UNL     1      -2.097 -10.031  -6.192  1.00  0.00     0.010 A 
ATOM     31  C   UNL     1      -1.510 -11.241  -6.592  1.00  0.00    -0.014 A 
BRANCH  31  32
ATOM     32  C   UNL     1      -2.253 -12.516  -6.408  1.00  0.00     0.031 A 
ATOM     33  C   UNL     1      -3.544 -12.749  -7.147  1.00  0.00     0.074 A 
ATOM     34  C   UNL     1      -1.798 -13.433  -5.532  1.00  0.00     0.049 A 
ATOM     35  N   UNL     1      -4.388 -13.744  -7.048  1.00  0.00    -0.248 NA
ATOM     36  C   UNL     1      -3.951 -11.709  -8.104  1.00  0.00     0.031 C 
ATOM     37  C   UNL     1      -0.574 -13.307  -4.737  1.00  0.00     0.029 A 
ATOM     38  N   UNL     1      -2.314 -14.647  -5.153  1.00  0.00    -0.354 N 
ATOM     39  C   UNL     1      -5.433 -13.445  -7.917  1.00  0.00     0.074 A 
ATOM     40  C   UNL     1      -5.140 -12.147  -8.489  1.00  0.00     0.031 C 
ATOM     41  C   UNL     1      -0.425 -14.406  -3.981  1.00  0.00     0.029 A 
ATOM     42  C   UNL     1      -1.564 -15.294  -4.197  1.00  0.00     0.049 A 
ATOM     43  H   UNL     1      -3.144 -15.020  -5.529  1.00  0.00     0.167 HD
ATOM     44  C   UNL     1      -6.523 -14.191  -8.223  1.00  0.00     0.034 A 
ATOM     45  C   UNL     1      -1.777 -16.461  -3.558  1.00  0.00     0.034 A 
ATOM     46  C   UNL     1      -6.792 -15.489  -7.653  1.00  0.00     0.049 A 
ATOM     47  C   UNL     1      -3.009 -17.261  -3.897  1.00  0.00     0.074 A 
ATOM     48  C   UNL     1      -7.843 -16.350  -7.922  1.00  0.00     0.029 A 
ATOM     49  N   UNL     1      -6.005 -16.115  -6.694  1.00  0.00    -0.354 N 
ATOM     50  N   UNL     1      -3.970 -16.979  -4.748  1.00  0.00    -0.248 NA
ATOM     51  C   UNL     1      -3.180 -18.542  -3.200  1.00  0.00     0.031 C 
ATOM     52  C   UNL     1      -7.724 -17.465  -7.085  1.00  0.00     0.029 A 
ATOM     53  C   UNL     1      -6.560 -17.337  -6.344  1.00  0.00     0.049 A 
ATOM     54  H   UNL     1      -5.175 -15.745  -6.317  1.00  0.00     0.167 HD
ATOM     55  C   UNL     1      -4.839 -18.066  -4.710  1.00  0.00     0.074 A 
ATOM     56  C   UNL     1      -4.281 -19.012  -3.766  1.00  0.00     0.031 C 
ATOM     57  C   UNL     1      -5.993 -18.267  -5.397  1.00  0.00     0.034 A 
BRANCH  44  58
ATOM     58  C   UNL     1      -7.514 -13.607  -9.203  1.00  0.00     0.023 A 
ATOM     59  C   UNL     1      -7.159 -13.331 -10.535  1.00  0.00     0.031 A 
ATOM     60  C   UNL     1      -8.825 -13.300  -8.796  1.00  0.00     0.131 A 
ATOM     61  C   UNL     1      -8.075 -12.699 -11.389  1.00  0.00     0.055 A 
ATOM     62  C   UNL     1      -9.758 -12.746  -9.675  1.00  0.00     0.041 A 
ATOM     63  F   UNL     1      -9.218 -13.523  -7.532  1.00  0.00    -0.206 F 
ATOM     64  C   UNL     1      -9.381 -12.428 -10.976  1.00  0.00     0.022 A 
BRANCH  61  65
ATOM     65  S   UNL     1      -7.491 -12.111 -13.002  1.00  0.00     0.124 S 
ATOM     66  O   UNL     1      -6.439 -11.176 -12.611  1.00  0.00    -0.237 OA
ATOM     67  O   UNL     1      -7.045 -13.342 -13.645  1.00  0.00    -0.237 OA
ATOM     68  O   UNL     1      -8.677 -11.493 -13.592  1.00  0.00    -0.744 OA
ENDBRANCH  61  65
ENDBRANCH  44  58
BRANCH  45  69
ATOM     69  C   UNL     1      -0.817 -16.946  -2.525  1.00  0.00     0.023 A 
ATOM     70  C   UNL     1      -0.096 -18.135  -2.713  1.00  0.00     0.031 A 
ATOM     71  C   UNL     1      -0.646 -16.257  -1.311  1.00  0.00     0.131 A 
ATOM     72  C   UNL     1       0.722 -18.628  -1.685  1.00  0.00     0.055 A 
ATOM     73  C   UNL     1       0.212 -16.722  -0.313  1.00  0.00     0.041 A 
ATOM     74  F   UNL     1      -1.307 -15.111  -1.081  1.00  0.00    -0.206 F 
ATOM     75  C   UNL     1       0.891 -17.924  -0.491  1.00  0.00     0.022 A 
BRANCH  72  76
ATOM     76  S   UNL     1       1.490 -20.258  -1.894  1.00  0.00     0.124 S 
ATOM     77  O   UNL     1       0.328 -21.106  -2.133  1.00  0.00    -0.237 OA
ATOM     78  O   UNL     1       2.368 -20.033  -3.038  1.00  0.00    -0.237 OA
ATOM     79  O   UNL     1       2.173 -20.478  -0.621  1.00  0.00    -0.744 OA
ENDBRANCH  72  76
ENDBRANCH  45  69
BRANCH  57  80
ATOM     80  C   UNL     1      -6.694 -19.586  -5.184  1.00  0.00     0.023 A 
ATOM     81  C   UNL     1      -7.287 -19.920  -3.954  1.00  0.00     0.031 A 
ATOM     82  C   UNL     1      -6.755 -20.527  -6.227  1.00  0.00     0.131 A 
ATOM     83  C   UNL     1      -7.865 -21.186  -3.779  1.00  0.00     0.055 A 
ATOM     84  C   UNL     1      -7.385 -21.762  -6.066  1.00  0.00     0.041 A 
ATOM     85  F   UNL     1      -6.204 -20.260  -7.422  1.00  0.00    -0.206 F 
ATOM     86  C   UNL     1      -7.933 -22.103  -4.832  1.00  0.00     0.022 A 
BRANCH  83  87
ATOM     87  S   UNL     1      -8.451 -21.656  -2.128  1.00  0.00     0.124 S 
ATOM     88  O   UNL     1      -7.237 -21.532  -1.329  1.00  0.00    -0.237 OA
ATOM     89  O   UNL     1      -9.488 -20.662  -1.871  1.00  0.00    -0.237 OA
ATOM     90  O   UNL     1      -8.936 -23.023  -2.312  1.00  0.00    -0.744 OA
ENDBRANCH  83  87
ENDBRANCH  57  80
ENDBRANCH  31  32
ENDBRANCH  23  26
ENDBRANCH   1  22
TORSDOF 14
