REMARK SMILES CC(C)CSc1cc2c(cc1Cl)C=C(C(=O)NCCCNC(=O)c1ccc(-c3c4nc(c(-c5cc(S(=O)(=O)[O-])ccc5F)c5ccc([nH]5)c(-c5cc(S(=O)(=O)[O-])ccc5F)c5nc(c(-c6cc(S(=O)(=O)[O-])ccc6F)c6ccc3[nH]6)C=C5)C=C4)cc1)[C@H](C(F)(F)F)O2
REMARK SMILES IDX 19 1 18 2 17 3 15 4 16 5 14 7 6 8 7 9 11 10 8 11 10 12 12 13
REMARK SMILES IDX 9 14 92 15 13 16 87 17 5 18 4 19 2 20 1 21 3 22 88 23 89 24
REMARK SMILES IDX 90 25 91 26 20 27 21 28 22 29 23 31 24 32 25 33 86 34 26 35
REMARK SMILES IDX 85 36 27 37 28 38 29 39 79 40 30 41 84 42 78 43 80 44 31 45
REMARK SMILES IDX 83 46 77 47 76 48 32 50 64 51 44 52 63 53 45 54 48 55 62 56
REMARK SMILES IDX 81 57 46 58 47 59 61 61 82 62 49 63 33 64 34 65 42 66 35 67
REMARK SMILES IDX 41 68 43 69 40 70 36 71 37 72 38 73 39 74 65 75 66 76 74 77
REMARK SMILES IDX 67 78 73 79 75 80 72 81 68 82 69 83 70 84 71 85 50 86 51 87
REMARK SMILES IDX 59 88 52 89 58 90 60 91 57 92 53 93 54 94 55 95 56 96
REMARK H PARENT 17 6 21 30 80 49 48 60
REMARK Flexibility Score: inf
ROOT
ATOM      1  C   UNL     1       1.032   5.115   8.447  1.00  0.00     0.042 C 
ENDROOT
BRANCH   1   2
ATOM      2  C   UNL     1       2.007   4.238   7.671  1.00  0.00     0.118 C 
BRANCH   2   3
ATOM      3  N   UNL     1       1.715   2.820   7.833  1.00  0.00    -0.352 N 
ATOM      4  C   UNL     1       1.200   1.813   7.094  1.00  0.00     0.251 C 
ATOM      5  O   UNL     1       1.232   0.702   7.635  1.00  0.00    -0.270 OA
ATOM      6  H   UNL     1       1.961   2.509   8.734  1.00  0.00     0.163 HD
BRANCH   4   7
ATOM      7  C   UNL     1       0.622   1.942   5.726  1.00  0.00     0.067 C 
ATOM      8  C   UNL     1      -1.323   0.960   1.171  1.00  0.00     0.030 A 
ATOM      9  C   UNL     1      -0.806   2.104   1.798  1.00  0.00     0.063 A 
ATOM     10  C   UNL     1      -1.368  -0.240   1.902  1.00  0.00     0.055 A 
ATOM     11  C   UNL     1      -0.294   2.033   3.090  1.00  0.00     0.129 A 
ATOM     12  C   UNL     1      -0.803  -0.314   3.185  1.00  0.00     0.033 A 
ATOM     13  Cl  UNL     1      -2.127  -1.678   1.315  1.00  0.00    -0.083 Cl
ATOM     14  C   UNL     1      -0.250   0.822   3.776  1.00  0.00     0.019 A 
ATOM     15  O   UNL     1       0.191   3.192   3.628  1.00  0.00    -0.475 OA
ATOM     16  C   UNL     1       0.387   0.779   5.086  1.00  0.00     0.025 C 
ATOM     17  C   UNL     1       0.192   3.234   5.085  1.00  0.00     0.314 C 
BRANCH   8  18
ATOM     18  S   UNL     1      -1.864   1.214  -0.515  1.00  0.00    -0.124 SA
BRANCH  18  19
ATOM     19  C   UNL     1      -0.949  -0.055  -1.465  1.00  0.00     0.078 C 
BRANCH  19  20
ATOM     20  C   UNL     1       0.583   0.070  -1.587  1.00  0.00    -0.007 C 
ATOM     21  C   UNL     1       1.352  -0.079  -0.275  1.00  0.00     0.008 C 
ATOM     22  C   UNL     1       1.072  -1.015  -2.556  1.00  0.00     0.008 C 
ENDBRANCH  19  20
ENDBRANCH  18  19
ENDBRANCH   8  18
BRANCH  17  23
ATOM     23  C   UNL     1      -1.158   3.742   5.614  1.00  0.00     0.429 C 
ATOM     24  F   UNL     1      -2.211   3.118   5.041  1.00  0.00    -0.167 F 
ATOM     25  F   UNL     1      -1.276   3.568   6.950  1.00  0.00    -0.167 F 
ATOM     26  F   UNL     1      -1.287   5.070   5.376  1.00  0.00    -0.167 F 
ENDBRANCH  17  23
ENDBRANCH   4   7
ENDBRANCH   2   3
ENDBRANCH   1   2
BRANCH   1  27
ATOM     27  C   UNL     1       1.292   5.090   9.949  1.00  0.00     0.118 C 
BRANCH  27  28
ATOM     28  N   UNL     1       2.482   5.853  10.308  1.00  0.00    -0.352 N 
ATOM     29  C   UNL     1       2.602   7.091  10.899  1.00  0.00     0.251 C 
ATOM     30  H   UNL     1       3.335   5.412  10.095  1.00  0.00     0.163 HD
ATOM     31  O   UNL     1       3.687   7.661  10.872  1.00  0.00    -0.269 OA
BRANCH  29  32
ATOM     32  C   UNL     1       1.430   7.738  11.533  1.00  0.00     0.039 A 
ATOM     33  C   UNL     1       0.509   6.988  12.261  1.00  0.00     0.014 A 
ATOM     34  C   UNL     1       1.254   9.120  11.412  1.00  0.00     0.014 A 
ATOM     35  C   UNL     1      -0.680   7.569  12.683  1.00  0.00     0.010 A 
ATOM     36  C   UNL     1       0.113   9.728  11.950  1.00  0.00     0.010 A 
ATOM     37  C   UNL     1      -0.892   8.950  12.547  1.00  0.00    -0.014 A 
BRANCH  37  38
ATOM     38  C   UNL     1      -2.154   9.551  13.063  1.00  0.00     0.031 A 
ATOM     39  C   UNL     1      -3.103  10.272  12.142  1.00  0.00     0.074 A 
ATOM     40  C   UNL     1      -2.466   9.399  14.368  1.00  0.00     0.049 A 
ATOM     41  N   UNL     1      -4.245  10.843  12.425  1.00  0.00    -0.248 NA
ATOM     42  C   UNL     1      -2.726  10.371  10.721  1.00  0.00     0.031 C 
ATOM     43  C   UNL     1      -1.627   8.712  15.353  1.00  0.00     0.029 A 
ATOM     44  N   UNL     1      -3.571   9.779  15.088  1.00  0.00    -0.354 N 
ATOM     45  C   UNL     1      -4.712  11.386  11.232  1.00  0.00     0.074 A 
ATOM     46  C   UNL     1      -3.713  11.106  10.225  1.00  0.00     0.031 C 
ATOM     47  C   UNL     1      -2.273   8.660  16.525  1.00  0.00     0.029 A 
ATOM     48  C   UNL     1      -3.531   9.390  16.409  1.00  0.00     0.049 A 
ATOM     49  H   UNL     1      -4.322  10.282  14.698  1.00  0.00     0.167 HD
ATOM     50  C   UNL     1      -5.874  12.041  11.000  1.00  0.00     0.034 A 
ATOM     51  C   UNL     1      -4.393   9.611  17.423  1.00  0.00     0.034 A 
ATOM     52  C   UNL     1      -6.876  12.277  12.009  1.00  0.00     0.049 A 
ATOM     53  C   UNL     1      -5.659  10.378  17.139  1.00  0.00     0.074 A 
ATOM     54  C   UNL     1      -8.103  12.900  11.858  1.00  0.00     0.029 A 
ATOM     55  N   UNL     1      -6.782  11.901  13.341  1.00  0.00    -0.354 N 
ATOM     56  N   UNL     1      -6.103  10.839  15.993  1.00  0.00    -0.248 NA
ATOM     57  C   UNL     1      -6.543  10.656  18.278  1.00  0.00     0.031 C 
ATOM     58  C   UNL     1      -8.714  12.970  13.108  1.00  0.00     0.029 A 
ATOM     59  C   UNL     1      -7.915  12.309  14.027  1.00  0.00     0.049 A 
ATOM     60  H   UNL     1      -6.024  11.415  13.739  1.00  0.00     0.167 HD
ATOM     61  C   UNL     1      -7.329  11.436  16.270  1.00  0.00     0.074 A 
ATOM     62  C   UNL     1      -7.572  11.248  17.685  1.00  0.00     0.031 C 
ATOM     63  C   UNL     1      -8.169  12.091  15.431  1.00  0.00     0.034 A 
BRANCH  50  64
ATOM     64  C   UNL     1      -6.175  12.546   9.609  1.00  0.00     0.023 A 
ATOM     65  C   UNL     1      -6.363  13.926   9.394  1.00  0.00     0.031 A 
ATOM     66  C   UNL     1      -6.464  11.664   8.554  1.00  0.00     0.131 A 
ATOM     67  C   UNL     1      -6.890  14.377   8.177  1.00  0.00     0.055 A 
ATOM     68  C   UNL     1      -6.942  12.124   7.325  1.00  0.00     0.041 A 
ATOM     69  F   UNL     1      -6.302  10.340   8.708  1.00  0.00    -0.206 F 
ATOM     70  C   UNL     1      -7.175  13.484   7.140  1.00  0.00     0.022 A 
BRANCH  67  71
ATOM     71  S   UNL     1      -7.314  16.123   7.930  1.00  0.00     0.124 S 
ATOM     72  O   UNL     1      -6.545  16.453   6.731  1.00  0.00    -0.237 OA
ATOM     73  O   UNL     1      -8.761  16.062   7.745  1.00  0.00    -0.237 OA
ATOM     74  O   UNL     1      -6.859  16.772   9.154  1.00  0.00    -0.744 OA
ENDBRANCH  67  71
ENDBRANCH  50  64
BRANCH  51  75
ATOM     75  C   UNL     1      -4.091   9.069  18.783  1.00  0.00     0.023 A 
ATOM     76  C   UNL     1      -2.910   9.425  19.462  1.00  0.00     0.031 A 
ATOM     77  C   UNL     1      -4.936   8.125  19.390  1.00  0.00     0.131 A 
ATOM     78  C   UNL     1      -2.575   8.791  20.665  1.00  0.00     0.055 A 
ATOM     79  C   UNL     1      -4.641   7.559  20.632  1.00  0.00     0.041 A 
ATOM     80  F   UNL     1      -6.067   7.739  18.780  1.00  0.00    -0.206 F 
ATOM     81  C   UNL     1      -3.445   7.878  21.267  1.00  0.00     0.022 A 
BRANCH  78  82
ATOM     82  S   UNL     1      -0.937   9.023  21.412  1.00  0.00     0.124 S 
ATOM     83  O   UNL     1      -1.272   9.631  22.695  1.00  0.00    -0.237 OA
ATOM     84  O   UNL     1      -0.440   7.650  21.474  1.00  0.00    -0.237 OA
ATOM     85  O   UNL     1      -0.245   9.888  20.462  1.00  0.00    -0.744 OA
ENDBRANCH  78  82
ENDBRANCH  51  75
BRANCH  63  86
ATOM     86  C   UNL     1      -9.459  12.650  15.983  1.00  0.00     0.023 A 
ATOM     87  C   UNL     1     -10.693  12.208  15.466  1.00  0.00     0.031 A 
ATOM     88  C   UNL     1      -9.466  13.724  16.889  1.00  0.00     0.131 A 
ATOM     89  C   UNL     1     -11.875  12.872  15.816  1.00  0.00     0.055 A 
ATOM     90  C   UNL     1     -10.653  14.343  17.283  1.00  0.00     0.041 A 
ATOM     91  F   UNL     1      -8.317  14.193  17.401  1.00  0.00    -0.206 F 
ATOM     92  C   UNL     1     -11.863  13.929  16.731  1.00  0.00     0.022 A 
BRANCH  89  93
ATOM     93  S   UNL     1     -13.451  12.460  15.019  1.00  0.00     0.124 S 
ATOM     94  O   UNL     1     -14.270  12.055  16.159  1.00  0.00    -0.237 OA
ATOM     95  O   UNL     1     -13.825  13.732  14.404  1.00  0.00    -0.237 OA
ATOM     96  O   UNL     1     -13.108  11.390  14.088  1.00  0.00    -0.744 OA
ENDBRANCH  89  93
ENDBRANCH  63  86
ENDBRANCH  37  38
ENDBRANCH  29  32
ENDBRANCH  27  28
ENDBRANCH   1  27
TORSDOF 17
