REMARK SMILES C[C@]1(C(=O)NCCCNC(=O)c2ccc(-c3c4nc(c(-c5cc(S(=O)(=O)[O-])ccc5F)c5ccc([nH]5)c(-c5cc(S(=O)(=O)[O-])ccc5F)c5nc(c(-c6cc(S(=O)(=O)[O-])ccc6F)c6ccc3[nH]6)C=C5)C=C4)cc2)COC[C@@H]1NC(=O)[C@H]1C=C[C@@H]([NH3+])C1
REMARK SMILES IDX 7 1 6 2 5 3 3 4 4 5 2 7 1 8 75 9 78 10 76 11 77 12 79 13
REMARK SMILES IDX 80 14 81 16 82 17 83 18 87 19 84 20 85 21 86 22 8 26 9 27
REMARK SMILES IDX 10 28 11 30 12 31 13 32 74 33 14 34 73 35 15 36 16 37 17 38
REMARK SMILES IDX 67 39 18 40 72 41 66 42 68 43 19 44 71 45 65 46 64 47 20 49
REMARK SMILES IDX 52 50 32 51 51 52 33 53 36 54 50 55 69 56 34 57 35 58 49 60
REMARK SMILES IDX 70 61 37 62 21 63 22 64 30 65 23 66 29 67 31 68 28 69 24 70
REMARK SMILES IDX 25 71 26 72 27 73 53 74 54 75 62 76 55 77 61 78 63 79 60 80
REMARK SMILES IDX 56 81 57 82 58 83 59 84 38 85 39 86 47 87 40 88 46 89 48 90
REMARK SMILES IDX 45 91 41 92 42 93 43 94 44 95
REMARK H PARENT 5 6 79 15 86 23 86 24 86 25 9 29 68 48 36 59
REMARK Flexibility Score: inf
ROOT
ATOM      1  C   UNL     1       3.075  -2.837   1.535  1.00  0.00     0.042 C 
ENDROOT
BRANCH   1   2
ATOM      2  C   UNL     1       3.146  -1.321   1.567  1.00  0.00     0.117 C 
BRANCH   2   3
ATOM      3  N   UNL     1       2.427  -0.692   0.478  1.00  0.00    -0.355 N 
ATOM      4  C   UNL     1       1.624   0.394   0.426  1.00  0.00     0.230 C 
ATOM      5  O   UNL     1       1.567   0.920  -0.692  1.00  0.00    -0.274 OA
ATOM      6  H   UNL     1       2.546  -1.142  -0.389  1.00  0.00     0.163 HD
BRANCH   4   7
ATOM      7  C   UNL     1       0.780   0.917   1.606  1.00  0.00     0.092 C 
ATOM      8  C   UNL     1      -0.306  -0.086   2.042  1.00  0.00     0.026 C 
ATOM      9  C   UNL     1       1.662   1.205   2.823  1.00  0.00     0.179 C 
ATOM     10  C   UNL     1       0.240   2.339   1.236  1.00  0.00     0.125 C 
ATOM     11  O   UNL     1       1.117   2.360   3.460  1.00  0.00    -0.378 OA
ATOM     12  C   UNL     1       0.707   3.225   2.406  1.00  0.00     0.186 C 
BRANCH  10  13
ATOM     13  N   UNL     1      -1.202   2.524   0.974  1.00  0.00    -0.349 N 
ATOM     14  C   UNL     1      -1.958   2.170  -0.117  1.00  0.00     0.227 C 
ATOM     15  H   UNL     1      -1.700   2.972   1.696  1.00  0.00     0.163 HD
ATOM     16  O   UNL     1      -3.003   2.794  -0.313  1.00  0.00    -0.274 OA
BRANCH  14  17
ATOM     17  C   UNL     1      -1.542   0.980  -0.971  1.00  0.00     0.107 C 
ATOM     18  C   UNL     1      -2.601  -0.090  -1.035  1.00  0.00    -0.012 C 
ATOM     19  C   UNL     1      -1.314   1.265  -2.452  1.00  0.00     0.087 C 
ATOM     20  C   UNL     1      -2.559  -0.719  -2.217  1.00  0.00     0.033 C 
ATOM     21  C   UNL     1      -1.517  -0.112  -3.104  1.00  0.00     0.205 C 
BRANCH  21  22
ATOM     22  N   UNL     1      -1.948  -0.017  -4.483  1.00  0.00    -0.352 N 
ATOM     23  H   UNL     1      -2.811   0.525  -4.533  1.00  0.00     0.345 HD
ATOM     24  H   UNL     1      -2.113  -0.953  -4.853  1.00  0.00     0.345 HD
ATOM     25  H   UNL     1      -1.225   0.444  -5.035  1.00  0.00     0.345 HD
ENDBRANCH  21  22
ENDBRANCH  14  17
ENDBRANCH  10  13
ENDBRANCH   4   7
ENDBRANCH   2   3
ENDBRANCH   1   2
BRANCH   1  26
ATOM     26  C   UNL     1       3.500  -3.463   0.213  1.00  0.00     0.118 C 
BRANCH  26  27
ATOM     27  N   UNL     1       4.881  -3.166  -0.143  1.00  0.00    -0.352 N 
ATOM     28  C   UNL     1       5.998  -3.971  -0.119  1.00  0.00     0.251 C 
ATOM     29  H   UNL     1       5.042  -2.244  -0.448  1.00  0.00     0.163 HD
ATOM     30  O   UNL     1       7.106  -3.468  -0.258  1.00  0.00    -0.269 OA
BRANCH  28  31
ATOM     31  C   UNL     1       5.857  -5.426   0.108  1.00  0.00     0.039 A 
ATOM     32  C   UNL     1       6.742  -6.071   0.975  1.00  0.00     0.014 A 
ATOM     33  C   UNL     1       4.846  -6.152  -0.523  1.00  0.00     0.014 A 
ATOM     34  C   UNL     1       6.550  -7.421   1.278  1.00  0.00     0.010 A 
ATOM     35  C   UNL     1       4.589  -7.462  -0.135  1.00  0.00     0.010 A 
ATOM     36  C   UNL     1       5.440  -8.115   0.768  1.00  0.00    -0.014 A 
BRANCH  36  37
ATOM     37  C   UNL     1       5.152  -9.521   1.157  1.00  0.00     0.031 A 
ATOM     38  C   UNL     1       5.100 -10.598   0.106  1.00  0.00     0.074 A 
ATOM     39  C   UNL     1       4.870  -9.814   2.443  1.00  0.00     0.049 A 
ATOM     40  N   UNL     1       4.782 -11.861   0.229  1.00  0.00    -0.248 NA
ATOM     41  C   UNL     1       5.414 -10.191  -1.273  1.00  0.00     0.031 C 
ATOM     42  C   UNL     1       4.843  -8.848   3.545  1.00  0.00     0.029 A 
ATOM     43  N   UNL     1       4.545 -11.005   3.044  1.00  0.00    -0.354 N 
ATOM     44  C   UNL     1       4.843 -12.394  -1.054  1.00  0.00     0.074 A 
ATOM     45  C   UNL     1       5.155 -11.300  -1.948  1.00  0.00     0.031 C 
ATOM     46  C   UNL     1       4.557  -9.490   4.688  1.00  0.00     0.029 A 
ATOM     47  C   UNL     1       4.322 -10.900   4.398  1.00  0.00     0.049 A 
ATOM     48  H   UNL     1       4.477 -11.854   2.551  1.00  0.00     0.167 HD
ATOM     49  C   UNL     1       4.683 -13.682  -1.448  1.00  0.00     0.034 A 
ATOM     50  C   UNL     1       3.956 -11.832   5.302  1.00  0.00     0.034 A 
ATOM     51  C   UNL     1       4.384 -14.762  -0.539  1.00  0.00     0.049 A 
ATOM     52  C   UNL     1       3.750 -13.251   4.836  1.00  0.00     0.074 A 
ATOM     53  C   UNL     1       4.254 -16.111  -0.819  1.00  0.00     0.029 A 
ATOM     54  N   UNL     1       4.160 -14.617   0.824  1.00  0.00    -0.354 N 
ATOM     55  N   UNL     1       3.864 -13.748   3.625  1.00  0.00    -0.248 NA
ATOM     56  C   UNL     1       3.376 -14.236   5.858  1.00  0.00     0.031 C 
ATOM     57  C   UNL     1       3.873 -16.767   0.356  1.00  0.00     0.029 A 
ATOM     58  C   UNL     1       3.856 -15.845   1.391  1.00  0.00     0.049 A 
ATOM     59  H   UNL     1       4.210 -13.765   1.317  1.00  0.00     0.167 HD
ATOM     60  C   UNL     1       3.609 -15.112   3.750  1.00  0.00     0.074 A 
ATOM     61  C   UNL     1       3.353 -15.358   5.154  1.00  0.00     0.031 C 
ATOM     62  C   UNL     1       3.593 -16.074   2.792  1.00  0.00     0.034 A 
BRANCH  49  63
ATOM     63  C   UNL     1       4.805 -13.980  -2.924  1.00  0.00     0.023 A 
ATOM     64  C   UNL     1       5.998 -13.741  -3.631  1.00  0.00     0.031 A 
ATOM     65  C   UNL     1       3.709 -14.488  -3.643  1.00  0.00     0.131 A 
ATOM     66  C   UNL     1       6.041 -13.930  -5.020  1.00  0.00     0.055 A 
ATOM     67  C   UNL     1       3.786 -14.761  -5.011  1.00  0.00     0.041 A 
ATOM     68  F   UNL     1       2.536 -14.716  -3.031  1.00  0.00    -0.206 F 
ATOM     69  C   UNL     1       4.952 -14.466  -5.711  1.00  0.00     0.022 A 
BRANCH  66  70
ATOM     70  S   UNL     1       7.485 -13.319  -5.931  1.00  0.00     0.124 S 
ATOM     71  O   UNL     1       7.473 -11.900  -5.582  1.00  0.00    -0.237 OA
ATOM     72  O   UNL     1       8.573 -14.107  -5.364  1.00  0.00    -0.237 OA
ATOM     73  O   UNL     1       7.160 -13.612  -7.325  1.00  0.00    -0.744 OA
ENDBRANCH  66  70
ENDBRANCH  49  63
BRANCH  50  74
ATOM     74  C   UNL     1       3.750 -11.461   6.733  1.00  0.00     0.023 A 
ATOM     75  C   UNL     1       4.549 -12.014   7.746  1.00  0.00     0.031 A 
ATOM     76  C   UNL     1       2.719 -10.583   7.115  1.00  0.00     0.131 A 
ATOM     77  C   UNL     1       4.273 -11.727   9.092  1.00  0.00     0.055 A 
ATOM     78  C   UNL     1       2.488 -10.252   8.452  1.00  0.00     0.041 A 
ATOM     79  F   UNL     1       1.926 -10.022   6.189  1.00  0.00    -0.206 F 
ATOM     80  C   UNL     1       3.258 -10.837   9.451  1.00  0.00     0.022 A 
BRANCH  77  81
ATOM     81  S   UNL     1       5.199 -12.613  10.376  1.00  0.00     0.124 S 
ATOM     82  O   UNL     1       4.903 -14.003  10.048  1.00  0.00    -0.237 OA
ATOM     83  O   UNL     1       6.566 -12.170  10.123  1.00  0.00    -0.237 OA
ATOM     84  O   UNL     1       4.607 -12.124  11.620  1.00  0.00    -0.744 OA
ENDBRANCH  77  81
ENDBRANCH  50  74
BRANCH  62  85
ATOM     85  C   UNL     1       3.336 -17.492   3.246  1.00  0.00     0.023 A 
ATOM     86  C   UNL     1       2.104 -17.883   3.799  1.00  0.00     0.031 A 
ATOM     87  C   UNL     1       4.345 -18.464   3.128  1.00  0.00     0.131 A 
ATOM     88  C   UNL     1       1.935 -19.194   4.270  1.00  0.00     0.055 A 
ATOM     89  C   UNL     1       4.146 -19.784   3.533  1.00  0.00     0.041 A 
ATOM     90  F   UNL     1       5.543 -18.147   2.611  1.00  0.00    -0.206 F 
ATOM     91  C   UNL     1       2.940 -20.152   4.122  1.00  0.00     0.022 A 
BRANCH  88  92
ATOM     92  S   UNL     1       0.417 -19.603   5.176  1.00  0.00     0.124 S 
ATOM     93  O   UNL     1       0.454 -18.645   6.275  1.00  0.00    -0.237 OA
ATOM     94  O   UNL     1      -0.616 -19.380   4.170  1.00  0.00    -0.237 OA
ATOM     95  O   UNL     1       0.615 -20.999   5.562  1.00  0.00    -0.744 OA
ENDBRANCH  88  92
ENDBRANCH  62  85
ENDBRANCH  36  37
ENDBRANCH  28  31
ENDBRANCH  26  27
ENDBRANCH   1  26
TORSDOF 16
