REMARK SMILES O=C(NCCCNC(=O)c1cccnc1C(=O)Nc1ccc(Cl)cn1)c1ccc(-c2c3nc(c(-c4cc(S(=O)(=O)[O-])ccc4F)c4ccc([nH]4)c(-c4cc(S(=O)(=O)[O-])ccc4F)c4nc(c(-c5cc(S(=O)(=O)[O-])ccc5F)c5ccc2[nH]5)C=C4)C=C3)cc1
REMARK SMILES IDX 4 1 3 2 1 3 2 4 26 6 27 7 88 8 28 9 87 10 29 11 30 12 31 13
REMARK SMILES IDX 81 14 32 15 86 16 80 17 82 18 33 19 85 20 79 21 78 22 34 24
REMARK SMILES IDX 66 25 46 26 65 27 47 28 50 29 64 30 83 31 48 32 49 33 63 35
REMARK SMILES IDX 84 36 51 37 35 38 36 39 44 40 37 41 43 42 45 43 42 44 38 45
REMARK SMILES IDX 39 46 40 47 41 48 67 49 68 50 76 51 69 52 75 53 77 54 74 55
REMARK SMILES IDX 70 56 71 57 72 58 73 59 52 60 53 61 61 62 54 63 60 64 62 65
REMARK SMILES IDX 59 66 55 67 56 68 57 69 58 70 5 71 6 72 7 73 8 74 9 76 10 77
REMARK SMILES IDX 11 78 15 79 12 80 14 81 13 82 16 83 17 84 18 85 19 87 20 88
REMARK SMILES IDX 25 89 21 90 24 91 22 92 23 93
REMARK H PARENT 3 5 82 23 50 34 7 75 18 86
REMARK Flexibility Score: inf
ROOT
ATOM      1  C   UNL     1       4.422  -1.683  -0.483  1.00  0.00     0.118 C 
ENDROOT
BRANCH   1   2
ATOM      2  N   UNL     1       3.048  -1.242  -0.663  1.00  0.00    -0.352 N 
ATOM      3  O   UNL     1       1.191  -0.031  -0.245  1.00  0.00    -0.269 OA
ATOM      4  C   UNL     1       2.377  -0.238  -0.000  1.00  0.00     0.251 C 
ATOM      5  H   UNL     1       2.530  -1.724  -1.347  1.00  0.00     0.163 HD
BRANCH   4   6
ATOM      6  C   UNL     1       3.078   0.562   1.028  1.00  0.00     0.039 A 
ATOM      7  C   UNL     1       4.311   1.157   0.752  1.00  0.00     0.014 A 
ATOM      8  C   UNL     1       2.499   0.697   2.293  1.00  0.00     0.014 A 
ATOM      9  C   UNL     1       5.030   1.761   1.782  1.00  0.00     0.010 A 
ATOM     10  C   UNL     1       3.199   1.354   3.310  1.00  0.00     0.010 A 
ATOM     11  C   UNL     1       4.492   1.848   3.076  1.00  0.00    -0.014 A 
BRANCH  11  12
ATOM     12  C   UNL     1       5.308   2.435   4.172  1.00  0.00     0.031 A 
ATOM     13  C   UNL     1       5.823   1.568   5.292  1.00  0.00     0.074 A 
ATOM     14  C   UNL     1       5.623   3.744   4.137  1.00  0.00     0.049 A 
ATOM     15  N   UNL     1       6.593   1.889   6.301  1.00  0.00    -0.248 NA
ATOM     16  C   UNL     1       5.410   0.158   5.279  1.00  0.00     0.031 C 
ATOM     17  C   UNL     1       5.181   4.688   3.108  1.00  0.00     0.029 A 
ATOM     18  N   UNL     1       6.400   4.503   4.974  1.00  0.00    -0.354 N 
ATOM     19  C   UNL     1       6.747   0.727   7.051  1.00  0.00     0.074 A 
ATOM     20  C   UNL     1       5.956  -0.295   6.397  1.00  0.00     0.031 C 
ATOM     21  C   UNL     1       5.724   5.890   3.356  1.00  0.00     0.029 A 
ATOM     22  C   UNL     1       6.514   5.816   4.581  1.00  0.00     0.049 A 
ATOM     23  H   UNL     1       6.834   4.143   5.781  1.00  0.00     0.167 HD
ATOM     24  C   UNL     1       7.488   0.528   8.171  1.00  0.00     0.034 A 
ATOM     25  C   UNL     1       7.175   6.846   5.144  1.00  0.00     0.034 A 
ATOM     26  C   UNL     1       8.277   1.556   8.810  1.00  0.00     0.049 A 
ATOM     27  C   UNL     1       7.965   6.607   6.404  1.00  0.00     0.074 A 
ATOM     28  C   UNL     1       9.097   1.448   9.921  1.00  0.00     0.029 A 
ATOM     29  N   UNL     1       8.336   2.883   8.405  1.00  0.00    -0.354 N 
ATOM     30  N   UNL     1       8.130   5.493   7.079  1.00  0.00    -0.248 NA
ATOM     31  C   UNL     1       8.666   7.766   6.971  1.00  0.00     0.031 C 
ATOM     32  C   UNL     1       9.598   2.720  10.225  1.00  0.00     0.029 A 
ATOM     33  C   UNL     1       9.150   3.610   9.262  1.00  0.00     0.049 A 
ATOM     34  H   UNL     1       7.867   3.255   7.623  1.00  0.00     0.167 HD
ATOM     35  C   UNL     1       8.978   5.813   8.135  1.00  0.00     0.074 A 
ATOM     36  C   UNL     1       9.301   7.219   7.997  1.00  0.00     0.031 C 
ATOM     37  C   UNL     1       9.451   5.016   9.127  1.00  0.00     0.034 A 
BRANCH  24  38
ATOM     38  C   UNL     1       7.441  -0.846   8.800  1.00  0.00     0.023 A 
ATOM     39  C   UNL     1       7.925  -1.985   8.133  1.00  0.00     0.031 A 
ATOM     40  C   UNL     1       6.877  -1.022  10.076  1.00  0.00     0.131 A 
ATOM     41  C   UNL     1       7.769  -3.255   8.712  1.00  0.00     0.055 A 
ATOM     42  C   UNL     1       6.797  -2.278  10.681  1.00  0.00     0.041 A 
ATOM     43  F   UNL     1       6.379   0.025  10.754  1.00  0.00    -0.206 F 
ATOM     44  C   UNL     1       7.231  -3.406   9.992  1.00  0.00     0.022 A 
BRANCH  41  45
ATOM     45  S   UNL     1       8.143  -4.718   7.705  1.00  0.00     0.124 S 
ATOM     46  O   UNL     1       7.275  -4.512   6.548  1.00  0.00    -0.237 OA
ATOM     47  O   UNL     1       9.574  -4.577   7.463  1.00  0.00    -0.237 OA
ATOM     48  O   UNL     1       7.761  -5.835   8.567  1.00  0.00    -0.744 OA
ENDBRANCH  41  45
ENDBRANCH  24  38
BRANCH  25  49
ATOM     49  C   UNL     1       7.112   8.202   4.531  1.00  0.00     0.023 A 
ATOM     50  C   UNL     1       8.259   8.807   3.995  1.00  0.00     0.031 A 
ATOM     51  C   UNL     1       5.907   8.925   4.502  1.00  0.00     0.131 A 
ATOM     52  C   UNL     1       8.187  10.113   3.488  1.00  0.00     0.055 A 
ATOM     53  C   UNL     1       5.829  10.205   3.953  1.00  0.00     0.041 A 
ATOM     54  F   UNL     1       4.781   8.388   4.998  1.00  0.00    -0.206 F 
ATOM     55  C   UNL     1       6.977  10.811   3.452  1.00  0.00     0.022 A 
BRANCH  52  56
ATOM     56  S   UNL     1       9.717  10.917   2.940  1.00  0.00     0.124 S 
ATOM     57  O   UNL     1      10.525  10.877   4.153  1.00  0.00    -0.237 OA
ATOM     58  O   UNL     1      10.146  10.042   1.854  1.00  0.00    -0.237 OA
ATOM     59  O   UNL     1       9.273  12.247   2.528  1.00  0.00    -0.744 OA
ENDBRANCH  52  56
ENDBRANCH  25  49
BRANCH  37  60
ATOM     60  C   UNL     1      10.403   5.649  10.112  1.00  0.00     0.023 A 
ATOM     61  C   UNL     1       9.986   6.652  11.005  1.00  0.00     0.031 A 
ATOM     62  C   UNL     1      11.757   5.268  10.131  1.00  0.00     0.131 A 
ATOM     63  C   UNL     1      10.925   7.285  11.834  1.00  0.00     0.055 A 
ATOM     64  C   UNL     1      12.675   5.860  11.000  1.00  0.00     0.041 A 
ATOM     65  F   UNL     1      12.211   4.317   9.299  1.00  0.00    -0.206 F 
ATOM     66  C   UNL     1      12.264   6.886  11.847  1.00  0.00     0.022 A 
BRANCH  63  67
ATOM     67  S   UNL     1      10.394   8.711  12.823  1.00  0.00     0.124 S 
ATOM     68  O   UNL     1       9.870   9.612  11.801  1.00  0.00    -0.237 OA
ATOM     69  O   UNL     1       9.405   8.118  13.718  1.00  0.00    -0.237 OA
ATOM     70  O   UNL     1      11.626   9.158  13.470  1.00  0.00    -0.744 OA
ENDBRANCH  63  67
ENDBRANCH  37  60
ENDBRANCH  11  12
ENDBRANCH   4   6
ENDBRANCH   1   2
BRANCH   1  71
ATOM     71  C   UNL     1       4.705  -3.162  -0.752  1.00  0.00     0.042 C 
BRANCH  71  72
ATOM     72  C   UNL     1       3.856  -3.887  -1.787  1.00  0.00     0.118 C 
BRANCH  72  73
ATOM     73  N   UNL     1       4.057  -3.498  -3.179  1.00  0.00    -0.352 N 
ATOM     74  C   UNL     1       4.853  -4.063  -4.155  1.00  0.00     0.253 C 
ATOM     75  H   UNL     1       3.545  -2.709  -3.467  1.00  0.00     0.163 HD
ATOM     76  O   UNL     1       4.667  -3.797  -5.339  1.00  0.00    -0.269 OA
BRANCH  74  77
ATOM     77  C   UNL     1       5.852  -5.065  -3.800  1.00  0.00     0.071 A 
ATOM     78  C   UNL     1       5.306  -6.311  -3.424  1.00  0.00     0.018 A 
ATOM     79  C   UNL     1       7.237  -4.933  -3.877  1.00  0.00     0.141 A 
ATOM     80  C   UNL     1       6.124  -7.363  -3.043  1.00  0.00     0.021 A 
ATOM     81  N   UNL     1       8.031  -5.978  -3.462  1.00  0.00    -0.250 NA
ATOM     82  C   UNL     1       7.480  -7.141  -3.060  1.00  0.00     0.112 A 
BRANCH  79  83
ATOM     83  C   UNL     1       8.116  -3.853  -4.508  1.00  0.00     0.276 C 
ATOM     84  O   UNL     1       9.344  -4.020  -4.499  1.00  0.00    -0.267 OA
ATOM     85  N   UNL     1       7.674  -2.849  -5.323  1.00  0.00    -0.305 N 
ATOM     86  H   UNL     1       8.104  -2.857  -6.209  1.00  0.00     0.171 HD
BRANCH  85  87
ATOM     87  C   UNL     1       6.757  -1.825  -5.179  1.00  0.00     0.132 A 
ATOM     88  C   UNL     1       6.280  -1.390  -3.954  1.00  0.00     0.049 A 
ATOM     89  N   UNL     1       6.396  -1.259  -6.350  1.00  0.00    -0.238 NA
ATOM     90  C   UNL     1       5.272  -0.420  -3.946  1.00  0.00     0.026 A 
ATOM     91  C   UNL     1       5.389  -0.355  -6.316  1.00  0.00     0.134 A 
ATOM     92  C   UNL     1       4.787   0.073  -5.150  1.00  0.00     0.059 A 
ATOM     93  Cl  UNL     1       3.466   1.165  -5.181  1.00  0.00    -0.083 Cl
ENDBRANCH  85  87
ENDBRANCH  79  83
ENDBRANCH  74  77
ENDBRANCH  72  73
ENDBRANCH  71  72
ENDBRANCH   1  71
TORSDOF 15
