REMARK SMILES Cc1ccc(C)c(N2C(=O)C[C@@H](SCC(=O)NCCCNC(=O)c3ccc(-c4c5nc(c(-c6cc(S(=O)(=O)[O-])ccc6F)c6ccc([nH]6)c(-c6cc(S(=O)(=O)[O-])ccc6F)c6nc(c(-c7cc(S(=O)(=O)[O-])ccc7F)c7ccc4[nH]7)C=C6)C=C5)cc3)C2=O)c1
REMARK SMILES IDX 19 1 18 2 17 3 15 4 16 5 14 7 13 8 12 9 8 10 9 11 87 12
REMARK SMILES IDX 10 13 11 14 88 15 7 16 1 17 2 18 3 19 89 20 4 21 5 22 6 23
REMARK SMILES IDX 20 24 21 25 22 26 23 28 24 29 25 30 86 31 26 32 85 33 27 34
REMARK SMILES IDX 28 35 29 36 79 37 30 38 84 39 78 40 80 41 31 42 83 43 77 44
REMARK SMILES IDX 76 45 32 47 64 48 44 49 63 50 45 51 48 52 62 53 81 54 46 55
REMARK SMILES IDX 47 56 61 58 82 59 49 60 33 61 34 62 42 63 35 64 41 65 43 66
REMARK SMILES IDX 40 67 36 68 37 69 38 70 39 71 65 72 66 73 74 74 67 75 73 76
REMARK SMILES IDX 75 77 72 78 68 79 69 80 70 81 71 82 50 83 51 84 59 85 52 86
REMARK SMILES IDX 58 87 60 88 57 89 53 90 54 91 55 92 56 93
REMARK H PARENT 17 6 21 27 80 46 48 57
REMARK Flexibility Score: inf
ROOT
ATOM      1  C   UNL     1      -6.538   4.099   3.055  1.00  0.00     0.042 C 
ENDROOT
BRANCH   1   2
ATOM      2  C   UNL     1      -6.994   5.192   2.076  1.00  0.00     0.117 C 
BRANCH   2   3
ATOM      3  N   UNL     1      -5.953   6.143   1.716  1.00  0.00    -0.355 N 
ATOM      4  C   UNL     1      -5.194   6.233   0.587  1.00  0.00     0.230 C 
ATOM      5  O   UNL     1      -4.303   7.082   0.538  1.00  0.00    -0.274 OA
ATOM      6  H   UNL     1      -5.766   6.830   2.396  1.00  0.00     0.163 HD
BRANCH   4   7
ATOM      7  C   UNL     1      -5.407   5.285  -0.572  1.00  0.00     0.170 C 
BRANCH   7   8
ATOM      8  S   UNL     1      -4.690   3.643  -0.269  1.00  0.00    -0.138 SA
BRANCH   8   9
ATOM      9  C   UNL     1      -3.026   4.104   0.385  1.00  0.00     0.146 C 
ATOM     10  N   UNL     1      -1.425   2.458  -0.062  1.00  0.00    -0.249 N 
ATOM     11  C   UNL     1      -1.175   3.455  -0.975  1.00  0.00     0.235 C 
ATOM     12  C   UNL     1      -2.372   2.828   0.862  1.00  0.00     0.247 C 
ATOM     13  O   UNL     1      -0.373   3.449  -1.895  1.00  0.00    -0.274 OA
ATOM     14  C   UNL     1      -2.071   4.624  -0.674  1.00  0.00     0.125 C 
ATOM     15  O   UNL     1      -2.675   2.254   1.903  1.00  0.00    -0.273 OA
BRANCH  10  16
ATOM     16  C   UNL     1      -0.739   1.222  -0.035  1.00  0.00     0.055 A 
ATOM     17  C   UNL     1       2.902   0.052  -0.072  1.00  0.00     0.044 C 
ATOM     18  C   UNL     1       1.403   0.036  -0.038  1.00  0.00    -0.049 A 
ATOM     19  C   UNL     1       0.723  -1.177   0.079  1.00  0.00     0.004 A 
ATOM     20  C   UNL     1       0.666   1.225  -0.115  1.00  0.00     0.030 A 
ATOM     21  C   UNL     1      -0.670  -1.199   0.125  1.00  0.00     0.006 A 
ATOM     22  C   UNL     1      -1.419  -0.010   0.062  1.00  0.00    -0.027 A 
ATOM     23  C   UNL     1      -2.917  -0.155   0.033  1.00  0.00     0.046 C 
ENDBRANCH  10  16
ENDBRANCH   8   9
ENDBRANCH   7   8
ENDBRANCH   4   7
ENDBRANCH   2   3
ENDBRANCH   1   2
BRANCH   1  24
ATOM     24  C   UNL     1      -6.237   4.556   4.482  1.00  0.00     0.118 C 
BRANCH  24  25
ATOM     25  N   UNL     1      -7.397   5.150   5.162  1.00  0.00    -0.352 N 
ATOM     26  C   UNL     1      -7.541   6.165   6.100  1.00  0.00     0.251 C 
ATOM     27  H   UNL     1      -8.253   4.743   4.896  1.00  0.00     0.163 HD
ATOM     28  O   UNL     1      -8.573   6.212   6.752  1.00  0.00    -0.269 OA
BRANCH  26  29
ATOM     29  C   UNL     1      -6.474   7.171   6.324  1.00  0.00     0.039 A 
ATOM     30  C   UNL     1      -6.476   8.064   7.400  1.00  0.00     0.014 A 
ATOM     31  C   UNL     1      -5.455   7.268   5.396  1.00  0.00     0.014 A 
ATOM     32  C   UNL     1      -5.472   9.037   7.460  1.00  0.00     0.010 A 
ATOM     33  C   UNL     1      -4.301   7.935   5.661  1.00  0.00     0.010 A 
ATOM     34  C   UNL     1      -4.400   8.969   6.556  1.00  0.00    -0.014 A 
BRANCH  34  35
ATOM     35  C   UNL     1      -3.319   9.931   6.497  1.00  0.00     0.031 A 
ATOM     36  C   UNL     1      -2.461   9.909   7.684  1.00  0.00     0.074 A 
ATOM     37  C   UNL     1      -2.924  10.588   5.383  1.00  0.00     0.049 A 
ATOM     38  N   UNL     1      -2.521  10.712   8.687  1.00  0.00    -0.248 NA
ATOM     39  C   UNL     1      -1.581   8.750   7.882  1.00  0.00     0.031 C 
ATOM     40  C   UNL     1      -3.406  10.448   4.004  1.00  0.00     0.029 A 
ATOM     41  N   UNL     1      -1.903  11.481   5.256  1.00  0.00    -0.354 N 
ATOM     42  C   UNL     1      -1.486  10.327   9.520  1.00  0.00     0.074 A 
ATOM     43  C   UNL     1      -1.149   8.986   9.122  1.00  0.00     0.031 C 
ATOM     44  C   UNL     1      -2.562  11.091   3.162  1.00  0.00     0.029 A 
ATOM     45  C   UNL     1      -1.570  11.809   3.947  1.00  0.00     0.049 A 
ATOM     46  H   UNL     1      -1.437  11.865   6.033  1.00  0.00     0.167 HD
ATOM     47  C   UNL     1      -0.820  11.250  10.264  1.00  0.00     0.034 A 
ATOM     48  C   UNL     1      -0.541  12.600   3.543  1.00  0.00     0.034 A 
ATOM     49  C   UNL     1      -1.524  12.523  10.253  1.00  0.00     0.049 A 
ATOM     50  C   UNL     1      -0.202  13.479   4.693  1.00  0.00     0.074 A 
ATOM     51  C   UNL     1      -2.815  12.914  10.562  1.00  0.00     0.029 A 
ATOM     52  N   UNL     1      -1.018  13.540   9.467  1.00  0.00    -0.354 N 
ATOM     53  N   UNL     1      -1.017  14.381   5.169  1.00  0.00    -0.248 NA
ATOM     54  C   UNL     1       0.837  13.046   5.616  1.00  0.00     0.031 C 
ATOM     55  C   UNL     1      -3.173  13.852   9.547  1.00  0.00     0.029 A 
ATOM     56  C   UNL     1      -2.059  14.055   8.729  1.00  0.00     0.049 A 
ATOM     57  H   UNL     1      -0.081  13.841   9.439  1.00  0.00     0.167 HD
ATOM     58  C   UNL     1      -0.886  14.295   6.547  1.00  0.00     0.074 A 
ATOM     59  C   UNL     1       0.350  13.544   6.757  1.00  0.00     0.031 C 
ATOM     60  C   UNL     1      -1.930  14.586   7.380  1.00  0.00     0.034 A 
BRANCH  47  61
ATOM     61  C   UNL     1       0.622  11.132  10.698  1.00  0.00     0.023 A 
ATOM     62  C   UNL     1       1.130  12.183  11.481  1.00  0.00     0.031 A 
ATOM     63  C   UNL     1       1.582  10.216  10.208  1.00  0.00     0.131 A 
ATOM     64  C   UNL     1       2.512  12.355  11.654  1.00  0.00     0.055 A 
ATOM     65  C   UNL     1       2.953  10.348  10.448  1.00  0.00     0.041 A 
ATOM     66  F   UNL     1       1.279   9.196   9.400  1.00  0.00    -0.206 F 
ATOM     67  C   UNL     1       3.430  11.442  11.145  1.00  0.00     0.022 A 
BRANCH  64  68
ATOM     68  S   UNL     1       3.087  13.899  12.398  1.00  0.00     0.124 S 
ATOM     69  O   UNL     1       2.414  14.891  11.566  1.00  0.00    -0.237 OA
ATOM     70  O   UNL     1       2.600  13.768  13.768  1.00  0.00    -0.237 OA
ATOM     71  O   UNL     1       4.537  13.830  12.240  1.00  0.00    -0.744 OA
ENDBRANCH  64  68
ENDBRANCH  47  61
BRANCH  48  72
ATOM     72  C   UNL     1       0.313  12.454   2.333  1.00  0.00     0.023 A 
ATOM     73  C   UNL     1       1.121  13.499   1.835  1.00  0.00     0.031 A 
ATOM     74  C   UNL     1       0.534  11.170   1.786  1.00  0.00     0.131 A 
ATOM     75  C   UNL     1       2.096  13.237   0.843  1.00  0.00     0.055 A 
ATOM     76  C   UNL     1       1.493  10.918   0.802  1.00  0.00     0.041 A 
ATOM     77  F   UNL     1      -0.114  10.093   2.258  1.00  0.00    -0.206 F 
ATOM     78  C   UNL     1       2.287  11.951   0.332  1.00  0.00     0.022 A 
BRANCH  75  79
ATOM     79  S   UNL     1       3.220  14.557   0.278  1.00  0.00     0.124 S 
ATOM     80  O   UNL     1       2.331  15.407  -0.506  1.00  0.00    -0.237 OA
ATOM     81  O   UNL     1       3.709  15.113   1.534  1.00  0.00    -0.237 OA
ATOM     82  O   UNL     1       4.228  13.837  -0.503  1.00  0.00    -0.744 OA
ENDBRANCH  75  79
ENDBRANCH  48  72
BRANCH  60  83
ATOM     83  C   UNL     1      -3.134  15.317   6.807  1.00  0.00     0.023 A 
ATOM     84  C   UNL     1      -3.897  14.881   5.698  1.00  0.00     0.031 A 
ATOM     85  C   UNL     1      -3.588  16.457   7.495  1.00  0.00     0.131 A 
ATOM     86  C   UNL     1      -5.055  15.588   5.312  1.00  0.00     0.055 A 
ATOM     87  C   UNL     1      -4.746  17.141   7.124  1.00  0.00     0.041 A 
ATOM     88  F   UNL     1      -2.925  16.913   8.571  1.00  0.00    -0.206 F 
ATOM     89  C   UNL     1      -5.481  16.712   6.026  1.00  0.00     0.022 A 
BRANCH  86  90
ATOM     90  S   UNL     1      -6.023  15.067   3.858  1.00  0.00     0.124 S 
ATOM     91  O   UNL     1      -5.012  14.863   2.828  1.00  0.00    -0.237 OA
ATOM     92  O   UNL     1      -6.697  13.864   4.340  1.00  0.00    -0.237 OA
ATOM     93  O   UNL     1      -6.914  16.204   3.617  1.00  0.00    -0.744 OA
ENDBRANCH  86  90
ENDBRANCH  60  83
ENDBRANCH  34  35
ENDBRANCH  26  29
ENDBRANCH  24  25
ENDBRANCH   1  24
TORSDOF 16
