REMARK SMILES C#CC[C@]1(C(=O)NCCCNC(=O)c2ccc(-c3c4nc(c(-c5cc(S(=O)(=O)[O-])ccc5F)c5ccc([nH]5)c(-c5cc(S(=O)(=O)[O-])ccc5F)c5nc(c(-c6cc(S(=O)(=O)[O-])ccc6F)c6ccc3[nH]6)C=C5)C=C4)cc2)CC[C@@H](C)C1
REMARK SMILES IDX 9 1 8 2 7 3 5 4 6 5 4 7 77 8 81 9 78 10 79 11 80 12 3 13
REMARK SMILES IDX 2 14 1 15 10 16 11 17 12 18 13 20 14 21 15 22 76 23 16 24
REMARK SMILES IDX 75 25 17 26 18 27 19 28 69 29 20 30 74 31 68 32 70 33 21 34
REMARK SMILES IDX 73 35 67 36 66 37 22 39 54 40 34 41 53 42 35 43 38 44 52 45
REMARK SMILES IDX 71 46 36 47 37 48 51 50 72 51 39 52 23 53 24 54 32 55 25 56
REMARK SMILES IDX 31 57 33 58 30 59 26 60 27 61 28 62 29 63 55 64 56 65 64 66
REMARK SMILES IDX 57 67 63 68 65 69 62 70 58 71 59 72 60 73 61 74 40 75 41 76
REMARK SMILES IDX 49 77 42 78 48 79 50 80 47 81 43 82 44 83 45 84 46 85
REMARK H PARENT 7 6 11 19 70 38 38 49
REMARK Flexibility Score: inf
ROOT
ATOM      1  C   UNL     1      -4.774   0.616  -1.787  1.00  0.00     0.042 C 
ENDROOT
BRANCH   1   2
ATOM      2  C   UNL     1      -3.638  -0.361  -1.597  1.00  0.00     0.117 C 
BRANCH   2   3
ATOM      3  N   UNL     1      -2.448   0.230  -1.042  1.00  0.00    -0.356 N 
ATOM      4  C   UNL     1      -1.782  -0.007   0.112  1.00  0.00     0.227 C 
ATOM      5  O   UNL     1      -0.604   0.377   0.112  1.00  0.00    -0.274 OA
ATOM      6  H   UNL     1      -2.047   0.932  -1.602  1.00  0.00     0.163 HD
BRANCH   4   7
ATOM      7  C   UNL     1      -2.363  -0.714   1.369  1.00  0.00     0.060 C 
ATOM      8  C   UNL     1      -3.890  -0.902   1.467  1.00  0.00     0.018 C 
ATOM      9  C   UNL     1      -1.825  -2.164   1.435  1.00  0.00     0.021 C 
ATOM     10  C   UNL     1      -4.206  -2.356   1.068  1.00  0.00     0.004 C 
ATOM     11  C   UNL     1      -2.877  -3.057   0.773  1.00  0.00    -0.013 C 
ATOM     12  C   UNL     1      -2.589  -3.327  -0.706  1.00  0.00     0.007 C 
BRANCH   7  13
ATOM     13  C   UNL     1      -1.758   0.146   2.531  1.00  0.00     0.106 C 
BRANCH  13  14
ATOM     14  C   UNL     1      -2.498   0.155   3.806  1.00  0.00    -0.106 C 
ATOM     15  C   UNL     1      -3.129   0.258   4.819  1.00  0.00     0.004 C 
ENDBRANCH  13  14
ENDBRANCH   7  13
ENDBRANCH   4   7
ENDBRANCH   2   3
ENDBRANCH   1   2
BRANCH   1  16
ATOM     16  C   UNL     1      -4.762   1.194  -3.187  1.00  0.00     0.118 C 
BRANCH  16  17
ATOM     17  N   UNL     1      -4.947   0.161  -4.212  1.00  0.00    -0.352 N 
ATOM     18  C   UNL     1      -5.923   0.044  -5.171  1.00  0.00     0.251 C 
ATOM     19  H   UNL     1      -4.270  -0.554  -4.213  1.00  0.00     0.163 HD
ATOM     20  O   UNL     1      -6.041  -0.994  -5.811  1.00  0.00    -0.269 OA
BRANCH  18  21
ATOM     21  C   UNL     1      -6.832   1.182  -5.381  1.00  0.00     0.039 A 
ATOM     22  C   UNL     1      -8.205   0.965  -5.483  1.00  0.00     0.014 A 
ATOM     23  C   UNL     1      -6.308   2.474  -5.375  1.00  0.00     0.014 A 
ATOM     24  C   UNL     1      -9.065   2.062  -5.490  1.00  0.00     0.010 A 
ATOM     25  C   UNL     1      -7.165   3.547  -5.233  1.00  0.00     0.010 A 
ATOM     26  C   UNL     1      -8.552   3.356  -5.314  1.00  0.00    -0.014 A 
BRANCH  26  27
ATOM     27  C   UNL     1      -9.415   4.560  -5.269  1.00  0.00     0.031 A 
ATOM     28  C   UNL     1      -9.174   5.653  -6.273  1.00  0.00     0.074 A 
ATOM     29  C   UNL     1     -10.310   4.721  -4.277  1.00  0.00     0.049 A 
ATOM     30  N   UNL     1      -9.644   6.870  -6.303  1.00  0.00    -0.248 NA
ATOM     31  C   UNL     1      -8.223   5.346  -7.354  1.00  0.00     0.031 C 
ATOM     32  C   UNL     1     -10.605   3.740  -3.231  1.00  0.00     0.029 A 
ATOM     33  N   UNL     1     -11.122   5.784  -3.974  1.00  0.00    -0.354 N 
ATOM     34  C   UNL     1      -9.018   7.484  -7.382  1.00  0.00     0.074 A 
ATOM     35  C   UNL     1      -8.073   6.531  -7.919  1.00  0.00     0.031 C 
ATOM     36  C   UNL     1     -11.546   4.239  -2.415  1.00  0.00     0.029 A 
ATOM     37  C   UNL     1     -11.871   5.599  -2.835  1.00  0.00     0.049 A 
ATOM     38  H   UNL     1     -11.165   6.602  -4.520  1.00  0.00     0.167 HD
ATOM     39  C   UNL     1      -9.234   8.720  -7.893  1.00  0.00     0.034 A 
ATOM     40  C   UNL     1     -12.699   6.441  -2.187  1.00  0.00     0.034 A 
ATOM     41  C   UNL     1     -10.193   9.642  -7.340  1.00  0.00     0.049 A 
ATOM     42  C   UNL     1     -12.901   7.829  -2.741  1.00  0.00     0.074 A 
ATOM     43  C   UNL     1     -10.544  10.897  -7.801  1.00  0.00     0.029 A 
ATOM     44  N   UNL     1     -10.944   9.412  -6.192  1.00  0.00    -0.354 N 
ATOM     45  N   UNL     1     -12.332   8.391  -3.784  1.00  0.00    -0.248 NA
ATOM     46  C   UNL     1     -13.858   8.694  -2.040  1.00  0.00     0.031 C 
ATOM     47  C   UNL     1     -11.431  11.464  -6.881  1.00  0.00     0.029 A 
ATOM     48  C   UNL     1     -11.725  10.520  -5.908  1.00  0.00     0.049 A 
ATOM     49  H   UNL     1     -10.923   8.585  -5.660  1.00  0.00     0.167 HD
ATOM     50  C   UNL     1     -12.895   9.660  -3.888  1.00  0.00     0.074 A 
ATOM     51  C   UNL     1     -13.841   9.783  -2.797  1.00  0.00     0.031 C 
ATOM     52  C   UNL     1     -12.665  10.627  -4.814  1.00  0.00     0.034 A 
BRANCH  39  53
ATOM     53  C   UNL     1      -8.385   9.140  -9.071  1.00  0.00     0.023 A 
ATOM     54  C   UNL     1      -8.365   8.405 -10.271  1.00  0.00     0.031 A 
ATOM     55  C   UNL     1      -7.524  10.246  -8.968  1.00  0.00     0.131 A 
ATOM     56  C   UNL     1      -7.423   8.710 -11.264  1.00  0.00     0.055 A 
ATOM     57  C   UNL     1      -6.668  10.614 -10.009  1.00  0.00     0.041 A 
ATOM     58  F   UNL     1      -7.474  10.974  -7.841  1.00  0.00    -0.206 F 
ATOM     59  C   UNL     1      -6.596   9.829 -11.155  1.00  0.00     0.022 A 
BRANCH  56  60
ATOM     60  S   UNL     1      -7.149   7.501 -12.589  1.00  0.00     0.124 S 
ATOM     61  O   UNL     1      -6.821   6.299 -11.825  1.00  0.00    -0.237 OA
ATOM     62  O   UNL     1      -8.435   7.490 -13.276  1.00  0.00    -0.237 OA
ATOM     63  O   UNL     1      -6.037   8.070 -13.347  1.00  0.00    -0.744 OA
ENDBRANCH  56  60
ENDBRANCH  39  53
BRANCH  40  64
ATOM     64  C   UNL     1     -13.378   5.999  -0.935  1.00  0.00     0.023 A 
ATOM     65  C   UNL     1     -14.771   5.846  -0.878  1.00  0.00     0.031 A 
ATOM     66  C   UNL     1     -12.635   5.717   0.227  1.00  0.00     0.131 A 
ATOM     67  C   UNL     1     -15.383   5.450   0.323  1.00  0.00     0.055 A 
ATOM     68  C   UNL     1     -13.242   5.270   1.401  1.00  0.00     0.041 A 
ATOM     69  F   UNL     1     -11.299   5.844   0.226  1.00  0.00    -0.206 F 
ATOM     70  C   UNL     1     -14.626   5.143   1.456  1.00  0.00     0.022 A 
BRANCH  67  71
ATOM     71  S   UNL     1     -17.194   5.407   0.405  1.00  0.00     0.124 S 
ATOM     72  O   UNL     1     -17.536   6.793   0.104  1.00  0.00    -0.237 OA
ATOM     73  O   UNL     1     -17.523   4.426  -0.623  1.00  0.00    -0.237 OA
ATOM     74  O   UNL     1     -17.462   4.981   1.777  1.00  0.00    -0.744 OA
ENDBRANCH  67  71
ENDBRANCH  40  64
BRANCH  52  75
ATOM     75  C   UNL     1     -13.505  11.879  -4.746  1.00  0.00     0.023 A 
ATOM     76  C   UNL     1     -13.393  12.808  -3.699  1.00  0.00     0.031 A 
ATOM     77  C   UNL     1     -14.404  12.165  -5.792  1.00  0.00     0.131 A 
ATOM     78  C   UNL     1     -14.189  13.965  -3.707  1.00  0.00     0.055 A 
ATOM     79  C   UNL     1     -15.142  13.347  -5.827  1.00  0.00     0.041 A 
ATOM     80  F   UNL     1     -14.558  11.307  -6.813  1.00  0.00    -0.206 F 
ATOM     81  C   UNL     1     -15.042  14.252  -4.776  1.00  0.00     0.022 A 
BRANCH  78  82
ATOM     82  S   UNL     1     -14.155  15.061  -2.262  1.00  0.00     0.124 S 
ATOM     83  O   UNL     1     -14.570  14.162  -1.190  1.00  0.00    -0.237 OA
ATOM     84  O   UNL     1     -12.761  15.492  -2.228  1.00  0.00    -0.237 OA
ATOM     85  O   UNL     1     -15.118  16.107  -2.602  1.00  0.00    -0.744 OA
ENDBRANCH  78  82
ENDBRANCH  52  75
ENDBRANCH  26  27
ENDBRANCH  18  21
ENDBRANCH  16  17
ENDBRANCH   1  16
TORSDOF 15
