REMARK SMILES C[C@H](C(=O)NCCCNC(=O)c1ccc(-c2c3nc(c(-c4cc(S(=O)(=O)[O-])ccc4F)c4ccc([nH]4)c(-c4cc(S(=O)(=O)[O-])ccc4F)c4nc(c(-c5cc(S(=O)(=O)[O-])ccc5F)c5ccc2[nH]5)C=C4)C=C3)cc1)[C@H](C)[NH+]1CC[NH+](CCO)CC1
REMARK SMILES IDX 6 1 5 2 3 3 4 4 2 6 1 7 75 8 76 9 77 10 78 11 85 12 79 14
REMARK SMILES IDX 84 15 80 16 81 18 82 19 83 20 7 22 8 23 9 24 10 25 11 27
REMARK SMILES IDX 12 28 13 29 74 30 14 31 73 32 15 33 16 34 17 35 67 36 18 37
REMARK SMILES IDX 72 38 66 39 68 40 19 41 71 42 65 43 64 44 20 46 52 47 32 48
REMARK SMILES IDX 51 49 33 50 36 51 50 52 69 53 34 54 35 55 49 57 70 58 37 59
REMARK SMILES IDX 21 60 22 61 30 62 23 63 29 64 31 65 28 66 24 67 25 68 26 69
REMARK SMILES IDX 27 70 53 71 54 72 62 73 55 74 61 75 63 76 60 77 56 78 57 79
REMARK SMILES IDX 58 80 59 81 38 82 39 83 47 84 40 85 46 86 48 87 45 88 41 89
REMARK SMILES IDX 42 90 43 91 44 92
REMARK H PARENT 5 5 77 13 80 17 83 21 9 26 68 45 36 56
REMARK Flexibility Score: inf
ROOT
ATOM      1  C   UNL     1      -4.386   2.199   1.722  1.00  0.00     0.117 C 
ENDROOT
BRANCH   1   2
ATOM      2  N   UNL     1      -3.079   2.194   2.385  1.00  0.00    -0.356 N 
ATOM      3  C   UNL     1      -1.839   1.749   2.027  1.00  0.00     0.228 C 
ATOM      4  O   UNL     1      -0.899   2.253   2.658  1.00  0.00    -0.275 OA
ATOM      5  H   UNL     1      -3.099   2.600   3.282  1.00  0.00     0.163 HD
BRANCH   3   6
ATOM      6  C   UNL     1      -1.542   0.623   1.024  1.00  0.00     0.133 C 
ATOM      7  C   UNL     1      -2.707  -0.250   0.571  1.00  0.00     0.024 C 
BRANCH   6   8
ATOM      8  C   UNL     1      -0.462   0.887  -0.108  1.00  0.00     0.193 C 
ATOM      9  C   UNL     1       0.961   0.867   0.492  1.00  0.00     0.076 C 
BRANCH   8  10
ATOM     10  N   UNL     1      -0.561   1.870  -1.212  1.00  0.00    -0.323 N 
ATOM     11  C   UNL     1      -1.870   2.097  -1.821  1.00  0.00     0.324 C 
ATOM     12  C   UNL     1       0.141   3.158  -1.091  1.00  0.00     0.324 C 
ATOM     13  H   UNL     1      -0.011   1.297  -1.852  1.00  0.00     0.348 HD
ATOM     14  C   UNL     1      -2.665   3.200  -1.102  1.00  0.00     0.324 C 
ATOM     15  C   UNL     1      -0.649   4.252  -0.354  1.00  0.00     0.324 C 
ATOM     16  N   UNL     1      -1.970   4.504  -0.983  1.00  0.00    -0.324 N 
ATOM     17  H   UNL     1      -1.883   4.920  -1.910  1.00  0.00     0.348 HD
BRANCH  16  18
ATOM     18  C   UNL     1      -2.724   5.446  -0.120  1.00  0.00     0.291 C 
BRANCH  18  19
ATOM     19  C   UNL     1      -3.805   6.256  -0.849  1.00  0.00     0.217 C 
BRANCH  19  20
ATOM     20  O   UNL     1      -4.752   5.426  -1.506  1.00  0.00    -0.391 OA
ATOM     21  H   UNL     1      -4.301   4.891  -2.178  1.00  0.00     0.210 HD
ENDBRANCH  19  20
ENDBRANCH  18  19
ENDBRANCH  16  18
ENDBRANCH   8  10
ENDBRANCH   6   8
ENDBRANCH   3   6
ENDBRANCH   1   2
BRANCH   1  22
ATOM     22  C   UNL     1      -5.571   2.526   2.620  1.00  0.00     0.042 C 
BRANCH  22  23
ATOM     23  C   UNL     1      -5.487   3.867   3.343  1.00  0.00     0.118 C 
BRANCH  23  24
ATOM     24  N   UNL     1      -5.546   5.059   2.499  1.00  0.00    -0.352 N 
ATOM     25  C   UNL     1      -6.524   6.008   2.277  1.00  0.00     0.251 C 
ATOM     26  H   UNL     1      -4.721   5.217   1.985  1.00  0.00     0.163 HD
ATOM     27  O   UNL     1      -6.286   6.965   1.553  1.00  0.00    -0.269 OA
BRANCH  25  28
ATOM     28  C   UNL     1      -7.872   5.850   2.858  1.00  0.00     0.039 A 
ATOM     29  C   UNL     1      -8.995   6.082   2.057  1.00  0.00     0.014 A 
ATOM     30  C   UNL     1      -8.035   5.425   4.169  1.00  0.00     0.014 A 
ATOM     31  C   UNL     1     -10.263   5.737   2.531  1.00  0.00     0.010 A 
ATOM     32  C   UNL     1      -9.264   4.934   4.577  1.00  0.00     0.010 A 
ATOM     33  C   UNL     1     -10.395   5.072   3.760  1.00  0.00    -0.014 A 
BRANCH  33  34
ATOM     34  C   UNL     1     -11.684   4.491   4.223  1.00  0.00     0.031 A 
ATOM     35  C   UNL     1     -12.213   4.852   5.587  1.00  0.00     0.074 A 
ATOM     36  C   UNL     1     -12.294   3.543   3.481  1.00  0.00     0.049 A 
ATOM     37  N   UNL     1     -13.179   4.301   6.275  1.00  0.00    -0.248 NA
ATOM     38  C   UNL     1     -11.514   5.933   6.301  1.00  0.00     0.031 C 
ATOM     39  C   UNL     1     -11.836   3.057   2.175  1.00  0.00     0.029 A 
ATOM     40  N   UNL     1     -13.424   2.802   3.722  1.00  0.00    -0.354 N 
ATOM     41  C   UNL     1     -13.164   4.930   7.516  1.00  0.00     0.074 A 
ATOM     42  C   UNL     1     -12.049   5.850   7.508  1.00  0.00     0.031 C 
ATOM     43  C   UNL     1     -12.697   2.135   1.716  1.00  0.00     0.029 A 
ATOM     44  C   UNL     1     -13.733   1.914   2.716  1.00  0.00     0.049 A 
ATOM     45  H   UNL     1     -13.964   2.896   4.540  1.00  0.00     0.167 HD
ATOM     46  C   UNL     1     -14.022   4.776   8.555  1.00  0.00     0.034 A 
ATOM     47  C   UNL     1     -14.733   1.015   2.618  1.00  0.00     0.034 A 
ATOM     48  C   UNL     1     -15.168   3.903   8.509  1.00  0.00     0.049 A 
ATOM     49  C   UNL     1     -15.707   0.904   3.763  1.00  0.00     0.074 A 
ATOM     50  C   UNL     1     -16.158   3.728   9.460  1.00  0.00     0.029 A 
ATOM     51  N   UNL     1     -15.486   3.070   7.444  1.00  0.00    -0.354 N 
ATOM     52  N   UNL     1     -15.707   1.542   4.911  1.00  0.00    -0.248 NA
ATOM     53  C   UNL     1     -16.820  -0.039   3.597  1.00  0.00     0.031 C 
ATOM     54  C   UNL     1     -17.045   2.753   8.991  1.00  0.00     0.029 A 
ATOM     55  C   UNL     1     -16.647   2.368   7.720  1.00  0.00     0.049 A 
ATOM     56  H   UNL     1     -14.962   2.990   6.614  1.00  0.00     0.167 HD
ATOM     57  C   UNL     1     -16.839   1.100   5.590  1.00  0.00     0.074 A 
ATOM     58  C   UNL     1     -17.505   0.158   4.713  1.00  0.00     0.031 C 
ATOM     59  C   UNL     1     -17.290   1.437   6.825  1.00  0.00     0.034 A 
BRANCH  46  60
ATOM     60  C   UNL     1     -13.746   5.563   9.815  1.00  0.00     0.023 A 
ATOM     61  C   UNL     1     -13.740   6.969   9.822  1.00  0.00     0.031 A 
ATOM     62  C   UNL     1     -13.453   4.900  11.020  1.00  0.00     0.131 A 
ATOM     63  C   UNL     1     -13.363   7.664  10.981  1.00  0.00     0.055 A 
ATOM     64  C   UNL     1     -13.166   5.600  12.195  1.00  0.00     0.041 A 
ATOM     65  F   UNL     1     -13.425   3.559  11.074  1.00  0.00    -0.206 F 
ATOM     66  C   UNL     1     -13.103   6.990  12.176  1.00  0.00     0.022 A 
BRANCH  63  67
ATOM     67  S   UNL     1     -13.079   9.451  10.862  1.00  0.00     0.124 S 
ATOM     68  O   UNL     1     -11.979   9.509   9.902  1.00  0.00    -0.237 OA
ATOM     69  O   UNL     1     -14.366   9.945  10.388  1.00  0.00    -0.237 OA
ATOM     70  O   UNL     1     -12.727   9.834  12.228  1.00  0.00    -0.744 OA
ENDBRANCH  63  67
ENDBRANCH  46  60
BRANCH  47  71
ATOM     71  C   UNL     1     -14.876   0.156   1.406  1.00  0.00     0.023 A 
ATOM     72  C   UNL     1     -16.007   0.265   0.579  1.00  0.00     0.031 A 
ATOM     73  C   UNL     1     -13.917  -0.819   1.079  1.00  0.00     0.131 A 
ATOM     74  C   UNL     1     -16.181  -0.622  -0.495  1.00  0.00     0.055 A 
ATOM     75  C   UNL     1     -14.066  -1.661  -0.025  1.00  0.00     0.041 A 
ATOM     76  F   UNL     1     -12.812  -0.963   1.828  1.00  0.00    -0.206 F 
ATOM     77  C   UNL     1     -15.212  -1.576  -0.810  1.00  0.00     0.022 A 
BRANCH  74  78
ATOM     78  S   UNL     1     -17.746  -0.577  -1.411  1.00  0.00     0.124 S 
ATOM     79  O   UNL     1     -18.721  -0.762  -0.343  1.00  0.00    -0.237 OA
ATOM     80  O   UNL     1     -17.701   0.750  -2.018  1.00  0.00    -0.237 OA
ATOM     81  O   UNL     1     -17.624  -1.693  -2.346  1.00  0.00    -0.744 OA
ENDBRANCH  74  78
ENDBRANCH  47  71
BRANCH  59  82
ATOM     82  C   UNL     1     -18.589   0.815   7.266  1.00  0.00     0.023 A 
ATOM     83  C   UNL     1     -18.695  -0.561   7.530  1.00  0.00     0.031 A 
ATOM     84  C   UNL     1     -19.738   1.612   7.414  1.00  0.00     0.131 A 
ATOM     85  C   UNL     1     -19.938  -1.109   7.875  1.00  0.00     0.055 A 
ATOM     86  C   UNL     1     -20.958   1.071   7.817  1.00  0.00     0.041 A 
ATOM     87  F   UNL     1     -19.689   2.932   7.174  1.00  0.00    -0.206 F 
ATOM     88  C   UNL     1     -21.066  -0.300   8.037  1.00  0.00     0.022 A 
BRANCH  85  89
ATOM     89  S   UNL     1     -20.080  -2.910   8.023  1.00  0.00     0.124 S 
ATOM     90  O   UNL     1     -19.677  -3.357   6.693  1.00  0.00    -0.237 OA
ATOM     91  O   UNL     1     -19.147  -3.209   9.105  1.00  0.00    -0.237 OA
ATOM     92  O   UNL     1     -21.490  -3.118   8.346  1.00  0.00    -0.744 OA
ENDBRANCH  85  89
ENDBRANCH  59  82
ENDBRANCH  33  34
ENDBRANCH  25  28
ENDBRANCH  23  24
ENDBRANCH  22  23
ENDBRANCH   1  22
TORSDOF 18
