REMARK SMILES C[C@H](NC(=O)NCCc1ccccc1F)C(=O)NCCCNC(=O)c1ccc(-c2c3nc(c(-c4cc(S(=O)(=O)[O-])ccc4F)c4ccc([nH]4)c(-c4cc(S(=O)(=O)[O-])ccc4F)c4nc(c(-c5cc(S(=O)(=O)[O-])ccc5F)c5ccc2[nH]5)C=C4)C=C3)cc1
REMARK SMILES IDX 19 1 18 2 16 3 17 4 2 6 1 7 3 8 4 9 5 11 6 12 7 14 8 15 9 16
REMARK SMILES IDX 10 17 14 18 11 19 13 20 15 21 12 22 20 23 21 24 22 25 23 26
REMARK SMILES IDX 24 28 25 29 26 30 87 31 27 32 86 33 28 34 29 35 30 36 80 37
REMARK SMILES IDX 31 38 85 39 79 40 81 41 32 42 84 43 78 44 77 45 33 47 65 48
REMARK SMILES IDX 45 49 64 50 46 51 49 52 63 53 82 54 47 55 48 56 62 58 83 59
REMARK SMILES IDX 50 60 34 61 35 62 43 63 36 64 42 65 44 66 41 67 37 68 38 69
REMARK SMILES IDX 39 70 40 71 66 72 67 73 75 74 68 75 74 76 76 77 73 78 69 79
REMARK SMILES IDX 70 80 71 81 72 82 51 83 52 84 60 85 53 86 59 87 61 88 58 89
REMARK SMILES IDX 54 90 55 91 56 92 57 93
REMARK H PARENT 18 5 3 10 6 13 22 27 81 46 49 57
REMARK Flexibility Score: inf
ROOT
ATOM      1  C   UNL     1      -1.377  -2.058   0.680  1.00  0.00     0.117 C 
ENDROOT
BRANCH   1   2
ATOM      2  N   UNL     1      -1.839  -1.211  -0.389  1.00  0.00    -0.354 N 
ATOM      3  C   UNL     1      -1.131  -0.561  -1.351  1.00  0.00     0.242 C 
ATOM      4  O   UNL     1      -1.783  -0.119  -2.305  1.00  0.00    -0.273 OA
ATOM      5  H   UNL     1      -2.814  -1.083  -0.430  1.00  0.00     0.163 HD
BRANCH   3   6
ATOM      6  C   UNL     1       0.419  -0.491  -1.387  1.00  0.00     0.170 C 
ATOM      7  C   UNL     1       1.007  -1.513  -2.350  1.00  0.00     0.041 C 
BRANCH   6   8
ATOM      8  N   UNL     1       1.141  -0.233  -0.133  1.00  0.00    -0.327 N 
ATOM      9  C   UNL     1       1.785  -0.822   0.865  1.00  0.00     0.315 C 
ATOM     10  H   UNL     1       1.148   0.739   0.025  1.00  0.00     0.166 HD
ATOM     11  O   UNL     1       2.171  -0.085   1.777  1.00  0.00    -0.249 OA
ATOM     12  N   UNL     1       2.048  -2.116   0.996  1.00  0.00    -0.338 N 
ATOM     13  H   UNL     1       2.498  -2.313   1.849  1.00  0.00     0.165 HD
BRANCH  12  14
ATOM     14  C   UNL     1       1.842  -3.315   0.206  1.00  0.00     0.122 C 
BRANCH  14  15
ATOM     15  C   UNL     1       3.140  -3.836  -0.409  1.00  0.00     0.060 C 
BRANCH  15  16
ATOM     16  C   UNL     1       3.739  -4.894   0.481  1.00  0.00    -0.010 A 
ATOM     17  C   UNL     1       4.309  -4.556   1.715  1.00  0.00     0.007 A 
ATOM     18  C   UNL     1       3.625  -6.245   0.140  1.00  0.00     0.126 A 
ATOM     19  C   UNL     1       4.707  -5.556   2.603  1.00  0.00     0.000 A 
ATOM     20  C   UNL     1       4.037  -7.245   1.013  1.00  0.00     0.039 A 
ATOM     21  F   UNL     1       3.076  -6.596  -1.032  1.00  0.00    -0.207 F 
ATOM     22  C   UNL     1       4.566  -6.900   2.255  1.00  0.00     0.003 A 
ENDBRANCH  15  16
ENDBRANCH  14  15
ENDBRANCH  12  14
ENDBRANCH   6   8
ENDBRANCH   3   6
ENDBRANCH   1   2
BRANCH   1  23
ATOM     23  C   UNL     1      -1.530  -1.450   2.062  1.00  0.00     0.042 C 
BRANCH  23  24
ATOM     24  C   UNL     1      -2.960  -1.503   2.577  1.00  0.00     0.118 C 
BRANCH  24  25
ATOM     25  N   UNL     1      -3.451  -2.869   2.717  1.00  0.00    -0.352 N 
ATOM     26  C   UNL     1      -4.052  -3.492   3.779  1.00  0.00     0.251 C 
ATOM     27  H   UNL     1      -3.333  -3.434   1.920  1.00  0.00     0.163 HD
ATOM     28  O   UNL     1      -4.212  -4.713   3.737  1.00  0.00    -0.269 OA
BRANCH  26  29
ATOM     29  C   UNL     1      -4.483  -2.722   4.964  1.00  0.00     0.039 A 
ATOM     30  C   UNL     1      -4.375  -3.313   6.224  1.00  0.00     0.014 A 
ATOM     31  C   UNL     1      -5.013  -1.435   4.841  1.00  0.00     0.014 A 
ATOM     32  C   UNL     1      -4.750  -2.593   7.358  1.00  0.00     0.010 A 
ATOM     33  C   UNL     1      -5.284  -0.681   5.977  1.00  0.00     0.010 A 
ATOM     34  C   UNL     1      -5.174  -1.258   7.248  1.00  0.00    -0.014 A 
BRANCH  34  35
ATOM     35  C   UNL     1      -5.522  -0.470   8.457  1.00  0.00     0.031 A 
ATOM     36  C   UNL     1      -6.921   0.052   8.643  1.00  0.00     0.074 A 
ATOM     37  C   UNL     1      -4.571  -0.221   9.378  1.00  0.00     0.049 A 
ATOM     38  N   UNL     1      -7.415   0.739   9.640  1.00  0.00    -0.248 NA
ATOM     39  C   UNL     1      -7.888  -0.205   7.561  1.00  0.00     0.031 C 
ATOM     40  C   UNL     1      -3.169  -0.636   9.275  1.00  0.00     0.029 A 
ATOM     41  N   UNL     1      -4.635   0.421  10.589  1.00  0.00    -0.354 N 
ATOM     42  C   UNL     1      -8.740   0.995   9.306  1.00  0.00     0.074 A 
ATOM     43  C   UNL     1      -8.957   0.452   7.985  1.00  0.00     0.031 C 
ATOM     44  C   UNL     1      -2.525  -0.296  10.402  1.00  0.00     0.029 A 
ATOM     45  C   UNL     1      -3.450   0.403  11.288  1.00  0.00     0.049 A 
ATOM     46  H   UNL     1      -5.453   0.854  10.926  1.00  0.00     0.167 HD
ATOM     47  C   UNL     1      -9.697   1.597  10.050  1.00  0.00     0.034 A 
ATOM     48  C   UNL     1      -3.143   0.890  12.507  1.00  0.00     0.034 A 
ATOM     49  C   UNL     1      -9.473   2.104  11.378  1.00  0.00     0.049 A 
ATOM     50  C   UNL     1      -4.218   1.574  13.308  1.00  0.00     0.074 A 
ATOM     51  C   UNL     1     -10.388   2.677  12.241  1.00  0.00     0.029 A 
ATOM     52  N   UNL     1      -8.250   2.099  12.034  1.00  0.00    -0.354 N 
ATOM     53  N   UNL     1      -5.475   1.776  12.987  1.00  0.00    -0.248 NA
ATOM     54  C   UNL     1      -3.841   2.096  14.628  1.00  0.00     0.031 C 
ATOM     55  C   UNL     1      -9.707   3.081  13.391  1.00  0.00     0.029 A 
ATOM     56  C   UNL     1      -8.381   2.691  13.277  1.00  0.00     0.049 A 
ATOM     57  H   UNL     1      -7.413   1.730  11.668  1.00  0.00     0.167 HD
ATOM     58  C   UNL     1      -6.044   2.429  14.075  1.00  0.00     0.074 A 
ATOM     59  C   UNL     1      -4.995   2.590  15.061  1.00  0.00     0.031 C 
ATOM     60  C   UNL     1      -7.322   2.848  14.243  1.00  0.00     0.034 A 
BRANCH  47  61
ATOM     61  C   UNL     1     -11.071   1.742   9.452  1.00  0.00     0.023 A 
ATOM     62  C   UNL     1     -11.883   0.623   9.201  1.00  0.00     0.031 A 
ATOM     63  C   UNL     1     -11.592   3.016   9.169  1.00  0.00     0.131 A 
ATOM     64  C   UNL     1     -13.160   0.797   8.648  1.00  0.00     0.055 A 
ATOM     65  C   UNL     1     -12.888   3.187   8.679  1.00  0.00     0.041 A 
ATOM     66  F   UNL     1     -10.852   4.117   9.373  1.00  0.00    -0.206 F 
ATOM     67  C   UNL     1     -13.678   2.072   8.409  1.00  0.00     0.022 A 
BRANCH  64  68
ATOM     68  S   UNL     1     -14.110  -0.673   8.175  1.00  0.00     0.124 S 
ATOM     69  O   UNL     1     -13.274  -1.236   7.118  1.00  0.00    -0.237 OA
ATOM     70  O   UNL     1     -14.162  -1.431   9.420  1.00  0.00    -0.237 OA
ATOM     71  O   UNL     1     -15.388  -0.125   7.726  1.00  0.00    -0.744 OA
ENDBRANCH  64  68
ENDBRANCH  47  61
BRANCH  48  72
ATOM     72  C   UNL     1      -1.760   0.733  13.039  1.00  0.00     0.023 A 
ATOM     73  C   UNL     1      -1.492  -0.121  14.120  1.00  0.00     0.031 A 
ATOM     74  C   UNL     1      -0.680   1.415  12.449  1.00  0.00     0.131 A 
ATOM     75  C   UNL     1      -0.176  -0.261  14.588  1.00  0.00     0.055 A 
ATOM     76  C   UNL     1       0.632   1.242  12.894  1.00  0.00     0.041 A 
ATOM     77  F   UNL     1      -0.884   2.234  11.405  1.00  0.00    -0.206 F 
ATOM     78  C   UNL     1       0.889   0.403  13.973  1.00  0.00     0.022 A 
BRANCH  75  79
ATOM     79  S   UNL     1       0.129  -1.311  16.036  1.00  0.00     0.124 S 
ATOM     80  O   UNL     1      -0.615  -0.607  17.074  1.00  0.00    -0.237 OA
ATOM     81  O   UNL     1      -0.422  -2.592  15.606  1.00  0.00    -0.237 OA
ATOM     82  O   UNL     1       1.583  -1.279  16.179  1.00  0.00    -0.744 OA
ENDBRANCH  75  79
ENDBRANCH  48  72
BRANCH  60  83
ATOM     83  C   UNL     1      -7.685   3.499  15.549  1.00  0.00     0.023 A 
ATOM     84  C   UNL     1      -7.304   4.818  15.838  1.00  0.00     0.031 A 
ATOM     85  C   UNL     1      -8.522   2.826  16.457  1.00  0.00     0.131 A 
ATOM     86  C   UNL     1      -7.761   5.428  17.016  1.00  0.00     0.055 A 
ATOM     87  C   UNL     1      -9.006   3.451  17.606  1.00  0.00     0.041 A 
ATOM     88  F   UNL     1      -8.918   1.566  16.215  1.00  0.00    -0.206 F 
ATOM     89  C   UNL     1      -8.626   4.760  17.889  1.00  0.00     0.022 A 
BRANCH  86  90
ATOM     90  S   UNL     1      -7.221   7.117  17.392  1.00  0.00     0.124 S 
ATOM     91  O   UNL     1      -5.796   6.928  17.644  1.00  0.00    -0.237 OA
ATOM     92  O   UNL     1      -7.562   7.840  16.171  1.00  0.00    -0.237 OA
ATOM     93  O   UNL     1      -8.016   7.478  18.565  1.00  0.00    -0.744 OA
ENDBRANCH  86  90
ENDBRANCH  60  83
ENDBRANCH  34  35
ENDBRANCH  26  29
ENDBRANCH  24  25
ENDBRANCH  23  24
ENDBRANCH   1  23
TORSDOF 17
