REMARK SMILES Cc1cccc(Cl)c1Nc1ccccc1CC(=O)NCCCNC(=O)c1ccc(-c2c3nc(c(-c4cc(S(=O)(=O)[O-])ccc4F)c4ccc([nH]4)c(-c4cc(S(=O)(=O)[O-])ccc4F)c4nc(c(-c5cc(S(=O)(=O)[O-])ccc5F)c5ccc2[nH]5)C=C4)C=C3)cc1
REMARK SMILES IDX 21 1 20 2 19 3 17 4 18 5 16 7 15 8 10 9 11 10 12 11 14 12
REMARK SMILES IDX 13 13 9 14 8 16 1 17 2 18 3 19 4 20 6 21 5 22 7 23 22 24
REMARK SMILES IDX 23 25 24 26 25 28 26 29 27 30 88 31 28 32 87 33 29 34 30 35
REMARK SMILES IDX 31 36 81 37 32 38 86 39 80 40 82 41 33 42 85 43 79 44 78 45
REMARK SMILES IDX 34 47 66 48 46 49 65 50 47 51 50 52 64 53 83 54 48 55 49 56
REMARK SMILES IDX 63 58 84 59 51 60 35 61 36 62 44 63 37 64 43 65 45 66 42 67
REMARK SMILES IDX 38 68 39 69 40 70 41 71 67 72 68 73 76 74 69 75 75 76 77 77
REMARK SMILES IDX 74 78 70 79 71 80 72 81 73 82 52 83 53 84 61 85 54 86 60 87
REMARK SMILES IDX 62 88 59 89 55 90 56 91 57 92 58 93
REMARK H PARENT 19 6 9 15 23 27 82 46 50 57
REMARK Flexibility Score: inf
ROOT
ATOM      1  C   UNL     1       0.468   5.030  -2.260  1.00  0.00     0.042 C 
ENDROOT
BRANCH   1   2
ATOM      2  C   UNL     1      -0.015   3.690  -2.806  1.00  0.00     0.117 C 
BRANCH   2   3
ATOM      3  N   UNL     1       0.953   3.086  -3.700  1.00  0.00    -0.356 N 
ATOM      4  C   UNL     1       1.860   2.102  -3.425  1.00  0.00     0.224 C 
ATOM      5  O   UNL     1       2.653   1.770  -4.309  1.00  0.00    -0.275 OA
ATOM      6  H   UNL     1       0.956   3.427  -4.624  1.00  0.00     0.163 HD
BRANCH   4   7
ATOM      7  C   UNL     1       1.834   1.406  -2.075  1.00  0.00     0.137 C 
BRANCH   7   8
ATOM      8  C   UNL     1       2.332   2.259  -0.925  1.00  0.00    -0.015 A 
ATOM      9  C   UNL     1       1.556   2.549   0.219  1.00  0.00     0.042 A 
ATOM     10  C   UNL     1       2.077   3.439   1.177  1.00  0.00     0.026 A 
ATOM     11  C   UNL     1       3.344   4.004   1.037  1.00  0.00     0.002 A 
ATOM     12  C   UNL     1       3.623   2.818  -1.038  1.00  0.00     0.006 A 
ATOM     13  C   UNL     1       4.123   3.682  -0.065  1.00  0.00     0.000 A 
BRANCH   9  14
ATOM     14  N   UNL     1       0.303   1.968   0.506  1.00  0.00    -0.354 N 
ATOM     15  H   UNL     1      -0.366   2.612   0.834  1.00  0.00     0.167 HD
BRANCH  14  16
ATOM     16  C   UNL     1      -0.180   0.640   0.416  1.00  0.00     0.060 A 
ATOM     17  C   UNL     1      -2.519   1.603   0.011  1.00  0.00     0.046 C 
ATOM     18  C   UNL     1      -1.560   0.447   0.134  1.00  0.00    -0.026 A 
ATOM     19  C   UNL     1      -2.062  -0.850  -0.080  1.00  0.00     0.005 A 
ATOM     20  C   UNL     1      -1.227  -1.960  -0.009  1.00  0.00     0.002 A 
ATOM     21  C   UNL     1       0.638  -0.509   0.520  1.00  0.00     0.064 A 
ATOM     22  C   UNL     1       0.117  -1.790   0.299  1.00  0.00     0.023 A 
ATOM     23  Cl  UNL     1       2.294  -0.457   1.031  1.00  0.00    -0.082 Cl
ENDBRANCH  14  16
ENDBRANCH   9  14
ENDBRANCH   7   8
ENDBRANCH   4   7
ENDBRANCH   2   3
ENDBRANCH   1   2
BRANCH   1  24
ATOM     24  C   UNL     1       0.545   6.126  -3.316  1.00  0.00     0.118 C 
BRANCH  24  25
ATOM     25  N   UNL     1      -0.762   6.448  -3.872  1.00  0.00    -0.352 N 
ATOM     26  C   UNL     1      -1.411   7.652  -3.952  1.00  0.00     0.251 C 
ATOM     27  H   UNL     1      -1.254   5.683  -4.248  1.00  0.00     0.163 HD
ATOM     28  O   UNL     1      -2.606   7.667  -4.254  1.00  0.00    -0.269 OA
BRANCH  26  29
ATOM     29  C   UNL     1      -0.698   8.915  -3.667  1.00  0.00     0.039 A 
ATOM     30  C   UNL     1      -1.369   9.928  -2.975  1.00  0.00     0.014 A 
ATOM     31  C   UNL     1       0.613   9.121  -4.106  1.00  0.00     0.014 A 
ATOM     32  C   UNL     1      -0.709  11.123  -2.683  1.00  0.00     0.010 A 
ATOM     33  C   UNL     1       1.295  10.279  -3.743  1.00  0.00     0.010 A 
ATOM     34  C   UNL     1       0.638  11.299  -3.038  1.00  0.00    -0.014 A 
BRANCH  34  35
ATOM     35  C   UNL     1       1.368  12.550  -2.704  1.00  0.00     0.031 A 
ATOM     36  C   UNL     1       1.896  13.428  -3.808  1.00  0.00     0.074 A 
ATOM     37  C   UNL     1       1.601  12.865  -1.414  1.00  0.00     0.049 A 
ATOM     38  N   UNL     1       2.625  14.511  -3.727  1.00  0.00    -0.248 NA
ATOM     39  C   UNL     1       1.585  13.017  -5.186  1.00  0.00     0.031 C 
ATOM     40  C   UNL     1       1.165  12.075  -0.260  1.00  0.00     0.029 A 
ATOM     41  N   UNL     1       2.267  13.926  -0.854  1.00  0.00    -0.354 N 
ATOM     42  C   UNL     1       2.873  14.902  -5.039  1.00  0.00     0.074 A 
ATOM     43  C   UNL     1       2.267  13.905  -5.894  1.00  0.00     0.031 C 
ATOM     44  C   UNL     1       1.551  12.693   0.868  1.00  0.00     0.029 A 
ATOM     45  C   UNL     1       2.309  13.892   0.522  1.00  0.00     0.049 A 
ATOM     46  H   UNL     1       2.677  14.646  -1.386  1.00  0.00     0.167 HD
ATOM     47  C   UNL     1       3.528  16.001  -5.487  1.00  0.00     0.034 A 
ATOM     48  C   UNL     1       2.904  14.722   1.402  1.00  0.00     0.034 A 
ATOM     49  C   UNL     1       4.112  16.994  -4.619  1.00  0.00     0.049 A 
ATOM     50  C   UNL     1       3.654  15.921   0.875  1.00  0.00     0.074 A 
ATOM     51  C   UNL     1       4.752  18.171  -4.965  1.00  0.00     0.029 A 
ATOM     52  N   UNL     1       4.136  16.924  -3.231  1.00  0.00    -0.354 N 
ATOM     53  N   UNL     1       3.838  16.300  -0.369  1.00  0.00    -0.248 NA
ATOM     54  C   UNL     1       4.266  16.811   1.871  1.00  0.00     0.031 C 
ATOM     55  C   UNL     1       5.227  18.773  -3.796  1.00  0.00     0.029 A 
ATOM     56  C   UNL     1       4.807  18.020  -2.712  1.00  0.00     0.049 A 
ATOM     57  H   UNL     1       3.735  16.201  -2.696  1.00  0.00     0.167 HD
ATOM     58  C   UNL     1       4.551  17.495  -0.299  1.00  0.00     0.074 A 
ATOM     59  C   UNL     1       4.749  17.778   1.106  1.00  0.00     0.031 C 
ATOM     60  C   UNL     1       4.997  18.290  -1.306  1.00  0.00     0.034 A 
BRANCH  47  61
ATOM     61  C   UNL     1       3.669  16.173  -6.981  1.00  0.00     0.023 A 
ATOM     62  C   UNL     1       2.551  16.338  -7.818  1.00  0.00     0.031 A 
ATOM     63  C   UNL     1       4.942  16.168  -7.580  1.00  0.00     0.131 A 
ATOM     64  C   UNL     1       2.722  16.425  -9.208  1.00  0.00     0.055 A 
ATOM     65  C   UNL     1       5.111  16.338  -8.955  1.00  0.00     0.041 A 
ATOM     66  F   UNL     1       6.046  15.991  -6.837  1.00  0.00    -0.206 F 
ATOM     67  C   UNL     1       3.996  16.454  -9.780  1.00  0.00     0.022 A 
BRANCH  64  68
ATOM     68  S   UNL     1       1.252  16.367 -10.267  1.00  0.00     0.124 S 
ATOM     69  O   UNL     1       0.677  15.074  -9.902  1.00  0.00    -0.237 OA
ATOM     70  O   UNL     1       0.505  17.543  -9.836  1.00  0.00    -0.237 OA
ATOM     71  O   UNL     1       1.801  16.437 -11.620  1.00  0.00    -0.744 OA
ENDBRANCH  64  68
ENDBRANCH  47  61
BRANCH  48  72
ATOM     72  C   UNL     1       2.838  14.454   2.869  1.00  0.00     0.023 A 
ATOM     73  C   UNL     1       2.231  15.369   3.744  1.00  0.00     0.031 A 
ATOM     74  C   UNL     1       3.441  13.313   3.428  1.00  0.00     0.131 A 
ATOM     75  C   UNL     1       2.296  15.163   5.131  1.00  0.00     0.055 A 
ATOM     76  C   UNL     1       3.446  13.079   4.805  1.00  0.00     0.041 A 
ATOM     77  F   UNL     1       4.034  12.402   2.640  1.00  0.00    -0.206 F 
ATOM     78  C   UNL     1       2.887  14.017   5.667  1.00  0.00     0.022 A 
BRANCH  75  79
ATOM     79  S   UNL     1       1.703  16.478   6.231  1.00  0.00     0.124 S 
ATOM     80  O   UNL     1       2.502  17.615   5.790  1.00  0.00    -0.237 OA
ATOM     81  O   UNL     1       0.282  16.525   5.906  1.00  0.00    -0.237 OA
ATOM     82  O   UNL     1       2.019  15.972   7.565  1.00  0.00    -0.744 OA
ENDBRANCH  75  79
ENDBRANCH  48  72
BRANCH  60  83
ATOM     83  C   UNL     1       5.687  19.575  -0.915  1.00  0.00     0.023 A 
ATOM     84  C   UNL     1       6.919  19.584  -0.238  1.00  0.00     0.031 A 
ATOM     85  C   UNL     1       5.093  20.813  -1.220  1.00  0.00     0.131 A 
ATOM     86  C   UNL     1       7.487  20.802   0.164  1.00  0.00     0.055 A 
ATOM     87  C   UNL     1       5.696  22.024  -0.879  1.00  0.00     0.041 A 
ATOM     88  F   UNL     1       3.914  20.866  -1.862  1.00  0.00    -0.206 F 
ATOM     89  C   UNL     1       6.893  22.023  -0.170  1.00  0.00     0.022 A 
BRANCH  86  90
ATOM     90  S   UNL     1       8.962  20.770   1.219  1.00  0.00     0.124 S 
ATOM     91  O   UNL     1       8.498  19.995   2.365  1.00  0.00    -0.237 OA
ATOM     92  O   UNL     1       9.944  20.114   0.362  1.00  0.00    -0.237 OA
ATOM     93  O   UNL     1       9.221  22.183   1.489  1.00  0.00    -0.744 OA
ENDBRANCH  86  90
ENDBRANCH  60  83
ENDBRANCH  34  35
ENDBRANCH  26  29
ENDBRANCH  24  25
ENDBRANCH   1  24
TORSDOF 16
