REMARK SMILES COc1cc2c(cc1OC)[C@@H](CC(=O)NCCCNC(=O)c1ccc(-c3c4nc(c(-c5cc(S(=O)(=O)[O-])ccc5F)c5ccc([nH]5)c(-c5cc(S(=O)(=O)[O-])ccc5F)c5nc(c(-c6cc(S(=O)(=O)[O-])ccc6F)c6ccc3[nH]6)C=C5)C=C4)cc1)N(C(=O)Nc1ccc(Cl)cc1)CC2
REMARK SMILES IDX 17 1 16 2 15 3 13 4 14 5 12 7 11 8 3 9 4 10 8 11 5 12 7 13
REMARK SMILES IDX 6 14 97 15 96 16 85 17 2 18 1 19 9 20 10 21 86 22 87 23
REMARK SMILES IDX 88 24 89 26 90 27 95 28 91 29 94 30 92 31 93 32 18 33 19 34
REMARK SMILES IDX 20 35 21 37 22 38 23 39 84 40 24 41 83 42 25 43 26 44 27 45
REMARK SMILES IDX 77 46 28 47 82 48 76 49 78 50 29 51 81 52 75 53 74 54 30 56
REMARK SMILES IDX 62 57 42 58 61 59 43 60 46 61 60 62 79 63 44 64 45 65 59 67
REMARK SMILES IDX 80 68 47 69 31 70 32 71 40 72 33 73 39 74 41 75 38 76 34 77
REMARK SMILES IDX 35 78 36 79 37 80 63 81 64 82 72 83 65 84 71 85 73 86 70 87
REMARK SMILES IDX 66 88 67 89 68 90 69 91 48 92 49 93 57 94 50 95 56 96 58 97
REMARK SMILES IDX 55 98 51 99 52 100 53 101 54 102
REMARK H PARENT 15 6 88 25 19 36 78 55 46 66
REMARK Flexibility Score: inf
ROOT
ATOM      1  C   UNL     1       2.529  10.291   3.612  1.00  0.00     0.042 C 
ENDROOT
BRANCH   1   2
ATOM      2  C   UNL     1       3.633   9.422   2.986  1.00  0.00     0.117 C 
BRANCH   2   3
ATOM      3  N   UNL     1       3.950   8.282   3.845  1.00  0.00    -0.356 N 
ATOM      4  C   UNL     1       3.744   6.944   3.701  1.00  0.00     0.222 C 
ATOM      5  O   UNL     1       3.974   6.217   4.673  1.00  0.00    -0.275 OA
ATOM      6  H   UNL     1       4.397   8.529   4.686  1.00  0.00     0.163 HD
BRANCH   4   7
ATOM      7  C   UNL     1       3.350   6.326   2.373  1.00  0.00     0.130 C 
BRANCH   7   8
ATOM      8  C   UNL     1       1.916   5.733   2.397  1.00  0.00     0.127 C 
ATOM      9  C   UNL     1       1.261   1.816   0.548  1.00  0.00     0.161 A 
ATOM     10  C   UNL     1       0.206   2.679   0.792  1.00  0.00     0.054 A 
ATOM     11  C   UNL     1       2.550   2.123   1.008  1.00  0.00     0.161 A 
ATOM     12  C   UNL     1       0.447   3.898   1.423  1.00  0.00    -0.037 A 
ATOM     13  C   UNL     1       2.774   3.338   1.694  1.00  0.00     0.056 A 
ATOM     14  C   UNL     1       1.745   4.283   1.851  1.00  0.00    -0.018 A 
ATOM     15  C   UNL     1      -0.640   4.933   1.423  1.00  0.00     0.057 C 
ATOM     16  C   UNL     1       0.020   6.112   0.734  1.00  0.00     0.127 C 
ATOM     17  N   UNL     1       1.037   6.674   1.627  1.00  0.00    -0.317 N 
BRANCH   9  18
ATOM     18  O   UNL     1       0.971   0.780  -0.303  1.00  0.00    -0.493 OA
ATOM     19  C   UNL     1       1.132  -0.495   0.303  1.00  0.00     0.278 C 
ENDBRANCH   9  18
BRANCH  11  20
ATOM     20  O   UNL     1       3.524   1.212   0.690  1.00  0.00    -0.493 OA
ATOM     21  C   UNL     1       4.843   1.465   1.147  1.00  0.00     0.278 C 
ENDBRANCH  11  20
BRANCH  17  22
ATOM     22  C   UNL     1       0.691   7.915   2.134  1.00  0.00     0.322 C 
ATOM     23  O   UNL     1       0.494   8.125   3.329  1.00  0.00    -0.248 OA
ATOM     24  N   UNL     1       0.600   8.838   1.115  1.00  0.00    -0.308 N 
ATOM     25  H   UNL     1       1.419   9.017   0.600  1.00  0.00     0.171 HD
BRANCH  24  26
ATOM     26  C   UNL     1      -0.551   9.546   0.745  1.00  0.00     0.042 A 
ATOM     27  C   UNL     1      -0.508  10.220  -0.482  1.00  0.00     0.028 A 
ATOM     28  C   UNL     1      -1.758   9.423   1.434  1.00  0.00     0.028 A 
ATOM     29  C   UNL     1      -1.686  10.684  -1.064  1.00  0.00     0.022 A 
ATOM     30  C   UNL     1      -2.938   9.880   0.844  1.00  0.00     0.022 A 
ATOM     31  C   UNL     1      -2.900  10.485  -0.412  1.00  0.00     0.041 A 
ATOM     32  Cl  UNL     1      -4.359  10.948  -1.191  1.00  0.00    -0.084 Cl
ENDBRANCH  24  26
ENDBRANCH  17  22
ENDBRANCH   7   8
ENDBRANCH   4   7
ENDBRANCH   2   3
ENDBRANCH   1   2
BRANCH   1  33
ATOM     33  C   UNL     1       2.922  11.744   3.840  1.00  0.00     0.118 C 
BRANCH  33  34
ATOM     34  N   UNL     1       2.842  12.534   2.623  1.00  0.00    -0.352 N 
ATOM     35  C   UNL     1       1.848  13.224   1.969  1.00  0.00     0.251 C 
ATOM     36  H   UNL     1       3.705  12.588   2.154  1.00  0.00     0.163 HD
ATOM     37  O   UNL     1       2.150  13.621   0.838  1.00  0.00    -0.269 OA
BRANCH  35  38
ATOM     38  C   UNL     1       0.473  13.521   2.489  1.00  0.00     0.039 A 
ATOM     39  C   UNL     1      -0.459  14.031   1.563  1.00  0.00     0.014 A 
ATOM     40  C   UNL     1       0.059  13.422   3.815  1.00  0.00     0.014 A 
ATOM     41  C   UNL     1      -1.748  14.431   1.954  1.00  0.00     0.010 A 
ATOM     42  C   UNL     1      -1.254  13.747   4.195  1.00  0.00     0.010 A 
ATOM     43  C   UNL     1      -2.171  14.280   3.280  1.00  0.00    -0.014 A 
BRANCH  43  44
ATOM     44  C   UNL     1      -3.538  14.690   3.730  1.00  0.00     0.031 A 
ATOM     45  C   UNL     1      -3.713  15.718   4.823  1.00  0.00     0.074 A 
ATOM     46  C   UNL     1      -4.631  14.088   3.219  1.00  0.00     0.049 A 
ATOM     47  N   UNL     1      -4.805  16.109   5.435  1.00  0.00    -0.248 NA
ATOM     48  C   UNL     1      -2.489  16.359   5.321  1.00  0.00     0.031 C 
ATOM     49  C   UNL     1      -4.614  13.046   2.194  1.00  0.00     0.029 A 
ATOM     50  N   UNL     1      -5.966  14.248   3.504  1.00  0.00    -0.354 N 
ATOM     51  C   UNL     1      -4.394  17.006   6.418  1.00  0.00     0.074 A 
ATOM     52  C   UNL     1      -2.948  17.054   6.350  1.00  0.00     0.031 C 
ATOM     53  C   UNL     1      -5.873  12.665   1.930  1.00  0.00     0.029 A 
ATOM     54  C   UNL     1      -6.788  13.402   2.796  1.00  0.00     0.049 A 
ATOM     55  H   UNL     1      -6.303  14.907   4.154  1.00  0.00     0.167 HD
ATOM     56  C   UNL     1      -5.149  17.735   7.283  1.00  0.00     0.034 A 
ATOM     57  C   UNL     1      -8.122  13.217   2.844  1.00  0.00     0.034 A 
ATOM     58  C   UNL     1      -6.593  17.708   7.311  1.00  0.00     0.049 A 
ATOM     59  C   UNL     1      -8.948  14.052   3.785  1.00  0.00     0.074 A 
ATOM     60  C   UNL     1      -7.456  18.477   8.074  1.00  0.00     0.029 A 
ATOM     61  N   UNL     1      -7.391  16.861   6.551  1.00  0.00    -0.354 N 
ATOM     62  N   UNL     1      -8.549  14.941   4.665  1.00  0.00    -0.248 NA
ATOM     63  C   UNL     1     -10.403  13.869   3.729  1.00  0.00     0.031 C 
ATOM     64  C   UNL     1      -8.767  18.051   7.825  1.00  0.00     0.029 A 
ATOM     65  C   UNL     1      -8.731  17.066   6.851  1.00  0.00     0.049 A 
ATOM     66  H   UNL     1      -7.055  16.210   5.894  1.00  0.00     0.167 HD
ATOM     67  C   UNL     1      -9.708  15.435   5.256  1.00  0.00     0.074 A 
ATOM     68  C   UNL     1     -10.820  14.758   4.620  1.00  0.00     0.031 C 
ATOM     69  C   UNL     1      -9.837  16.369   6.233  1.00  0.00     0.034 A 
BRANCH  56  70
ATOM     70  C   UNL     1      -4.415  18.597   8.290  1.00  0.00     0.023 A 
ATOM     71  C   UNL     1      -3.544  19.628   7.894  1.00  0.00     0.031 A 
ATOM     72  C   UNL     1      -4.548  18.351   9.669  1.00  0.00     0.131 A 
ATOM     73  C   UNL     1      -2.760  20.293   8.849  1.00  0.00     0.055 A 
ATOM     74  C   UNL     1      -3.838  19.085  10.623  1.00  0.00     0.041 A 
ATOM     75  F   UNL     1      -5.353  17.375  10.116  1.00  0.00    -0.206 F 
ATOM     76  C   UNL     1      -2.919  20.047  10.214  1.00  0.00     0.022 A 
BRANCH  73  77
ATOM     77  S   UNL     1      -1.399  21.343   8.268  1.00  0.00     0.124 S 
ATOM     78  O   UNL     1      -0.645  20.412   7.431  1.00  0.00    -0.237 OA
ATOM     79  O   UNL     1      -2.101  22.410   7.566  1.00  0.00    -0.237 OA
ATOM     80  O   UNL     1      -0.724  21.743   9.501  1.00  0.00    -0.744 OA
ENDBRANCH  73  77
ENDBRANCH  56  70
BRANCH  57  81
ATOM     81  C   UNL     1      -8.756  12.179   1.982  1.00  0.00     0.023 A 
ATOM     82  C   UNL     1      -9.584  12.532   0.906  1.00  0.00     0.031 A 
ATOM     83  C   UNL     1      -8.529  10.812   2.223  1.00  0.00     0.131 A 
ATOM     84  C   UNL     1     -10.177  11.528   0.123  1.00  0.00     0.055 A 
ATOM     85  C   UNL     1      -9.087   9.819   1.417  1.00  0.00     0.041 A 
ATOM     86  F   UNL     1      -7.734  10.423   3.233  1.00  0.00    -0.206 F 
ATOM     87  C   UNL     1      -9.923  10.175   0.363  1.00  0.00     0.022 A 
BRANCH  84  88
ATOM     88  S   UNL     1     -11.324  12.014  -1.196  1.00  0.00     0.124 S 
ATOM     89  O   UNL     1     -12.377  12.686  -0.443  1.00  0.00    -0.237 OA
ATOM     90  O   UNL     1     -10.486  12.871  -2.029  1.00  0.00    -0.237 OA
ATOM     91  O   UNL     1     -11.705  10.741  -1.803  1.00  0.00    -0.744 OA
ENDBRANCH  84  88
ENDBRANCH  57  81
BRANCH  69  92
ATOM     92  C   UNL     1     -11.242  16.734   6.652  1.00  0.00     0.023 A 
ATOM     93  C   UNL     1     -12.076  15.819   7.318  1.00  0.00     0.031 A 
ATOM     94  C   UNL     1     -11.757  18.011   6.365  1.00  0.00     0.131 A 
ATOM     95  C   UNL     1     -13.398  16.176   7.629  1.00  0.00     0.055 A 
ATOM     96  C   UNL     1     -13.053  18.380   6.728  1.00  0.00     0.041 A 
ATOM     97  F   UNL     1     -11.006  18.923   5.728  1.00  0.00    -0.206 F 
ATOM     98  C   UNL     1     -13.886  17.456   7.353  1.00  0.00     0.022 A 
BRANCH  95  99
ATOM     99  S   UNL     1     -14.504  14.915   8.321  1.00  0.00     0.124 S 
ATOM    100  O   UNL     1     -14.474  13.885   7.288  1.00  0.00    -0.237 OA
ATOM    101  O   UNL     1     -13.846  14.578   9.579  1.00  0.00    -0.237 OA
ATOM    102  O   UNL     1     -15.780  15.616   8.459  1.00  0.00    -0.744 OA
ENDBRANCH  95  99
ENDBRANCH  69  92
ENDBRANCH  43  44
ENDBRANCH  35  38
ENDBRANCH  33  34
ENDBRANCH   1  33
TORSDOF 18
