REMARK SMILES O=C(NCCCNC(=O)c1ccc(-c2cccc(F)c2)o1)c1ccc(-c2c3nc(c(-c4cc(S(=O)(=O)[O-])ccc4F)c4ccc([nH]4)c(-c4cc(S(=O)(=O)[O-])ccc4F)c4nc(c(-c5cc(S(=O)(=O)[O-])ccc5F)c5ccc2[nH]5)C=C4)C=C3)cc1
REMARK SMILES IDX 4 1 3 2 1 3 2 4 22 6 23 7 84 8 24 9 83 10 25 11 26 12 27 13
REMARK SMILES IDX 77 14 28 15 82 16 76 17 78 18 29 19 81 20 75 21 74 22 30 24
REMARK SMILES IDX 62 25 42 26 61 27 43 28 46 29 60 30 79 31 44 32 45 33 59 35
REMARK SMILES IDX 80 36 47 37 31 38 32 39 40 40 33 41 39 42 41 43 38 44 34 45
REMARK SMILES IDX 35 46 36 47 37 48 63 49 64 50 72 51 65 52 71 53 73 54 70 55
REMARK SMILES IDX 66 56 67 57 68 58 69 59 48 60 49 61 57 62 50 63 56 64 58 65
REMARK SMILES IDX 55 66 51 67 52 68 53 69 54 70 5 71 6 72 7 73 8 74 9 76 10 77
REMARK SMILES IDX 11 78 21 79 12 80 13 81 14 82 15 83 20 84 16 85 18 86 17 87
REMARK SMILES IDX 19 88
REMARK H PARENT 3 5 78 23 46 34 7 75
REMARK Flexibility Score: inf
ROOT
ATOM      1  C   UNL     1       4.564   0.161  -1.390  1.00  0.00     0.118 C 
ENDROOT
BRANCH   1   2
ATOM      2  N   UNL     1       3.143   0.332  -1.113  1.00  0.00    -0.352 N 
ATOM      3  O   UNL     1       1.213   0.164   0.027  1.00  0.00    -0.269 OA
ATOM      4  C   UNL     1       2.442   0.173   0.059  1.00  0.00     0.251 C 
ATOM      5  H   UNL     1       2.599   0.605  -1.887  1.00  0.00     0.163 HD
BRANCH   4   6
ATOM      6  C   UNL     1       3.152   0.004   1.345  1.00  0.00     0.039 A 
ATOM      7  C   UNL     1       4.282   0.768   1.644  1.00  0.00     0.014 A 
ATOM      8  C   UNL     1       2.655  -0.902   2.288  1.00  0.00     0.014 A 
ATOM      9  C   UNL     1       4.997   0.522   2.810  1.00  0.00     0.010 A 
ATOM     10  C   UNL     1       3.323  -1.081   3.505  1.00  0.00     0.010 A 
ATOM     11  C   UNL     1       4.516  -0.389   3.764  1.00  0.00    -0.014 A 
BRANCH  11  12
ATOM     12  C   UNL     1       5.246  -0.541   5.048  1.00  0.00     0.031 A 
ATOM     13  C   UNL     1       5.907  -1.839   5.420  1.00  0.00     0.074 A 
ATOM     14  C   UNL     1       5.345   0.529   5.862  1.00  0.00     0.049 A 
ATOM     15  N   UNL     1       6.600  -2.129   6.492  1.00  0.00    -0.248 NA
ATOM     16  C   UNL     1       5.768  -2.958   4.476  1.00  0.00     0.031 C 
ATOM     17  C   UNL     1       4.739   1.839   5.603  1.00  0.00     0.029 A 
ATOM     18  N   UNL     1       6.008   0.700   7.049  1.00  0.00    -0.354 N 
ATOM     19  C   UNL     1       6.964  -3.465   6.363  1.00  0.00     0.074 A 
ATOM     20  C   UNL     1       6.395  -3.935   5.117  1.00  0.00     0.031 C 
ATOM     21  C   UNL     1       5.109   2.693   6.567  1.00  0.00     0.029 A 
ATOM     22  C   UNL     1       5.917   1.978   7.549  1.00  0.00     0.049 A 
ATOM     23  H   UNL     1       6.502  -0.022   7.501  1.00  0.00     0.167 HD
ATOM     24  C   UNL     1       7.706  -4.222   7.207  1.00  0.00     0.034 A 
ATOM     25  C   UNL     1       6.411   2.517   8.680  1.00  0.00     0.034 A 
ATOM     26  C   UNL     1       8.282  -3.732   8.436  1.00  0.00     0.049 A 
ATOM     27  C   UNL     1       7.207   1.650   9.610  1.00  0.00     0.074 A 
ATOM     28  C   UNL     1       9.088  -4.408   9.337  1.00  0.00     0.029 A 
ATOM     29  N   UNL     1       8.112  -2.450   8.941  1.00  0.00    -0.354 N 
ATOM     30  N   UNL     1       7.529   0.385   9.477  1.00  0.00    -0.248 NA
ATOM     31  C   UNL     1       7.694   2.275  10.845  1.00  0.00     0.031 C 
ATOM     32  C   UNL     1       9.354  -3.555  10.414  1.00  0.00     0.029 A 
ATOM     33  C   UNL     1       8.768  -2.326  10.156  1.00  0.00     0.049 A 
ATOM     34  H   UNL     1       7.599  -1.734   8.501  1.00  0.00     0.167 HD
ATOM     35  C   UNL     1       8.259   0.061  10.614  1.00  0.00     0.074 A 
ATOM     36  C   UNL     1       8.341   1.266  11.415  1.00  0.00     0.031 C 
ATOM     37  C   UNL     1       8.814  -1.128  10.958  1.00  0.00     0.034 A 
BRANCH  24  38
ATOM     38  C   UNL     1       7.904  -5.675   6.856  1.00  0.00     0.023 A 
ATOM     39  C   UNL     1       8.699  -6.075   5.769  1.00  0.00     0.031 A 
ATOM     40  C   UNL     1       7.304  -6.675   7.642  1.00  0.00     0.131 A 
ATOM     41  C   UNL     1       8.839  -7.440   5.473  1.00  0.00     0.055 A 
ATOM     42  C   UNL     1       7.495  -8.032   7.378  1.00  0.00     0.041 A 
ATOM     43  F   UNL     1       6.520  -6.347   8.681  1.00  0.00    -0.206 F 
ATOM     44  C   UNL     1       8.262  -8.421   6.283  1.00  0.00     0.022 A 
BRANCH  41  45
ATOM     45  S   UNL     1       9.725  -7.919   3.964  1.00  0.00     0.124 S 
ATOM     46  O   UNL     1       8.866  -7.352   2.927  1.00  0.00    -0.237 OA
ATOM     47  O   UNL     1      11.022  -7.277   4.140  1.00  0.00    -0.237 OA
ATOM     48  O   UNL     1       9.739  -9.379   4.023  1.00  0.00    -0.744 OA
ENDBRANCH  41  45
ENDBRANCH  24  38
BRANCH  25  49
ATOM     49  C   UNL     1       6.121   3.941   8.997  1.00  0.00     0.023 A 
ATOM     50  C   UNL     1       7.121   4.920   8.919  1.00  0.00     0.031 A 
ATOM     51  C   UNL     1       4.816   4.344   9.334  1.00  0.00     0.131 A 
ATOM     52  C   UNL     1       6.800   6.261   9.182  1.00  0.00     0.055 A 
ATOM     53  C   UNL     1       4.495   5.682   9.559  1.00  0.00     0.041 A 
ATOM     54  F   UNL     1       3.825   3.441   9.403  1.00  0.00    -0.206 F 
ATOM     55  C   UNL     1       5.492   6.650   9.486  1.00  0.00     0.022 A 
BRANCH  52  56
ATOM     56  S   UNL     1       8.119   7.505   9.117  1.00  0.00     0.124 S 
ATOM     57  O   UNL     1       8.950   7.115  10.250  1.00  0.00    -0.237 OA
ATOM     58  O   UNL     1       8.690   7.278   7.793  1.00  0.00    -0.237 OA
ATOM     59  O   UNL     1       7.402   8.769   9.272  1.00  0.00    -0.744 OA
ENDBRANCH  52  56
ENDBRANCH  25  49
BRANCH  37  60
ATOM     60  C   UNL     1       9.569  -1.179  12.258  1.00  0.00     0.023 A 
ATOM     61  C   UNL     1       8.900  -1.168  13.493  1.00  0.00     0.031 A 
ATOM     62  C   UNL     1      10.971  -1.270  12.257  1.00  0.00     0.131 A 
ATOM     63  C   UNL     1       9.639  -1.220  14.684  1.00  0.00     0.055 A 
ATOM     64  C   UNL     1      11.698  -1.365  13.443  1.00  0.00     0.041 A 
ATOM     65  F   UNL     1      11.653  -1.284  11.101  1.00  0.00    -0.206 F 
ATOM     66  C   UNL     1      11.032  -1.335  14.666  1.00  0.00     0.022 A 
BRANCH  63  67
ATOM     67  S   UNL     1       8.759  -1.107  16.265  1.00  0.00     0.124 S 
ATOM     68  O   UNL     1       8.242   0.257  16.225  1.00  0.00    -0.237 OA
ATOM     69  O   UNL     1       7.764  -2.169  16.152  1.00  0.00    -0.237 OA
ATOM     70  O   UNL     1       9.806  -1.346  17.257  1.00  0.00    -0.744 OA
ENDBRANCH  63  67
ENDBRANCH  37  60
ENDBRANCH  11  12
ENDBRANCH   4   6
ENDBRANCH   1   2
BRANCH   1  71
ATOM     71  C   UNL     1       4.838  -1.014  -2.321  1.00  0.00     0.042 C 
BRANCH  71  72
ATOM     72  C   UNL     1       4.274  -0.826  -3.724  1.00  0.00     0.118 C 
BRANCH  72  73
ATOM     73  N   UNL     1       4.944   0.251  -4.437  1.00  0.00    -0.349 N 
ATOM     74  C   UNL     1       5.931   0.166  -5.390  1.00  0.00     0.287 C 
ATOM     75  H   UNL     1       4.653   1.162  -4.205  1.00  0.00     0.163 HD
ATOM     76  O   UNL     1       6.550   1.202  -5.663  1.00  0.00    -0.266 OA
BRANCH  74  77
ATOM     77  C   UNL     1       6.166  -1.098  -6.042  1.00  0.00     0.192 A 
ATOM     78  C   UNL     1       5.303  -2.009  -6.626  1.00  0.00     0.057 A 
ATOM     79  O   UNL     1       7.454  -1.537  -6.186  1.00  0.00    -0.451 OA
ATOM     80  C   UNL     1       6.099  -3.061  -7.129  1.00  0.00     0.052 A 
ATOM     81  C   UNL     1       7.407  -2.735  -6.837  1.00  0.00     0.135 A 
BRANCH  81  82
ATOM     82  C   UNL     1       8.681  -3.380  -7.099  1.00  0.00     0.020 A 
ATOM     83  C   UNL     1       8.907  -4.006  -8.336  1.00  0.00     0.012 A 
ATOM     84  C   UNL     1       9.684  -3.418  -6.125  1.00  0.00     0.051 A 
ATOM     85  C   UNL     1      10.112  -4.664  -8.595  1.00  0.00     0.004 A 
ATOM     86  C   UNL     1      10.876  -4.085  -6.389  1.00  0.00     0.123 A 
ATOM     87  C   UNL     1      11.098  -4.708  -7.613  1.00  0.00     0.039 A 
ATOM     88  F   UNL     1      11.828  -4.137  -5.448  1.00  0.00    -0.207 F 
ENDBRANCH  81  82
ENDBRANCH  74  77
ENDBRANCH  72  73
ENDBRANCH  71  72
ENDBRANCH   1  71
TORSDOF 14
