REMARK SMILES COc1ccc(CCc2nnc(NC(=O)[C@@H]3[C@@H](C(=O)NCCCNC(=O)c4ccc(-c5c6nc(c(-c7cc(S(=O)(=O)[O-])ccc7F)c7ccc([nH]7)c(-c7cc(S(=O)(=O)[O-])ccc7F)c7nc(c(-c8cc(S(=O)(=O)[O-])ccc8F)c8ccc5[nH]8)C=C7)C=C6)cc4)C3(C)C)s2)cc1
REMARK SMILES IDX 18 1 19 2 20 3 17 5 16 6 90 7 91 8 92 9 14 10 13 11 15 13
REMARK SMILES IDX 12 14 9 15 10 16 93 17 11 18 8 19 7 20 6 21 3 22 4 23 95 24
REMARK SMILES IDX 5 25 94 26 2 27 1 28 21 29 22 30 23 31 24 32 25 33 26 35
REMARK SMILES IDX 27 36 28 37 89 38 29 39 88 40 30 41 31 42 32 43 82 44 33 45
REMARK SMILES IDX 87 46 81 47 83 48 34 49 86 50 80 51 79 52 35 54 67 55 47 56
REMARK SMILES IDX 66 57 48 58 51 59 65 60 84 61 49 62 50 63 64 65 85 66 52 67
REMARK SMILES IDX 36 68 37 69 45 70 38 71 44 72 46 73 43 74 39 75 40 76 41 77
REMARK SMILES IDX 42 78 68 79 69 80 77 81 70 82 76 83 78 84 75 85 71 86 72 87
REMARK SMILES IDX 73 88 74 89 53 90 54 91 62 92 55 93 61 94 63 95 60 96 56 97
REMARK SMILES IDX 57 98 58 99 59 100
REMARK H PARENT 20 4 13 12 24 34 83 53 51 64
REMARK Flexibility Score: inf
ROOT
ATOM      1  C   UNL     1      -1.941   4.089  -4.605  1.00  0.00     0.224 C 
ATOM      2  O   UNL     1      -0.748   3.859  -4.400  1.00  0.00    -0.275 OA
ATOM      3  N   UNL     1      -2.479   5.148  -3.937  1.00  0.00    -0.356 N 
ATOM      4  H   UNL     1      -1.808   5.656  -3.425  1.00  0.00     0.163 HD
ENDROOT
BRANCH   1   5
ATOM      5  C   UNL     1      -2.635   3.214  -5.582  1.00  0.00     0.098 C 
ATOM      6  C   UNL     1      -4.021   3.276  -6.151  1.00  0.00     0.098 C 
ATOM      7  C   UNL     1      -3.654   2.152  -5.175  1.00  0.00    -0.011 C 
ATOM      8  C   UNL     1      -4.319   2.209  -3.813  1.00  0.00     0.013 C 
ATOM      9  C   UNL     1      -3.429   0.743  -5.663  1.00  0.00     0.013 C 
BRANCH   6  10
ATOM     10  C   UNL     1      -4.198   3.116  -7.629  1.00  0.00     0.230 C 
ATOM     11  N   UNL     1      -4.797   4.125  -8.345  1.00  0.00    -0.300 N 
ATOM     12  H   UNL     1      -5.122   3.912  -9.250  1.00  0.00     0.172 HD
ATOM     13  O   UNL     1      -3.894   2.073  -8.203  1.00  0.00    -0.274 OA
BRANCH  11  14
ATOM     14  C   UNL     1      -4.975   5.401  -7.895  1.00  0.00     0.212 A 
ATOM     15  C   UNL     1      -5.898   7.540  -7.505  1.00  0.00     0.119 A 
ATOM     16  N   UNL     1      -4.936   7.247  -6.654  1.00  0.00    -0.142 NA
ATOM     17  S   UNL     1      -6.107   6.355  -8.744  1.00  0.00    -0.080 S 
ATOM     18  N   UNL     1      -4.411   5.997  -6.876  1.00  0.00    -0.120 NA
BRANCH  15  19
ATOM     19  C   UNL     1      -6.757   8.760  -7.407  1.00  0.00     0.074 C 
BRANCH  19  20
ATOM     20  C   UNL     1      -8.129   8.490  -6.772  1.00  0.00     0.043 C 
BRANCH  20  21
ATOM     21  C   UNL     1      -8.094   8.016  -5.337  1.00  0.00    -0.047 A 
ATOM     22  C   UNL     1      -8.035   7.123  -2.677  1.00  0.00     0.118 A 
ATOM     23  C   UNL     1      -7.856   6.219  -3.718  1.00  0.00     0.046 A 
ATOM     24  C   UNL     1      -8.219   8.476  -2.950  1.00  0.00     0.046 A 
ATOM     25  C   UNL     1      -7.899   6.659  -5.041  1.00  0.00     0.007 A 
ATOM     26  C   UNL     1      -8.248   8.921  -4.276  1.00  0.00     0.007 A 
BRANCH  22  27
ATOM     27  O   UNL     1      -7.926   6.633  -1.405  1.00  0.00    -0.497 OA
ATOM     28  C   UNL     1      -9.114   6.850  -0.645  1.00  0.00     0.278 C 
ENDBRANCH  22  27
ENDBRANCH  20  21
ENDBRANCH  19  20
ENDBRANCH  15  19
ENDBRANCH  11  14
ENDBRANCH   6  10
ENDBRANCH   1   5
BRANCH   3  29
ATOM     29  C   UNL     1      -3.816   5.695  -3.808  1.00  0.00     0.117 C 
BRANCH  29  30
ATOM     30  C   UNL     1      -4.308   5.633  -2.369  1.00  0.00     0.042 C 
BRANCH  30  31
ATOM     31  C   UNL     1      -3.698   6.691  -1.463  1.00  0.00     0.118 C 
BRANCH  31  32
ATOM     32  N   UNL     1      -4.136   8.041  -1.786  1.00  0.00    -0.352 N 
ATOM     33  C   UNL     1      -4.892   8.941  -1.072  1.00  0.00     0.251 C 
ATOM     34  H   UNL     1      -3.841   8.366  -2.667  1.00  0.00     0.163 HD
ATOM     35  O   UNL     1      -5.264   9.976  -1.624  1.00  0.00    -0.269 OA
BRANCH  33  36
ATOM     36  C   UNL     1      -5.285   8.679   0.334  1.00  0.00     0.039 A 
ATOM     37  C   UNL     1      -6.543   9.115   0.766  1.00  0.00     0.014 A 
ATOM     38  C   UNL     1      -4.429   8.056   1.243  1.00  0.00     0.014 A 
ATOM     39  C   UNL     1      -6.966   8.860   2.073  1.00  0.00     0.010 A 
ATOM     40  C   UNL     1      -4.882   7.720   2.516  1.00  0.00     0.010 A 
ATOM     41  C   UNL     1      -6.150   8.133   2.950  1.00  0.00    -0.014 A 
BRANCH  41  42
ATOM     42  C   UNL     1      -6.578   7.856   4.345  1.00  0.00     0.031 A 
ATOM     43  C   UNL     1      -5.820   8.472   5.489  1.00  0.00     0.074 A 
ATOM     44  C   UNL     1      -7.609   7.022   4.582  1.00  0.00     0.049 A 
ATOM     45  N   UNL     1      -5.992   8.317   6.777  1.00  0.00    -0.248 NA
ATOM     46  C   UNL     1      -4.697   9.353   5.134  1.00  0.00     0.031 C 
ATOM     47  C   UNL     1      -8.382   6.327   3.552  1.00  0.00     0.029 A 
ATOM     48  N   UNL     1      -8.180   6.609   5.759  1.00  0.00    -0.354 N 
ATOM     49  C   UNL     1      -4.988   9.064   7.384  1.00  0.00     0.074 A 
ATOM     50  C   UNL     1      -4.175   9.616   6.321  1.00  0.00     0.031 C 
ATOM     51  C   UNL     1      -9.342   5.594   4.140  1.00  0.00     0.029 A 
ATOM     52  C   UNL     1      -9.227   5.732   5.589  1.00  0.00     0.049 A 
ATOM     53  H   UNL     1      -7.869   6.911   6.643  1.00  0.00     0.167 HD
ATOM     54  C   UNL     1      -4.778   9.289   8.704  1.00  0.00     0.034 A 
ATOM     55  C   UNL     1      -9.998   5.104   6.499  1.00  0.00     0.034 A 
ATOM     56  C   UNL     1      -5.609   8.740   9.747  1.00  0.00     0.049 A 
ATOM     57  C   UNL     1      -9.748   5.369   7.963  1.00  0.00     0.074 A 
ATOM     58  C   UNL     1      -5.527   8.942  11.113  1.00  0.00     0.029 A 
ATOM     59  N   UNL     1      -6.674   7.871   9.538  1.00  0.00    -0.354 N 
ATOM     60  N   UNL     1      -8.831   6.125   8.521  1.00  0.00    -0.248 NA
ATOM     61  C   UNL     1     -10.646   4.707   8.917  1.00  0.00     0.031 C 
ATOM     62  C   UNL     1      -6.499   8.148  11.733  1.00  0.00     0.029 A 
ATOM     63  C   UNL     1      -7.239   7.508  10.751  1.00  0.00     0.049 A 
ATOM     64  H   UNL     1      -6.983   7.560   8.657  1.00  0.00     0.167 HD
ATOM     65  C   UNL     1      -9.059   6.050   9.892  1.00  0.00     0.074 A 
ATOM     66  C   UNL     1     -10.212   5.190  10.072  1.00  0.00     0.031 C 
ATOM     67  C   UNL     1      -8.382   6.639  10.911  1.00  0.00     0.034 A 
BRANCH  54  68
ATOM     68  C   UNL     1      -3.586  10.138   9.079  1.00  0.00     0.023 A 
ATOM     69  C   UNL     1      -3.477  11.479   8.669  1.00  0.00     0.031 A 
ATOM     70  C   UNL     1      -2.520   9.587   9.811  1.00  0.00     0.131 A 
ATOM     71  C   UNL     1      -2.294  12.194   8.914  1.00  0.00     0.055 A 
ATOM     72  C   UNL     1      -1.381  10.331  10.127  1.00  0.00     0.041 A 
ATOM     73  F   UNL     1      -2.556   8.306  10.212  1.00  0.00    -0.206 F 
ATOM     74  C   UNL     1      -1.255  11.637   9.662  1.00  0.00     0.022 A 
BRANCH  71  75
ATOM     75  S   UNL     1      -2.071  13.801   8.103  1.00  0.00     0.124 S 
ATOM     76  O   UNL     1      -2.180  13.437   6.692  1.00  0.00    -0.237 OA
ATOM     77  O   UNL     1      -3.174  14.585   8.648  1.00  0.00    -0.237 OA
ATOM     78  O   UNL     1      -0.737  14.219   8.530  1.00  0.00    -0.744 OA
ENDBRANCH  71  75
ENDBRANCH  54  68
BRANCH  55  79
ATOM     79  C   UNL     1     -11.068   4.162   6.064  1.00  0.00     0.023 A 
ATOM     80  C   UNL     1     -12.424   4.442   6.301  1.00  0.00     0.031 A 
ATOM     81  C   UNL     1     -10.748   2.946   5.434  1.00  0.00     0.131 A 
ATOM     82  C   UNL     1     -13.405   3.501   5.951  1.00  0.00     0.055 A 
ATOM     83  C   UNL     1     -11.731   2.034   5.044  1.00  0.00     0.041 A 
ATOM     84  F   UNL     1      -9.468   2.631   5.176  1.00  0.00    -0.206 F 
ATOM     85  C   UNL     1     -13.069   2.304   5.314  1.00  0.00     0.022 A 
BRANCH  82  86
ATOM     86  S   UNL     1     -15.130   3.832   6.409  1.00  0.00     0.124 S 
ATOM     87  O   UNL     1     -15.032   3.972   7.857  1.00  0.00    -0.237 OA
ATOM     88  O   UNL     1     -15.411   5.054   5.662  1.00  0.00    -0.237 OA
ATOM     89  O   UNL     1     -15.839   2.643   5.942  1.00  0.00    -0.744 OA
ENDBRANCH  82  86
ENDBRANCH  55  79
BRANCH  67  90
ATOM     90  C   UNL     1      -8.906   6.402  12.306  1.00  0.00     0.023 A 
ATOM     91  C   UNL     1      -8.864   5.132  12.907  1.00  0.00     0.031 A 
ATOM     92  C   UNL     1      -9.469   7.462  13.038  1.00  0.00     0.131 A 
ATOM     93  C   UNL     1      -9.428   4.941  14.177  1.00  0.00     0.055 A 
ATOM     94  C   UNL     1      -9.973   7.280  14.326  1.00  0.00     0.041 A 
ATOM     95  F   UNL     1      -9.538   8.696  12.511  1.00  0.00    -0.206 F 
ATOM     96  C   UNL     1      -9.967   6.011  14.897  1.00  0.00     0.022 A 
BRANCH  93  97
ATOM     97  S   UNL     1      -9.538   3.255  14.837  1.00  0.00     0.124 S 
ATOM     98  O   UNL     1     -10.311   2.575  13.803  1.00  0.00    -0.237 OA
ATOM     99  O   UNL     1      -8.135   2.869  14.942  1.00  0.00    -0.237 OA
ATOM    100  O   UNL     1     -10.229   3.431  16.113  1.00  0.00    -0.744 OA
ENDBRANCH  93  97
ENDBRANCH  67  90
ENDBRANCH  41  42
ENDBRANCH  33  36
ENDBRANCH  31  32
ENDBRANCH  30  31
ENDBRANCH  29  30
ENDBRANCH   3  29
TORSDOF 19
