REMARK SMILES CC[NH2+][C@@]1(C(=O)NCCCNC(=O)c2ccc(-c3c4nc(c(-c5cc(S(=O)(=O)[O-])ccc5F)c5ccc([nH]5)c(-c5cc(S(=O)(=O)[O-])ccc5F)c5nc(c(-c6cc(S(=O)(=O)[O-])ccc6F)c6ccc3[nH]6)C=C5)C=C4)cc2)CC[C@H](Oc2ccc3c(c2)OCO3)C1
REMARK SMILES IDX 9 1 8 2 7 3 5 4 6 5 4 7 77 8 90 9 78 10 79 11 3 12 2 15 1 16
REMARK SMILES IDX 80 17 81 18 82 19 86 20 83 21 85 22 84 23 87 24 89 25 88 26
REMARK SMILES IDX 10 27 11 28 12 29 13 31 14 32 15 33 76 34 16 35 75 36 17 37
REMARK SMILES IDX 18 38 19 39 69 40 20 41 74 42 68 43 70 44 21 45 73 46 67 47
REMARK SMILES IDX 66 48 22 50 54 51 34 52 53 53 35 54 38 55 52 56 71 57 36 58
REMARK SMILES IDX 37 59 51 61 72 62 39 63 23 64 24 65 32 66 25 67 31 68 33 69
REMARK SMILES IDX 30 70 26 71 27 72 28 73 29 74 55 75 56 76 64 77 57 78 63 79
REMARK SMILES IDX 65 80 62 81 58 82 59 83 60 84 61 85 40 86 41 87 49 88 42 89
REMARK SMILES IDX 48 90 50 91 47 92 43 93 44 94 45 95 46 96
REMARK H PARENT 7 6 3 13 3 14 11 30 70 49 38 60
REMARK Flexibility Score: inf
ROOT
ATOM      1  C   UNL     1      -0.892   4.497   4.889  1.00  0.00     0.042 C 
ENDROOT
BRANCH   1   2
ATOM      2  C   UNL     1       0.228   4.979   3.976  1.00  0.00     0.118 C 
BRANCH   2   3
ATOM      3  N   UNL     1       1.136   3.918   3.587  1.00  0.00    -0.351 N 
ATOM      4  C   UNL     1       1.408   3.320   2.401  1.00  0.00     0.281 C 
ATOM      5  O   UNL     1       2.360   2.521   2.427  1.00  0.00    -0.268 OA
ATOM      6  H   UNL     1       1.663   3.558   4.338  1.00  0.00     0.163 HD
BRANCH   4   7
ATOM      7  C   UNL     1       0.690   3.627   1.029  1.00  0.00     0.179 C 
ATOM      8  C   UNL     1       1.363   4.877   0.403  1.00  0.00     0.083 C 
ATOM      9  C   UNL     1      -0.814   3.954   1.048  1.00  0.00     0.124 C 
ATOM     10  C   UNL     1       0.385   6.027   0.603  1.00  0.00     0.052 C 
ATOM     11  C   UNL     1      -0.968   5.350   0.422  1.00  0.00     0.180 C 
BRANCH   7  12
ATOM     12  N   UNL     1       0.991   2.479   0.106  1.00  0.00    -0.334 N 
ATOM     13  H   UNL     1       0.689   2.735  -0.834  1.00  0.00     0.347 HD
ATOM     14  H   UNL     1       1.995   2.309   0.162  1.00  0.00     0.347 HD
BRANCH  12  15
ATOM     15  C   UNL     1       0.324   1.222   0.480  1.00  0.00     0.257 C 
ATOM     16  C   UNL     1       0.938   0.061  -0.293  1.00  0.00     0.071 C 
ENDBRANCH  12  15
ENDBRANCH   7  12
BRANCH  11  17
ATOM     17  O   UNL     1      -2.189   5.948   0.852  1.00  0.00    -0.490 OA
BRANCH  17  18
ATOM     18  C   UNL     1      -2.206   6.951   1.771  1.00  0.00     0.123 A 
ATOM     19  C   UNL     1      -1.638   8.211   1.524  1.00  0.00     0.050 A 
ATOM     20  C   UNL     1      -2.998   6.745   2.905  1.00  0.00     0.097 A 
ATOM     21  C   UNL     1      -1.815   9.262   2.432  1.00  0.00     0.054 A 
ATOM     22  C   UNL     1      -3.169   7.801   3.776  1.00  0.00     0.169 A 
ATOM     23  C   UNL     1      -2.596   9.027   3.542  1.00  0.00     0.166 A 
ATOM     24  O   UNL     1      -3.922   7.791   4.909  1.00  0.00    -0.453 OA
ATOM     25  O   UNL     1      -2.935   9.947   4.484  1.00  0.00    -0.454 OA
ATOM     26  C   UNL     1      -3.889   9.191   5.261  1.00  0.00     0.468 C 
ENDBRANCH  17  18
ENDBRANCH  11  17
ENDBRANCH   4   7
ENDBRANCH   2   3
ENDBRANCH   1   2
BRANCH   1  27
ATOM     27  C   UNL     1      -0.490   4.380   6.353  1.00  0.00     0.118 C 
BRANCH  27  28
ATOM     28  N   UNL     1      -0.086   5.647   6.948  1.00  0.00    -0.352 N 
ATOM     29  C   UNL     1      -0.712   6.637   7.670  1.00  0.00     0.251 C 
ATOM     30  H   UNL     1       0.867   5.842   6.797  1.00  0.00     0.163 HD
ATOM     31  O   UNL     1      -0.052   7.645   7.903  1.00  0.00    -0.269 OA
BRANCH  29  32
ATOM     32  C   UNL     1      -2.125   6.573   8.139  1.00  0.00     0.039 A 
ATOM     33  C   UNL     1      -2.775   7.786   8.425  1.00  0.00     0.014 A 
ATOM     34  C   UNL     1      -2.815   5.389   8.374  1.00  0.00     0.014 A 
ATOM     35  C   UNL     1      -4.112   7.811   8.848  1.00  0.00     0.010 A 
ATOM     36  C   UNL     1      -4.169   5.408   8.711  1.00  0.00     0.010 A 
ATOM     37  C   UNL     1      -4.830   6.617   8.960  1.00  0.00    -0.014 A 
BRANCH  37  38
ATOM     38  C   UNL     1      -6.236   6.577   9.436  1.00  0.00     0.031 A 
ATOM     39  C   UNL     1      -6.540   5.934  10.761  1.00  0.00     0.074 A 
ATOM     40  C   UNL     1      -7.238   7.017   8.652  1.00  0.00     0.049 A 
ATOM     41  N   UNL     1      -7.694   5.646  11.304  1.00  0.00    -0.248 NA
ATOM     42  C   UNL     1      -5.376   5.516  11.556  1.00  0.00     0.031 C 
ATOM     43  C   UNL     1      -7.074   7.625   7.333  1.00  0.00     0.029 A 
ATOM     44  N   UNL     1      -8.596   6.995   8.843  1.00  0.00    -0.354 N 
ATOM     45  C   UNL     1      -7.396   4.995  12.496  1.00  0.00     0.074 A 
ATOM     46  C   UNL     1      -5.955   4.860  12.548  1.00  0.00     0.031 C 
ATOM     47  C   UNL     1      -8.285   7.933   6.838  1.00  0.00     0.029 A 
ATOM     48  C   UNL     1      -9.311   7.503   7.784  1.00  0.00     0.049 A 
ATOM     49  H   UNL     1      -9.020   6.649   9.662  1.00  0.00     0.167 HD
ATOM     50  C   UNL     1      -8.239   4.573  13.472  1.00  0.00     0.034 A 
ATOM     51  C   UNL     1     -10.643   7.593   7.594  1.00  0.00     0.034 A 
ATOM     52  C   UNL     1      -9.673   4.715  13.401  1.00  0.00     0.049 A 
ATOM     53  C   UNL     1     -11.571   7.077   8.666  1.00  0.00     0.074 A 
ATOM     54  C   UNL     1     -10.625   4.366  14.341  1.00  0.00     0.029 A 
ATOM     55  N   UNL     1     -10.363   5.243  12.316  1.00  0.00    -0.354 N 
ATOM     56  N   UNL     1     -11.277   6.504   9.811  1.00  0.00    -0.248 NA
ATOM     57  C   UNL     1     -13.011   7.226   8.419  1.00  0.00     0.031 C 
ATOM     58  C   UNL     1     -11.891   4.625  13.801  1.00  0.00     0.029 A 
ATOM     59  C   UNL     1     -11.728   5.203  12.551  1.00  0.00     0.049 A 
ATOM     60  H   UNL     1      -9.942   5.595  11.498  1.00  0.00     0.167 HD
ATOM     61  C   UNL     1     -12.497   6.258  10.436  1.00  0.00     0.074 A 
ATOM     62  C   UNL     1     -13.527   6.748   9.542  1.00  0.00     0.031 C 
ATOM     63  C   UNL     1     -12.743   5.689  11.645  1.00  0.00     0.034 A 
BRANCH  50  64
ATOM     64  C   UNL     1      -7.610   3.896  14.668  1.00  0.00     0.023 A 
ATOM     65  C   UNL     1      -6.667   4.564  15.472  1.00  0.00     0.031 A 
ATOM     66  C   UNL     1      -7.872   2.545  14.950  1.00  0.00     0.131 A 
ATOM     67  C   UNL     1      -5.930   3.849  16.427  1.00  0.00     0.055 A 
ATOM     68  C   UNL     1      -7.209   1.866  15.976  1.00  0.00     0.041 A 
ATOM     69  F   UNL     1      -8.748   1.848  14.210  1.00  0.00    -0.206 F 
ATOM     70  C   UNL     1      -6.212   2.511  16.704  1.00  0.00     0.022 A 
BRANCH  67  71
ATOM     71  S   UNL     1      -4.460   4.638  17.142  1.00  0.00     0.124 S 
ATOM     72  O   UNL     1      -3.680   4.944  15.945  1.00  0.00    -0.237 OA
ATOM     73  O   UNL     1      -5.027   5.782  17.845  1.00  0.00    -0.237 OA
ATOM     74  O   UNL     1      -3.893   3.596  17.996  1.00  0.00    -0.744 OA
ENDBRANCH  67  71
ENDBRANCH  50  64
BRANCH  51  75
ATOM     75  C   UNL     1     -11.188   8.196   6.346  1.00  0.00     0.023 A 
ATOM     76  C   UNL     1     -11.880   9.417   6.386  1.00  0.00     0.031 A 
ATOM     77  C   UNL     1     -11.057   7.550   5.105  1.00  0.00     0.131 A 
ATOM     78  C   UNL     1     -12.451   9.936   5.213  1.00  0.00     0.055 A 
ATOM     79  C   UNL     1     -11.589   8.092   3.933  1.00  0.00     0.041 A 
ATOM     80  F   UNL     1     -10.398   6.384   5.013  1.00  0.00    -0.206 F 
ATOM     81  C   UNL     1     -12.300   9.288   3.986  1.00  0.00     0.022 A 
BRANCH  78  82
ATOM     82  S   UNL     1     -13.442  11.450   5.328  1.00  0.00     0.124 S 
ATOM     83  O   UNL     1     -14.518  11.033   6.220  1.00  0.00    -0.237 OA
ATOM     84  O   UNL     1     -12.483  12.401   5.880  1.00  0.00    -0.237 OA
ATOM     85  O   UNL     1     -13.839  11.703   3.945  1.00  0.00    -0.744 OA
ENDBRANCH  78  82
ENDBRANCH  51  75
BRANCH  63  86
ATOM     86  C   UNL     1     -14.184   5.619  12.089  1.00  0.00     0.023 A 
ATOM     87  C   UNL     1     -15.121   4.789  11.450  1.00  0.00     0.031 A 
ATOM     88  C   UNL     1     -14.623   6.402  13.172  1.00  0.00     0.131 A 
ATOM     89  C   UNL     1     -16.461   4.797  11.869  1.00  0.00     0.055 A 
ATOM     90  C   UNL     1     -15.943   6.363  13.621  1.00  0.00     0.041 A 
ATOM     91  F   UNL     1     -13.770   7.215  13.818  1.00  0.00    -0.206 F 
ATOM     92  C   UNL     1     -16.874   5.566  12.961  1.00  0.00     0.022 A 
BRANCH  89  93
ATOM     93  S   UNL     1     -17.679   3.849  10.917  1.00  0.00     0.124 S 
ATOM     94  O   UNL     1     -17.559   4.445   9.590  1.00  0.00    -0.237 OA
ATOM     95  O   UNL     1     -17.183   2.482  11.048  1.00  0.00    -0.237 OA
ATOM     96  O   UNL     1     -18.939   4.119  11.606  1.00  0.00    -0.744 OA
ENDBRANCH  89  93
ENDBRANCH  63  86
ENDBRANCH  37  38
ENDBRANCH  29  32
ENDBRANCH  27  28
ENDBRANCH   1  27
TORSDOF 17
