REMARK SMILES O=C(NCCCNC(=O)c1cc(Br)ccc1N1CC2(CCCCC2)C1)c1ccc(-c2c3nc(c(-c4cc(S(=O)(=O)[O-])ccc4F)c4ccc([nH]4)c(-c4cc(S(=O)(=O)[O-])ccc4F)c4nc(c(-c5cc(S(=O)(=O)[O-])ccc5F)c5ccc2[nH]5)C=C4)C=C3)cc1
REMARK SMILES IDX 4 1 3 2 1 3 2 4 26 6 27 7 88 8 28 9 87 10 29 11 30 12 31 13
REMARK SMILES IDX 81 14 32 15 86 16 80 17 82 18 33 19 85 20 79 21 78 22 34 24
REMARK SMILES IDX 66 25 46 26 65 27 47 28 50 29 64 30 83 31 48 32 49 33 63 35
REMARK SMILES IDX 84 36 51 37 35 38 36 39 44 40 37 41 43 42 45 43 42 44 38 45
REMARK SMILES IDX 39 46 40 47 41 48 67 49 68 50 76 51 69 52 75 53 77 54 74 55
REMARK SMILES IDX 70 56 71 57 72 58 73 59 52 60 53 61 61 62 54 63 60 64 62 65
REMARK SMILES IDX 59 66 55 67 56 68 57 69 58 70 5 71 6 72 7 73 8 74 9 76 10 77
REMARK SMILES IDX 11 78 16 79 12 80 15 81 13 82 14 83 17 84 18 85 25 86 19 87
REMARK SMILES IDX 20 88 24 89 21 90 23 91 22 92
REMARK H PARENT 3 5 82 23 50 34 7 75
REMARK Flexibility Score: inf
ROOT
ATOM      1  C   UNL     1       4.690  -1.474  -0.224  1.00  0.00     0.118 C 
ENDROOT
BRANCH   1   2
ATOM      2  N   UNL     1       3.262  -1.194  -0.313  1.00  0.00    -0.352 N 
ATOM      3  O   UNL     1       1.308  -0.127  -0.063  1.00  0.00    -0.269 OA
ATOM      4  C   UNL     1       2.537  -0.063  -0.030  1.00  0.00     0.251 C 
ATOM      5  H   UNL     1       2.721  -1.952  -0.632  1.00  0.00     0.163 HD
BRANCH   4   6
ATOM      6  C   UNL     1       3.192   1.214   0.335  1.00  0.00     0.039 A 
ATOM      7  C   UNL     1       4.336   1.671  -0.321  1.00  0.00     0.014 A 
ATOM      8  C   UNL     1       2.610   2.004   1.335  1.00  0.00     0.014 A 
ATOM      9  C   UNL     1       4.981   2.824   0.123  1.00  0.00     0.010 A 
ATOM     10  C   UNL     1       3.215   3.203   1.727  1.00  0.00     0.010 A 
ATOM     11  C   UNL     1       4.432   3.600   1.155  1.00  0.00    -0.014 A 
BRANCH  11  12
ATOM     12  C   UNL     1       5.147   4.821   1.615  1.00  0.00     0.031 A 
ATOM     13  C   UNL     1       5.738   4.892   2.997  1.00  0.00     0.074 A 
ATOM     14  C   UNL     1       5.299   5.854   0.765  1.00  0.00     0.049 A 
ATOM     15  N   UNL     1       6.441   5.851   3.548  1.00  0.00    -0.248 NA
ATOM     16  C   UNL     1       5.495   3.744   3.881  1.00  0.00     0.031 C 
ATOM     17  C   UNL     1       4.754   5.917  -0.593  1.00  0.00     0.029 A 
ATOM     18  N   UNL     1       5.977   7.038   0.906  1.00  0.00    -0.354 N 
ATOM     19  C   UNL     1       6.707   5.432   4.847  1.00  0.00     0.074 A 
ATOM     20  C   UNL     1       6.059   4.146   5.010  1.00  0.00     0.031 C 
ATOM     21  C   UNL     1       5.162   7.054  -1.177  1.00  0.00     0.029 A 
ATOM     22  C   UNL     1       5.962   7.817  -0.226  1.00  0.00     0.049 A 
ATOM     23  H   UNL     1       6.431   7.303   1.738  1.00  0.00     0.167 HD
ATOM     24  C   UNL     1       7.433   6.053   5.812  1.00  0.00     0.034 A 
ATOM     25  C   UNL     1       6.530   9.012  -0.473  1.00  0.00     0.034 A 
ATOM     26  C   UNL     1       8.089   7.326   5.636  1.00  0.00     0.049 A 
ATOM     27  C   UNL     1       7.337   9.678   0.604  1.00  0.00     0.074 A 
ATOM     28  C   UNL     1       8.883   8.022   6.533  1.00  0.00     0.029 A 
ATOM     29  N   UNL     1       8.025   8.100   4.485  1.00  0.00    -0.354 N 
ATOM     30  N   UNL     1       7.590   9.261   1.822  1.00  0.00    -0.248 NA
ATOM     31  C   UNL     1       7.935  10.977   0.271  1.00  0.00     0.031 C 
ATOM     32  C   UNL     1       9.261   9.234   5.940  1.00  0.00     0.029 A 
ATOM     33  C   UNL     1       8.744   9.273   4.655  1.00  0.00     0.049 A 
ATOM     34  H   UNL     1       7.539   7.851   3.665  1.00  0.00     0.167 HD
ATOM     35  C   UNL     1       8.382  10.246   2.401  1.00  0.00     0.074 A 
ATOM     36  C   UNL     1       8.578  11.269   1.393  1.00  0.00     0.031 C 
ATOM     37  C   UNL     1       8.903  10.298   3.652  1.00  0.00     0.034 A 
BRANCH  24  38
ATOM     38  C   UNL     1       7.511   5.372   7.155  1.00  0.00     0.023 A 
ATOM     39  C   UNL     1       8.171   4.142   7.323  1.00  0.00     0.031 A 
ATOM     40  C   UNL     1       6.873   5.936   8.274  1.00  0.00     0.131 A 
ATOM     41  C   UNL     1       8.115   3.479   8.559  1.00  0.00     0.055 A 
ATOM     42  C   UNL     1       6.880   5.305   9.520  1.00  0.00     0.041 A 
ATOM     43  F   UNL     1       6.211   7.099   8.168  1.00  0.00    -0.206 F 
ATOM     44  C   UNL     1       7.489   4.062   9.664  1.00  0.00     0.022 A 
BRANCH  41  45
ATOM     45  S   UNL     1       8.739   1.779   8.660  1.00  0.00     0.124 S 
ATOM     46  O   UNL     1       7.979   1.118   7.601  1.00  0.00    -0.237 OA
ATOM     47  O   UNL     1      10.165   1.952   8.411  1.00  0.00    -0.237 OA
ATOM     48  O   UNL     1       8.387   1.365  10.017  1.00  0.00    -0.744 OA
ENDBRANCH  41  45
ENDBRANCH  24  38
BRANCH  25  49
ATOM     49  C   UNL     1       6.344   9.658  -1.798  1.00  0.00     0.023 A 
ATOM     50  C   UNL     1       7.398   9.728  -2.720  1.00  0.00     0.031 A 
ATOM     51  C   UNL     1       5.102  10.207  -2.158  1.00  0.00     0.131 A 
ATOM     52  C   UNL     1       7.195  10.355  -3.959  1.00  0.00     0.055 A 
ATOM     53  C   UNL     1       4.897  10.803  -3.402  1.00  0.00     0.041 A 
ATOM     54  F   UNL     1       4.064  10.149  -1.309  1.00  0.00    -0.206 F 
ATOM     55  C   UNL     1       5.950  10.884  -4.309  1.00  0.00     0.022 A 
BRANCH  52  56
ATOM     56  S   UNL     1       8.593  10.485  -5.107  1.00  0.00     0.124 S 
ATOM     57  O   UNL     1       9.519  11.324  -4.356  1.00  0.00    -0.237 OA
ATOM     58  O   UNL     1       8.982   9.088  -5.272  1.00  0.00    -0.237 OA
ATOM     59  O   UNL     1       8.004  11.107  -6.291  1.00  0.00    -0.744 OA
ENDBRANCH  52  56
ENDBRANCH  25  49
BRANCH  37  60
ATOM     60  C   UNL     1       9.745  11.501   3.978  1.00  0.00     0.023 A 
ATOM     61  C   UNL     1       9.167  12.768   4.168  1.00  0.00     0.031 A 
ATOM     62  C   UNL     1      11.143  11.385   4.063  1.00  0.00     0.131 A 
ATOM     63  C   UNL     1       9.990  13.882   4.389  1.00  0.00     0.055 A 
ATOM     64  C   UNL     1      11.954  12.490   4.322  1.00  0.00     0.041 A 
ATOM     65  F   UNL     1      11.741  10.196   3.885  1.00  0.00    -0.206 F 
ATOM     66  C   UNL     1      11.379  13.749   4.476  1.00  0.00     0.022 A 
BRANCH  63  67
ATOM     67  S   UNL     1       9.226  15.525   4.486  1.00  0.00     0.124 S 
ATOM     68  O   UNL     1       8.555  15.626   3.193  1.00  0.00    -0.237 OA
ATOM     69  O   UNL     1       8.354  15.395   5.649  1.00  0.00    -0.237 OA
ATOM     70  O   UNL     1      10.365  16.423   4.664  1.00  0.00    -0.744 OA
ENDBRANCH  63  67
ENDBRANCH  37  60
ENDBRANCH  11  12
ENDBRANCH   4   6
ENDBRANCH   1   2
BRANCH   1  71
ATOM     71  C   UNL     1       5.044  -2.504   0.845  1.00  0.00     0.042 C 
BRANCH  71  72
ATOM     72  C   UNL     1       4.358  -3.856   0.696  1.00  0.00     0.118 C 
BRANCH  72  73
ATOM     73  N   UNL     1       4.567  -4.462  -0.610  1.00  0.00    -0.352 N 
ATOM     74  C   UNL     1       5.311  -5.553  -0.980  1.00  0.00     0.253 C 
ATOM     75  H   UNL     1       4.097  -4.015  -1.350  1.00  0.00     0.163 HD
ATOM     76  O   UNL     1       5.339  -5.886  -2.163  1.00  0.00    -0.269 OA
BRANCH  74  77
ATOM     77  C   UNL     1       6.010  -6.369   0.033  1.00  0.00     0.064 A 
ATOM     78  C   UNL     1       5.196  -7.010   0.986  1.00  0.00     0.031 A 
ATOM     79  C   UNL     1       7.382  -6.673  -0.060  1.00  0.00     0.050 A 
ATOM     80  C   UNL     1       5.752  -7.906   1.891  1.00  0.00     0.018 A 
ATOM     81  C   UNL     1       7.905  -7.605   0.858  1.00  0.00     0.028 A 
ATOM     82  Br  UNL     1       4.654  -8.741   3.182  1.00  0.00    -0.051 Br
ATOM     83  C   UNL     1       7.107  -8.206   1.835  1.00  0.00     0.018 A 
BRANCH  79  84
ATOM     84  N   UNL     1       8.270  -6.132  -1.002  1.00  0.00    -0.370 N 
ATOM     85  C   UNL     1       8.390  -4.862  -1.632  1.00  0.00     0.125 C 
ATOM     86  C   UNL     1       9.109  -6.830  -1.921  1.00  0.00     0.125 C 
ATOM     87  C   UNL     1       9.158  -5.552  -2.788  1.00  0.00     0.005 C 
ATOM     88  C   UNL     1      10.588  -5.074  -3.058  1.00  0.00     0.011 C 
ATOM     89  C   UNL     1       8.357  -5.662  -4.094  1.00  0.00     0.011 C 
ATOM     90  C   UNL     1      10.575  -3.736  -3.794  1.00  0.00     0.001 C 
ATOM     91  C   UNL     1       8.334  -4.310  -4.807  1.00  0.00     0.001 C 
ATOM     92  C   UNL     1       9.748  -3.803  -5.077  1.00  0.00     0.000 C 
ENDBRANCH  79  84
ENDBRANCH  74  77
ENDBRANCH  72  73
ENDBRANCH  71  72
ENDBRANCH   1  71
TORSDOF 14
