REMARK SMILES C[C@H](Nc1nccc(-c2cc(C(=O)NCCCNC(=O)c3ccc(-c4c5nc(c(-c6cc(S(=O)(=O)[O-])ccc6F)c6ccc([nH]6)c(-c6cc(S(=O)(=O)[O-])ccc6F)c6nc(c(-c7cc(S(=O)(=O)[O-])ccc7F)c7ccc4[nH]7)C=C6)C=C5)cc3)ccn2)n1)c1cn2ccsc2n1
REMARK SMILES IDX 15 1 14 2 12 3 13 4 11 6 9 7 10 8 86 9 85 10 84 11 8 12 4 13
REMARK SMILES IDX 5 14 87 15 6 16 7 17 3 18 2 20 1 21 88 22 89 23 95 24 90 25
REMARK SMILES IDX 94 26 91 27 93 28 92 29 16 30 17 31 18 32 19 33 20 35 21 36
REMARK SMILES IDX 22 37 83 38 23 39 82 40 24 41 25 42 26 43 76 44 27 45 81 46
REMARK SMILES IDX 75 47 77 48 28 49 80 50 74 51 73 52 29 54 61 55 41 56 60 57
REMARK SMILES IDX 42 58 45 59 59 60 78 61 43 62 44 63 58 65 79 66 46 67 30 68
REMARK SMILES IDX 31 69 39 70 32 71 38 72 40 73 37 74 33 75 34 76 35 77 36 78
REMARK SMILES IDX 62 79 63 80 71 81 64 82 70 83 72 84 69 85 65 86 66 87 67 88
REMARK SMILES IDX 68 89 47 90 48 91 56 92 49 93 55 94 57 95 54 96 50 97 51 98
REMARK SMILES IDX 52 99 53 100
REMARK H PARENT 14 5 3 19 18 34 77 53 45 64
REMARK Flexibility Score: inf
ROOT
ATOM      1  C   UNL     1       7.896  -0.857   3.194  1.00  0.00     0.118 C 
ENDROOT
BRANCH   1   2
ATOM      2  N   UNL     1       8.405  -2.211   3.063  1.00  0.00    -0.352 N 
ATOM      3  C   UNL     1       8.093  -3.265   2.245  1.00  0.00     0.251 C 
ATOM      4  O   UNL     1       8.756  -4.295   2.376  1.00  0.00    -0.269 OA
ATOM      5  H   UNL     1       9.130  -2.414   3.697  1.00  0.00     0.163 HD
BRANCH   3   6
ATOM      6  C   UNL     1       7.064  -3.207   1.173  1.00  0.00     0.043 A 
ATOM      7  C   UNL     1       5.322  -2.132  -0.075  1.00  0.00     0.090 A 
ATOM      8  C   UNL     1       6.075  -2.240   1.088  1.00  0.00     0.044 A 
ATOM      9  N   UNL     1       5.402  -3.039  -1.077  1.00  0.00    -0.255 NA
ATOM     10  C   UNL     1       6.260  -4.067  -0.908  1.00  0.00     0.112 A 
ATOM     11  C   UNL     1       7.123  -4.175   0.167  1.00  0.00     0.034 A 
BRANCH   7  12
ATOM     12  C   UNL     1       4.496  -0.937  -0.281  1.00  0.00     0.094 A 
ATOM     13  C   UNL     1       2.410   0.004  -0.249  1.00  0.00     0.223 A 
ATOM     14  N   UNL     1       2.891   1.236  -0.451  1.00  0.00    -0.222 NA
ATOM     15  N   UNL     1       3.166  -1.095  -0.153  1.00  0.00    -0.211 NA
ATOM     16  C   UNL     1       4.223   1.368  -0.525  1.00  0.00     0.117 A 
ATOM     17  C   UNL     1       5.083   0.305  -0.452  1.00  0.00     0.051 A 
BRANCH  13  18
ATOM     18  N   UNL     1       1.064  -0.081  -0.036  1.00  0.00    -0.346 N 
ATOM     19  H   UNL     1       0.437   0.439  -0.588  1.00  0.00     0.164 HD
BRANCH  18  20
ATOM     20  C   UNL     1       0.573  -0.949   1.020  1.00  0.00     0.130 C 
ATOM     21  C   UNL     1       1.073  -0.440   2.384  1.00  0.00     0.038 C 
BRANCH  20  22
ATOM     22  C   UNL     1      -0.933  -1.015   1.038  1.00  0.00     0.082 A 
ATOM     23  C   UNL     1      -1.759  -2.134   1.083  1.00  0.00     0.119 A 
ATOM     24  N   UNL     1      -1.681   0.161   0.995  1.00  0.00    -0.222 NA
ATOM     25  N   UNL     1      -3.019  -1.622   1.088  1.00  0.00    -0.297 N 
ATOM     26  C   UNL     1      -2.910  -0.266   1.037  1.00  0.00     0.193 A 
ATOM     27  C   UNL     1      -4.302  -2.114   1.131  1.00  0.00     0.104 A 
ATOM     28  S   UNL     1      -4.472   0.490   1.037  1.00  0.00    -0.105 S 
ATOM     29  C   UNL     1      -5.209  -1.122   1.116  1.00  0.00     0.087 A 
ENDBRANCH  20  22
ENDBRANCH  18  20
ENDBRANCH  13  18
ENDBRANCH   7  12
ENDBRANCH   3   6
ENDBRANCH   1   2
BRANCH   1  30
ATOM     30  C   UNL     1       6.899  -0.764   4.347  1.00  0.00     0.042 C 
BRANCH  30  31
ATOM     31  C   UNL     1       7.600  -0.693   5.700  1.00  0.00     0.118 C 
BRANCH  31  32
ATOM     32  N   UNL     1       8.427   0.507   5.808  1.00  0.00    -0.352 N 
ATOM     33  C   UNL     1       8.315   1.580   6.648  1.00  0.00     0.251 C 
ATOM     34  H   UNL     1       9.182   0.549   5.178  1.00  0.00     0.163 HD
ATOM     35  O   UNL     1       8.914   2.623   6.375  1.00  0.00    -0.269 OA
BRANCH  33  36
ATOM     36  C   UNL     1       7.484   1.485   7.860  1.00  0.00     0.039 A 
ATOM     37  C   UNL     1       6.729   2.588   8.257  1.00  0.00     0.014 A 
ATOM     38  C   UNL     1       7.465   0.307   8.612  1.00  0.00     0.014 A 
ATOM     39  C   UNL     1       5.907   2.486   9.378  1.00  0.00     0.010 A 
ATOM     40  C   UNL     1       6.568   0.173   9.662  1.00  0.00     0.010 A 
ATOM     41  C   UNL     1       5.785   1.264  10.062  1.00  0.00    -0.014 A 
BRANCH  41  42
ATOM     42  C   UNL     1       4.838   1.113  11.194  1.00  0.00     0.031 A 
ATOM     43  C   UNL     1       5.346   0.752  12.561  1.00  0.00     0.074 A 
ATOM     44  C   UNL     1       3.517   1.263  10.973  1.00  0.00     0.049 A 
ATOM     45  N   UNL     1       4.668   0.536  13.658  1.00  0.00    -0.248 NA
ATOM     46  C   UNL     1       6.800   0.592  12.712  1.00  0.00     0.031 C 
ATOM     47  C   UNL     1       2.910   1.586   9.679  1.00  0.00     0.029 A 
ATOM     48  N   UNL     1       2.446   1.169  11.825  1.00  0.00    -0.354 N 
ATOM     49  C   UNL     1       5.610   0.213  14.628  1.00  0.00     0.074 A 
ATOM     50  C   UNL     1       6.899   0.194  13.971  1.00  0.00     0.031 C 
ATOM     51  C   UNL     1       1.584   1.711   9.835  1.00  0.00     0.029 A 
ATOM     52  C   UNL     1       1.234   1.403  11.217  1.00  0.00     0.049 A 
ATOM     53  H   UNL     1       2.536   0.953  12.781  1.00  0.00     0.167 HD
ATOM     54  C   UNL     1       5.417  -0.022  15.948  1.00  0.00     0.034 A 
ATOM     55  C   UNL     1      -0.019   1.353  11.709  1.00  0.00     0.034 A 
ATOM     56  C   UNL     1       4.122  -0.009  16.580  1.00  0.00     0.049 A 
ATOM     57  C   UNL     1      -0.212   1.006  13.164  1.00  0.00     0.074 A 
ATOM     58  C   UNL     1       3.819  -0.200  17.916  1.00  0.00     0.029 A 
ATOM     59  N   UNL     1       2.913   0.183  15.922  1.00  0.00    -0.354 N 
ATOM     60  N   UNL     1       0.696   0.745  14.077  1.00  0.00    -0.248 NA
ATOM     61  C   UNL     1      -1.593   0.952  13.655  1.00  0.00     0.031 C 
ATOM     62  C   UNL     1       2.429  -0.234  18.048  1.00  0.00     0.029 A 
ATOM     63  C   UNL     1       1.863   0.061  16.819  1.00  0.00     0.049 A 
ATOM     64  H   UNL     1       2.817   0.377  14.962  1.00  0.00     0.167 HD
ATOM     65  C   UNL     1      -0.008   0.534  15.259  1.00  0.00     0.074 A 
ATOM     66  C   UNL     1      -1.410   0.712  14.944  1.00  0.00     0.031 C 
ATOM     67  C   UNL     1       0.465   0.229  16.495  1.00  0.00     0.034 A 
BRANCH  54  68
ATOM     68  C   UNL     1       6.627  -0.354  16.785  1.00  0.00     0.023 A 
ATOM     69  C   UNL     1       7.691   0.551  16.940  1.00  0.00     0.031 A 
ATOM     70  C   UNL     1       6.724  -1.600  17.429  1.00  0.00     0.131 A 
ATOM     71  C   UNL     1       8.836   0.168  17.654  1.00  0.00     0.055 A 
ATOM     72  C   UNL     1       7.822  -1.936  18.222  1.00  0.00     0.041 A 
ATOM     73  F   UNL     1       5.754  -2.518  17.292  1.00  0.00    -0.206 F 
ATOM     74  C   UNL     1       8.894  -1.056  18.326  1.00  0.00     0.022 A 
BRANCH  71  75
ATOM     75  S   UNL     1      10.311   1.215  17.544  1.00  0.00     0.124 S 
ATOM     76  O   UNL     1      10.533   1.259  16.101  1.00  0.00    -0.237 OA
ATOM     77  O   UNL     1       9.864   2.459  18.160  1.00  0.00    -0.237 OA
ATOM     78  O   UNL     1      11.317   0.470  18.298  1.00  0.00    -0.744 OA
ENDBRANCH  71  75
ENDBRANCH  54  68
BRANCH  55  79
ATOM     79  C   UNL     1      -1.191   1.603  10.820  1.00  0.00     0.023 A 
ATOM     80  C   UNL     1      -2.091   2.648  11.081  1.00  0.00     0.031 A 
ATOM     81  C   UNL     1      -1.464   0.757   9.729  1.00  0.00     0.131 A 
ATOM     82  C   UNL     1      -3.250   2.782  10.302  1.00  0.00     0.055 A 
ATOM     83  C   UNL     1      -2.575   0.946   8.907  1.00  0.00     0.041 A 
ATOM     84  F   UNL     1      -0.645  -0.267   9.440  1.00  0.00    -0.206 F 
ATOM     85  C   UNL     1      -3.486   1.954   9.202  1.00  0.00     0.022 A 
BRANCH  82  86
ATOM     86  S   UNL     1      -4.518   3.964  10.834  1.00  0.00     0.124 S 
ATOM     87  O   UNL     1      -4.805   3.496  12.185  1.00  0.00    -0.237 OA
ATOM     88  O   UNL     1      -3.811   5.237  10.732  1.00  0.00    -0.237 OA
ATOM     89  O   UNL     1      -5.593   3.769   9.864  1.00  0.00    -0.744 OA
ENDBRANCH  82  86
ENDBRANCH  55  79
BRANCH  67  90
ATOM     90  C   UNL     1      -0.539   0.125  17.618  1.00  0.00     0.023 A 
ATOM     91  C   UNL     1      -1.548  -0.852  17.628  1.00  0.00     0.031 A 
ATOM     92  C   UNL     1      -0.482   1.026  18.698  1.00  0.00     0.131 A 
ATOM     93  C   UNL     1      -2.498  -0.863  18.660  1.00  0.00     0.055 A 
ATOM     94  C   UNL     1      -1.375   0.952  19.767  1.00  0.00     0.041 A 
ATOM     95  F   UNL     1       0.452   1.990  18.738  1.00  0.00    -0.206 F 
ATOM     96  C   UNL     1      -2.401   0.013  19.744  1.00  0.00     0.022 A 
BRANCH  93  97
ATOM     97  S   UNL     1      -3.942  -1.947  18.497  1.00  0.00     0.124 S 
ATOM     98  O   UNL     1      -4.509  -1.504  17.227  1.00  0.00    -0.237 OA
ATOM     99  O   UNL     1      -3.339  -3.276  18.496  1.00  0.00    -0.237 OA
ATOM    100  O   UNL     1      -4.743  -1.631  19.678  1.00  0.00    -0.744 OA
ENDBRANCH  93  97
ENDBRANCH  67  90
ENDBRANCH  41  42
ENDBRANCH  33  36
ENDBRANCH  31  32
ENDBRANCH  30  31
ENDBRANCH   1  30
TORSDOF 17
