REMARK SMILES C[C@@H](C(=O)NCCCNC(=O)c1ccc(-c2c3nc(c(-c4cc(S(=O)(=O)[O-])ccc4F)c4ccc([nH]4)c(-c4cc(S(=O)(=O)[O-])ccc4F)c4nc(c(-c5cc(S(=O)(=O)[O-])ccc5F)c5ccc2[nH]5)C=C4)C=C3)cc1)N1C(=O)c2nccnc2C1=O
REMARK SMILES IDX 8 1 7 2 6 3 5 4 3 5 4 6 2 8 1 9 75 10 76 11 84 12 77 13
REMARK SMILES IDX 78 14 83 15 85 16 79 17 82 18 80 19 81 20 9 21 10 22 11 24
REMARK SMILES IDX 12 25 13 26 74 27 14 28 73 29 15 30 16 31 17 32 67 33 18 34
REMARK SMILES IDX 72 35 66 36 68 37 19 38 71 39 65 40 64 41 20 43 52 44 32 45
REMARK SMILES IDX 51 46 33 47 36 48 50 49 69 50 34 51 35 52 49 54 70 55 37 56
REMARK SMILES IDX 21 57 22 58 30 59 23 60 29 61 31 62 28 63 24 64 25 65 26 66
REMARK SMILES IDX 27 67 53 68 54 69 62 70 55 71 61 72 63 73 60 74 56 75 57 76
REMARK SMILES IDX 58 77 59 78 38 79 39 80 47 81 40 82 46 83 48 84 45 85 41 86
REMARK SMILES IDX 42 87 43 88 44 89
REMARK H PARENT 5 7 9 23 68 42 36 53
REMARK Flexibility Score: inf
ROOT
ATOM      1  C   UNL     1       4.878  -2.175   1.250  1.00  0.00     0.118 C 
ENDROOT
BRANCH   1   2
ATOM      2  C   UNL     1       4.061  -1.207   0.400  1.00  0.00     0.042 C 
BRANCH   2   3
ATOM      3  C   UNL     1       3.157  -1.881  -0.628  1.00  0.00     0.117 C 
BRANCH   3   4
ATOM      4  N   UNL     1       2.065  -2.612  -0.009  1.00  0.00    -0.354 N 
ATOM      5  C   UNL     1       0.725  -2.342  -0.008  1.00  0.00     0.243 C 
ATOM      6  O   UNL     1      -0.027  -3.176   0.505  1.00  0.00    -0.273 OA
ATOM      7  H   UNL     1       2.329  -3.422   0.484  1.00  0.00     0.163 HD
BRANCH   5   8
ATOM      8  C   UNL     1       0.198  -1.046  -0.655  1.00  0.00     0.180 C 
ATOM      9  C   UNL     1       0.609   0.212   0.103  1.00  0.00     0.042 C 
BRANCH   8  10
ATOM     10  N   UNL     1      -1.253  -1.159  -0.805  1.00  0.00    -0.259 N 
ATOM     11  C   UNL     1      -2.178  -0.941   0.189  1.00  0.00     0.282 C 
ATOM     12  C   UNL     1      -1.850  -1.604  -1.957  1.00  0.00     0.282 C 
ATOM     13  O   UNL     1      -1.999  -0.557   1.327  1.00  0.00    -0.267 OA
ATOM     14  C   UNL     1      -3.487  -1.220  -0.403  1.00  0.00     0.160 A 
ATOM     15  C   UNL     1      -3.289  -1.616  -1.699  1.00  0.00     0.160 A 
ATOM     16  O   UNL     1      -1.314  -1.909  -3.008  1.00  0.00    -0.267 OA
ATOM     17  N   UNL     1      -4.700  -1.029   0.154  1.00  0.00    -0.247 NA
ATOM     18  N   UNL     1      -4.282  -1.863  -2.578  1.00  0.00    -0.247 NA
ATOM     19  C   UNL     1      -5.718  -1.285  -0.707  1.00  0.00     0.132 A 
ATOM     20  C   UNL     1      -5.516  -1.689  -2.034  1.00  0.00     0.132 A 
ENDBRANCH   8  10
ENDBRANCH   5   8
ENDBRANCH   3   4
ENDBRANCH   2   3
ENDBRANCH   1   2
BRANCH   1  21
ATOM     21  N   UNL     1       5.848  -2.924   0.467  1.00  0.00    -0.352 N 
ATOM     22  C   UNL     1       7.207  -3.054   0.618  1.00  0.00     0.251 C 
ATOM     23  H   UNL     1       5.469  -3.418  -0.296  1.00  0.00     0.163 HD
ATOM     24  O   UNL     1       7.849  -3.585  -0.286  1.00  0.00    -0.269 OA
BRANCH  22  25
ATOM     25  C   UNL     1       7.903  -2.552   1.827  1.00  0.00     0.039 A 
ATOM     26  C   UNL     1       9.186  -2.015   1.682  1.00  0.00     0.014 A 
ATOM     27  C   UNL     1       7.339  -2.652   3.102  1.00  0.00     0.014 A 
ATOM     28  C   UNL     1       9.879  -1.545   2.801  1.00  0.00     0.010 A 
ATOM     29  C   UNL     1       7.995  -2.103   4.205  1.00  0.00     0.010 A 
ATOM     30  C   UNL     1       9.280  -1.558   4.072  1.00  0.00    -0.014 A 
BRANCH  30  31
ATOM     31  C   UNL     1      10.003  -1.035   5.264  1.00  0.00     0.031 A 
ATOM     32  C   UNL     1      10.344  -1.952   6.410  1.00  0.00     0.074 A 
ATOM     33  C   UNL     1      10.332   0.271   5.329  1.00  0.00     0.049 A 
ATOM     34  N   UNL     1      10.941  -1.678   7.542  1.00  0.00    -0.248 NA
ATOM     35  C   UNL     1       9.935  -3.359   6.275  1.00  0.00     0.031 C 
ATOM     36  C   UNL     1      10.026   1.269   4.301  1.00  0.00     0.029 A 
ATOM     37  N   UNL     1      10.993   0.987   6.296  1.00  0.00    -0.354 N 
ATOM     38  C   UNL     1      10.974  -2.872   8.255  1.00  0.00     0.074 A 
ATOM     39  C   UNL     1      10.271  -3.853   7.457  1.00  0.00     0.031 C 
ATOM     40  C   UNL     1      10.528   2.456   4.677  1.00  0.00     0.029 A 
ATOM     41  C   UNL     1      11.145   2.321   5.993  1.00  0.00     0.049 A 
ATOM     42  H   UNL     1      11.328   0.583   7.129  1.00  0.00     0.167 HD
ATOM     43  C   UNL     1      11.560  -3.135   9.451  1.00  0.00     0.034 A 
ATOM     44  C   UNL     1      11.706   3.325   6.697  1.00  0.00     0.034 A 
ATOM     45  C   UNL     1      12.260  -2.146  10.236  1.00  0.00     0.049 A 
ATOM     46  C   UNL     1      12.318   3.017   8.041  1.00  0.00     0.074 A 
ATOM     47  C   UNL     1      12.922  -2.312  11.440  1.00  0.00     0.029 A 
ATOM     48  N   UNL     1      12.383  -0.803   9.901  1.00  0.00    -0.354 N 
ATOM     49  N   UNL     1      12.381   1.871   8.680  1.00  0.00    -0.248 NA
ATOM     50  C   UNL     1      12.950   4.136   8.751  1.00  0.00     0.031 C 
ATOM     51  C   UNL     1      13.371  -1.060  11.872  1.00  0.00     0.029 A 
ATOM     52  C   UNL     1      13.079  -0.126  10.892  1.00  0.00     0.049 A 
ATOM     53  H   UNL     1      12.027  -0.391   9.081  1.00  0.00     0.167 HD
ATOM     54  C   UNL     1      13.093   2.127   9.850  1.00  0.00     0.074 A 
ATOM     55  C   UNL     1      13.451   3.529   9.816  1.00  0.00     0.031 C 
ATOM     56  C   UNL     1      13.425   1.278  10.856  1.00  0.00     0.034 A 
BRANCH  43  57
ATOM     57  C   UNL     1      11.442  -4.543   9.990  1.00  0.00     0.023 A 
ATOM     58  C   UNL     1      11.973  -5.647   9.299  1.00  0.00     0.031 A 
ATOM     59  C   UNL     1      10.768  -4.792  11.199  1.00  0.00     0.131 A 
ATOM     60  C   UNL     1      11.751  -6.948   9.776  1.00  0.00     0.055 A 
ATOM     61  C   UNL     1      10.630  -6.082  11.716  1.00  0.00     0.041 A 
ATOM     62  F   UNL     1      10.219  -3.784  11.896  1.00  0.00    -0.206 F 
ATOM     63  C   UNL     1      11.109  -7.172  10.995  1.00  0.00     0.022 A 
BRANCH  60  64
ATOM     64  S   UNL     1      12.172  -8.347   8.701  1.00  0.00     0.124 S 
ATOM     65  O   UNL     1      11.369  -8.059   7.514  1.00  0.00    -0.237 OA
ATOM     66  O   UNL     1      13.615  -8.204   8.546  1.00  0.00    -0.237 OA
ATOM     67  O   UNL     1      11.739  -9.513   9.469  1.00  0.00    -0.744 OA
ENDBRANCH  60  64
ENDBRANCH  43  57
BRANCH  44  68
ATOM     68  C   UNL     1      11.707   4.717   6.159  1.00  0.00     0.023 A 
ATOM     69  C   UNL     1      12.908   5.388   5.875  1.00  0.00     0.031 A 
ATOM     70  C   UNL     1      10.503   5.418   5.968  1.00  0.00     0.131 A 
ATOM     71  C   UNL     1      12.881   6.731   5.467  1.00  0.00     0.055 A 
ATOM     72  C   UNL     1      10.478   6.733   5.501  1.00  0.00     0.041 A 
ATOM     73  F   UNL     1       9.325   4.826   6.223  1.00  0.00    -0.206 F 
ATOM     74  C   UNL     1      11.674   7.402   5.262  1.00  0.00     0.022 A 
BRANCH  71  75
ATOM     75  S   UNL     1      14.452   7.622   5.304  1.00  0.00     0.124 S 
ATOM     76  O   UNL     1      15.015   7.478   6.642  1.00  0.00    -0.237 OA
ATOM     77  O   UNL     1      15.117   6.873   4.243  1.00  0.00    -0.237 OA
ATOM     78  O   UNL     1      14.039   8.977   4.943  1.00  0.00    -0.744 OA
ENDBRANCH  71  75
ENDBRANCH  44  68
BRANCH  56  79
ATOM     79  C   UNL     1      14.270   1.836  11.979  1.00  0.00     0.023 A 
ATOM     80  C   UNL     1      13.803   2.856  12.827  1.00  0.00     0.031 A 
ATOM     81  C   UNL     1      15.575   1.354  12.187  1.00  0.00     0.131 A 
ATOM     82  C   UNL     1      14.659   3.410  13.792  1.00  0.00     0.055 A 
ATOM     83  C   UNL     1      16.394   1.855  13.199  1.00  0.00     0.041 A 
ATOM     84  F   UNL     1      16.078   0.384  11.406  1.00  0.00    -0.206 F 
ATOM     85  C   UNL     1      15.944   2.902  13.997  1.00  0.00     0.022 A 
BRANCH  82  86
ATOM     86  S   UNL     1      14.116   4.889  14.691  1.00  0.00     0.124 S 
ATOM     87  O   UNL     1      13.822   5.815  13.602  1.00  0.00    -0.237 OA
ATOM     88  O   UNL     1      12.962   4.395  15.436  1.00  0.00    -0.237 OA
ATOM     89  O   UNL     1      15.276   5.240  15.508  1.00  0.00    -0.744 OA
ENDBRANCH  82  86
ENDBRANCH  56  79
ENDBRANCH  30  31
ENDBRANCH  22  25
ENDBRANCH   1  21
TORSDOF 14
