REMARK SMILES Cc1ccccc1/C=C1\SC(=O)N(CC(=O)Nc2ccccc2C(=O)NCCCNC(=O)c2ccc(-c3c4nc(c(-c5cc(S(=O)(=O)[O-])ccc5F)c5ccc([nH]5)c(-c5cc(S(=O)(=O)[O-])ccc5F)c5nc(c(-c6cc(S(=O)(=O)[O-])ccc6F)c6ccc3[nH]6)C=C5)C=C4)cc2)C1=O
REMARK SMILES IDX 27 1 26 2 24 3 25 4 23 6 18 7 19 8 20 9 22 10 21 11 17 12
REMARK SMILES IDX 15 13 16 14 14 16 13 17 8 18 9 19 10 20 96 21 11 22 97 23
REMARK SMILES IDX 12 24 7 25 1 26 2 27 3 28 4 29 6 30 5 31 28 32 29 33 30 34
REMARK SMILES IDX 31 35 32 37 33 38 34 39 95 40 35 41 94 42 36 43 37 44 38 45
REMARK SMILES IDX 88 46 39 47 93 48 87 49 89 50 40 51 92 52 86 53 85 54 41 56
REMARK SMILES IDX 73 57 53 58 72 59 54 60 57 61 71 62 90 63 55 64 56 65 70 67
REMARK SMILES IDX 91 68 58 69 42 70 43 71 51 72 44 73 50 74 52 75 49 76 45 77
REMARK SMILES IDX 46 78 47 79 48 80 74 81 75 82 83 83 76 84 82 85 84 86 81 87
REMARK SMILES IDX 77 88 78 89 79 90 80 91 59 92 60 93 68 94 61 95 67 96 69 97
REMARK SMILES IDX 66 98 62 99 63 100 64 101 65 102
REMARK H PARENT 26 5 17 15 30 36 89 55 57 66
REMARK Flexibility Score: inf
ROOT
ATOM      1  C   UNL     1       1.887   1.015  -3.957  1.00  0.00     0.118 C 
ENDROOT
BRANCH   1   2
ATOM      2  N   UNL     1       1.659   2.213  -3.125  1.00  0.00    -0.352 N 
ATOM      3  C   UNL     1       1.584   3.582  -3.355  1.00  0.00     0.253 C 
ATOM      4  O   UNL     1       1.154   4.330  -2.478  1.00  0.00    -0.269 OA
ATOM      5  H   UNL     1       1.528   1.988  -2.176  1.00  0.00     0.163 HD
BRANCH   3   6
ATOM      6  C   UNL     1       1.981   4.240  -4.617  1.00  0.00     0.063 A 
ATOM      7  C   UNL     1       2.480   5.562  -4.721  1.00  0.00     0.054 A 
ATOM      8  C   UNL     1       2.592   6.130  -6.016  1.00  0.00     0.027 A 
ATOM      9  C   UNL     1       2.253   5.431  -7.174  1.00  0.00     0.002 A 
ATOM     10  C   UNL     1       1.511   3.627  -5.794  1.00  0.00     0.016 A 
ATOM     11  C   UNL     1       1.696   4.174  -7.060  1.00  0.00     0.001 A 
BRANCH   7  12
ATOM     12  N   UNL     1       2.720   6.524  -3.713  1.00  0.00    -0.324 N 
ATOM     13  C   UNL     1       3.283   6.598  -2.479  1.00  0.00     0.244 C 
ATOM     14  O   UNL     1       3.244   7.721  -1.949  1.00  0.00    -0.273 OA
ATOM     15  H   UNL     1       2.376   7.404  -3.988  1.00  0.00     0.170 HD
BRANCH  13  16
ATOM     16  C   UNL     1       4.184   5.538  -1.880  1.00  0.00     0.230 C 
BRANCH  16  17
ATOM     17  N   UNL     1       3.610   4.382  -1.241  1.00  0.00    -0.259 N 
ATOM     18  C   UNL     1       0.996   2.621   0.553  1.00  0.00     0.029 C 
ATOM     19  C   UNL     1       2.244   2.985   0.137  1.00  0.00     0.083 C 
ATOM     20  S   UNL     1       3.597   2.030  -0.339  1.00  0.00    -0.022 SA
ATOM     21  C   UNL     1       2.681   4.413  -0.199  1.00  0.00     0.268 C 
ATOM     22  C   UNL     1       4.203   3.182  -1.473  1.00  0.00     0.294 C 
ATOM     23  O   UNL     1       2.328   5.410   0.413  1.00  0.00    -0.268 OA
ATOM     24  O   UNL     1       5.076   2.917  -2.288  1.00  0.00    -0.261 OA
BRANCH  18  25
ATOM     25  C   UNL     1       0.144   1.311   0.632  1.00  0.00    -0.021 A 
ATOM     26  C   UNL     1       2.064  -0.560  -0.007  1.00  0.00     0.045 C 
ATOM     27  C   UNL     1       0.680  -0.170  -0.184  1.00  0.00    -0.044 A 
ATOM     28  C   UNL     1      -0.449  -1.536  -0.653  1.00  0.00     0.004 A 
ATOM     29  C   UNL     1      -2.155  -1.485  -0.082  1.00  0.00     0.000 A 
ATOM     30  C   UNL     1      -1.623   1.401   1.054  1.00  0.00     0.008 A 
ATOM     31  C   UNL     1      -2.739  -0.008   0.794  1.00  0.00     0.001 A 
ENDBRANCH  18  25
ENDBRANCH  16  17
ENDBRANCH  13  16
ENDBRANCH   7  12
ENDBRANCH   3   6
ENDBRANCH   1   2
BRANCH   1  32
ATOM     32  C   UNL     1       3.267   0.350  -4.035  1.00  0.00     0.042 C 
BRANCH  32  33
ATOM     33  C   UNL     1       3.686  -0.713  -3.008  1.00  0.00     0.118 C 
BRANCH  33  34
ATOM     34  N   UNL     1       2.828  -1.904  -2.838  1.00  0.00    -0.352 N 
ATOM     35  C   UNL     1       2.925  -3.032  -2.015  1.00  0.00     0.251 C 
ATOM     36  H   UNL     1       2.032  -1.904  -3.417  1.00  0.00     0.163 HD
ATOM     37  O   UNL     1       2.150  -3.973  -2.200  1.00  0.00    -0.269 OA
BRANCH  35  38
ATOM     38  C   UNL     1       3.763  -3.057  -0.764  1.00  0.00     0.039 A 
ATOM     39  C   UNL     1       3.219  -3.725   0.367  1.00  0.00     0.014 A 
ATOM     40  C   UNL     1       4.756  -2.112  -0.571  1.00  0.00     0.014 A 
ATOM     41  C   UNL     1       3.420  -3.212   1.655  1.00  0.00     0.010 A 
ATOM     42  C   UNL     1       4.840  -1.514   0.668  1.00  0.00     0.010 A 
ATOM     43  C   UNL     1       4.096  -2.006   1.759  1.00  0.00    -0.014 A 
BRANCH  43  44
ATOM     44  C   UNL     1       4.284  -1.232   2.976  1.00  0.00     0.031 A 
ATOM     45  C   UNL     1       5.575  -1.556   3.604  1.00  0.00     0.074 A 
ATOM     46  C   UNL     1       3.479  -0.182   3.304  1.00  0.00     0.049 A 
ATOM     47  N   UNL     1       5.893  -1.260   4.803  1.00  0.00    -0.248 NA
ATOM     48  C   UNL     1       6.612  -2.370   2.945  1.00  0.00     0.031 C 
ATOM     49  C   UNL     1       3.746   1.004   4.120  1.00  0.00     0.029 A 
ATOM     50  N   UNL     1       2.117  -0.045   3.036  1.00  0.00    -0.354 N 
ATOM     51  C   UNL     1       7.258  -1.419   4.888  1.00  0.00     0.074 A 
ATOM     52  C   UNL     1       7.616  -2.295   3.816  1.00  0.00     0.031 C 
ATOM     53  C   UNL     1       2.583   1.566   4.517  1.00  0.00     0.029 A 
ATOM     54  C   UNL     1       1.513   0.707   4.062  1.00  0.00     0.049 A 
ATOM     55  H   UNL     1       1.651  -0.416   2.252  1.00  0.00     0.167 HD
ATOM     56  C   UNL     1       7.920  -0.598   5.739  1.00  0.00     0.034 A 
ATOM     57  C   UNL     1       0.500   0.169   4.800  1.00  0.00     0.034 A 
ATOM     58  C   UNL     1       6.939   0.178   6.502  1.00  0.00     0.049 A 
ATOM     59  C   UNL     1       1.064  -0.140   6.176  1.00  0.00     0.074 A 
ATOM     60  C   UNL     1       6.447   1.464   6.374  1.00  0.00     0.029 A 
ATOM     61  N   UNL     1       6.024  -0.519   7.278  1.00  0.00    -0.354 N 
ATOM     62  N   UNL     1       2.347  -0.218   6.420  1.00  0.00    -0.248 NA
ATOM     63  C   UNL     1       0.256  -0.278   7.380  1.00  0.00     0.031 C 
ATOM     64  C   UNL     1       5.168   1.494   7.008  1.00  0.00     0.029 A 
ATOM     65  C   UNL     1       4.901   0.238   7.533  1.00  0.00     0.049 A 
ATOM     66  H   UNL     1       6.159  -1.438   7.604  1.00  0.00     0.167 HD
ATOM     67  C   UNL     1       2.560  -0.314   7.763  1.00  0.00     0.074 A 
ATOM     68  C   UNL     1       1.214  -0.351   8.320  1.00  0.00     0.031 C 
ATOM     69  C   UNL     1       3.814  -0.336   8.315  1.00  0.00     0.034 A 
BRANCH  56  70
ATOM     70  C   UNL     1       9.392  -0.292   5.750  1.00  0.00     0.023 A 
ATOM     71  C   UNL     1       9.816   0.700   6.653  1.00  0.00     0.031 A 
ATOM     72  C   UNL     1      10.402  -0.821   4.919  1.00  0.00     0.131 A 
ATOM     73  C   UNL     1      11.146   1.139   6.701  1.00  0.00     0.055 A 
ATOM     74  C   UNL     1      11.739  -0.402   4.983  1.00  0.00     0.041 A 
ATOM     75  F   UNL     1      10.165  -1.748   3.986  1.00  0.00    -0.206 F 
ATOM     76  C   UNL     1      12.119   0.587   5.875  1.00  0.00     0.022 A 
BRANCH  73  77
ATOM     77  S   UNL     1      11.560   2.469   7.852  1.00  0.00     0.124 S 
ATOM     78  O   UNL     1      10.754   3.573   7.343  1.00  0.00    -0.237 OA
ATOM     79  O   UNL     1      11.151   1.904   9.133  1.00  0.00    -0.237 OA
ATOM     80  O   UNL     1      13.003   2.626   7.679  1.00  0.00    -0.744 OA
ENDBRANCH  73  77
ENDBRANCH  56  70
BRANCH  57  81
ATOM     81  C   UNL     1      -0.339  -0.727   3.916  1.00  0.00     0.023 A 
ATOM     82  C   UNL     1      -0.849  -0.074   2.677  1.00  0.00     0.031 A 
ATOM     83  C   UNL     1      -0.036  -2.078   3.944  1.00  0.00     0.131 A 
ATOM     84  C   UNL     1      -0.787  -0.591   1.223  1.00  0.00     0.055 A 
ATOM     85  C   UNL     1       0.035  -2.744   2.754  1.00  0.00     0.041 A 
ATOM     86  F   UNL     1       0.396  -2.695   5.052  1.00  0.00    -0.206 F 
ATOM     87  C   UNL     1      -0.242  -2.068   1.529  1.00  0.00     0.022 A 
BRANCH  84  88
ATOM     88  S   UNL     1      -1.374   0.490  -1.038  1.00  0.00     0.124 S 
ATOM     89  O   UNL     1      -2.783   0.221  -1.461  1.00  0.00    -0.237 OA
ATOM     90  O   UNL     1      -1.206   1.970  -1.075  1.00  0.00    -0.237 OA
ATOM     91  O   UNL     1      -0.508   0.020  -2.169  1.00  0.00    -0.744 OA
ENDBRANCH  84  88
ENDBRANCH  57  81
BRANCH  69  92
ATOM     92  C   UNL     1       4.110  -0.843   9.706  1.00  0.00     0.023 A 
ATOM     93  C   UNL     1       3.143  -1.506  10.460  1.00  0.00     0.031 A 
ATOM     94  C   UNL     1       5.388  -0.751  10.309  1.00  0.00     0.131 A 
ATOM     95  C   UNL     1       3.373  -1.854  11.792  1.00  0.00     0.055 A 
ATOM     96  C   UNL     1       5.663  -1.243  11.586  1.00  0.00     0.041 A 
ATOM     97  F   UNL     1       6.439  -0.195   9.692  1.00  0.00    -0.206 F 
ATOM     98  C   UNL     1       4.637  -1.756  12.359  1.00  0.00     0.022 A 
BRANCH  95  99
ATOM     99  S   UNL     1       1.925  -2.289  12.776  1.00  0.00     0.124 S 
ATOM    100  O   UNL     1       1.143  -1.056  12.710  1.00  0.00    -0.237 OA
ATOM    101  O   UNL     1       1.373  -3.422  12.039  1.00  0.00    -0.237 OA
ATOM    102  O   UNL     1       2.484  -2.606  14.087  1.00  0.00    -0.744 OA
ENDBRANCH  95  99
ENDBRANCH  69  92
ENDBRANCH  43  44
ENDBRANCH  35  38
ENDBRANCH  33  34
ENDBRANCH  32  33
ENDBRANCH   1  32
TORSDOF 17
