REMARK SMILES Cc1ncccc1NC(=O)Nc1ccc(C(=O)NCCCNC(=O)c2ccc(-c3c4nc(c(-c5cc(S(=O)(=O)[O-])ccc5F)c5ccc([nH]5)c(-c5cc(S(=O)(=O)[O-])ccc5F)c5nc(c(-c6cc(S(=O)(=O)[O-])ccc6F)c6ccc3[nH]6)C=C5)C=C4)cc2)c(O)c1
REMARK SMILES IDX 20 1 19 2 18 3 16 4 17 5 15 7 12 8 13 9 90 10 14 11 88 12
REMARK SMILES IDX 11 13 8 14 9 15 10 17 7 19 1 20 2 21 3 22 4 23 6 24 5 25
REMARK SMILES IDX 89 26 21 28 22 29 23 30 24 32 25 33 26 34 87 35 27 36 86 37
REMARK SMILES IDX 28 38 29 39 30 40 80 41 31 42 85 43 79 44 81 45 32 46 84 47
REMARK SMILES IDX 78 48 77 49 33 51 65 52 45 53 64 54 46 55 49 56 63 57 82 58
REMARK SMILES IDX 47 59 48 60 62 62 83 63 50 64 34 65 35 66 43 67 36 68 42 69
REMARK SMILES IDX 44 70 41 71 37 72 38 73 39 74 40 75 66 76 67 77 75 78 68 79
REMARK SMILES IDX 74 80 76 81 73 82 69 83 70 84 71 85 72 86 51 87 52 88 60 89
REMARK SMILES IDX 53 90 59 91 61 92 58 93 54 94 55 95 56 96 57 97
REMARK H PARENT 18 6 8 16 11 18 89 27 22 31 81 50 49 61
REMARK Flexibility Score: inf
ROOT
ATOM      1  C   UNL     1      -5.343   1.419   3.168  1.00  0.00     0.042 C 
ENDROOT
BRANCH   1   2
ATOM      2  C   UNL     1      -5.414   0.536   1.930  1.00  0.00     0.118 C 
BRANCH   2   3
ATOM      3  N   UNL     1      -5.203   1.216   0.658  1.00  0.00    -0.352 N 
ATOM      4  C   UNL     1      -4.673   0.773  -0.534  1.00  0.00     0.255 C 
ATOM      5  O   UNL     1      -4.674   1.546  -1.492  1.00  0.00    -0.269 OA
ATOM      6  H   UNL     1      -5.490   2.158   0.650  1.00  0.00     0.163 HD
BRANCH   4   7
ATOM      7  C   UNL     1      -4.008  -0.550  -0.677  1.00  0.00     0.081 A 
ATOM      8  C   UNL     1      -2.234  -2.702  -0.491  1.00  0.00     0.046 A 
ATOM      9  C   UNL     1      -1.950  -1.652  -1.361  1.00  0.00     0.027 A 
ATOM     10  C   UNL     1      -3.516  -2.804   0.055  1.00  0.00     0.073 A 
ATOM     11  C   UNL     1      -2.825  -0.564  -1.432  1.00  0.00     0.020 A 
ATOM     12  C   UNL     1      -4.408  -1.736  -0.062  1.00  0.00     0.130 A 
BRANCH   8  13
ATOM     13  N   UNL     1      -1.270  -3.627  -0.064  1.00  0.00    -0.308 N 
ATOM     14  N   UNL     1       0.797  -2.420   0.106  1.00  0.00    -0.306 N 
ATOM     15  C   UNL     1       0.080  -3.565   0.019  1.00  0.00     0.323 C 
ATOM     16  H   UNL     1       1.741  -2.540  -0.148  1.00  0.00     0.171 HD
ATOM     17  O   UNL     1       0.708  -4.630   0.023  1.00  0.00    -0.248 OA
ATOM     18  H   UNL     1      -1.647  -4.487   0.233  1.00  0.00     0.171 HD
BRANCH  14  19
ATOM     19  C   UNL     1       0.495  -1.089   0.478  1.00  0.00     0.064 A 
ATOM     20  C   UNL     1       2.726  -0.189  -0.419  1.00  0.00     0.069 C 
ATOM     21  C   UNL     1       1.325  -0.023   0.091  1.00  0.00     0.061 A 
ATOM     22  N   UNL     1       0.945   1.280   0.204  1.00  0.00    -0.259 NA
ATOM     23  C   UNL     1      -0.243   1.545   0.783  1.00  0.00     0.111 A 
ATOM     24  C   UNL     1      -0.639  -0.758   1.221  1.00  0.00     0.030 A 
ATOM     25  C   UNL     1      -1.037   0.572   1.350  1.00  0.00     0.022 A 
ENDBRANCH  14  19
ENDBRANCH   8  13
BRANCH  12  26
ATOM     26  O   UNL     1      -5.648  -1.937   0.475  1.00  0.00    -0.507 OA
ATOM     27  H   UNL     1      -6.293  -1.260   0.430  1.00  0.00     0.293 HD
ENDBRANCH  12  26
ENDBRANCH   4   7
ENDBRANCH   2   3
ENDBRANCH   1   2
BRANCH   1  28
ATOM     28  C   UNL     1      -6.288   2.613   3.209  1.00  0.00     0.118 C 
BRANCH  28  29
ATOM     29  N   UNL     1      -7.696   2.267   3.090  1.00  0.00    -0.352 N 
ATOM     30  C   UNL     1      -8.749   2.358   3.975  1.00  0.00     0.251 C 
ATOM     31  H   UNL     1      -7.944   1.899   2.212  1.00  0.00     0.163 HD
ATOM     32  O   UNL     1      -9.830   1.887   3.639  1.00  0.00    -0.269 OA
BRANCH  30  33
ATOM     33  C   UNL     1      -8.595   2.966   5.323  1.00  0.00     0.039 A 
ATOM     34  C   UNL     1      -9.330   2.431   6.388  1.00  0.00     0.014 A 
ATOM     35  C   UNL     1      -7.776   4.070   5.555  1.00  0.00     0.014 A 
ATOM     36  C   UNL     1      -9.180   2.951   7.679  1.00  0.00     0.010 A 
ATOM     37  C   UNL     1      -7.535   4.507   6.857  1.00  0.00     0.010 A 
ATOM     38  C   UNL     1      -8.246   3.967   7.937  1.00  0.00    -0.014 A 
BRANCH  38  39
ATOM     39  C   UNL     1      -8.036   4.501   9.313  1.00  0.00     0.031 A 
ATOM     40  C   UNL     1      -8.269   5.965   9.602  1.00  0.00     0.074 A 
ATOM     41  C   UNL     1      -7.600   3.685  10.296  1.00  0.00     0.049 A 
ATOM     42  N   UNL     1      -8.089   6.631  10.715  1.00  0.00    -0.248 NA
ATOM     43  C   UNL     1      -8.733   6.796   8.480  1.00  0.00     0.031 C 
ATOM     44  C   UNL     1      -7.291   2.262  10.140  1.00  0.00     0.029 A 
ATOM     45  N   UNL     1      -7.342   3.931  11.623  1.00  0.00    -0.354 N 
ATOM     46  C   UNL     1      -8.413   7.953  10.425  1.00  0.00     0.074 A 
ATOM     47  C   UNL     1      -8.708   8.009   9.010  1.00  0.00     0.031 C 
ATOM     48  C   UNL     1      -6.929   1.754  11.329  1.00  0.00     0.029 A 
ATOM     49  C   UNL     1      -6.930   2.821  12.325  1.00  0.00     0.049 A 
ATOM     50  H   UNL     1      -7.443   4.820  12.034  1.00  0.00     0.167 HD
ATOM     51  C   UNL     1      -8.502   9.016  11.263  1.00  0.00     0.034 A 
ATOM     52  C   UNL     1      -6.588   2.678  13.622  1.00  0.00     0.034 A 
ATOM     53  C   UNL     1      -8.220   8.948  12.675  1.00  0.00     0.049 A 
ATOM     54  C   UNL     1      -6.657   3.885  14.527  1.00  0.00     0.074 A 
ATOM     55  C   UNL     1      -8.301   9.955  13.622  1.00  0.00     0.029 A 
ATOM     56  N   UNL     1      -7.803   7.806  13.348  1.00  0.00    -0.354 N 
ATOM     57  N   UNL     1      -7.013   5.117  14.241  1.00  0.00    -0.248 NA
ATOM     58  C   UNL     1      -6.296   3.677  15.935  1.00  0.00     0.031 C 
ATOM     59  C   UNL     1      -7.874   9.440  14.850  1.00  0.00     0.029 A 
ATOM     60  C   UNL     1      -7.603   8.091  14.690  1.00  0.00     0.049 A 
ATOM     61  H   UNL     1      -7.670   6.924  12.932  1.00  0.00     0.167 HD
ATOM     62  C   UNL     1      -6.954   5.817  15.444  1.00  0.00     0.074 A 
ATOM     63  C   UNL     1      -6.556   4.864  16.458  1.00  0.00     0.031 C 
ATOM     64  C   UNL     1      -7.203   7.130  15.690  1.00  0.00     0.034 A 
BRANCH  51  65
ATOM     65  C   UNL     1      -8.921  10.339  10.663  1.00  0.00     0.023 A 
ATOM     66  C   UNL     1     -10.178  10.500  10.053  1.00  0.00     0.031 A 
ATOM     67  C   UNL     1      -8.052  11.444  10.675  1.00  0.00     0.131 A 
ATOM     68  C   UNL     1     -10.497  11.705   9.409  1.00  0.00     0.055 A 
ATOM     69  C   UNL     1      -8.412  12.670  10.111  1.00  0.00     0.041 A 
ATOM     70  F   UNL     1      -6.830  11.348  11.223  1.00  0.00    -0.206 F 
ATOM     71  C   UNL     1      -9.634  12.801   9.458  1.00  0.00     0.022 A 
BRANCH  68  72
ATOM     72  S   UNL     1     -11.989  11.764   8.379  1.00  0.00     0.124 S 
ATOM     73  O   UNL     1     -11.707  10.720   7.396  1.00  0.00    -0.237 OA
ATOM     74  O   UNL     1     -13.047  11.470   9.337  1.00  0.00    -0.237 OA
ATOM     75  O   UNL     1     -11.985  13.126   7.849  1.00  0.00    -0.744 OA
ENDBRANCH  68  72
ENDBRANCH  51  65
BRANCH  52  76
ATOM     76  C   UNL     1      -6.144   1.357  14.160  1.00  0.00     0.023 A 
ATOM     77  C   UNL     1      -6.854   0.722  15.192  1.00  0.00     0.031 A 
ATOM     78  C   UNL     1      -4.959   0.748  13.710  1.00  0.00     0.131 A 
ATOM     79  C   UNL     1      -6.338  -0.438  15.790  1.00  0.00     0.055 A 
ATOM     80  C   UNL     1      -4.485  -0.445  14.261  1.00  0.00     0.041 A 
ATOM     81  F   UNL     1      -4.239   1.307  12.724  1.00  0.00    -0.206 F 
ATOM     82  C   UNL     1      -5.165  -1.034  15.322  1.00  0.00     0.022 A 
BRANCH  79  83
ATOM     83  S   UNL     1      -7.153  -1.083  17.278  1.00  0.00     0.124 S 
ATOM     84  O   UNL     1      -7.131   0.082  18.155  1.00  0.00    -0.237 OA
ATOM     85  O   UNL     1      -8.460  -1.473  16.760  1.00  0.00    -0.237 OA
ATOM     86  O   UNL     1      -6.289  -2.189  17.685  1.00  0.00    -0.744 OA
ENDBRANCH  79  83
ENDBRANCH  52  76
BRANCH  64  87
ATOM     87  C   UNL     1      -7.099   7.587  17.126  1.00  0.00     0.023 A 
ATOM     88  C   UNL     1      -5.880   7.559  17.826  1.00  0.00     0.031 A 
ATOM     89  C   UNL     1      -8.244   8.028  17.814  1.00  0.00     0.131 A 
ATOM     90  C   UNL     1      -5.848   7.888  19.189  1.00  0.00     0.055 A 
ATOM     91  C   UNL     1      -8.192   8.425  19.151  1.00  0.00     0.041 A 
ATOM     92  F   UNL     1      -9.436   8.075  17.198  1.00  0.00    -0.206 F 
ATOM     93  C   UNL     1      -6.992   8.338  19.851  1.00  0.00     0.022 A 
BRANCH  90  94
ATOM     94  S   UNL     1      -4.315   7.600  20.115  1.00  0.00     0.124 S 
ATOM     95  O   UNL     1      -4.083   6.178  19.883  1.00  0.00    -0.237 OA
ATOM     96  O   UNL     1      -3.381   8.513  19.463  1.00  0.00    -0.237 OA
ATOM     97  O   UNL     1      -4.672   7.955  21.487  1.00  0.00    -0.744 OA
ENDBRANCH  90  94
ENDBRANCH  64  87
ENDBRANCH  38  39
ENDBRANCH  30  33
ENDBRANCH  28  29
ENDBRANCH   1  28
TORSDOF 16
