REMARK SMILES CNC(=O)[C@H](C)S(=O)(=O)c1cc(C(=O)NCCCNC(=O)c2ccc(-c3c4nc(c(-c5cc(S(=O)(=O)[O-])ccc5F)c5ccc([nH]5)c(-c5cc(S(=O)(=O)[O-])ccc5F)c5nc(c(-c6cc(S(=O)(=O)[O-])ccc6F)c6ccc3[nH]6)C=C5)C=C4)cc2)c(C)cc1C
REMARK SMILES IDX 17 1 16 2 15 3 13 4 14 5 12 7 10 8 11 9 88 10 87 11 89 12
REMARK SMILES IDX 85 13 86 14 7 15 8 16 9 17 5 18 6 19 3 20 1 21 2 22 4 24
REMARK SMILES IDX 18 25 19 26 20 27 21 29 22 30 23 31 84 32 24 33 83 34 25 35
REMARK SMILES IDX 26 36 27 37 77 38 28 39 82 40 76 41 78 42 29 43 81 44 75 45
REMARK SMILES IDX 74 46 30 48 62 49 42 50 61 51 43 52 46 53 60 54 79 55 44 56
REMARK SMILES IDX 45 57 59 59 80 60 47 61 31 62 32 63 40 64 33 65 39 66 41 67
REMARK SMILES IDX 38 68 34 69 35 70 36 71 37 72 63 73 64 74 72 75 65 76 71 77
REMARK SMILES IDX 73 78 70 79 66 80 67 81 68 82 69 83 48 84 49 85 57 86 50 87
REMARK SMILES IDX 56 88 58 89 55 90 51 91 52 92 53 93 54 94
REMARK H PARENT 15 6 2 23 19 28 78 47 46 58
REMARK Flexibility Score: inf
ROOT
ATOM      1  C   UNL     1       1.671  -4.897   4.614  1.00  0.00     0.042 C 
ENDROOT
BRANCH   1   2
ATOM      2  C   UNL     1       2.052  -4.960   3.136  1.00  0.00     0.118 C 
BRANCH   2   3
ATOM      3  N   UNL     1       0.874  -5.146   2.321  1.00  0.00    -0.352 N 
ATOM      4  C   UNL     1       0.011  -4.329   1.649  1.00  0.00     0.251 C 
ATOM      5  O   UNL     1      -0.901  -4.935   1.073  1.00  0.00    -0.269 OA
ATOM      6  H   UNL     1       0.634  -6.096   2.227  1.00  0.00     0.163 HD
BRANCH   4   7
ATOM      7  C   UNL     1       0.062  -2.830   1.481  1.00  0.00     0.044 A 
ATOM      8  C   UNL     1      -0.793  -1.052  -0.056  1.00  0.00     0.071 A 
ATOM      9  C   UNL     1      -0.555  -2.405   0.270  1.00  0.00     0.034 A 
ATOM     10  C   UNL     1      -0.468  -0.066   0.875  1.00  0.00    -0.032 A 
ATOM     11  C   UNL     1       0.231  -0.469   2.023  1.00  0.00     0.009 A 
ATOM     12  C   UNL     1      -0.785   1.398   0.806  1.00  0.00     0.046 C 
ATOM     13  C   UNL     1       0.487  -1.819   2.360  1.00  0.00    -0.038 A 
ATOM     14  C   UNL     1       1.113  -1.980   3.708  1.00  0.00     0.045 C 
BRANCH   8  15
ATOM     15  S   UNL     1      -1.632  -0.717  -1.602  1.00  0.00     0.190 S 
ATOM     16  O   UNL     1      -2.763   0.128  -1.272  1.00  0.00    -0.223 OA
ATOM     17  O   UNL     1      -1.895  -2.007  -2.224  1.00  0.00    -0.223 OA
BRANCH  15  18
ATOM     18  C   UNL     1      -0.596   0.175  -2.709  1.00  0.00     0.199 C 
ATOM     19  C   UNL     1      -0.174   1.577  -2.325  1.00  0.00     0.036 C 
BRANCH  18  20
ATOM     20  C   UNL     1       0.501  -0.637  -3.346  1.00  0.00     0.238 C 
ATOM     21  C   UNL     1       2.129  -0.908  -1.377  1.00  0.00     0.142 C 
ATOM     22  N   UNL     1       1.650  -1.013  -2.732  1.00  0.00    -0.358 N 
ATOM     23  H   UNL     1       2.292  -1.447  -3.339  1.00  0.00     0.163 HD
ATOM     24  O   UNL     1       0.438  -0.902  -4.554  1.00  0.00    -0.274 OA
ENDBRANCH  18  20
ENDBRANCH  15  18
ENDBRANCH   8  15
ENDBRANCH   4   7
ENDBRANCH   2   3
ENDBRANCH   1   2
BRANCH   1  25
ATOM     25  C   UNL     1       1.652  -6.241   5.323  1.00  0.00     0.118 C 
BRANCH  25  26
ATOM     26  N   UNL     1       2.993  -6.723   5.602  1.00  0.00    -0.352 N 
ATOM     27  C   UNL     1       3.649  -6.872   6.800  1.00  0.00     0.251 C 
ATOM     28  H   UNL     1       3.513  -6.983   4.808  1.00  0.00     0.163 HD
ATOM     29  O   UNL     1       4.867  -7.035   6.783  1.00  0.00    -0.269 OA
BRANCH  27  30
ATOM     30  C   UNL     1       2.922  -6.821   8.093  1.00  0.00     0.039 A 
ATOM     31  C   UNL     1       3.574  -6.287   9.210  1.00  0.00     0.014 A 
ATOM     32  C   UNL     1       1.632  -7.339   8.237  1.00  0.00     0.014 A 
ATOM     33  C   UNL     1       2.918  -6.229  10.444  1.00  0.00     0.010 A 
ATOM     34  C   UNL     1       0.943  -7.189   9.439  1.00  0.00     0.010 A 
ATOM     35  C   UNL     1       1.584  -6.651  10.563  1.00  0.00    -0.014 A 
BRANCH  35  36
ATOM     36  C   UNL     1       0.859  -6.570  11.860  1.00  0.00     0.031 A 
ATOM     37  C   UNL     1       0.358  -7.827  12.524  1.00  0.00     0.074 A 
ATOM     38  C   UNL     1       0.619  -5.367  12.420  1.00  0.00     0.049 A 
ATOM     39  N   UNL     1      -0.349  -7.961  13.617  1.00  0.00    -0.248 NA
ATOM     40  C   UNL     1       0.672  -9.099  11.855  1.00  0.00     0.031 C 
ATOM     41  C   UNL     1       1.032  -4.079  11.860  1.00  0.00     0.029 A 
ATOM     42  N   UNL     1      -0.028  -5.029  13.582  1.00  0.00    -0.354 N 
ATOM     43  C   UNL     1      -0.570  -9.328  13.761  1.00  0.00     0.074 A 
ATOM     44  C   UNL     1       0.016  -9.971  12.605  1.00  0.00     0.031 C 
ATOM     45  C   UNL     1       0.665  -3.097  12.698  1.00  0.00     0.029 A 
ATOM     46  C   UNL     1      -0.058  -3.675  13.825  1.00  0.00     0.049 A 
ATOM     47  H   UNL     1      -0.432  -5.694  14.185  1.00  0.00     0.167 HD
ATOM     48  C   UNL     1      -1.179  -9.988  14.777  1.00  0.00     0.034 A 
ATOM     49  C   UNL     1      -0.614  -2.978  14.836  1.00  0.00     0.034 A 
ATOM     50  C   UNL     1      -1.753  -9.332  15.927  1.00  0.00     0.049 A 
ATOM     51  C   UNL     1      -1.330  -3.730  15.929  1.00  0.00     0.074 A 
ATOM     52  C   UNL     1      -2.369  -9.903  17.027  1.00  0.00     0.029 A 
ATOM     53  N   UNL     1      -1.786  -7.957  16.124  1.00  0.00    -0.354 N 
ATOM     54  N   UNL     1      -1.510  -5.024  16.061  1.00  0.00    -0.248 NA
ATOM     55  C   UNL     1      -1.909  -2.928  17.014  1.00  0.00     0.031 C 
ATOM     56  C   UNL     1      -2.837  -8.875  17.851  1.00  0.00     0.029 A 
ATOM     57  C   UNL     1      -2.437  -7.662  17.313  1.00  0.00     0.049 A 
ATOM     58  H   UNL     1      -1.404  -7.289  15.510  1.00  0.00     0.167 HD
ATOM     59  C   UNL     1      -2.194  -5.192  17.262  1.00  0.00     0.074 A 
ATOM     60  C   UNL     1      -2.379  -3.868  17.821  1.00  0.00     0.031 C 
ATOM     61  C   UNL     1      -2.624  -6.336  17.853  1.00  0.00     0.034 A 
BRANCH  48  62
ATOM     62  C   UNL     1      -1.271 -11.493  14.675  1.00  0.00     0.023 A 
ATOM     63  C   UNL     1      -0.120 -12.301  14.644  1.00  0.00     0.031 A 
ATOM     64  C   UNL     1      -2.522 -12.130  14.594  1.00  0.00     0.131 A 
ATOM     65  C   UNL     1      -0.240 -13.687  14.462  1.00  0.00     0.055 A 
ATOM     66  C   UNL     1      -2.637 -13.519  14.499  1.00  0.00     0.041 A 
ATOM     67  F   UNL     1      -3.656 -11.413  14.596  1.00  0.00    -0.206 F 
ATOM     68  C   UNL     1      -1.491 -14.305  14.418  1.00  0.00     0.022 A 
BRANCH  65  69
ATOM     69  S   UNL     1       1.262 -14.651  14.141  1.00  0.00     0.124 S 
ATOM     70  O   UNL     1       1.767 -14.014  12.927  1.00  0.00    -0.237 OA
ATOM     71  O   UNL     1       2.045 -14.430  15.351  1.00  0.00    -0.237 OA
ATOM     72  O   UNL     1       0.764 -16.013  13.959  1.00  0.00    -0.744 OA
ENDBRANCH  65  69
ENDBRANCH  48  62
BRANCH  49  73
ATOM     73  C   UNL     1      -0.521  -1.489  14.869  1.00  0.00     0.023 A 
ATOM     74  C   UNL     1       0.171  -0.832  15.898  1.00  0.00     0.031 A 
ATOM     75  C   UNL     1      -1.152  -0.699  13.891  1.00  0.00     0.131 A 
ATOM     76  C   UNL     1       0.179   0.571  15.952  1.00  0.00     0.055 A 
ATOM     77  C   UNL     1      -1.093   0.695  13.917  1.00  0.00     0.041 A 
ATOM     78  F   UNL     1      -1.824  -1.276  12.882  1.00  0.00    -0.206 F 
ATOM     79  C   UNL     1      -0.435   1.339  14.960  1.00  0.00     0.022 A 
BRANCH  76  80
ATOM     80  S   UNL     1       0.935   1.381  17.388  1.00  0.00     0.124 S 
ATOM     81  O   UNL     1       0.155   0.823  18.487  1.00  0.00    -0.237 OA
ATOM     82  O   UNL     1       2.321   0.935  17.293  1.00  0.00    -0.237 OA
ATOM     83  O   UNL     1       0.721   2.803  17.128  1.00  0.00    -0.744 OA
ENDBRANCH  76  80
ENDBRANCH  49  73
BRANCH  61  84
ATOM     84  C   UNL     1      -3.295  -6.205  19.200  1.00  0.00     0.023 A 
ATOM     85  C   UNL     1      -4.528  -5.549  19.354  1.00  0.00     0.031 A 
ATOM     86  C   UNL     1      -2.684  -6.742  20.348  1.00  0.00     0.131 A 
ATOM     87  C   UNL     1      -5.081  -5.394  20.634  1.00  0.00     0.055 A 
ATOM     88  C   UNL     1      -3.273  -6.646  21.608  1.00  0.00     0.041 A 
ATOM     89  F   UNL     1      -1.503  -7.376  20.261  1.00  0.00    -0.206 F 
ATOM     90  C   UNL     1      -4.472  -5.955  21.759  1.00  0.00     0.022 A 
BRANCH  87  91
ATOM     91  S   UNL     1      -6.556  -4.356  20.824  1.00  0.00     0.124 S 
ATOM     92  O   UNL     1      -6.100  -3.079  20.283  1.00  0.00    -0.237 OA
ATOM     93  O   UNL     1      -7.545  -5.070  20.023  1.00  0.00    -0.237 OA
ATOM     94  O   UNL     1      -6.801  -4.367  22.265  1.00  0.00    -0.744 OA
ENDBRANCH  87  91
ENDBRANCH  61  84
ENDBRANCH  35  36
ENDBRANCH  27  30
ENDBRANCH  25  26
ENDBRANCH   1  25
TORSDOF 16
