REMARK SMILES C[C@]1(C(=O)NCCCNC(=O)c2ccc(-c3c4nc(c(-c5cc(S(=O)(=O)[O-])ccc5F)c5ccc([nH]5)c(-c5cc(S(=O)(=O)[O-])ccc5F)c5nc(c(-c6cc(S(=O)(=O)[O-])ccc6F)c6ccc3[nH]6)C=C5)C=C4)cc2)[NH2+]C2(C(=O)c3ccccc3C2=O)[C@@H]2C(=O)N(c3ccccc3)C(=O)[C@H]21
REMARK SMILES IDX 8 1 7 2 6 3 5 4 3 5 4 6 2 8 1 9 75 10 99 11 76 12 87 15
REMARK SMILES IDX 97 16 77 17 85 18 88 19 90 20 98 21 78 22 79 23 84 24 86 25
REMARK SMILES IDX 89 26 80 27 83 28 81 29 82 30 91 31 92 32 96 33 93 34 95 35
REMARK SMILES IDX 94 36 9 37 10 38 11 40 12 41 13 42 74 43 14 44 73 45 15 46
REMARK SMILES IDX 16 47 17 48 67 49 18 50 72 51 66 52 68 53 19 54 71 55 65 56
REMARK SMILES IDX 64 57 20 59 52 60 32 61 51 62 33 63 36 64 50 65 69 66 34 67
REMARK SMILES IDX 35 68 49 70 70 71 37 72 21 73 22 74 30 75 23 76 29 77 31 78
REMARK SMILES IDX 28 79 24 80 25 81 26 82 27 83 53 84 54 85 62 86 55 87 61 88
REMARK SMILES IDX 63 89 60 90 56 91 57 92 58 93 59 94 38 95 39 96 47 97 40 98
REMARK SMILES IDX 46 99 48 100 45 101 41 102 42 103 43 104 44 105
REMARK H PARENT 5 7 75 13 75 14 9 39 68 58 36 69
REMARK Flexibility Score: inf
ROOT
ATOM      1  C   UNL     1      -3.969   1.322  -4.471  1.00  0.00     0.118 C 
ENDROOT
BRANCH   1   2
ATOM      2  C   UNL     1      -2.485   1.002  -4.502  1.00  0.00     0.042 C 
BRANCH   2   3
ATOM      3  C   UNL     1      -1.734   1.535  -3.290  1.00  0.00     0.118 C 
BRANCH   3   4
ATOM      4  N   UNL     1      -1.747   0.721  -2.102  1.00  0.00    -0.351 N 
ATOM      5  C   UNL     1      -0.766   0.415  -1.205  1.00  0.00     0.281 C 
ATOM      6  O   UNL     1      -1.135  -0.371  -0.318  1.00  0.00    -0.268 OA
ATOM      7  H   UNL     1      -2.620   0.311  -1.902  1.00  0.00     0.163 HD
BRANCH   5   8
ATOM      8  C   UNL     1       0.724   0.970  -1.201  1.00  0.00     0.186 C 
ATOM      9  C   UNL     1       1.442   0.225  -0.044  1.00  0.00     0.091 C 
ATOM     10  N   UNL     1       1.480   0.692  -2.486  1.00  0.00    -0.314 N 
ATOM     11  C   UNL     1       0.958   2.444  -1.013  1.00  0.00     0.170 C 
ATOM     12  C   UNL     1       1.888   2.017  -3.125  1.00  0.00     0.236 C 
ATOM     13  H   UNL     1       0.881   0.173  -3.128  1.00  0.00     0.348 HD
ATOM     14  H   UNL     1       2.312   0.139  -2.281  1.00  0.00     0.348 HD
ATOM     15  C   UNL     1       1.027   3.014  -2.413  1.00  0.00     0.177 C 
ATOM     16  C   UNL     1       0.045   3.417  -0.360  1.00  0.00     0.244 C 
ATOM     17  C   UNL     1       3.396   2.273  -3.064  1.00  0.00     0.232 C 
ATOM     18  C   UNL     1       1.637   1.918  -4.641  1.00  0.00     0.232 C 
ATOM     19  C   UNL     1       1.198   4.455  -2.079  1.00  0.00     0.245 C 
ATOM     20  N   UNL     1       0.359   4.632  -0.972  1.00  0.00    -0.250 N 
ATOM     21  O   UNL     1      -0.748   3.163   0.528  1.00  0.00    -0.273 OA
ATOM     22  O   UNL     1       4.075   2.373  -2.057  1.00  0.00    -0.286 OA
ATOM     23  C   UNL     1       3.920   2.325  -4.440  1.00  0.00     0.036 A 
ATOM     24  C   UNL     1       2.896   2.080  -5.341  1.00  0.00     0.036 A 
ATOM     25  O   UNL     1       0.599   1.740  -5.250  1.00  0.00    -0.286 OA
ATOM     26  O   UNL     1       1.812   5.266  -2.749  1.00  0.00    -0.273 OA
ATOM     27  C   UNL     1       5.207   2.553  -4.891  1.00  0.00     0.013 A 
ATOM     28  C   UNL     1       3.094   2.017  -6.710  1.00  0.00     0.013 A 
ATOM     29  C   UNL     1       5.431   2.514  -6.277  1.00  0.00     0.001 A 
ATOM     30  C   UNL     1       4.384   2.239  -7.179  1.00  0.00     0.001 A 
BRANCH  20  31
ATOM     31  C   UNL     1      -0.319   5.822  -0.648  1.00  0.00     0.052 A 
ATOM     32  C   UNL     1      -0.511   6.187   0.691  1.00  0.00     0.027 A 
ATOM     33  C   UNL     1      -0.948   6.559  -1.658  1.00  0.00     0.027 A 
ATOM     34  C   UNL     1      -1.321   7.276   1.016  1.00  0.00     0.002 A 
ATOM     35  C   UNL     1      -1.802   7.612  -1.325  1.00  0.00     0.002 A 
ATOM     36  C   UNL     1      -1.984   7.974   0.009  1.00  0.00     0.000 A 
ENDBRANCH  20  31
ENDBRANCH   5   8
ENDBRANCH   3   4
ENDBRANCH   2   3
ENDBRANCH   1   2
BRANCH   1  37
ATOM     37  N   UNL     1      -4.277   2.686  -4.887  1.00  0.00    -0.352 N 
ATOM     38  C   UNL     1      -4.309   3.334  -6.103  1.00  0.00     0.251 C 
ATOM     39  H   UNL     1      -4.514   3.273  -4.133  1.00  0.00     0.163 HD
ATOM     40  O   UNL     1      -4.512   4.550  -6.080  1.00  0.00    -0.269 OA
BRANCH  38  41
ATOM     41  C   UNL     1      -4.069   2.667  -7.415  1.00  0.00     0.039 A 
ATOM     42  C   UNL     1      -4.319   1.319  -7.651  1.00  0.00     0.014 A 
ATOM     43  C   UNL     1      -3.623   3.451  -8.494  1.00  0.00     0.014 A 
ATOM     44  C   UNL     1      -3.985   0.732  -8.873  1.00  0.00     0.010 A 
ATOM     45  C   UNL     1      -3.393   2.883  -9.758  1.00  0.00     0.010 A 
ATOM     46  C   UNL     1      -3.537   1.504  -9.954  1.00  0.00    -0.014 A 
BRANCH  46  47
ATOM     47  C   UNL     1      -3.267   0.848 -11.268  1.00  0.00     0.031 A 
ATOM     48  C   UNL     1      -1.898   0.904 -11.896  1.00  0.00     0.074 A 
ATOM     49  C   UNL     1      -4.248   0.147 -11.876  1.00  0.00     0.049 A 
ATOM     50  N   UNL     1      -1.494   0.402 -13.036  1.00  0.00    -0.248 NA
ATOM     51  C   UNL     1      -0.847   1.621 -11.157  1.00  0.00     0.031 C 
ATOM     52  C   UNL     1      -5.612   0.006 -11.362  1.00  0.00     0.029 A 
ATOM     53  N   UNL     1      -4.255  -0.602 -13.029  1.00  0.00    -0.354 N 
ATOM     54  C   UNL     1      -0.158   0.764 -13.164  1.00  0.00     0.074 A 
ATOM     55  C   UNL     1       0.176   1.553 -11.998  1.00  0.00     0.031 C 
ATOM     56  C   UNL     1      -6.295  -0.838 -12.145  1.00  0.00     0.029 A 
ATOM     57  C   UNL     1      -5.460  -1.221 -13.280  1.00  0.00     0.049 A 
ATOM     58  H   UNL     1      -3.472  -0.688 -13.620  1.00  0.00     0.167 HD
ATOM     59  C   UNL     1       0.712   0.456 -14.156  1.00  0.00     0.034 A 
ATOM     60  C   UNL     1      -5.867  -1.988 -14.314  1.00  0.00     0.034 A 
ATOM     61  C   UNL     1       0.375  -0.364 -15.293  1.00  0.00     0.049 A 
ATOM     62  C   UNL     1      -4.893  -2.285 -15.423  1.00  0.00     0.074 A 
ATOM     63  C   UNL     1       1.198  -0.755 -16.334  1.00  0.00     0.029 A 
ATOM     64  N   UNL     1      -0.870  -0.927 -15.536  1.00  0.00    -0.354 N 
ATOM     65  N   UNL     1      -3.630  -1.943 -15.518  1.00  0.00    -0.248 NA
ATOM     66  C   UNL     1      -5.393  -3.054 -16.571  1.00  0.00     0.031 C 
ATOM     67  C   UNL     1       0.439  -1.502 -17.235  1.00  0.00     0.029 A 
ATOM     68  C   UNL     1      -0.842  -1.638 -16.724  1.00  0.00     0.049 A 
ATOM     69  H   UNL     1      -1.656  -0.834 -14.950  1.00  0.00     0.167 HD
ATOM     70  C   UNL     1      -3.183  -2.461 -16.729  1.00  0.00     0.074 A 
ATOM     71  C   UNL     1      -4.302  -3.165 -17.320  1.00  0.00     0.031 C 
ATOM     72  C   UNL     1      -1.958  -2.351 -17.300  1.00  0.00     0.034 A 
BRANCH  59  73
ATOM     73  C   UNL     1       2.123   0.984 -14.079  1.00  0.00     0.023 A 
ATOM     74  C   UNL     1       2.593   1.877 -15.062  1.00  0.00     0.031 A 
ATOM     75  C   UNL     1       3.038   0.504 -13.126  1.00  0.00     0.131 A 
ATOM     76  C   UNL     1       3.948   2.232 -15.091  1.00  0.00     0.055 A 
ATOM     77  C   UNL     1       4.380   0.890 -13.137  1.00  0.00     0.041 A 
ATOM     78  F   UNL     1       2.640  -0.347 -12.166  1.00  0.00    -0.206 F 
ATOM     79  C   UNL     1       4.842   1.748 -14.130  1.00  0.00     0.022 A 
BRANCH  76  80
ATOM     80  S   UNL     1       4.617   3.283 -16.409  1.00  0.00     0.124 S 
ATOM     81  O   UNL     1       5.150   4.411 -15.647  1.00  0.00    -0.237 OA
ATOM     82  O   UNL     1       5.619   2.412 -17.015  1.00  0.00    -0.237 OA
ATOM     83  O   UNL     1       3.458   3.587 -17.239  1.00  0.00    -0.744 OA
ENDBRANCH  76  80
ENDBRANCH  59  73
BRANCH  60  84
ATOM     84  C   UNL     1      -7.260  -2.530 -14.314  1.00  0.00     0.023 A 
ATOM     85  C   UNL     1      -8.370  -1.665 -14.273  1.00  0.00     0.031 A 
ATOM     86  C   UNL     1      -7.499  -3.911 -14.224  1.00  0.00     0.131 A 
ATOM     87  C   UNL     1      -9.652  -2.182 -14.045  1.00  0.00     0.055 A 
ATOM     88  C   UNL     1      -8.789  -4.428 -14.080  1.00  0.00     0.041 A 
ATOM     89  F   UNL     1      -6.476  -4.778 -14.254  1.00  0.00    -0.206 F 
ATOM     90  C   UNL     1      -9.871  -3.560 -13.965  1.00  0.00     0.022 A 
BRANCH  87  91
ATOM     91  S   UNL     1     -11.044  -1.077 -13.677  1.00  0.00     0.124 S 
ATOM     92  O   UNL     1     -11.957  -1.360 -14.778  1.00  0.00    -0.237 OA
ATOM     93  O   UNL     1     -11.468  -1.558 -12.364  1.00  0.00    -0.237 OA
ATOM     94  O   UNL     1     -10.439   0.251 -13.681  1.00  0.00    -0.744 OA
ENDBRANCH  87  91
ENDBRANCH  60  84
BRANCH  72  95
ATOM     95  C   UNL     1      -1.723  -2.999 -18.642  1.00  0.00     0.023 A 
ATOM     96  C   UNL     1      -0.785  -4.042 -18.763  1.00  0.00     0.031 A 
ATOM     97  C   UNL     1      -2.285  -2.467 -19.814  1.00  0.00     0.131 A 
ATOM     98  C   UNL     1      -0.394  -4.481 -20.033  1.00  0.00     0.055 A 
ATOM     99  C   UNL     1      -1.927  -2.942 -21.077  1.00  0.00     0.041 A 
ATOM    100  F   UNL     1      -3.178  -1.467 -19.748  1.00  0.00    -0.206 F 
ATOM    101  C   UNL     1      -0.965  -3.942 -21.191  1.00  0.00     0.022 A 
BRANCH  98 102
ATOM    102  S   UNL     1       0.935  -5.701 -20.232  1.00  0.00     0.124 S 
ATOM    103  O   UNL     1       0.267  -6.755 -20.992  1.00  0.00    -0.237 OA
ATOM    104  O   UNL     1       1.940  -4.941 -20.969  1.00  0.00    -0.237 OA
ATOM    105  O   UNL     1       1.294  -6.057 -18.863  1.00  0.00    -0.744 OA
ENDBRANCH  98 102
ENDBRANCH  72  95
ENDBRANCH  46  47
ENDBRANCH  38  41
ENDBRANCH   1  37
TORSDOF 14
