REMARK SMILES O=C1C[C@H](C(=O)NCCCNC(=O)c2ccc(-c3c4nc(c(-c5cc(S(=O)(=O)[O-])ccc5F)c5ccc([nH]5)c(-c5cc(S(=O)(=O)[O-])ccc5F)c5nc(c(-c6cc(S(=O)(=O)[O-])ccc6F)c6ccc3[nH]6)C=C5)C=C4)cc2)c2c(nc(N3CCSCC3)[nH]c2=O)N1
REMARK SMILES IDX 10 1 9 2 8 3 7 4 5 5 6 6 4 8 1 9 2 10 3 11 90 12 78 13 77 15
REMARK SMILES IDX 79 16 88 17 80 18 87 19 89 20 81 22 82 23 86 24 83 25 85 26
REMARK SMILES IDX 84 27 11 28 12 29 13 31 14 32 15 33 76 34 16 35 75 36 17 37
REMARK SMILES IDX 18 38 19 39 69 40 20 41 74 42 68 43 70 44 21 45 73 46 67 47
REMARK SMILES IDX 66 48 22 50 54 51 34 52 53 53 35 54 38 55 52 56 71 57 36 58
REMARK SMILES IDX 37 59 51 61 72 62 39 63 23 64 24 65 32 66 25 67 31 68 33 69
REMARK SMILES IDX 30 70 26 71 27 72 28 73 29 74 55 75 56 76 64 77 57 78 63 79
REMARK SMILES IDX 65 80 62 81 58 82 59 83 60 84 61 85 40 86 41 87 49 88 42 89
REMARK SMILES IDX 48 90 50 91 47 92 43 93 44 94 45 95 46 96
REMARK H PARENT 7 7 90 14 87 21 11 30 70 49 38 60
REMARK Flexibility Score: inf
ROOT
ATOM      1  C   UNL     1       7.277  -2.260   2.588  1.00  0.00     0.118 C 
ENDROOT
BRANCH   1   2
ATOM      2  C   UNL     1       6.218  -1.282   2.100  1.00  0.00     0.042 C 
BRANCH   2   3
ATOM      3  C   UNL     1       6.227  -1.090   0.591  1.00  0.00     0.117 C 
BRANCH   3   4
ATOM      4  N   UNL     1       5.873  -2.314  -0.111  1.00  0.00    -0.355 N 
ATOM      5  C   UNL     1       4.814  -2.623  -0.909  1.00  0.00     0.228 C 
ATOM      6  O   UNL     1       4.699  -3.799  -1.268  1.00  0.00    -0.274 OA
ATOM      7  H   UNL     1       6.515  -3.050   0.014  1.00  0.00     0.163 HD
BRANCH   5   8
ATOM      8  C   UNL     1       3.774  -1.580  -1.323  1.00  0.00     0.127 C 
ATOM      9  O   UNL     1       1.430   0.511   0.601  1.00  0.00    -0.275 OA
ATOM     10  C   UNL     1       2.409   0.177  -0.062  1.00  0.00     0.226 C 
ATOM     11  C   UNL     1       2.876  -1.257  -0.128  1.00  0.00     0.119 C 
ATOM     12  N   UNL     1       3.165   1.112  -0.707  1.00  0.00    -0.310 N 
ATOM     13  C   UNL     1       4.160   0.869  -1.600  1.00  0.00     0.146 A 
ATOM     14  H   UNL     1       2.971   2.056  -0.505  1.00  0.00     0.171 HD
ATOM     15  C   UNL     1       4.430  -0.392  -1.957  1.00  0.00     0.073 A 
ATOM     16  N   UNL     1       4.801   1.981  -2.064  1.00  0.00    -0.196 NA
ATOM     17  C   UNL     1       5.436  -0.570  -3.015  1.00  0.00     0.258 A 
ATOM     18  C   UNL     1       5.712   1.813  -2.970  1.00  0.00     0.207 A 
ATOM     19  N   UNL     1       6.022   0.576  -3.452  1.00  0.00    -0.292 N 
ATOM     20  O   UNL     1       5.733  -1.662  -3.483  1.00  0.00    -0.269 OA
ATOM     21  H   UNL     1       6.708   0.509  -4.155  1.00  0.00     0.173 HD
BRANCH  18  22
ATOM     22  N   UNL     1       6.447   2.842  -3.492  1.00  0.00    -0.341 N 
ATOM     23  C   UNL     1       6.446   3.144  -4.925  1.00  0.00     0.130 C 
ATOM     24  C   UNL     1       7.159   3.780  -2.618  1.00  0.00     0.130 C 
ATOM     25  C   UNL     1       5.780   4.492  -5.213  1.00  0.00     0.091 C 
ATOM     26  C   UNL     1       6.610   5.204  -2.700  1.00  0.00     0.091 C 
ATOM     27  S   UNL     1       6.662   5.867  -4.402  1.00  0.00    -0.158 SA
ENDBRANCH  18  22
ENDBRANCH   5   8
ENDBRANCH   3   4
ENDBRANCH   2   3
ENDBRANCH   1   2
BRANCH   1  28
ATOM     28  N   UNL     1       8.628  -1.745   2.404  1.00  0.00    -0.352 N 
ATOM     29  C   UNL     1       9.521  -1.311   3.355  1.00  0.00     0.251 C 
ATOM     30  H   UNL     1       8.944  -1.702   1.473  1.00  0.00     0.163 HD
ATOM     31  O   UNL     1      10.536  -0.707   3.022  1.00  0.00    -0.269 OA
BRANCH  29  32
ATOM     32  C   UNL     1       9.229  -1.564   4.779  1.00  0.00     0.039 A 
ATOM     33  C   UNL     1       9.300  -0.510   5.691  1.00  0.00     0.014 A 
ATOM     34  C   UNL     1       8.854  -2.845   5.198  1.00  0.00     0.014 A 
ATOM     35  C   UNL     1       8.932  -0.728   7.019  1.00  0.00     0.010 A 
ATOM     36  C   UNL     1       8.412  -3.040   6.501  1.00  0.00     0.010 A 
ATOM     37  C   UNL     1       8.462  -1.988   7.426  1.00  0.00    -0.014 A 
BRANCH  37  38
ATOM     38  C   UNL     1       8.056  -2.234   8.830  1.00  0.00     0.031 A 
ATOM     39  C   UNL     1       8.866  -3.166   9.685  1.00  0.00     0.074 A 
ATOM     40  C   UNL     1       6.940  -1.659   9.319  1.00  0.00     0.049 A 
ATOM     41  N   UNL     1       8.679  -3.506  10.932  1.00  0.00    -0.248 NA
ATOM     42  C   UNL     1      10.027  -3.816   9.053  1.00  0.00     0.031 C 
ATOM     43  C   UNL     1       6.045  -0.782   8.563  1.00  0.00     0.029 A 
ATOM     44  N   UNL     1       6.365  -1.731  10.563  1.00  0.00    -0.354 N 
ATOM     45  C   UNL     1       9.694  -4.405  11.233  1.00  0.00     0.074 A 
ATOM     46  C   UNL     1      10.456  -4.609  10.023  1.00  0.00     0.031 C 
ATOM     47  C   UNL     1       5.046  -0.382   9.365  1.00  0.00     0.029 A 
ATOM     48  C   UNL     1       5.212  -0.993  10.682  1.00  0.00     0.049 A 
ATOM     49  H   UNL     1       6.744  -2.262  11.301  1.00  0.00     0.167 HD
ATOM     50  C   UNL     1       9.984  -4.981  12.421  1.00  0.00     0.034 A 
ATOM     51  C   UNL     1       4.383  -0.823  11.734  1.00  0.00     0.034 A 
ATOM     52  C   UNL     1       9.231  -4.754  13.625  1.00  0.00     0.049 A 
ATOM     53  C   UNL     1       4.727  -1.473  13.050  1.00  0.00     0.074 A 
ATOM     54  C   UNL     1       9.485  -5.245  14.893  1.00  0.00     0.029 A 
ATOM     55  N   UNL     1       8.085  -3.980  13.715  1.00  0.00    -0.354 N 
ATOM     56  N   UNL     1       5.753  -2.236  13.347  1.00  0.00    -0.248 NA
ATOM     57  C   UNL     1       3.818  -1.229  14.178  1.00  0.00     0.031 C 
ATOM     58  C   UNL     1       8.461  -4.815  15.737  1.00  0.00     0.029 A 
ATOM     59  C   UNL     1       7.606  -3.998  15.014  1.00  0.00     0.049 A 
ATOM     60  H   UNL     1       7.673  -3.489  12.967  1.00  0.00     0.167 HD
ATOM     61  C   UNL     1       5.629  -2.536  14.701  1.00  0.00     0.074 A 
ATOM     62  C   UNL     1       4.437  -1.860  15.168  1.00  0.00     0.031 C 
ATOM     63  C   UNL     1       6.433  -3.301  15.481  1.00  0.00     0.034 A 
BRANCH  50  64
ATOM     64  C   UNL     1      11.182  -5.887  12.506  1.00  0.00     0.023 A 
ATOM     65  C   UNL     1      11.014  -7.245  12.826  1.00  0.00     0.031 A 
ATOM     66  C   UNL     1      12.489  -5.379  12.403  1.00  0.00     0.131 A 
ATOM     67  C   UNL     1      12.137  -8.042  13.072  1.00  0.00     0.055 A 
ATOM     68  C   UNL     1      13.606  -6.188  12.609  1.00  0.00     0.041 A 
ATOM     69  F   UNL     1      12.698  -4.089  12.094  1.00  0.00    -0.206 F 
ATOM     70  C   UNL     1      13.432  -7.524  12.958  1.00  0.00     0.022 A 
BRANCH  67  71
ATOM     71  S   UNL     1      11.959  -9.768  13.596  1.00  0.00     0.124 S 
ATOM     72  O   UNL     1      12.791 -10.468  12.618  1.00  0.00    -0.237 OA
ATOM     73  O   UNL     1      12.491  -9.729  14.954  1.00  0.00    -0.237 OA
ATOM     74  O   UNL     1      10.527 -10.023  13.482  1.00  0.00    -0.744 OA
ENDBRANCH  67  71
ENDBRANCH  50  64
BRANCH  51  75
ATOM     75  C   UNL     1       3.194   0.062  11.585  1.00  0.00     0.023 A 
ATOM     76  C   UNL     1       2.150  -0.273  10.705  1.00  0.00     0.031 A 
ATOM     77  C   UNL     1       3.133   1.301  12.245  1.00  0.00     0.131 A 
ATOM     78  C   UNL     1       1.120   0.645  10.467  1.00  0.00     0.055 A 
ATOM     79  C   UNL     1       2.072   2.187  12.052  1.00  0.00     0.041 A 
ATOM     80  F   UNL     1       4.113   1.667  13.086  1.00  0.00    -0.206 F 
ATOM     81  C   UNL     1       1.065   1.866  11.147  1.00  0.00     0.022 A 
BRANCH  78  82
ATOM     82  S   UNL     1      -0.131   0.327   9.193  1.00  0.00     0.124 S 
ATOM     83  O   UNL     1      -1.376   0.501   9.934  1.00  0.00    -0.237 OA
ATOM     84  O   UNL     1       0.174   1.371   8.217  1.00  0.00    -0.237 OA
ATOM     85  O   UNL     1       0.158  -1.036   8.760  1.00  0.00    -0.744 OA
ENDBRANCH  78  82
ENDBRANCH  51  75
BRANCH  63  86
ATOM     86  C   UNL     1       6.097  -3.454  16.943  1.00  0.00     0.023 A 
ATOM     87  C   UNL     1       6.996  -2.978  17.918  1.00  0.00     0.031 A 
ATOM     88  C   UNL     1       4.994  -4.213  17.367  1.00  0.00     0.131 A 
ATOM     89  C   UNL     1       6.803  -3.308  19.264  1.00  0.00     0.055 A 
ATOM     90  C   UNL     1       4.779  -4.498  18.716  1.00  0.00     0.041 A 
ATOM     91  F   UNL     1       4.117  -4.697  16.474  1.00  0.00    -0.206 F 
ATOM     92  C   UNL     1       5.694  -4.058  19.670  1.00  0.00     0.022 A 
BRANCH  89  93
ATOM     93  S   UNL     1       8.021  -2.844  20.524  1.00  0.00     0.124 S 
ATOM     94  O   UNL     1       7.204  -2.090  21.474  1.00  0.00    -0.237 OA
ATOM     95  O   UNL     1       8.485  -4.145  20.996  1.00  0.00    -0.237 OA
ATOM     96  O   UNL     1       9.005  -2.054  19.791  1.00  0.00    -0.744 OA
ENDBRANCH  89  93
ENDBRANCH  63  86
ENDBRANCH  37  38
ENDBRANCH  29  32
ENDBRANCH   1  28
TORSDOF 14
