REMARK SMILES O=C(NCCCNC(=O)[C@@]1([NH2+]C2CC2)CCC[C@@H]([NH+]2CCS(=O)(=O)CC2)C1)c1ccc(-c2c3nc(c(-c4cc(S(=O)(=O)[O-])ccc4F)c4ccc([nH]4)c(-c4cc(S(=O)(=O)[O-])ccc4F)c4nc(c(-c5cc(S(=O)(=O)[O-])ccc5F)c5ccc2[nH]5)C=C4)C=C3)cc1
REMARK SMILES IDX 4 1 3 2 1 3 2 4 28 6 29 7 90 8 30 9 89 10 31 11 32 12 33 13
REMARK SMILES IDX 83 14 34 15 88 16 82 17 84 18 35 19 87 20 81 21 80 22 36 24
REMARK SMILES IDX 68 25 48 26 67 27 49 28 52 29 66 30 85 31 50 32 51 33 65 35
REMARK SMILES IDX 86 36 53 37 37 38 38 39 46 40 39 41 45 42 47 43 44 44 40 45
REMARK SMILES IDX 41 46 42 47 43 48 69 49 70 50 78 51 71 52 77 53 79 54 76 55
REMARK SMILES IDX 72 56 73 57 74 58 75 59 54 60 55 61 63 62 56 63 62 64 64 65
REMARK SMILES IDX 61 66 57 67 58 68 59 69 60 70 5 71 6 72 7 73 8 74 9 76 10 77
REMARK SMILES IDX 15 78 27 79 16 80 18 81 17 82 11 83 12 86 13 87 14 88 19 89
REMARK SMILES IDX 20 90 26 91 21 93 25 94 22 95 23 96 24 97
REMARK H PARENT 3 5 84 23 52 34 7 75 11 84 11 85 19 92
REMARK Flexibility Score: inf
ROOT
ATOM      1  C   UNL     1       4.659   0.792   1.080  1.00  0.00     0.118 C 
ENDROOT
BRANCH   1   2
ATOM      2  N   UNL     1       3.235   0.782   0.760  1.00  0.00    -0.352 N 
ATOM      3  O   UNL     1       1.306   0.214  -0.251  1.00  0.00    -0.269 OA
ATOM      4  C   UNL     1       2.484  -0.058  -0.033  1.00  0.00     0.251 C 
ATOM      5  H   UNL     1       2.719   1.504   1.187  1.00  0.00     0.163 HD
BRANCH   4   6
ATOM      6  C   UNL     1       3.093  -1.257  -0.651  1.00  0.00     0.039 A 
ATOM      7  C   UNL     1       4.011  -2.029   0.052  1.00  0.00     0.014 A 
ATOM      8  C   UNL     1       2.733  -1.632  -1.950  1.00  0.00     0.014 A 
ATOM      9  C   UNL     1       4.740  -3.008  -0.602  1.00  0.00     0.010 A 
ATOM     10  C   UNL     1       3.354  -2.732  -2.558  1.00  0.00     0.010 A 
ATOM     11  C   UNL     1       4.391  -3.408  -1.900  1.00  0.00    -0.014 A 
BRANCH  11  12
ATOM     12  C   UNL     1       5.067  -4.603  -2.470  1.00  0.00     0.031 A 
ATOM     13  C   UNL     1       5.874  -4.522  -3.737  1.00  0.00     0.074 A 
ATOM     14  C   UNL     1       4.989  -5.761  -1.780  1.00  0.00     0.049 A 
ATOM     15  N   UNL     1       6.540  -5.471  -4.344  1.00  0.00    -0.248 NA
ATOM     16  C   UNL     1       5.936  -3.220  -4.417  1.00  0.00     0.031 C 
ATOM     17  C   UNL     1       4.223  -5.949  -0.541  1.00  0.00     0.029 A 
ATOM     18  N   UNL     1       5.576  -6.982  -1.985  1.00  0.00    -0.354 N 
ATOM     19  C   UNL     1       7.073  -4.893  -5.492  1.00  0.00     0.074 A 
ATOM     20  C   UNL     1       6.644  -3.511  -5.501  1.00  0.00     0.031 C 
ATOM     21  C   UNL     1       4.451  -7.176  -0.059  1.00  0.00     0.029 A 
ATOM     22  C   UNL     1       5.282  -7.905  -1.005  1.00  0.00     0.049 A 
ATOM     23  H   UNL     1       6.152  -7.181  -2.758  1.00  0.00     0.167 HD
ATOM     24  C   UNL     1       7.844  -5.473  -6.445  1.00  0.00     0.034 A 
ATOM     25  C   UNL     1       5.608  -9.207  -0.895  1.00  0.00     0.034 A 
ATOM     26  C   UNL     1       8.280  -6.849  -6.397  1.00  0.00     0.049 A 
ATOM     27  C   UNL     1       6.444  -9.820  -1.983  1.00  0.00     0.074 A 
ATOM     28  C   UNL     1       9.112  -7.518  -7.279  1.00  0.00     0.029 A 
ATOM     29  N   UNL     1       7.913  -7.769  -5.424  1.00  0.00    -0.354 N 
ATOM     30  N   UNL     1       6.955  -9.248  -3.049  1.00  0.00    -0.248 NA
ATOM     31  C   UNL     1       6.737 -11.252  -1.861  1.00  0.00     0.031 C 
ATOM     32  C   UNL     1       9.190  -8.857  -6.878  1.00  0.00     0.029 A 
ATOM     33  C   UNL     1       8.466  -9.009  -5.708  1.00  0.00     0.049 A 
ATOM     34  H   UNL     1       7.343  -7.571  -4.646  1.00  0.00     0.167 HD
ATOM     35  C   UNL     1       7.630 -10.255  -3.727  1.00  0.00     0.074 A 
ATOM     36  C   UNL     1       7.497 -11.457  -2.926  1.00  0.00     0.031 C 
ATOM     37  C   UNL     1       8.293 -10.199  -4.910  1.00  0.00     0.034 A 
BRANCH  24  38
ATOM     38  C   UNL     1       8.224  -4.647  -7.650  1.00  0.00     0.023 A 
ATOM     39  C   UNL     1       9.111  -3.561  -7.568  1.00  0.00     0.031 A 
ATOM     40  C   UNL     1       7.707  -4.984  -8.915  1.00  0.00     0.131 A 
ATOM     41  C   UNL     1       9.427  -2.828  -8.724  1.00  0.00     0.055 A 
ATOM     42  C   UNL     1       8.072  -4.289 -10.070  1.00  0.00     0.041 A 
ATOM     43  F   UNL     1       6.841  -6.000  -9.050  1.00  0.00    -0.206 F 
ATOM     44  C   UNL     1       8.932  -3.200  -9.977  1.00  0.00     0.022 A 
BRANCH  41  45
ATOM     45  S   UNL     1      10.432  -1.326  -8.560  1.00  0.00     0.124 S 
ATOM     46  O   UNL     1       9.594  -0.502  -7.691  1.00  0.00    -0.237 OA
ATOM     47  O   UNL     1      11.663  -1.833  -7.965  1.00  0.00    -0.237 OA
ATOM     48  O   UNL     1      10.556  -0.843  -9.934  1.00  0.00    -0.744 OA
ENDBRANCH  41  45
ENDBRANCH  24  38
BRANCH  25  49
ATOM     49  C   UNL     1       5.081 -10.026   0.234  1.00  0.00     0.023 A 
ATOM     50  C   UNL     1       5.944 -10.662   1.140  1.00  0.00     0.031 A 
ATOM     51  C   UNL     1       3.696 -10.220   0.399  1.00  0.00     0.131 A 
ATOM     52  C   UNL     1       5.416 -11.495   2.139  1.00  0.00     0.055 A 
ATOM     53  C   UNL     1       3.174 -10.995   1.434  1.00  0.00     0.041 A 
ATOM     54  F   UNL     1       2.824  -9.639  -0.441  1.00  0.00    -0.206 F 
ATOM     55  C   UNL     1       4.037 -11.652   2.303  1.00  0.00     0.022 A 
BRANCH  52  56
ATOM     56  S   UNL     1       6.563 -12.464   3.156  1.00  0.00     0.124 S 
ATOM     57  O   UNL     1       7.359 -13.145   2.141  1.00  0.00    -0.237 OA
ATOM     58  O   UNL     1       7.246 -11.422   3.915  1.00  0.00    -0.237 OA
ATOM     59  O   UNL     1       5.679 -13.326   3.937  1.00  0.00    -0.744 OA
ENDBRANCH  52  56
ENDBRANCH  25  49
BRANCH  37  60
ATOM     60  C   UNL     1       8.922 -11.483  -5.383  1.00  0.00     0.023 A 
ATOM     61  C   UNL     1       8.134 -12.578  -5.778  1.00  0.00     0.031 A 
ATOM     62  C   UNL     1      10.319 -11.629  -5.396  1.00  0.00     0.131 A 
ATOM     63  C   UNL     1       8.747 -13.793  -6.111  1.00  0.00     0.055 A 
ATOM     64  C   UNL     1      10.926 -12.822  -5.788  1.00  0.00     0.041 A 
ATOM     65  F   UNL     1      11.116 -10.614  -5.023  1.00  0.00    -0.206 F 
ATOM     66  C   UNL     1      10.139 -13.918  -6.134  1.00  0.00     0.022 A 
BRANCH  63  67
ATOM     67  S   UNL     1       7.697 -15.239  -6.421  1.00  0.00     0.124 S 
ATOM     68  O   UNL     1       6.996 -15.381  -5.149  1.00  0.00    -0.237 OA
ATOM     69  O   UNL     1       6.886 -14.800  -7.551  1.00  0.00    -0.237 OA
ATOM     70  O   UNL     1       8.656 -16.300  -6.723  1.00  0.00    -0.744 OA
ENDBRANCH  63  67
ENDBRANCH  37  60
ENDBRANCH  11  12
ENDBRANCH   4   6
ENDBRANCH   1   2
BRANCH   1  71
ATOM     71  C   UNL     1       5.483   1.736   0.216  1.00  0.00     0.042 C 
BRANCH  71  72
ATOM     72  C   UNL     1       5.178   3.204   0.454  1.00  0.00     0.118 C 
BRANCH  72  73
ATOM     73  N   UNL     1       5.333   3.616   1.838  1.00  0.00    -0.351 N 
ATOM     74  C   UNL     1       5.271   4.870   2.371  1.00  0.00     0.281 C 
ATOM     75  H   UNL     1       5.508   2.891   2.480  1.00  0.00     0.163 HD
ATOM     76  O   UNL     1       5.099   4.927   3.595  1.00  0.00    -0.268 OA
BRANCH  74  77
ATOM     77  C   UNL     1       5.577   6.153   1.543  1.00  0.00     0.181 C 
ATOM     78  C   UNL     1       5.130   7.403   2.331  1.00  0.00     0.079 C 
ATOM     79  C   UNL     1       7.137   6.182   1.458  1.00  0.00     0.144 C 
ATOM     80  C   UNL     1       5.585   8.690   1.658  1.00  0.00     0.013 C 
ATOM     81  C   UNL     1       7.801   7.521   1.060  1.00  0.00     0.190 C 
ATOM     82  C   UNL     1       7.102   8.754   1.679  1.00  0.00     0.065 C 
BRANCH  77  83
ATOM     83  N   UNL     1       4.993   6.140   0.185  1.00  0.00    -0.331 N 
ATOM     84  H   UNL     1       5.507   5.429  -0.335  1.00  0.00     0.347 HD
ATOM     85  H   UNL     1       5.072   7.120  -0.083  1.00  0.00     0.347 HD
BRANCH  83  86
ATOM     86  C   UNL     1       3.572   5.877  -0.065  1.00  0.00     0.183 C 
ATOM     87  C   UNL     1       2.526   5.634   0.985  1.00  0.00     0.071 C 
ATOM     88  C   UNL     1       2.515   6.910   0.193  1.00  0.00     0.071 C 
ENDBRANCH  83  86
ENDBRANCH  77  83
BRANCH  81  89
ATOM     89  N   UNL     1       9.277   7.585   1.240  1.00  0.00    -0.331 N 
ATOM     90  C   UNL     1      10.075   6.466   0.723  1.00  0.00     0.278 C 
ATOM     91  C   UNL     1       9.837   8.118   2.486  1.00  0.00     0.278 C 
ATOM     92  H   UNL     1       9.392   8.356   0.582  1.00  0.00     0.348 HD
ATOM     93  C   UNL     1      10.260   5.264   1.642  1.00  0.00     0.198 C 
ATOM     94  C   UNL     1       9.777   7.154   3.650  1.00  0.00     0.198 C 
ATOM     95  S   UNL     1      10.767   5.731   3.280  1.00  0.00     0.161 S 
ATOM     96  O   UNL     1      10.358   4.672   4.192  1.00  0.00    -0.228 OA
ATOM     97  O   UNL     1      12.149   6.155   3.232  1.00  0.00    -0.228 OA
ENDBRANCH  81  89
ENDBRANCH  74  77
ENDBRANCH  72  73
ENDBRANCH  71  72
ENDBRANCH   1  71
TORSDOF 16
