REMARK SMILES COc1cc(/C=N/c2cccc(F)c2)ccc1OCc1cccc(C(=O)NCCCNC(=O)c2ccc(-c3c4nc(c(-c5cc(S(=O)(=O)[O-])ccc5F)c5ccc([nH]5)c(-c5cc(S(=O)(=O)[O-])ccc5F)c5nc(c(-c6cc(S(=O)(=O)[O-])ccc6F)c6ccc3[nH]6)C=C5)C=C4)cc2)c1
REMARK SMILES IDX 28 1 27 2 25 3 26 4 24 6 20 7 21 8 97 9 22 10 23 11 19 12
REMARK SMILES IDX 18 13 17 14 3 15 4 16 5 17 16 18 15 19 2 20 1 21 6 22 7 23
REMARK SMILES IDX 8 24 9 25 14 26 10 27 12 28 11 29 13 30 29 31 30 32 31 33
REMARK SMILES IDX 32 34 33 36 34 37 35 38 96 39 36 40 95 41 37 42 38 43 39 44
REMARK SMILES IDX 89 45 40 46 94 47 88 48 90 49 41 50 93 51 87 52 86 53 42 55
REMARK SMILES IDX 74 56 54 57 73 58 55 59 58 60 72 61 91 62 56 63 57 64 71 66
REMARK SMILES IDX 92 67 59 68 43 69 44 70 52 71 45 72 51 73 53 74 50 75 46 76
REMARK SMILES IDX 47 77 48 78 49 79 75 80 76 81 84 82 77 83 83 84 85 85 82 86
REMARK SMILES IDX 78 87 79 88 80 89 81 90 60 91 61 92 69 93 62 94 68 95 70 96
REMARK SMILES IDX 67 97 63 98 64 99 65 100 66 101
REMARK H PARENT 27 5 31 35 90 54 58 65
REMARK Flexibility Score: inf
ROOT
ATOM      1  C   UNL     1       2.079  -4.587   0.171  1.00  0.00     0.118 C 
ENDROOT
BRANCH   1   2
ATOM      2  N   UNL     1       1.142  -4.870   1.241  1.00  0.00    -0.352 N 
ATOM      3  C   UNL     1       0.485  -4.083   2.151  1.00  0.00     0.251 C 
ATOM      4  O   UNL     1      -0.334  -4.652   2.877  1.00  0.00    -0.269 OA
ATOM      5  H   UNL     1       0.933  -5.827   1.332  1.00  0.00     0.163 HD
BRANCH   3   6
ATOM      6  C   UNL     1       0.686  -2.611   2.311  1.00  0.00     0.040 A 
ATOM      7  C   UNL     1       1.857  -0.480   1.934  1.00  0.00    -0.010 A 
ATOM      8  C   UNL     1       0.966   0.145   2.809  1.00  0.00     0.007 A 
ATOM      9  C   UNL     1       1.718  -1.866   1.733  1.00  0.00     0.021 A 
ATOM     10  C   UNL     1      -0.080  -0.570   3.392  1.00  0.00     0.001 A 
ATOM     11  C   UNL     1      -0.224  -1.933   3.136  1.00  0.00     0.014 A 
BRANCH   7  12
ATOM     12  C   UNL     1       2.942   0.219   1.121  1.00  0.00     0.265 C 
BRANCH  12  13
ATOM     13  O   UNL     1       3.257   1.579   1.403  1.00  0.00    -0.485 OA
BRANCH  13  14
ATOM     14  C   UNL     1       2.292   2.537   1.272  1.00  0.00     0.161 A 
ATOM     15  C   UNL     1       1.160   2.516   0.442  1.00  0.00     0.161 A 
ATOM     16  C   UNL     1       0.185   3.514   0.582  1.00  0.00     0.060 A 
ATOM     17  C   UNL     1       0.356   4.519   1.542  1.00  0.00    -0.003 A 
ATOM     18  C   UNL     1       2.479   3.588   2.175  1.00  0.00     0.051 A 
ATOM     19  C   UNL     1       1.510   4.570   2.325  1.00  0.00     0.014 A 
BRANCH  15  20
ATOM     20  O   UNL     1       1.074   1.576  -0.549  1.00  0.00    -0.493 OA
ATOM     21  C   UNL     1      -0.157   0.856  -0.586  1.00  0.00     0.278 C 
ENDBRANCH  15  20
BRANCH  17  22
ATOM     22  C   UNL     1      -0.623   5.601   1.729  1.00  0.00     0.120 C 
ATOM     23  N   UNL     1      -1.715   5.696   1.038  1.00  0.00    -0.256 NA
BRANCH  23  24
ATOM     24  C   UNL     1      -2.454   6.875   1.242  1.00  0.00     0.066 A 
ATOM     25  C   UNL     1      -3.755   6.818   1.748  1.00  0.00     0.028 A 
ATOM     26  C   UNL     1      -1.914   8.115   0.887  1.00  0.00     0.067 A 
ATOM     27  C   UNL     1      -4.505   7.988   1.911  1.00  0.00     0.005 A 
ATOM     28  C   UNL     1      -2.661   9.272   1.057  1.00  0.00     0.125 A 
ATOM     29  C   UNL     1      -3.954   9.221   1.563  1.00  0.00     0.039 A 
ATOM     30  F   UNL     1      -2.128  10.455   0.722  1.00  0.00    -0.207 F 
ENDBRANCH  23  24
ENDBRANCH  17  22
ENDBRANCH  13  14
ENDBRANCH  12  13
ENDBRANCH   7  12
ENDBRANCH   3   6
ENDBRANCH   1   2
BRANCH   1  31
ATOM     31  C   UNL     1       3.531  -4.641   0.646  1.00  0.00     0.042 C 
BRANCH  31  32
ATOM     32  C   UNL     1       4.036  -6.057   0.905  1.00  0.00     0.118 C 
BRANCH  32  33
ATOM     33  N   UNL     1       4.083  -6.844  -0.318  1.00  0.00    -0.352 N 
ATOM     34  C   UNL     1       5.154  -7.376  -0.987  1.00  0.00     0.251 C 
ATOM     35  H   UNL     1       3.207  -7.022  -0.730  1.00  0.00     0.163 HD
ATOM     36  O   UNL     1       4.996  -7.755  -2.150  1.00  0.00    -0.269 OA
BRANCH  34  37
ATOM     37  C   UNL     1       6.478  -7.497  -0.339  1.00  0.00     0.039 A 
ATOM     38  C   UNL     1       7.628  -7.308  -1.112  1.00  0.00     0.014 A 
ATOM     39  C   UNL     1       6.597  -7.857   1.006  1.00  0.00     0.014 A 
ATOM     40  C   UNL     1       8.890  -7.436  -0.527  1.00  0.00     0.010 A 
ATOM     41  C   UNL     1       7.852  -7.906   1.607  1.00  0.00     0.010 A 
ATOM     42  C   UNL     1       9.012  -7.709   0.845  1.00  0.00    -0.014 A 
BRANCH  42  43
ATOM     43  C   UNL     1      10.344  -7.812   1.496  1.00  0.00     0.031 A 
ATOM     44  C   UNL     1      10.782  -9.113   2.114  1.00  0.00     0.074 A 
ATOM     45  C   UNL     1      11.124  -6.718   1.592  1.00  0.00     0.049 A 
ATOM     46  N   UNL     1      11.858  -9.382   2.808  1.00  0.00    -0.248 NA
ATOM     47  C   UNL     1       9.868 -10.255   1.957  1.00  0.00     0.031 C 
ATOM     48  C   UNL     1      10.784  -5.392   1.071  1.00  0.00     0.029 A 
ATOM     49  N   UNL     1      12.354  -6.539   2.172  1.00  0.00    -0.354 N 
ATOM     50  C   UNL     1      11.742 -10.715   3.188  1.00  0.00     0.074 A 
ATOM     51  C   UNL     1      10.461 -11.178   2.699  1.00  0.00     0.031 C 
ATOM     52  C   UNL     1      11.787  -4.542   1.341  1.00  0.00     0.029 A 
ATOM     53  C   UNL     1      12.819  -5.247   2.094  1.00  0.00     0.049 A 
ATOM     54  H   UNL     1      12.857  -7.268   2.604  1.00  0.00     0.167 HD
ATOM     55  C   UNL     1      12.632 -11.486   3.862  1.00  0.00     0.034 A 
ATOM     56  C   UNL     1      13.942  -4.689   2.588  1.00  0.00     0.034 A 
ATOM     57  C   UNL     1      13.911 -11.006   4.329  1.00  0.00     0.049 A 
ATOM     58  C   UNL     1      14.913  -5.560   3.341  1.00  0.00     0.074 A 
ATOM     59  C   UNL     1      14.917 -11.710   4.968  1.00  0.00     0.029 A 
ATOM     60  N   UNL     1      14.358  -9.694   4.215  1.00  0.00    -0.354 N 
ATOM     61  N   UNL     1      14.816  -6.835   3.644  1.00  0.00    -0.248 NA
ATOM     62  C   UNL     1      16.151  -4.923   3.806  1.00  0.00     0.031 C 
ATOM     63  C   UNL     1      15.939 -10.812   5.300  1.00  0.00     0.029 A 
ATOM     64  C   UNL     1      15.609  -9.563   4.799  1.00  0.00     0.049 A 
ATOM     65  H   UNL     1      13.858  -8.964   3.783  1.00  0.00     0.167 HD
ATOM     66  C   UNL     1      15.994  -7.157   4.312  1.00  0.00     0.074 A 
ATOM     67  C   UNL     1      16.791  -5.947   4.351  1.00  0.00     0.031 C 
ATOM     68  C   UNL     1      16.384  -8.344   4.843  1.00  0.00     0.034 A 
BRANCH  55  69
ATOM     69  C   UNL     1      12.233 -12.915   4.155  1.00  0.00     0.023 A 
ATOM     70  C   UNL     1      11.964 -13.834   3.124  1.00  0.00     0.031 A 
ATOM     71  C   UNL     1      12.081 -13.357   5.481  1.00  0.00     0.131 A 
ATOM     72  C   UNL     1      11.473 -15.112   3.433  1.00  0.00     0.055 A 
ATOM     73  C   UNL     1      11.677 -14.660   5.783  1.00  0.00     0.041 A 
ATOM     74  F   UNL     1      12.303 -12.524   6.510  1.00  0.00    -0.206 F 
ATOM     75  C   UNL     1      11.352 -15.541   4.756  1.00  0.00     0.022 A 
BRANCH  72  76
ATOM     76  S   UNL     1      10.841 -16.144   2.081  1.00  0.00     0.124 S 
ATOM     77  O   UNL     1       9.802 -15.286   1.516  1.00  0.00    -0.237 OA
ATOM     78  O   UNL     1      12.026 -16.343   1.255  1.00  0.00    -0.237 OA
ATOM     79  O   UNL     1      10.348 -17.339   2.764  1.00  0.00    -0.744 OA
ENDBRANCH  72  76
ENDBRANCH  55  69
BRANCH  56  80
ATOM     80  C   UNL     1      14.202  -3.233   2.400  1.00  0.00     0.023 A 
ATOM     81  C   UNL     1      15.282  -2.783   1.625  1.00  0.00     0.031 A 
ATOM     82  C   UNL     1      13.385  -2.268   3.016  1.00  0.00     0.131 A 
ATOM     83  C   UNL     1      15.543  -1.407   1.520  1.00  0.00     0.055 A 
ATOM     84  C   UNL     1      13.617  -0.899   2.866  1.00  0.00     0.041 A 
ATOM     85  F   UNL     1      12.333  -2.644   3.761  1.00  0.00    -0.206 F 
ATOM     86  C   UNL     1      14.710  -0.463   2.124  1.00  0.00     0.022 A 
BRANCH  83  87
ATOM     87  S   UNL     1      17.037  -0.871   0.642  1.00  0.00     0.124 S 
ATOM     88  O   UNL     1      18.084  -1.553   1.394  1.00  0.00    -0.237 OA
ATOM     89  O   UNL     1      16.788  -1.366  -0.708  1.00  0.00    -0.237 OA
ATOM     90  O   UNL     1      17.011   0.583   0.785  1.00  0.00    -0.744 OA
ENDBRANCH  83  87
ENDBRANCH  56  80
BRANCH  68  91
ATOM     91  C   UNL     1      17.755  -8.394   5.472  1.00  0.00     0.023 A 
ATOM     92  C   UNL     1      18.058  -7.679   6.644  1.00  0.00     0.031 A 
ATOM     93  C   UNL     1      18.776  -9.159   4.881  1.00  0.00     0.131 A 
ATOM     94  C   UNL     1      19.364  -7.698   7.156  1.00  0.00     0.055 A 
ATOM     95  C   UNL     1      20.058  -9.223   5.430  1.00  0.00     0.041 A 
ATOM     96  F   UNL     1      18.544  -9.858   3.759  1.00  0.00    -0.206 F 
ATOM     97  C   UNL     1      20.361  -8.480   6.567  1.00  0.00     0.022 A 
BRANCH  94  98
ATOM     98  S   UNL     1      19.769  -6.611   8.551  1.00  0.00     0.124 S 
ATOM     99  O   UNL     1      19.440  -5.294   8.014  1.00  0.00    -0.237 OA
ATOM    100  O   UNL     1      18.887  -7.109   9.602  1.00  0.00    -0.237 OA
ATOM    101  O   UNL     1      21.194  -6.852   8.771  1.00  0.00    -0.744 OA
ENDBRANCH  94  98
ENDBRANCH  68  91
ENDBRANCH  42  43
ENDBRANCH  34  37
ENDBRANCH  32  33
ENDBRANCH  31  32
ENDBRANCH   1  31
TORSDOF 19
