REMARK SMILES O=C(NCCCNC(=O)c1c(F)cccc1N1CC[C@@H]([NH+]2CCCCC2)C1)c1ccc(-c2c3nc(c(-c4cc(S(=O)(=O)[O-])ccc4F)c4ccc([nH]4)c(-c4cc(S(=O)(=O)[O-])ccc4F)c4nc(c(-c5cc(S(=O)(=O)[O-])ccc5F)c5ccc2[nH]5)C=C4)C=C3)cc1
REMARK SMILES IDX 4 1 3 2 1 3 2 4 28 6 29 7 90 8 30 9 89 10 31 11 32 12 33 13
REMARK SMILES IDX 83 14 34 15 88 16 82 17 84 18 35 19 87 20 81 21 80 22 36 24
REMARK SMILES IDX 68 25 48 26 67 27 49 28 52 29 66 30 85 31 50 32 51 33 65 35
REMARK SMILES IDX 86 36 53 37 37 38 38 39 46 40 39 41 45 42 47 43 44 44 40 45
REMARK SMILES IDX 41 46 42 47 43 48 69 49 70 50 78 51 71 52 77 53 79 54 76 55
REMARK SMILES IDX 72 56 73 57 74 58 75 59 54 60 55 61 63 62 56 63 62 64 64 65
REMARK SMILES IDX 61 66 57 67 58 68 59 69 60 70 5 71 6 72 7 73 8 74 9 76 10 77
REMARK SMILES IDX 11 78 16 79 12 80 13 81 15 82 14 83 17 84 18 85 27 86 19 87
REMARK SMILES IDX 20 88 21 89 22 90 26 91 23 93 25 94 24 95
REMARK H PARENT 3 5 84 23 52 34 7 75 21 92
REMARK Flexibility Score: inf
ROOT
ATOM      1  C   UNL     1       4.413   0.795  -1.334  1.00  0.00     0.118 C 
ENDROOT
BRANCH   1   2
ATOM      2  N   UNL     1       2.997   0.699  -0.995  1.00  0.00    -0.352 N 
ATOM      3  O   UNL     1       1.117  -0.024  -0.003  1.00  0.00    -0.269 OA
ATOM      4  C   UNL     1       2.343   0.025   0.012  1.00  0.00     0.251 C 
ATOM      5  H   UNL     1       2.403   1.206  -1.594  1.00  0.00     0.163 HD
BRANCH   4   6
ATOM      6  C   UNL     1       3.094  -0.654   1.093  1.00  0.00     0.039 A 
ATOM      7  C   UNL     1       4.234  -0.080   1.649  1.00  0.00     0.014 A 
ATOM      8  C   UNL     1       2.624  -1.876   1.592  1.00  0.00     0.014 A 
ATOM      9  C   UNL     1       5.005  -0.803   2.550  1.00  0.00     0.010 A 
ATOM     10  C   UNL     1       3.340  -2.550   2.591  1.00  0.00     0.010 A 
ATOM     11  C   UNL     1       4.560  -2.038   3.051  1.00  0.00    -0.014 A 
BRANCH  11  12
ATOM     12  C   UNL     1       5.374  -2.714   4.097  1.00  0.00     0.031 A 
ATOM     13  C   UNL     1       6.008  -4.056   3.857  1.00  0.00     0.074 A 
ATOM     14  C   UNL     1       5.606  -2.055   5.251  1.00  0.00     0.049 A 
ATOM     15  N   UNL     1       6.832  -4.723   4.625  1.00  0.00    -0.248 NA
ATOM     16  C   UNL     1       5.672  -4.746   2.603  1.00  0.00     0.031 C 
ATOM     17  C   UNL     1       5.032  -0.751   5.600  1.00  0.00     0.029 A 
ATOM     18  N   UNL     1       6.419  -2.351   6.315  1.00  0.00    -0.354 N 
ATOM     19  C   UNL     1       7.099  -5.914   3.961  1.00  0.00     0.074 A 
ATOM     20  C   UNL     1       6.326  -5.892   2.737  1.00  0.00     0.031 C 
ATOM     21  C   UNL     1       5.582  -0.319   6.741  1.00  0.00     0.029 A 
ATOM     22  C   UNL     1       6.486  -1.345   7.250  1.00  0.00     0.049 A 
ATOM     23  H   UNL     1       6.907  -3.202   6.401  1.00  0.00     0.167 HD
ATOM     24  C   UNL     1       7.920  -6.927   4.336  1.00  0.00     0.034 A 
ATOM     25  C   UNL     1       7.189  -1.249   8.395  1.00  0.00     0.034 A 
ATOM     26  C   UNL     1       8.698  -6.925   5.551  1.00  0.00     0.049 A 
ATOM     27  C   UNL     1       8.070  -2.392   8.802  1.00  0.00     0.074 A 
ATOM     28  C   UNL     1       9.595  -7.880   5.999  1.00  0.00     0.029 A 
ATOM     29  N   UNL     1       8.668  -5.927   6.517  1.00  0.00    -0.354 N 
ATOM     30  N   UNL     1       8.307  -3.512   8.161  1.00  0.00    -0.248 NA
ATOM     31  C   UNL     1       8.764  -2.272  10.089  1.00  0.00     0.031 C 
ATOM     32  C   UNL     1      10.054  -7.494   7.262  1.00  0.00     0.029 A 
ATOM     33  C   UNL     1       9.501  -6.263   7.574  1.00  0.00     0.049 A 
ATOM     34  H   UNL     1       8.133  -5.103   6.460  1.00  0.00     0.167 HD
ATOM     35  C   UNL     1       9.181  -4.231   8.966  1.00  0.00     0.074 A 
ATOM     36  C   UNL     1       9.437  -3.415  10.137  1.00  0.00     0.031 C 
ATOM     37  C   UNL     1       9.724  -5.455   8.749  1.00  0.00     0.034 A 
BRANCH  24  38
ATOM     38  C   UNL     1       7.991  -8.142   3.445  1.00  0.00     0.023 A 
ATOM     39  C   UNL     1       8.559  -8.089   2.161  1.00  0.00     0.031 A 
ATOM     40  C   UNL     1       7.496  -9.378   3.898  1.00  0.00     0.131 A 
ATOM     41  C   UNL     1       8.576  -9.240   1.356  1.00  0.00     0.055 A 
ATOM     42  C   UNL     1       7.574 -10.533   3.118  1.00  0.00     0.041 A 
ATOM     43  F   UNL     1       6.928  -9.482   5.109  1.00  0.00    -0.206 F 
ATOM     44  C   UNL     1       8.108 -10.466   1.835  1.00  0.00     0.022 A 
BRANCH  41  45
ATOM     45  S   UNL     1       9.132  -9.091  -0.364  1.00  0.00     0.124 S 
ATOM     46  O   UNL     1       8.153  -8.154  -0.911  1.00  0.00    -0.237 OA
ATOM     47  O   UNL     1      10.490  -8.579  -0.215  1.00  0.00    -0.237 OA
ATOM     48  O   UNL     1       9.033 -10.456  -0.877  1.00  0.00    -0.744 OA
ENDBRANCH  41  45
ENDBRANCH  24  38
BRANCH  25  49
ATOM     49  C   UNL     1       7.050  -0.028   9.232  1.00  0.00     0.023 A 
ATOM     50  C   UNL     1       8.086   0.913   9.321  1.00  0.00     0.031 A 
ATOM     51  C   UNL     1       5.839   0.249   9.893  1.00  0.00     0.131 A 
ATOM     52  C   UNL     1       7.890   2.094  10.056  1.00  0.00     0.055 A 
ATOM     53  C   UNL     1       5.638   1.439  10.592  1.00  0.00     0.041 A 
ATOM     54  F   UNL     1       4.814  -0.615   9.819  1.00  0.00    -0.206 F 
ATOM     55  C   UNL     1       6.668   2.369  10.676  1.00  0.00     0.022 A 
BRANCH  52  56
ATOM     56  S   UNL     1       9.254   3.283  10.181  1.00  0.00     0.124 S 
ATOM     57  O   UNL     1      10.222   2.541  10.979  1.00  0.00    -0.237 OA
ATOM     58  O   UNL     1       9.605   3.497   8.780  1.00  0.00    -0.237 OA
ATOM     59  O   UNL     1       8.643   4.432  10.847  1.00  0.00    -0.744 OA
ENDBRANCH  52  56
ENDBRANCH  25  49
BRANCH  37  60
ATOM     60  C   UNL     1      10.664  -5.988   9.795  1.00  0.00     0.023 A 
ATOM     61  C   UNL     1      10.193  -6.471  11.026  1.00  0.00     0.031 A 
ATOM     62  C   UNL     1      12.043  -6.063   9.530  1.00  0.00     0.131 A 
ATOM     63  C   UNL     1      11.100  -6.994  11.960  1.00  0.00     0.055 A 
ATOM     64  C   UNL     1      12.934  -6.622  10.445  1.00  0.00     0.041 A 
ATOM     65  F   UNL     1      12.539  -5.615   8.366  1.00  0.00    -0.206 F 
ATOM     66  C   UNL     1      12.464  -7.089  11.669  1.00  0.00     0.022 A 
BRANCH  63  67
ATOM     67  S   UNL     1      10.478  -7.541  13.574  1.00  0.00     0.124 S 
ATOM     68  O   UNL     1      10.065  -6.279  14.179  1.00  0.00    -0.237 OA
ATOM     69  O   UNL     1       9.402  -8.455  13.207  1.00  0.00    -0.237 OA
ATOM     70  O   UNL     1      11.642  -8.174  14.192  1.00  0.00    -0.744 OA
ENDBRANCH  63  67
ENDBRANCH  37  60
ENDBRANCH  11  12
ENDBRANCH   4   6
ENDBRANCH   1   2
BRANCH   1  71
ATOM     71  C   UNL     1       4.786   0.029  -2.595  1.00  0.00     0.042 C 
BRANCH  71  72
ATOM     72  C   UNL     1       4.090   0.517  -3.856  1.00  0.00     0.118 C 
BRANCH  72  73
ATOM     73  N   UNL     1       4.391   1.905  -4.180  1.00  0.00    -0.352 N 
ATOM     74  C   UNL     1       5.144   2.424  -5.210  1.00  0.00     0.256 C 
ATOM     75  H   UNL     1       3.997   2.571  -3.572  1.00  0.00     0.163 HD
ATOM     76  O   UNL     1       5.255   3.643  -5.322  1.00  0.00    -0.269 OA
BRANCH  74  77
ATOM     77  C   UNL     1       5.824   1.518  -6.155  1.00  0.00     0.098 A 
ATOM     78  C   UNL     1       5.000   0.738  -6.977  1.00  0.00     0.138 A 
ATOM     79  C   UNL     1       7.229   1.507  -6.319  1.00  0.00     0.053 A 
ATOM     80  F   UNL     1       3.663   0.798  -6.862  1.00  0.00    -0.206 F 
ATOM     81  C   UNL     1       5.534  -0.133  -7.915  1.00  0.00     0.040 A 
ATOM     82  C   UNL     1       7.737   0.641  -7.307  1.00  0.00     0.027 A 
ATOM     83  C   UNL     1       6.910  -0.186  -8.078  1.00  0.00     0.005 A 
BRANCH  79  84
ATOM     84  N   UNL     1       8.111   2.259  -5.581  1.00  0.00    -0.365 N 
ATOM     85  C   UNL     1       8.070   2.410  -4.140  1.00  0.00     0.123 C 
ATOM     86  C   UNL     1       9.191   3.061  -6.168  1.00  0.00     0.181 C 
ATOM     87  C   UNL     1       8.662   3.791  -3.919  1.00  0.00     0.088 C 
ATOM     88  C   UNL     1       9.740   3.946  -4.997  1.00  0.00     0.205 C 
BRANCH  88  89
ATOM     89  N   UNL     1      11.149   3.688  -4.639  1.00  0.00    -0.331 N 
ATOM     90  C   UNL     1      11.499   2.363  -4.127  1.00  0.00     0.262 C 
ATOM     91  C   UNL     1      11.800   4.759  -3.877  1.00  0.00     0.262 C 
ATOM     92  H   UNL     1      11.556   3.689  -5.574  1.00  0.00     0.348 HD
ATOM     93  C   UNL     1      11.335   2.183  -2.616  1.00  0.00     0.062 C 
ATOM     94  C   UNL     1      11.628   4.679  -2.360  1.00  0.00     0.062 C 
ATOM     95  C   UNL     1      11.992   3.302  -1.819  1.00  0.00     0.012 C 
ENDBRANCH  88  89
ENDBRANCH  79  84
ENDBRANCH  74  77
ENDBRANCH  72  73
ENDBRANCH  71  72
ENDBRANCH   1  71
TORSDOF 15
