REMARK SMILES CC[C@@](C)(NC(=O)Nc1c(C)cccc1Cl)C(=O)NCCCNC(=O)c1ccc(-c2c3nc(c(-c4cc(S(=O)(=O)[O-])ccc4F)c4ccc([nH]4)c(-c4cc(S(=O)(=O)[O-])ccc4F)c4nc(c(-c5cc(S(=O)(=O)[O-])ccc5F)c5ccc2[nH]5)C=C4)C=C3)cc1
REMARK SMILES IDX 21 1 20 2 19 3 17 4 18 5 3 7 4 8 2 9 1 10 5 11 6 12 7 14
REMARK SMILES IDX 8 15 9 17 10 18 15 19 11 20 12 21 14 22 16 23 13 24 22 25
REMARK SMILES IDX 23 26 24 27 25 29 26 30 27 31 88 32 28 33 87 34 29 35 30 36
REMARK SMILES IDX 31 37 81 38 32 39 86 40 80 41 82 42 33 43 85 44 79 45 78 46
REMARK SMILES IDX 34 48 66 49 46 50 65 51 47 52 50 53 64 54 83 55 48 56 49 57
REMARK SMILES IDX 63 59 84 60 51 61 35 62 36 63 44 64 37 65 43 66 45 67 42 68
REMARK SMILES IDX 38 69 39 70 40 71 41 72 67 73 68 74 76 75 69 76 75 77 77 78
REMARK SMILES IDX 74 79 70 80 71 81 72 82 73 83 52 84 53 85 61 86 54 87 60 88
REMARK SMILES IDX 62 89 59 90 55 91 56 92 57 93 58 94
REMARK H PARENT 19 6 5 13 8 16 23 28 82 47 50 58
REMARK Flexibility Score: inf
ROOT
ATOM      1  C   UNL     1       2.135   5.239  -3.999  1.00  0.00     0.042 C 
ENDROOT
BRANCH   1   2
ATOM      2  C   UNL     1       1.246   3.976  -4.115  1.00  0.00     0.117 C 
BRANCH   2   3
ATOM      3  N   UNL     1       1.704   2.818  -3.354  1.00  0.00    -0.354 N 
ATOM      4  C   UNL     1       1.000   1.889  -2.587  1.00  0.00     0.245 C 
ATOM      5  O   UNL     1       0.916   0.707  -2.917  1.00  0.00    -0.272 OA
ATOM      6  H   UNL     1       2.676   2.667  -3.386  1.00  0.00     0.163 HD
BRANCH   4   7
ATOM      7  C   UNL     1       0.282   2.436  -1.340  1.00  0.00     0.117 C 
ATOM      8  C   UNL     1      -1.174   2.547  -1.891  1.00  0.00     0.045 C 
BRANCH   7   9
ATOM      9  C   UNL     1       0.181   1.683   0.011  1.00  0.00     0.035 C 
ATOM     10  C   UNL     1       0.420   0.192   0.048  1.00  0.00     0.007 C 
ENDBRANCH   7   9
BRANCH   7  11
ATOM     11  N   UNL     1       0.886   3.737  -1.048  1.00  0.00    -0.324 N 
ATOM     12  C   UNL     1       2.132   4.147  -0.781  1.00  0.00     0.320 C 
ATOM     13  H   UNL     1       0.232   4.472  -1.046  1.00  0.00     0.166 HD
ATOM     14  O   UNL     1       2.214   5.324  -0.404  1.00  0.00    -0.248 OA
ATOM     15  N   UNL     1       3.318   3.531  -1.040  1.00  0.00    -0.306 N 
ATOM     16  H   UNL     1       3.950   4.167  -1.446  1.00  0.00     0.171 HD
BRANCH  15  17
ATOM     17  C   UNL     1       3.938   2.232  -0.903  1.00  0.00     0.064 A 
ATOM     18  C   UNL     1       4.102   1.204  -1.880  1.00  0.00    -0.026 A 
ATOM     19  C   UNL     1       4.839   2.131   0.193  1.00  0.00     0.064 A 
ATOM     20  C   UNL     1       3.995   1.285  -3.395  1.00  0.00     0.046 C 
ATOM     21  C   UNL     1       4.731  -0.014  -1.519  1.00  0.00     0.005 A 
ATOM     22  C   UNL     1       5.627   0.996   0.435  1.00  0.00     0.023 A 
ATOM     23  Cl  UNL     1       5.136   3.492   1.237  1.00  0.00    -0.082 Cl
ATOM     24  C   UNL     1       5.506  -0.113  -0.379  1.00  0.00     0.002 A 
ENDBRANCH  15  17
ENDBRANCH   7  11
ENDBRANCH   4   7
ENDBRANCH   2   3
ENDBRANCH   1   2
BRANCH   1  25
ATOM     25  C   UNL     1       3.663   5.113  -4.023  1.00  0.00     0.118 C 
BRANCH  25  26
ATOM     26  N   UNL     1       4.211   4.549  -5.239  1.00  0.00    -0.352 N 
ATOM     27  C   UNL     1       5.087   5.076  -6.163  1.00  0.00     0.251 C 
ATOM     28  H   UNL     1       3.906   3.635  -5.439  1.00  0.00     0.163 HD
ATOM     29  O   UNL     1       5.422   4.397  -7.119  1.00  0.00    -0.269 OA
BRANCH  27  30
ATOM     30  C   UNL     1       5.562   6.477  -6.050  1.00  0.00     0.039 A 
ATOM     31  C   UNL     1       5.424   7.296  -7.174  1.00  0.00     0.014 A 
ATOM     32  C   UNL     1       6.139   6.988  -4.886  1.00  0.00     0.014 A 
ATOM     33  C   UNL     1       5.782   8.645  -7.105  1.00  0.00     0.010 A 
ATOM     34  C   UNL     1       6.434   8.353  -4.798  1.00  0.00     0.010 A 
ATOM     35  C   UNL     1       6.243   9.202  -5.901  1.00  0.00    -0.014 A 
BRANCH  35  36
ATOM     36  C   UNL     1       6.494  10.668  -5.786  1.00  0.00     0.031 A 
ATOM     37  C   UNL     1       7.874  11.191  -5.490  1.00  0.00     0.074 A 
ATOM     38  C   UNL     1       5.463  11.532  -5.906  1.00  0.00     0.049 A 
ATOM     39  N   UNL     1       8.269  12.424  -5.296  1.00  0.00    -0.248 NA
ATOM     40  C   UNL     1       8.945  10.192  -5.372  1.00  0.00     0.031 C 
ATOM     41  C   UNL     1       4.072  11.154  -6.162  1.00  0.00     0.029 A 
ATOM     42  N   UNL     1       5.420  12.903  -5.824  1.00  0.00    -0.354 N 
ATOM     43  C   UNL     1       9.631  12.350  -5.022  1.00  0.00     0.074 A 
ATOM     44  C   UNL     1       9.976  10.944  -5.016  1.00  0.00     0.031 C 
ATOM     45  C   UNL     1       3.320  12.263  -6.245  1.00  0.00     0.029 A 
ATOM     46  C   UNL     1       4.159  13.431  -5.994  1.00  0.00     0.049 A 
ATOM     47  H   UNL     1       6.216  13.458  -5.658  1.00  0.00     0.167 HD
ATOM     48  C   UNL     1      10.515  13.360  -4.817  1.00  0.00     0.034 A 
ATOM     49  C   UNL     1       3.720  14.706  -5.937  1.00  0.00     0.034 A 
ATOM     50  C   UNL     1      10.157  14.759  -4.831  1.00  0.00     0.049 A 
ATOM     51  C   UNL     1       4.714  15.807  -5.662  1.00  0.00     0.074 A 
ATOM     52  C   UNL     1      10.983  15.861  -4.684  1.00  0.00     0.029 A 
ATOM     53  N   UNL     1       8.867  15.252  -4.989  1.00  0.00    -0.354 N 
ATOM     54  N   UNL     1       6.008  15.721  -5.454  1.00  0.00    -0.248 NA
ATOM     55  C   UNL     1       4.189  17.179  -5.622  1.00  0.00     0.031 C 
ATOM     56  C   UNL     1      10.186  17.010  -4.672  1.00  0.00     0.029 A 
ATOM     57  C   UNL     1       8.872  16.637  -4.905  1.00  0.00     0.049 A 
ATOM     58  H   UNL     1       8.067  14.699  -5.139  1.00  0.00     0.167 HD
ATOM     59  C   UNL     1       6.454  17.030  -5.293  1.00  0.00     0.074 A 
ATOM     60  C   UNL     1       5.296  17.886  -5.445  1.00  0.00     0.031 C 
ATOM     61  C   UNL     1       7.710  17.484  -5.048  1.00  0.00     0.034 A 
BRANCH  48  62
ATOM     62  C   UNL     1      11.951  12.982  -4.530  1.00  0.00     0.023 A 
ATOM     63  C   UNL     1      12.731  12.279  -5.465  1.00  0.00     0.031 A 
ATOM     64  C   UNL     1      12.544  13.310  -3.298  1.00  0.00     0.131 A 
ATOM     65  C   UNL     1      14.025  11.857  -5.124  1.00  0.00     0.055 A 
ATOM     66  C   UNL     1      13.863  12.965  -2.999  1.00  0.00     0.041 A 
ATOM     67  F   UNL     1      11.846  13.964  -2.356  1.00  0.00    -0.206 F 
ATOM     68  C   UNL     1      14.607  12.219  -3.908  1.00  0.00     0.022 A 
BRANCH  65  69
ATOM     69  S   UNL     1      14.875  10.696  -6.229  1.00  0.00     0.124 S 
ATOM     70  O   UNL     1      13.933   9.580  -6.264  1.00  0.00    -0.237 OA
ATOM     71  O   UNL     1      15.000  11.466  -7.460  1.00  0.00    -0.237 OA
ATOM     72  O   UNL     1      16.131  10.419  -5.534  1.00  0.00    -0.744 OA
ENDBRANCH  65  69
ENDBRANCH  48  62
BRANCH  49  73
ATOM     73  C   UNL     1       2.272  15.020  -6.124  1.00  0.00     0.023 A 
ATOM     74  C   UNL     1       1.835  15.819  -7.194  1.00  0.00     0.031 A 
ATOM     75  C   UNL     1       1.308  14.571  -5.204  1.00  0.00     0.131 A 
ATOM     76  C   UNL     1       0.484  16.187  -7.288  1.00  0.00     0.055 A 
ATOM     77  C   UNL     1      -0.045  14.888  -5.337  1.00  0.00     0.041 A 
ATOM     78  F   UNL     1       1.668  13.805  -4.162  1.00  0.00    -0.206 F 
ATOM     79  C   UNL     1      -0.462  15.714  -6.376  1.00  0.00     0.022 A 
BRANCH  76  80
ATOM     80  S   UNL     1      -0.006  17.378  -8.565  1.00  0.00     0.124 S 
ATOM     81  O   UNL     1       0.838  18.522  -8.242  1.00  0.00    -0.237 OA
ATOM     82  O   UNL     1       0.325  16.660  -9.792  1.00  0.00    -0.237 OA
ATOM     83  O   UNL     1      -1.435  17.567  -8.323  1.00  0.00    -0.744 OA
ENDBRANCH  76  80
ENDBRANCH  49  73
BRANCH  61  84
ATOM     84  C   UNL     1       7.903  18.981  -4.979  1.00  0.00     0.023 A 
ATOM     85  C   UNL     1       7.321  19.762  -3.964  1.00  0.00     0.031 A 
ATOM     86  C   UNL     1       8.679  19.638  -5.952  1.00  0.00     0.131 A 
ATOM     87  C   UNL     1       7.476  21.157  -3.978  1.00  0.00     0.055 A 
ATOM     88  C   UNL     1       8.887  21.018  -5.921  1.00  0.00     0.041 A 
ATOM     89  F   UNL     1       9.255  18.946  -6.948  1.00  0.00    -0.206 F 
ATOM     90  C   UNL     1       8.272  21.787  -4.938  1.00  0.00     0.022 A 
BRANCH  87  91
ATOM     91  S   UNL     1       6.542  22.150  -2.782  1.00  0.00     0.124 S 
ATOM     92  O   UNL     1       5.165  21.773  -3.084  1.00  0.00    -0.237 OA
ATOM     93  O   UNL     1       7.067  21.678  -1.505  1.00  0.00    -0.237 OA
ATOM     94  O   UNL     1       6.897  23.526  -3.126  1.00  0.00    -0.744 OA
ENDBRANCH  87  91
ENDBRANCH  61  84
ENDBRANCH  35  36
ENDBRANCH  27  30
ENDBRANCH  25  26
ENDBRANCH   1  25
TORSDOF 16
