REMARK SMILES CC(C)(C)c1cc2c(cc1Cl)C=C(C(=O)NCCCNC(=O)c1ccc(-c3c4nc(c(-c5cc(S(=O)(=O)[O-])ccc5F)c5ccc([nH]5)c(-c5cc(S(=O)(=O)[O-])ccc5F)c5nc(c(-c6cc(S(=O)(=O)[O-])ccc6F)c6ccc3[nH]6)C=C5)C=C4)cc1)[C@@H](C(F)(F)F)O2
REMARK SMILES IDX 19 1 18 2 17 3 16 4 14 5 15 6 13 8 5 9 6 10 10 11 7 12 9 13
REMARK SMILES IDX 11 14 8 15 91 16 12 17 86 18 2 19 1 20 3 21 4 22 87 23 88 24
REMARK SMILES IDX 89 25 90 26 20 27 21 28 22 30 23 31 24 32 85 33 25 34 84 35
REMARK SMILES IDX 26 36 27 37 28 38 78 39 29 40 83 41 77 42 79 43 30 44 82 45
REMARK SMILES IDX 76 46 75 47 31 49 63 50 43 51 62 52 44 53 47 54 61 55 80 56
REMARK SMILES IDX 45 57 46 58 60 60 81 61 48 62 32 63 33 64 41 65 34 66 40 67
REMARK SMILES IDX 42 68 39 69 35 70 36 71 37 72 38 73 64 74 65 75 73 76 66 77
REMARK SMILES IDX 72 78 74 79 71 80 67 81 68 82 69 83 70 84 49 85 50 86 58 87
REMARK SMILES IDX 51 88 57 89 59 90 56 91 52 92 53 93 54 94 55 95
REMARK H PARENT 16 7 20 29 79 48 47 59
REMARK Flexibility Score: inf
ROOT
ATOM      1  C   UNL     1       2.514   8.299  -7.413  1.00  0.00     0.118 C 
ENDROOT
BRANCH   1   2
ATOM      2  C   UNL     1       1.969   7.389  -6.320  1.00  0.00     0.042 C 
BRANCH   2   3
ATOM      3  C   UNL     1       0.961   6.383  -6.854  1.00  0.00     0.118 C 
BRANCH   3   4
ATOM      4  N   UNL     1       1.607   5.277  -7.546  1.00  0.00    -0.352 N 
ATOM      5  C   UNL     1       1.905   3.983  -7.289  1.00  0.00     0.251 C 
ATOM      6  O   UNL     1       2.485   3.385  -8.201  1.00  0.00    -0.270 OA
ATOM      7  H   UNL     1       1.909   5.543  -8.445  1.00  0.00     0.163 HD
BRANCH   5   8
ATOM      8  C   UNL     1       1.574   3.260  -6.028  1.00  0.00     0.067 C 
ATOM      9  C   UNL     1       0.975  -0.264  -2.408  1.00  0.00    -0.020 A 
ATOM     10  C   UNL     1       0.812   1.141  -2.510  1.00  0.00     0.053 A 
ATOM     11  C   UNL     1       1.513  -0.902  -3.549  1.00  0.00     0.045 A 
ATOM     12  C   UNL     1       1.151   1.856  -3.656  1.00  0.00     0.128 A 
ATOM     13  C   UNL     1       1.872  -0.164  -4.699  1.00  0.00     0.032 A 
ATOM     14  Cl  UNL     1       1.767  -2.603  -3.713  1.00  0.00    -0.084 Cl
ATOM     15  C   UNL     1       1.684   1.213  -4.760  1.00  0.00     0.019 A 
ATOM     16  O   UNL     1       0.950   3.205  -3.618  1.00  0.00    -0.475 OA
ATOM     17  C   UNL     1       2.027   1.994  -5.941  1.00  0.00     0.025 C 
ATOM     18  C   UNL     1       0.752   3.841  -4.911  1.00  0.00     0.314 C 
BRANCH   9  19
ATOM     19  C   UNL     1       0.491  -0.916  -1.089  1.00  0.00    -0.012 C 
ATOM     20  C   UNL     1       1.044  -0.134   0.136  1.00  0.00     0.016 C 
ATOM     21  C   UNL     1       0.882  -2.385  -0.833  1.00  0.00     0.016 C 
ATOM     22  C   UNL     1      -1.054  -0.850  -1.063  1.00  0.00     0.016 C 
ENDBRANCH   9  19
BRANCH  18  23
ATOM     23  C   UNL     1      -0.755   3.868  -5.232  1.00  0.00     0.429 C 
ATOM     24  F   UNL     1      -1.406   4.707  -4.388  1.00  0.00    -0.167 F 
ATOM     25  F   UNL     1      -1.017   4.305  -6.487  1.00  0.00    -0.167 F 
ATOM     26  F   UNL     1      -1.336   2.651  -5.118  1.00  0.00    -0.167 F 
ENDBRANCH  18  23
ENDBRANCH   5   8
ENDBRANCH   3   4
ENDBRANCH   2   3
ENDBRANCH   1   2
BRANCH   1  27
ATOM     27  N   UNL     1       1.486   9.185  -7.958  1.00  0.00    -0.352 N 
ATOM     28  C   UNL     1       1.349  10.550  -7.869  1.00  0.00     0.251 C 
ATOM     29  H   UNL     1       0.779   8.731  -8.471  1.00  0.00     0.163 HD
ATOM     30  O   UNL     1       0.290  11.075  -8.203  1.00  0.00    -0.269 OA
BRANCH  28  31
ATOM     31  C   UNL     1       2.462  11.370  -7.349  1.00  0.00     0.039 A 
ATOM     32  C   UNL     1       3.775  11.078  -7.714  1.00  0.00     0.014 A 
ATOM     33  C   UNL     1       2.197  12.428  -6.475  1.00  0.00     0.014 A 
ATOM     34  C   UNL     1       4.824  11.688  -7.044  1.00  0.00     0.010 A 
ATOM     35  C   UNL     1       3.259  13.126  -5.891  1.00  0.00     0.010 A 
ATOM     36  C   UNL     1       4.582  12.721  -6.123  1.00  0.00    -0.014 A 
BRANCH  36  37
ATOM     37  C   UNL     1       5.738  13.352  -5.434  1.00  0.00     0.031 A 
ATOM     38  C   UNL     1       5.888  13.270  -3.939  1.00  0.00     0.074 A 
ATOM     39  C   UNL     1       6.699  13.933  -6.179  1.00  0.00     0.049 A 
ATOM     40  N   UNL     1       6.866  13.705  -3.188  1.00  0.00    -0.248 NA
ATOM     41  C   UNL     1       4.800  12.624  -3.186  1.00  0.00     0.031 C 
ATOM     42  C   UNL     1       6.652  14.066  -7.636  1.00  0.00     0.029 A 
ATOM     43  N   UNL     1       7.910  14.478  -5.835  1.00  0.00    -0.354 N 
ATOM     44  C   UNL     1       6.503  13.412  -1.877  1.00  0.00     0.074 A 
ATOM     45  C   UNL     1       5.200  12.790  -1.932  1.00  0.00     0.031 C 
ATOM     46  C   UNL     1       7.812  14.575  -8.068  1.00  0.00     0.029 A 
ATOM     47  C   UNL     1       8.653  14.890  -6.917  1.00  0.00     0.049 A 
ATOM     48  H   UNL     1       8.217  14.566  -4.904  1.00  0.00     0.167 HD
ATOM     49  C   UNL     1       7.202  13.631  -0.738  1.00  0.00     0.034 A 
ATOM     50  C   UNL     1       9.872  15.464  -6.983  1.00  0.00     0.034 A 
ATOM     51  C   UNL     1       8.514  14.228  -0.707  1.00  0.00     0.049 A 
ATOM     52  C   UNL     1      10.627  15.701  -5.703  1.00  0.00     0.074 A 
ATOM     53  C   UNL     1       9.316  14.470   0.394  1.00  0.00     0.029 A 
ATOM     54  N   UNL     1       9.219  14.669  -1.819  1.00  0.00    -0.354 N 
ATOM     55  N   UNL     1      10.281  15.389  -4.476  1.00  0.00    -0.248 NA
ATOM     56  C   UNL     1      11.930  16.368  -5.808  1.00  0.00     0.031 C 
ATOM     57  C   UNL     1      10.477  15.108  -0.044  1.00  0.00     0.029 A 
ATOM     58  C   UNL     1      10.436  15.202  -1.427  1.00  0.00     0.049 A 
ATOM     59  H   UNL     1       8.901  14.611  -2.749  1.00  0.00     0.167 HD
ATOM     60  C   UNL     1      11.326  15.813  -3.663  1.00  0.00     0.074 A 
ATOM     61  C   UNL     1      12.332  16.375  -4.543  1.00  0.00     0.031 C 
ATOM     62  C   UNL     1      11.436  15.753  -2.312  1.00  0.00     0.034 A 
BRANCH  49  63
ATOM     63  C   UNL     1       6.583  13.229   0.579  1.00  0.00     0.023 A 
ATOM     64  C   UNL     1       6.290  14.209   1.546  1.00  0.00     0.031 A 
ATOM     65  C   UNL     1       6.391  11.879   0.922  1.00  0.00     0.131 A 
ATOM     66  C   UNL     1       5.846  13.823   2.818  1.00  0.00     0.055 A 
ATOM     67  C   UNL     1       5.911  11.502   2.178  1.00  0.00     0.041 A 
ATOM     68  F   UNL     1       6.654  10.905   0.035  1.00  0.00    -0.206 F 
ATOM     69  C   UNL     1       5.648  12.476   3.136  1.00  0.00     0.022 A 
BRANCH  66  70
ATOM     70  S   UNL     1       5.567  15.047   4.127  1.00  0.00     0.124 S 
ATOM     71  O   UNL     1       4.145  14.863   4.409  1.00  0.00    -0.237 OA
ATOM     72  O   UNL     1       6.474  14.586   5.174  1.00  0.00    -0.237 OA
ATOM     73  O   UNL     1       5.918  16.317   3.502  1.00  0.00    -0.744 OA
ENDBRANCH  66  70
ENDBRANCH  49  63
BRANCH  50  74
ATOM     74  C   UNL     1      10.440  15.796  -8.323  1.00  0.00     0.023 A 
ATOM     75  C   UNL     1       9.771  16.684  -9.187  1.00  0.00     0.031 A 
ATOM     76  C   UNL     1      11.569  15.122  -8.814  1.00  0.00     0.131 A 
ATOM     77  C   UNL     1      10.178  16.797 -10.522  1.00  0.00     0.055 A 
ATOM     78  C   UNL     1      12.022  15.302 -10.123  1.00  0.00     0.041 A 
ATOM     79  F   UNL     1      12.233  14.256  -8.033  1.00  0.00    -0.206 F 
ATOM     80  C   UNL     1      11.310  16.125 -10.991  1.00  0.00     0.022 A 
BRANCH  77  81
ATOM     81  S   UNL     1       9.155  17.685 -11.730  1.00  0.00     0.124 S 
ATOM     82  O   UNL     1      10.068  18.722 -12.199  1.00  0.00    -0.237 OA
ATOM     83  O   UNL     1       8.849  16.629 -12.693  1.00  0.00    -0.237 OA
ATOM     84  O   UNL     1       8.019  18.152 -10.942  1.00  0.00    -0.744 OA
ENDBRANCH  77  81
ENDBRANCH  50  74
BRANCH  62  85
ATOM     85  C   UNL     1      12.682  16.308  -1.667  1.00  0.00     0.023 A 
ATOM     86  C   UNL     1      13.539  15.457  -0.945  1.00  0.00     0.031 A 
ATOM     87  C   UNL     1      12.932  17.691  -1.635  1.00  0.00     0.131 A 
ATOM     88  C   UNL     1      14.582  16.001  -0.185  1.00  0.00     0.055 A 
ATOM     89  C   UNL     1      14.002  18.224  -0.914  1.00  0.00     0.041 A 
ATOM     90  F   UNL     1      12.136  18.543  -2.300  1.00  0.00    -0.206 F 
ATOM     91  C   UNL     1      14.822  17.379  -0.172  1.00  0.00     0.022 A 
BRANCH  88  92
ATOM     92  S   UNL     1      15.603  14.953   0.887  1.00  0.00     0.124 S 
ATOM     93  O   UNL     1      16.934  15.145   0.316  1.00  0.00    -0.237 OA
ATOM     94  O   UNL     1      15.395  15.559   2.200  1.00  0.00    -0.237 OA
ATOM     95  O   UNL     1      15.040  13.618   0.716  1.00  0.00    -0.744 OA
ENDBRANCH  88  92
ENDBRANCH  62  85
ENDBRANCH  36  37
ENDBRANCH  28  31
ENDBRANCH   1  27
TORSDOF 15
