REMARK SMILES C[C@@H](C(=O)NCCCNC(=O)c1ccc(-c2c3nc(c(-c4cc(S(=O)(=O)[O-])ccc4F)c4ccc([nH]4)c(-c4cc(S(=O)(=O)[O-])ccc4F)c4nc(c(-c5cc(S(=O)(=O)[O-])ccc5F)c5ccc2[nH]5)C=C4)C=C3)cc1)c1ccc(-c2cccc(OC(=O)NC3CC3)c2)c(F)c1
REMARK SMILES IDX 6 1 5 2 3 3 4 4 2 6 1 7 75 8 76 9 94 10 77 11 92 12 78 13
REMARK SMILES IDX 93 14 79 15 80 16 91 17 81 18 83 19 82 20 84 21 85 22 86 23
REMARK SMILES IDX 87 24 88 26 89 27 90 28 7 29 8 30 9 31 10 32 11 34 12 35
REMARK SMILES IDX 13 36 74 37 14 38 73 39 15 40 16 41 17 42 67 43 18 44 72 45
REMARK SMILES IDX 66 46 68 47 19 48 71 49 65 50 64 51 20 53 52 54 32 55 51 56
REMARK SMILES IDX 33 57 36 58 50 59 69 60 34 61 35 62 49 64 70 65 37 66 21 67
REMARK SMILES IDX 22 68 30 69 23 70 29 71 31 72 28 73 24 74 25 75 26 76 27 77
REMARK SMILES IDX 53 78 54 79 62 80 55 81 61 82 63 83 60 84 56 85 57 86 58 87
REMARK SMILES IDX 59 88 38 89 39 90 47 91 40 92 46 93 48 94 45 95 41 96 42 97
REMARK SMILES IDX 43 98 44 99
REMARK H PARENT 5 5 87 25 9 33 68 52 36 63
REMARK Flexibility Score: inf
ROOT
ATOM      1  C   UNL     1       3.577  -0.351  -1.954  1.00  0.00     0.117 C 
ENDROOT
BRANCH   1   2
ATOM      2  N   UNL     1       2.558  -1.259  -2.437  1.00  0.00    -0.356 N 
ATOM      3  C   UNL     1       1.208  -1.250  -2.269  1.00  0.00     0.227 C 
ATOM      4  O   UNL     1       0.597  -2.164  -2.828  1.00  0.00    -0.274 OA
ATOM      5  H   UNL     1       2.899  -2.008  -2.978  1.00  0.00     0.163 HD
BRANCH   3   6
ATOM      6  C   UNL     1       0.529  -0.118  -1.474  1.00  0.00     0.105 C 
ATOM      7  C   UNL     1       0.884  -0.127   0.016  1.00  0.00     0.023 C 
BRANCH   6   8
ATOM      8  C   UNL     1      -0.993  -0.102  -1.578  1.00  0.00    -0.033 A 
ATOM      9  C   UNL     1      -1.673   1.122  -1.678  1.00  0.00     0.005 A 
ATOM     10  C   UNL     1      -1.749  -1.275  -1.458  1.00  0.00     0.044 A 
ATOM     11  C   UNL     1      -3.072   1.169  -1.650  1.00  0.00     0.012 A 
ATOM     12  C   UNL     1      -3.136  -1.223  -1.458  1.00  0.00     0.131 A 
ATOM     13  C   UNL     1      -3.827  -0.006  -1.524  1.00  0.00     0.018 A 
ATOM     14  F   UNL     1      -3.810  -2.380  -1.353  1.00  0.00    -0.206 F 
BRANCH  13  15
ATOM     15  C   UNL     1      -5.283   0.036  -1.356  1.00  0.00    -0.012 A 
ATOM     16  C   UNL     1      -6.129   0.667  -2.279  1.00  0.00     0.009 A 
ATOM     17  C   UNL     1      -5.855  -0.568  -0.223  1.00  0.00     0.056 A 
ATOM     18  C   UNL     1      -7.513   0.680  -2.079  1.00  0.00     0.004 A 
ATOM     19  C   UNL     1      -7.229  -0.558  -0.026  1.00  0.00     0.133 A 
ATOM     20  C   UNL     1      -8.063   0.066  -0.953  1.00  0.00     0.047 A 
BRANCH  19  21
ATOM     21  O   UNL     1      -7.874  -1.154   1.084  1.00  0.00    -0.410 OA
BRANCH  21  22
ATOM     22  C   UNL     1      -7.276  -1.977   2.036  1.00  0.00     0.412 C 
ATOM     23  O   UNL     1      -6.082  -2.249   2.120  1.00  0.00    -0.224 OA
ATOM     24  N   UNL     1      -8.154  -2.521   2.935  1.00  0.00    -0.318 N 
ATOM     25  H   UNL     1      -7.755  -3.142   3.587  1.00  0.00     0.167 HD
BRANCH  24  26
ATOM     26  C   UNL     1      -9.557  -2.324   3.071  1.00  0.00     0.085 C 
ATOM     27  C   UNL     1     -10.525  -1.955   1.984  1.00  0.00     0.027 C 
ATOM     28  C   UNL     1     -10.484  -3.363   2.492  1.00  0.00     0.027 C 
ENDBRANCH  24  26
ENDBRANCH  21  22
ENDBRANCH  19  21
ENDBRANCH  13  15
ENDBRANCH   6   8
ENDBRANCH   3   6
ENDBRANCH   1   2
BRANCH   1  29
ATOM     29  C   UNL     1       4.395  -0.969  -0.825  1.00  0.00     0.042 C 
BRANCH  29  30
ATOM     30  C   UNL     1       5.105  -2.266  -1.201  1.00  0.00     0.118 C 
BRANCH  30  31
ATOM     31  N   UNL     1       6.020  -2.094  -2.317  1.00  0.00    -0.352 N 
ATOM     32  C   UNL     1       7.375  -2.289  -2.393  1.00  0.00     0.251 C 
ATOM     33  H   UNL     1       5.598  -1.790  -3.153  1.00  0.00     0.163 HD
ATOM     34  O   UNL     1       7.979  -1.856  -3.371  1.00  0.00    -0.269 OA
BRANCH  32  35
ATOM     35  C   UNL     1       8.107  -2.987  -1.312  1.00  0.00     0.039 A 
ATOM     36  C   UNL     1       9.387  -2.539  -0.980  1.00  0.00     0.014 A 
ATOM     37  C   UNL     1       7.569  -4.099  -0.656  1.00  0.00     0.014 A 
ATOM     38  C   UNL     1      10.102  -3.172   0.038  1.00  0.00     0.010 A 
ATOM     39  C   UNL     1       8.246  -4.672   0.420  1.00  0.00     0.010 A 
ATOM     40  C   UNL     1       9.525  -4.222   0.773  1.00  0.00    -0.014 A 
BRANCH  40  41
ATOM     41  C   UNL     1      10.262  -4.837   1.910  1.00  0.00     0.031 A 
ATOM     42  C   UNL     1      10.665  -6.287   1.872  1.00  0.00     0.074 A 
ATOM     43  C   UNL     1      10.560  -4.081   2.986  1.00  0.00     0.049 A 
ATOM     44  N   UNL     1      11.337  -6.980   2.756  1.00  0.00    -0.248 NA
ATOM     45  C   UNL     1      10.236  -7.066   0.701  1.00  0.00     0.031 C 
ATOM     46  C   UNL     1      10.176  -2.677   3.159  1.00  0.00     0.029 A 
ATOM     47  N   UNL     1      11.259  -4.375   4.129  1.00  0.00    -0.354 N 
ATOM     48  C   UNL     1      11.415  -8.273   2.248  1.00  0.00     0.074 A 
ATOM     49  C   UNL     1      10.656  -8.282   1.015  1.00  0.00     0.031 C 
ATOM     50  C   UNL     1      10.686  -2.221   4.313  1.00  0.00     0.029 A 
ATOM     51  C   UNL     1      11.388  -3.307   4.988  1.00  0.00     0.049 A 
ATOM     52  H   UNL     1      11.633  -5.266   4.317  1.00  0.00     0.167 HD
ATOM     53  C   UNL     1      12.080  -9.345   2.748  1.00  0.00     0.034 A 
ATOM     54  C   UNL     1      11.999  -3.213   6.185  1.00  0.00     0.034 A 
ATOM     55  C   UNL     1      12.829  -9.319   3.982  1.00  0.00     0.049 A 
ATOM     56  C   UNL     1      12.706  -4.426   6.734  1.00  0.00     0.074 A 
ATOM     57  C   UNL     1      13.574 -10.332   4.560  1.00  0.00     0.029 A 
ATOM     58  N   UNL     1      12.919  -8.227   4.838  1.00  0.00    -0.354 N 
ATOM     59  N   UNL     1      12.822  -5.624   6.209  1.00  0.00    -0.248 NA
ATOM     60  C   UNL     1      13.379  -4.266   8.028  1.00  0.00     0.031 C 
ATOM     61  C   UNL     1      14.044  -9.882   5.799  1.00  0.00     0.029 A 
ATOM     62  C   UNL     1      13.675  -8.555   5.955  1.00  0.00     0.049 A 
ATOM     63  H   UNL     1      12.506  -7.348   4.676  1.00  0.00     0.167 HD
ATOM     64  C   UNL     1      13.606  -6.353   7.099  1.00  0.00     0.074 A 
ATOM     65  C   UNL     1      13.957  -5.449   8.175  1.00  0.00     0.031 C 
ATOM     66  C   UNL     1      14.000  -7.652   7.035  1.00  0.00     0.034 A 
BRANCH  53  67
ATOM     67  C   UNL     1      12.005 -10.638   1.968  1.00  0.00     0.023 A 
ATOM     68  C   UNL     1      12.499 -10.740   0.654  1.00  0.00     0.031 A 
ATOM     69  C   UNL     1      11.415 -11.783   2.534  1.00  0.00     0.131 A 
ATOM     70  C   UNL     1      12.327 -11.928  -0.072  1.00  0.00     0.055 A 
ATOM     71  C   UNL     1      11.326 -12.989   1.837  1.00  0.00     0.041 A 
ATOM     72  F   UNL     1      10.904 -11.745   3.775  1.00  0.00    -0.206 F 
ATOM     73  C   UNL     1      11.770 -13.063   0.520  1.00  0.00     0.022 A 
BRANCH  70  74
ATOM     74  S   UNL     1      12.704 -11.921  -1.847  1.00  0.00     0.124 S 
ATOM     75  O   UNL     1      11.825 -10.858  -2.330  1.00  0.00    -0.237 OA
ATOM     76  O   UNL     1      14.132 -11.626  -1.865  1.00  0.00    -0.237 OA
ATOM     77  O   UNL     1      12.338 -13.268  -2.280  1.00  0.00    -0.744 OA
ENDBRANCH  70  74
ENDBRANCH  53  67
BRANCH  54  78
ATOM     78  C   UNL     1      11.967  -1.933   6.953  1.00  0.00     0.023 A 
ATOM     79  C   UNL     1      13.147  -1.235   7.255  1.00  0.00     0.031 A 
ATOM     80  C   UNL     1      10.752  -1.412   7.436  1.00  0.00     0.131 A 
ATOM     81  C   UNL     1      13.094  -0.087   8.062  1.00  0.00     0.055 A 
ATOM     82  C   UNL     1      10.699  -0.235   8.184  1.00  0.00     0.041 A 
ATOM     83  F   UNL     1       9.593  -2.037   7.175  1.00  0.00    -0.206 F 
ATOM     84  C   UNL     1      11.877   0.426   8.514  1.00  0.00     0.022 A 
BRANCH  81  85
ATOM     85  S   UNL     1      14.652   0.671   8.598  1.00  0.00     0.124 S 
ATOM     86  O   UNL     1      15.306  -0.441   9.278  1.00  0.00    -0.237 OA
ATOM     87  O   UNL     1      15.241   1.083   7.327  1.00  0.00    -0.237 OA
ATOM     88  O   UNL     1      14.217   1.765   9.463  1.00  0.00    -0.744 OA
ENDBRANCH  81  85
ENDBRANCH  54  78
BRANCH  66  89
ATOM     89  C   UNL     1      14.888  -8.151   8.152  1.00  0.00     0.023 A 
ATOM     90  C   UNL     1      14.443  -8.199   9.486  1.00  0.00     0.031 A 
ATOM     91  C   UNL     1      16.212  -8.545   7.886  1.00  0.00     0.131 A 
ATOM     92  C   UNL     1      15.337  -8.547  10.509  1.00  0.00     0.055 A 
ATOM     93  C   UNL     1      17.072  -8.969   8.900  1.00  0.00     0.041 A 
ATOM     94  F   UNL     1      16.696  -8.518   6.634  1.00  0.00    -0.206 F 
ATOM     95  C   UNL     1      16.642  -8.953  10.223  1.00  0.00     0.022 A 
BRANCH  92  96
ATOM     96  S   UNL     1      14.810  -8.328  12.232  1.00  0.00     0.124 S 
ATOM     97  O   UNL     1      14.442  -6.917  12.258  1.00  0.00    -0.237 OA
ATOM     98  O   UNL     1      13.707  -9.277  12.344  1.00  0.00    -0.237 OA
ATOM     99  O   UNL     1      16.004  -8.672  13.002  1.00  0.00    -0.744 OA
ENDBRANCH  92  96
ENDBRANCH  66  89
ENDBRANCH  40  41
ENDBRANCH  32  35
ENDBRANCH  30  31
ENDBRANCH  29  30
ENDBRANCH   1  29
TORSDOF 18
