REMARK SMILES COc1ccc2[nH]c(/C(C#N)=C/c3ccc(-c4cc(C(=O)NCCCNC(=O)c5ccc(-c6c7nc(c(-c8cc(S(=O)(=O)[O-])ccc8F)c8ccc([nH]8)c(-c8cc(S(=O)(=O)[O-])ccc8F)c8nc(c(-c9cc(S(=O)(=O)[O-])ccc9F)c9ccc6[nH]9)C=C8)C=C7)cc5)ccc4Cl)o3)nc2c1
REMARK SMILES IDX 23 1 22 2 20 3 21 4 19 6 17 7 18 8 94 9 93 10 95 11 92 12
REMARK SMILES IDX 16 13 13 14 14 15 96 16 15 17 12 18 9 19 8 20 3 21 4 22
REMARK SMILES IDX 99 23 5 24 98 25 6 26 97 27 7 28 2 30 1 31 10 32 11 33 24 34
REMARK SMILES IDX 25 35 26 36 27 37 28 39 29 40 30 41 91 42 31 43 90 44 32 45
REMARK SMILES IDX 33 46 34 47 84 48 35 49 89 50 83 51 85 52 36 53 88 54 82 55
REMARK SMILES IDX 81 56 37 58 69 59 49 60 68 61 50 62 53 63 67 64 86 65 51 66
REMARK SMILES IDX 52 67 66 69 87 70 54 71 38 72 39 73 47 74 40 75 46 76 48 77
REMARK SMILES IDX 45 78 41 79 42 80 43 81 44 82 70 83 71 84 79 85 72 86 78 87
REMARK SMILES IDX 80 88 77 89 73 90 74 91 75 92 76 93 55 94 56 95 64 96 57 97
REMARK SMILES IDX 63 98 65 99 62 100 58 101 59 102 60 103 61 104
REMARK H PARENT 22 5 7 29 26 38 85 57 53 68
REMARK Flexibility Score: inf
ROOT
ATOM      1  C   UNL     1       2.264  10.766  15.486  1.00  0.00     0.118 C 
ENDROOT
BRANCH   1   2
ATOM      2  N   UNL     1       2.182  10.700  14.038  1.00  0.00    -0.352 N 
ATOM      3  C   UNL     1       2.010   9.679  13.140  1.00  0.00     0.251 C 
ATOM      4  O   UNL     1       1.940   9.997  11.951  1.00  0.00    -0.269 OA
ATOM      5  H   UNL     1       2.267  11.581  13.607  1.00  0.00     0.163 HD
BRANCH   3   6
ATOM      6  C   UNL     1       1.863   8.237  13.505  1.00  0.00     0.040 A 
ATOM      7  C   UNL     1       1.095   6.016  12.766  1.00  0.00     0.037 A 
ATOM      8  C   UNL     1       1.326   7.381  12.517  1.00  0.00     0.027 A 
ATOM      9  C   UNL     1       1.414   5.504  14.033  1.00  0.00     0.052 A 
ATOM     10  C   UNL     1       1.979   6.330  15.004  1.00  0.00     0.022 A 
ATOM     11  Cl  UNL     1       1.163   3.845  14.464  1.00  0.00    -0.084 Cl
ATOM     12  C   UNL     1       2.226   7.678  14.731  1.00  0.00     0.015 A 
BRANCH   7  13
ATOM     13  C   UNL     1       0.464   5.190  11.748  1.00  0.00     0.136 A 
ATOM     14  C   UNL     1       0.381   4.181   9.763  1.00  0.00     0.129 A 
ATOM     15  C   UNL     1      -0.722   3.775  10.509  1.00  0.00     0.051 A 
ATOM     16  O   UNL     1       1.118   5.040  10.558  1.00  0.00    -0.457 OA
ATOM     17  C   UNL     1      -0.693   4.450  11.744  1.00  0.00     0.051 A 
BRANCH  14  18
ATOM     18  C   UNL     1       0.782   3.786   8.446  1.00  0.00     0.070 C 
ATOM     19  C   UNL     1      -0.087   3.652   7.420  1.00  0.00     0.098 C 
BRANCH  19  20
ATOM     20  C   UNL     1       0.283   3.147   6.133  1.00  0.00     0.149 A 
ATOM     21  C   UNL     1       0.853   1.534   1.943  1.00  0.00     0.121 A 
ATOM     22  C   UNL     1       2.161   1.338   2.399  1.00  0.00     0.049 A 
ATOM     23  C   UNL     1      -0.111   2.101   2.781  1.00  0.00     0.077 A 
ATOM     24  C   UNL     1       2.539   1.679   3.710  1.00  0.00     0.032 A 
ATOM     25  C   UNL     1       0.251   2.444   4.089  1.00  0.00     0.093 A 
ATOM     26  C   UNL     1       1.550   2.232   4.526  1.00  0.00     0.066 A 
ATOM     27  N   UNL     1      -0.506   2.996   5.083  1.00  0.00    -0.228 NA
ATOM     28  N   UNL     1       1.550   2.688   5.825  1.00  0.00    -0.337 N 
ATOM     29  H   UNL     1       2.323   2.688   6.434  1.00  0.00     0.168 HD
BRANCH  21  30
ATOM     30  O   UNL     1       0.433   1.277   0.665  1.00  0.00    -0.497 OA
ATOM     31  C   UNL     1       0.943   0.076   0.097  1.00  0.00     0.278 C 
ENDBRANCH  21  30
ENDBRANCH  19  20
BRANCH  19  32
ATOM     32  C   UNL     1      -1.471   4.024   7.562  1.00  0.00     0.103 C 
ATOM     33  N   UNL     1      -2.582   4.319   7.718  1.00  0.00    -0.192 NA
ENDBRANCH  19  32
ENDBRANCH  14  18
ENDBRANCH   7  13
ENDBRANCH   3   6
ENDBRANCH   1   2
BRANCH   1  34
ATOM     34  C   UNL     1       3.718  10.843  15.952  1.00  0.00     0.042 C 
BRANCH  34  35
ATOM     35  C   UNL     1       4.315  12.243  15.810  1.00  0.00     0.118 C 
BRANCH  35  36
ATOM     36  N   UNL     1       3.642  13.205  16.676  1.00  0.00    -0.352 N 
ATOM     37  C   UNL     1       4.121  13.934  17.735  1.00  0.00     0.251 C 
ATOM     38  H   UNL     1       2.692  13.356  16.467  1.00  0.00     0.163 HD
ATOM     39  O   UNL     1       3.323  14.457  18.508  1.00  0.00    -0.269 OA
BRANCH  37  40
ATOM     40  C   UNL     1       5.575  14.085  17.946  1.00  0.00     0.039 A 
ATOM     41  C   UNL     1       6.074  14.092  19.251  1.00  0.00     0.014 A 
ATOM     42  C   UNL     1       6.442  14.263  16.864  1.00  0.00     0.014 A 
ATOM     43  C   UNL     1       7.448  14.217  19.464  1.00  0.00     0.010 A 
ATOM     44  C   UNL     1       7.816  14.296  17.074  1.00  0.00     0.010 A 
ATOM     45  C   UNL     1       8.335  14.280  18.376  1.00  0.00    -0.014 A 
BRANCH  45  46
ATOM     46  C   UNL     1       9.805  14.333  18.585  1.00  0.00     0.031 A 
ATOM     47  C   UNL     1      10.595  15.521  18.107  1.00  0.00     0.074 A 
ATOM     48  C   UNL     1      10.430  13.286  19.160  1.00  0.00     0.049 A 
ATOM     49  N   UNL     1      11.887  15.722  18.142  1.00  0.00    -0.248 NA
ATOM     50  C   UNL     1       9.835  16.615  17.483  1.00  0.00     0.031 C 
ATOM     51  C   UNL     1       9.770  12.067  19.633  1.00  0.00     0.029 A 
ATOM     52  N   UNL     1      11.755  13.075  19.444  1.00  0.00    -0.354 N 
ATOM     53  C   UNL     1      12.095  16.958  17.540  1.00  0.00     0.074 A 
ATOM     54  C   UNL     1      10.803  17.426  17.087  1.00  0.00     0.031 C 
ATOM     55  C   UNL     1      10.686  11.255  20.182  1.00  0.00     0.029 A 
ATOM     56  C   UNL     1      12.006  11.863  20.045  1.00  0.00     0.049 A 
ATOM     57  H   UNL     1      12.461  13.729  19.237  1.00  0.00     0.167 HD
ATOM     58  C   UNL     1      13.254  17.649  17.402  1.00  0.00     0.034 A 
ATOM     59  C   UNL     1      13.168  11.296  20.427  1.00  0.00     0.034 A 
ATOM     60  C   UNL     1      14.532  17.163  17.861  1.00  0.00     0.049 A 
ATOM     61  C   UNL     1      14.450  12.060  20.210  1.00  0.00     0.074 A 
ATOM     62  C   UNL     1      15.761  17.797  17.811  1.00  0.00     0.029 A 
ATOM     63  N   UNL     1      14.751  15.920  18.442  1.00  0.00    -0.354 N 
ATOM     64  N   UNL     1      14.624  13.250  19.681  1.00  0.00    -0.248 NA
ATOM     65  C   UNL     1      15.690  11.410  20.650  1.00  0.00     0.031 C 
ATOM     66  C   UNL     1      16.733  16.905  18.274  1.00  0.00     0.029 A 
ATOM     67  C   UNL     1      16.101  15.753  18.714  1.00  0.00     0.049 A 
ATOM     68  H   UNL     1      14.051  15.255  18.632  1.00  0.00     0.167 HD
ATOM     69  C   UNL     1      15.991  13.504  19.760  1.00  0.00     0.074 A 
ATOM     70  C   UNL     1      16.588  12.351  20.401  1.00  0.00     0.031 C 
ATOM     71  C   UNL     1      16.687  14.593  19.346  1.00  0.00     0.034 A 
BRANCH  58  72
ATOM     72  C   UNL     1      13.191  18.986  16.702  1.00  0.00     0.023 A 
ATOM     73  C   UNL     1      12.428  20.052  17.209  1.00  0.00     0.031 A 
ATOM     74  C   UNL     1      13.891  19.195  15.499  1.00  0.00     0.131 A 
ATOM     75  C   UNL     1      12.319  21.246  16.480  1.00  0.00     0.055 A 
ATOM     76  C   UNL     1      13.853  20.418  14.827  1.00  0.00     0.041 A 
ATOM     77  F   UNL     1      14.617  18.208  14.950  1.00  0.00    -0.206 F 
ATOM     78  C   UNL     1      13.051  21.448  15.308  1.00  0.00     0.022 A 
BRANCH  75  79
ATOM     79  S   UNL     1      11.084  22.468  17.002  1.00  0.00     0.124 S 
ATOM     80  O   UNL     1       9.853  21.682  16.952  1.00  0.00    -0.237 OA
ATOM     81  O   UNL     1      11.551  22.840  18.332  1.00  0.00    -0.237 OA
ATOM     82  O   UNL     1      11.187  23.514  15.987  1.00  0.00    -0.744 OA
ENDBRANCH  75  79
ENDBRANCH  58  72
BRANCH  59  83
ATOM     83  C   UNL     1      13.183   9.934  21.037  1.00  0.00     0.023 A 
ATOM     84  C   UNL     1      13.659   9.730  22.341  1.00  0.00     0.031 A 
ATOM     85  C   UNL     1      12.771   8.806  20.304  1.00  0.00     0.131 A 
ATOM     86  C   UNL     1      13.764   8.427  22.852  1.00  0.00     0.055 A 
ATOM     87  C   UNL     1      12.813   7.519  20.841  1.00  0.00     0.041 A 
ATOM     88  F   UNL     1      12.308   8.941  19.050  1.00  0.00    -0.206 F 
ATOM     89  C   UNL     1      13.328   7.322  22.118  1.00  0.00     0.022 A 
BRANCH  86  90
ATOM     90  S   UNL     1      14.590   8.186  24.449  1.00  0.00     0.124 S 
ATOM     91  O   UNL     1      15.897   8.783  24.198  1.00  0.00    -0.237 OA
ATOM     92  O   UNL     1      13.713   8.917  25.357  1.00  0.00    -0.237 OA
ATOM     93  O   UNL     1      14.587   6.734  24.616  1.00  0.00    -0.744 OA
ENDBRANCH  86  90
ENDBRANCH  59  83
BRANCH  71  94
ATOM     94  C   UNL     1      18.172  14.611  19.625  1.00  0.00     0.023 A 
ATOM     95  C   UNL     1      19.051  13.684  19.038  1.00  0.00     0.031 A 
ATOM     96  C   UNL     1      18.713  15.569  20.502  1.00  0.00     0.131 A 
ATOM     97  C   UNL     1      20.411  13.695  19.385  1.00  0.00     0.055 A 
ATOM     98  C   UNL     1      20.079  15.624  20.781  1.00  0.00     0.041 A 
ATOM     99  F   UNL     1      17.922  16.475  21.098  1.00  0.00    -0.206 F 
ATOM    100  C   UNL     1      20.934  14.673  20.233  1.00  0.00     0.022 A 
BRANCH  97 101
ATOM    101  S   UNL     1      21.466  12.339  18.803  1.00  0.00     0.124 S 
ATOM    102  O   UNL     1      20.779  11.169  19.341  1.00  0.00    -0.237 OA
ATOM    103  O   UNL     1      21.411  12.500  17.354  1.00  0.00    -0.237 OA
ATOM    104  O   UNL     1      22.764  12.630  19.410  1.00  0.00    -0.744 OA
ENDBRANCH  97 101
ENDBRANCH  71  94
ENDBRANCH  45  46
ENDBRANCH  37  40
ENDBRANCH  35  36
ENDBRANCH  34  35
ENDBRANCH   1  34
TORSDOF 18
