REMARK SMILES O=C(CCNC(=O)CCc1nc2ccccc2[nH]1)NCCCNC(=O)c1ccc(-c2c3nc(c(-c4cc(S(=O)(=O)[O-])ccc4F)c4ccc([nH]4)c(-c4cc(S(=O)(=O)[O-])ccc4F)c4nc(c(-c5cc(S(=O)(=O)[O-])ccc5F)c5ccc2[nH]5)C=C4)C=C3)cc1
REMARK SMILES IDX 20 1 19 2 1 3 2 4 3 6 4 7 5 8 6 9 7 11 8 12 9 13 10 14 11 15
REMARK SMILES IDX 18 16 12 17 17 18 13 20 16 21 14 22 15 23 21 24 22 25 23 26
REMARK SMILES IDX 24 27 25 29 26 30 27 31 88 32 28 33 87 34 29 35 30 36 31 37
REMARK SMILES IDX 81 38 32 39 86 40 80 41 82 42 33 43 85 44 79 45 78 46 34 48
REMARK SMILES IDX 66 49 46 50 65 51 47 52 50 53 64 54 83 55 48 56 49 57 63 59
REMARK SMILES IDX 84 60 51 61 35 62 36 63 44 64 37 65 43 66 45 67 42 68 38 69
REMARK SMILES IDX 39 70 40 71 41 72 67 73 68 74 76 75 69 76 75 77 77 78 74 79
REMARK SMILES IDX 70 80 71 81 72 82 73 83 52 84 53 85 61 86 54 87 60 88 62 89
REMARK SMILES IDX 59 90 55 91 56 92 57 93 58 94
REMARK H PARENT 19 5 5 10 18 19 23 28 82 47 50 58
REMARK Flexibility Score: inf
ROOT
ATOM      1  C   UNL     1       2.022  -2.898   0.499  1.00  0.00     0.117 C 
ENDROOT
BRANCH   1   2
ATOM      2  N   UNL     1       2.605  -1.581   0.623  1.00  0.00    -0.356 N 
ATOM      3  O   UNL     1       1.042  -0.739   2.089  1.00  0.00    -0.275 OA
ATOM      4  C   UNL     1       2.035  -0.590   1.387  1.00  0.00     0.221 C 
ATOM      5  H   UNL     1       3.442  -1.386   0.143  1.00  0.00     0.163 HD
BRANCH   4   6
ATOM      6  C   UNL     1       2.748   0.730   1.260  1.00  0.00     0.121 C 
BRANCH   6   7
ATOM      7  C   UNL     1       3.887   0.900   2.248  1.00  0.00     0.125 C 
BRANCH   7   8
ATOM      8  N   UNL     1       5.115   0.276   1.773  1.00  0.00    -0.356 N 
ATOM      9  C   UNL     1       6.188   0.805   1.121  1.00  0.00     0.220 C 
ATOM     10  H   UNL     1       5.181  -0.690   1.953  1.00  0.00     0.163 HD
ATOM     11  O   UNL     1       7.033   0.028   0.673  1.00  0.00    -0.275 OA
BRANCH   9  12
ATOM     12  C   UNL     1       6.382   2.304   1.008  1.00  0.00     0.108 C 
BRANCH  12  13
ATOM     13  C   UNL     1       6.213   2.826  -0.419  1.00  0.00     0.085 C 
BRANCH  13  14
ATOM     14  C   UNL     1       4.782   3.085  -0.750  1.00  0.00     0.107 A 
ATOM     15  N   UNL     1       3.995   2.319  -1.475  1.00  0.00    -0.233 NA
ATOM     16  N   UNL     1       4.086   4.164  -0.257  1.00  0.00    -0.342 N 
ATOM     17  C   UNL     1       2.726   2.810  -1.286  1.00  0.00     0.089 A 
ATOM     18  C   UNL     1       2.751   3.948  -0.489  1.00  0.00     0.065 A 
ATOM     19  H   UNL     1       4.477   4.953   0.184  1.00  0.00     0.168 HD
ATOM     20  C   UNL     1       1.493   2.260  -1.667  1.00  0.00     0.030 A 
ATOM     21  C   UNL     1       1.598   4.597  -0.046  1.00  0.00     0.028 A 
ATOM     22  C   UNL     1       0.321   2.857  -1.188  1.00  0.00     0.002 A 
ATOM     23  C   UNL     1       0.376   4.007  -0.396  1.00  0.00     0.002 A 
ENDBRANCH  13  14
ENDBRANCH  12  13
ENDBRANCH   9  12
ENDBRANCH   7   8
ENDBRANCH   6   7
ENDBRANCH   4   6
ENDBRANCH   1   2
BRANCH   1  24
ATOM     24  C   UNL     1       2.457  -3.604  -0.780  1.00  0.00     0.042 C 
BRANCH  24  25
ATOM     25  C   UNL     1       3.966  -3.789  -0.922  1.00  0.00     0.118 C 
BRANCH  25  26
ATOM     26  N   UNL     1       4.559  -4.498   0.201  1.00  0.00    -0.352 N 
ATOM     27  C   UNL     1       5.175  -5.727   0.248  1.00  0.00     0.251 C 
ATOM     28  H   UNL     1       4.513  -4.024   1.062  1.00  0.00     0.163 HD
ATOM     29  O   UNL     1       5.444  -6.228   1.331  1.00  0.00    -0.269 OA
BRANCH  27  30
ATOM     30  C   UNL     1       5.469  -6.451  -1.008  1.00  0.00     0.039 A 
ATOM     31  C   UNL     1       5.139  -7.805  -1.097  1.00  0.00     0.014 A 
ATOM     32  C   UNL     1       6.052  -5.796  -2.095  1.00  0.00     0.014 A 
ATOM     33  C   UNL     1       5.309  -8.478  -2.309  1.00  0.00     0.010 A 
ATOM     34  C   UNL     1       6.146  -6.446  -3.323  1.00  0.00     0.010 A 
ATOM     35  C   UNL     1       5.764  -7.791  -3.446  1.00  0.00    -0.014 A 
BRANCH  35  36
ATOM     36  C   UNL     1       5.823  -8.451  -4.777  1.00  0.00     0.031 A 
ATOM     37  C   UNL     1       7.139  -8.612  -5.486  1.00  0.00     0.074 A 
ATOM     38  C   UNL     1       4.679  -8.838  -5.378  1.00  0.00     0.049 A 
ATOM     39  N   UNL     1       7.382  -9.067  -6.688  1.00  0.00    -0.248 NA
ATOM     40  C   UNL     1       8.338  -8.178  -4.753  1.00  0.00     0.031 C 
ATOM     41  C   UNL     1       3.337  -8.706  -4.804  1.00  0.00     0.029 A 
ATOM     42  N   UNL     1       4.456  -9.409  -6.607  1.00  0.00    -0.354 N 
ATOM     43  C   UNL     1       8.758  -8.964  -6.862  1.00  0.00     0.074 A 
ATOM     44  C   UNL     1       9.286  -8.348  -5.663  1.00  0.00     0.031 C 
ATOM     45  C   UNL     1       2.438  -9.202  -5.668  1.00  0.00     0.029 A 
ATOM     46  C   UNL     1       3.126  -9.634  -6.880  1.00  0.00     0.049 A 
ATOM     47  H   UNL     1       5.180  -9.637  -7.234  1.00  0.00     0.167 HD
ATOM     48  C   UNL     1       9.512  -9.365  -7.917  1.00  0.00     0.034 A 
ATOM     49  C   UNL     1       2.524 -10.110  -7.989  1.00  0.00     0.034 A 
ATOM     50  C   UNL     1       8.967  -9.980  -9.104  1.00  0.00     0.049 A 
ATOM     51  C   UNL     1       3.379 -10.497  -9.170  1.00  0.00     0.074 A 
ATOM     52  C   UNL     1       9.645 -10.472 -10.206  1.00  0.00     0.029 A 
ATOM     53  N   UNL     1       7.614 -10.174  -9.353  1.00  0.00    -0.354 N 
ATOM     54  N   UNL     1       4.685 -10.441  -9.299  1.00  0.00    -0.248 NA
ATOM     55  C   UNL     1       2.680 -11.016 -10.353  1.00  0.00     0.031 C 
ATOM     56  C   UNL     1       8.702 -10.889 -11.151  1.00  0.00     0.029 A 
ATOM     57  C   UNL     1       7.436 -10.739 -10.607  1.00  0.00     0.049 A 
ATOM     58  H   UNL     1       6.887  -9.944  -8.730  1.00  0.00     0.167 HD
ATOM     59  C   UNL     1       4.963 -10.944 -10.567  1.00  0.00     0.074 A 
ATOM     60  C   UNL     1       3.692 -11.315 -11.154  1.00  0.00     0.031 C 
ATOM     61  C   UNL     1       6.161 -11.090 -11.188  1.00  0.00     0.034 A 
BRANCH  48  62
ATOM     62  C   UNL     1      11.001  -9.120  -7.841  1.00  0.00     0.023 A 
ATOM     63  C   UNL     1      11.800  -9.720  -6.852  1.00  0.00     0.031 A 
ATOM     64  C   UNL     1      11.629  -8.260  -8.759  1.00  0.00     0.131 A 
ATOM     65  C   UNL     1      13.161  -9.395  -6.757  1.00  0.00     0.055 A 
ATOM     66  C   UNL     1      13.001  -8.006  -8.712  1.00  0.00     0.041 A 
ATOM     67  F   UNL     1      10.917  -7.641  -9.714  1.00  0.00    -0.206 F 
ATOM     68  C   UNL     1      13.773  -8.562  -7.696  1.00  0.00     0.022 A 
BRANCH  65  69
ATOM     69  S   UNL     1      14.086  -9.957  -5.302  1.00  0.00     0.124 S 
ATOM     70  O   UNL     1      13.313  -9.364  -4.213  1.00  0.00    -0.237 OA
ATOM     71  O   UNL     1      14.011 -11.408  -5.422  1.00  0.00    -0.237 OA
ATOM     72  O   UNL     1      15.415  -9.382  -5.497  1.00  0.00    -0.744 OA
ENDBRANCH  65  69
ENDBRANCH  48  62
BRANCH  49  73
ATOM     73  C   UNL     1       1.038 -10.224  -8.056  1.00  0.00     0.023 A 
ATOM     74  C   UNL     1       0.415 -11.473  -8.211  1.00  0.00     0.031 A 
ATOM     75  C   UNL     1       0.219  -9.081  -8.016  1.00  0.00     0.131 A 
ATOM     76  C   UNL     1      -0.978 -11.546  -8.370  1.00  0.00     0.055 A 
ATOM     77  C   UNL     1      -1.171  -9.164  -8.114  1.00  0.00     0.041 A 
ATOM     78  F   UNL     1       0.761  -7.861  -7.870  1.00  0.00    -0.206 F 
ATOM     79  C   UNL     1      -1.776 -10.402  -8.307  1.00  0.00     0.022 A 
BRANCH  76  80
ATOM     80  S   UNL     1      -1.724 -13.153  -8.759  1.00  0.00     0.124 S 
ATOM     81  O   UNL     1      -1.026 -13.513  -9.988  1.00  0.00    -0.237 OA
ATOM     82  O   UNL     1      -1.389 -13.937  -7.576  1.00  0.00    -0.237 OA
ATOM     83  O   UNL     1      -3.143 -12.839  -8.915  1.00  0.00    -0.744 OA
ENDBRANCH  76  80
ENDBRANCH  49  73
BRANCH  61  84
ATOM     84  C   UNL     1       6.151 -11.714 -12.563  1.00  0.00     0.023 A 
ATOM     85  C   UNL     1       5.563 -11.070 -13.666  1.00  0.00     0.031 A 
ATOM     86  C   UNL     1       6.738 -12.976 -12.772  1.00  0.00     0.131 A 
ATOM     87  C   UNL     1       5.528 -11.711 -14.914  1.00  0.00     0.055 A 
ATOM     88  C   UNL     1       6.758 -13.580 -14.029  1.00  0.00     0.041 A 
ATOM     89  F   UNL     1       7.310 -13.640 -11.755  1.00  0.00    -0.206 F 
ATOM     90  C   UNL     1       6.139 -12.953 -15.107  1.00  0.00     0.022 A 
BRANCH  87  91
ATOM     91  S   UNL     1       4.593 -10.941 -16.264  1.00  0.00     0.124 S 
ATOM     92  O   UNL     1       3.250 -10.865 -15.698  1.00  0.00    -0.237 OA
ATOM     93  O   UNL     1       5.285  -9.668 -16.437  1.00  0.00    -0.237 OA
ATOM     94  O   UNL     1       4.747 -11.884 -17.370  1.00  0.00    -0.744 OA
ENDBRANCH  87  91
ENDBRANCH  61  84
ENDBRANCH  35  36
ENDBRANCH  27  30
ENDBRANCH  25  26
ENDBRANCH  24  25
ENDBRANCH   1  24
TORSDOF 18
