REMARK SMILES CCc1ccsc1CNC(=O)N1[C@H]2CC[C@@H]1[C@H](C(=O)NCCCNC(=O)c1ccc(-c3c4nc(c(-c5cc(S(=O)(=O)[O-])ccc5F)c5ccc([nH]5)c(-c5cc(S(=O)(=O)[O-])ccc5F)c5nc(c(-c6cc(S(=O)(=O)[O-])ccc6F)c6ccc3[nH]6)C=C5)C=C4)cc1)C2
REMARK SMILES IDX 21 1 20 2 18 3 19 4 17 6 12 7 13 8 16 9 14 10 90 11 15 12
REMARK SMILES IDX 10 13 9 14 11 16 8 17 7 18 3 19 4 20 5 21 6 22 2 23 1 24
REMARK SMILES IDX 22 25 23 26 24 27 25 28 26 30 27 31 28 32 89 33 29 34 88 35
REMARK SMILES IDX 30 36 31 37 32 38 82 39 33 40 87 41 81 42 83 43 34 44 86 45
REMARK SMILES IDX 80 46 79 47 35 49 67 50 47 51 66 52 48 53 51 54 65 55 84 56
REMARK SMILES IDX 49 57 50 58 64 60 85 61 52 62 36 63 37 64 45 65 38 66 44 67
REMARK SMILES IDX 46 68 43 69 39 70 40 71 41 72 42 73 68 74 69 75 77 76 70 77
REMARK SMILES IDX 76 78 78 79 75 80 71 81 72 82 73 83 74 84 53 85 54 86 62 87
REMARK SMILES IDX 55 88 61 89 63 90 60 91 56 92 57 93 58 94 59 95
REMARK H PARENT 20 5 9 15 24 29 83 48 51 59
REMARK Flexibility Score: inf
ROOT
ATOM      1  C   UNL     1       2.353   8.421  -1.323  1.00  0.00     0.117 C 
ENDROOT
BRANCH   1   2
ATOM      2  N   UNL     1       2.642   8.402   0.097  1.00  0.00    -0.356 N 
ATOM      3  C   UNL     1       2.255   7.601   1.113  1.00  0.00     0.225 C 
ATOM      4  O   UNL     1       2.608   7.969   2.242  1.00  0.00    -0.275 OA
ATOM      5  H   UNL     1       3.247   9.126   0.380  1.00  0.00     0.163 HD
BRANCH   3   6
ATOM      6  C   UNL     1       1.441   6.328   0.982  1.00  0.00     0.103 C 
ATOM      7  N   UNL     1      -0.439   5.078   0.794  1.00  0.00    -0.318 N 
ATOM      8  C   UNL     1       0.161   4.970  -0.523  1.00  0.00     0.088 C 
ATOM      9  C   UNL     1      -0.090   6.451   1.109  1.00  0.00     0.099 C 
ATOM     10  C   UNL     1      -0.527   6.147  -1.236  1.00  0.00     0.027 C 
ATOM     11  C   UNL     1       1.621   5.332  -0.189  1.00  0.00     0.040 C 
ATOM     12  C   UNL     1      -0.744   7.151  -0.085  1.00  0.00     0.028 C 
BRANCH   7  13
ATOM     13  C   UNL     1      -1.466   4.403   1.355  1.00  0.00     0.318 C 
ATOM     14  N   UNL     1      -1.475   3.053   1.276  1.00  0.00    -0.333 N 
ATOM     15  H   UNL     1      -2.338   2.620   1.468  1.00  0.00     0.165 HD
ATOM     16  O   UNL     1      -2.356   4.958   1.995  1.00  0.00    -0.249 OA
BRANCH  14  17
ATOM     17  C   UNL     1      -0.391   2.163   0.948  1.00  0.00     0.165 C 
BRANCH  17  18
ATOM     18  C   UNL     1       0.352   1.679   2.164  1.00  0.00     0.027 A 
ATOM     19  C   UNL     1       0.827   0.393   2.401  1.00  0.00    -0.033 A 
ATOM     20  C   UNL     1       1.567   0.332   3.629  1.00  0.00     0.016 A 
ATOM     21  C   UNL     1       1.650   1.549   4.262  1.00  0.00     0.065 A 
ATOM     22  S   UNL     1       0.852   2.773   3.390  1.00  0.00    -0.147 S 
BRANCH  19  23
ATOM     23  C   UNL     1       0.614  -0.787   1.493  1.00  0.00     0.033 C 
ATOM     24  C   UNL     1       1.406  -0.687   0.196  1.00  0.00     0.009 C 
ENDBRANCH  19  23
ENDBRANCH  17  18
ENDBRANCH  14  17
ENDBRANCH   7  13
ENDBRANCH   3   6
ENDBRANCH   1   2
BRANCH   1  25
ATOM     25  C   UNL     1       1.417   9.563  -1.686  1.00  0.00     0.042 C 
BRANCH  25  26
ATOM     26  C   UNL     1       2.129  10.892  -1.852  1.00  0.00     0.118 C 
BRANCH  26  27
ATOM     27  N   UNL     1       2.864  10.963  -3.103  1.00  0.00    -0.352 N 
ATOM     28  C   UNL     1       2.598  11.678  -4.248  1.00  0.00     0.251 C 
ATOM     29  H   UNL     1       3.680  10.412  -3.138  1.00  0.00     0.163 HD
ATOM     30  O   UNL     1       3.213  11.402  -5.274  1.00  0.00    -0.269 OA
BRANCH  28  31
ATOM     31  C   UNL     1       1.568  12.745  -4.256  1.00  0.00     0.039 A 
ATOM     32  C   UNL     1       0.792  12.931  -5.404  1.00  0.00     0.014 A 
ATOM     33  C   UNL     1       1.380  13.585  -3.156  1.00  0.00     0.014 A 
ATOM     34  C   UNL     1      -0.202  13.913  -5.422  1.00  0.00     0.010 A 
ATOM     35  C   UNL     1       0.313  14.477  -3.131  1.00  0.00     0.010 A 
ATOM     36  C   UNL     1      -0.474  14.673  -4.273  1.00  0.00    -0.014 A 
BRANCH  36  37
ATOM     37  C   UNL     1      -1.536  15.715  -4.258  1.00  0.00     0.031 A 
ATOM     38  C   UNL     1      -1.169  17.151  -3.978  1.00  0.00     0.074 A 
ATOM     39  C   UNL     1      -2.826  15.366  -4.432  1.00  0.00     0.049 A 
ATOM     40  N   UNL     1      -1.946  18.193  -3.828  1.00  0.00    -0.248 NA
ATOM     41  C   UNL     1       0.263  17.445  -3.803  1.00  0.00     0.031 C 
ATOM     42  C   UNL     1      -3.310  14.003  -4.660  1.00  0.00     0.029 A 
ATOM     43  N   UNL     1      -3.968  16.127  -4.436  1.00  0.00    -0.354 N 
ATOM     44  C   UNL     1      -1.101  19.254  -3.515  1.00  0.00     0.074 A 
ATOM     45  C   UNL     1       0.237  18.713  -3.427  1.00  0.00     0.031 C 
ATOM     46  C   UNL     1      -4.644  14.029  -4.812  1.00  0.00     0.029 A 
ATOM     47  C   UNL     1      -5.117  15.399  -4.645  1.00  0.00     0.049 A 
ATOM     48  H   UNL     1      -3.966  17.102  -4.302  1.00  0.00     0.167 HD
ATOM     49  C   UNL     1      -1.408  20.565  -3.348  1.00  0.00     0.034 A 
ATOM     50  C   UNL     1      -6.407  15.791  -4.686  1.00  0.00     0.034 A 
ATOM     51  C   UNL     1      -2.745  21.091  -3.472  1.00  0.00     0.049 A 
ATOM     52  C   UNL     1      -6.726  17.252  -4.498  1.00  0.00     0.074 A 
ATOM     53  C   UNL     1      -3.166  22.406  -3.389  1.00  0.00     0.029 A 
ATOM     54  N   UNL     1      -3.881  20.325  -3.703  1.00  0.00    -0.354 N 
ATOM     55  N   UNL     1      -5.909  18.253  -4.257  1.00  0.00    -0.248 NA
ATOM     56  C   UNL     1      -8.138  17.640  -4.601  1.00  0.00     0.031 C 
ATOM     57  C   UNL     1      -4.560  22.429  -3.504  1.00  0.00     0.029 A 
ATOM     58  C   UNL     1      -5.004  21.137  -3.737  1.00  0.00     0.049 A 
ATOM     59  H   UNL     1      -3.888  19.348  -3.824  1.00  0.00     0.167 HD
ATOM     60  C   UNL     1      -6.708  19.392  -4.211  1.00  0.00     0.074 A 
ATOM     61  C   UNL     1      -8.066  18.955  -4.464  1.00  0.00     0.031 C 
ATOM     62  C   UNL     1      -6.353  20.682  -3.984  1.00  0.00     0.034 A 
BRANCH  49  63
ATOM     63  C   UNL     1      -0.279  21.505  -2.994  1.00  0.00     0.023 A 
ATOM     64  C   UNL     1       0.816  21.705  -3.855  1.00  0.00     0.031 A 
ATOM     65  C   UNL     1      -0.276  22.184  -1.763  1.00  0.00     0.131 A 
ATOM     66  C   UNL     1       1.903  22.489  -3.439  1.00  0.00     0.055 A 
ATOM     67  C   UNL     1       0.769  23.035  -1.392  1.00  0.00     0.041 A 
ATOM     68  F   UNL     1      -1.281  22.020  -0.888  1.00  0.00    -0.206 F 
ATOM     69  C   UNL     1       1.875  23.177  -2.224  1.00  0.00     0.022 A 
BRANCH  66  70
ATOM     70  S   UNL     1       3.416  22.469  -4.439  1.00  0.00     0.124 S 
ATOM     71  O   UNL     1       3.760  21.049  -4.425  1.00  0.00    -0.237 OA
ATOM     72  O   UNL     1       2.958  23.003  -5.716  1.00  0.00    -0.237 OA
ATOM     73  O   UNL     1       4.331  23.331  -3.693  1.00  0.00    -0.744 OA
ENDBRANCH  66  70
ENDBRANCH  49  63
BRANCH  50  74
ATOM     74  C   UNL     1      -7.493  14.793  -4.909  1.00  0.00     0.023 A 
ATOM     75  C   UNL     1      -8.289  14.835  -6.064  1.00  0.00     0.031 A 
ATOM     76  C   UNL     1      -7.774  13.802  -3.951  1.00  0.00     0.131 A 
ATOM     77  C   UNL     1      -9.355  13.935  -6.214  1.00  0.00     0.055 A 
ATOM     78  C   UNL     1      -8.802  12.874  -4.129  1.00  0.00     0.041 A 
ATOM     79  F   UNL     1      -7.038  13.711  -2.832  1.00  0.00    -0.206 F 
ATOM     80  C   UNL     1      -9.609  12.946  -5.260  1.00  0.00     0.022 A 
BRANCH  77  81
ATOM     81  S   UNL     1     -10.461  14.126  -7.639  1.00  0.00     0.124 S 
ATOM     82  O   UNL     1     -10.937  15.493  -7.465  1.00  0.00    -0.237 OA
ATOM     83  O   UNL     1      -9.552  13.900  -8.758  1.00  0.00    -0.237 OA
ATOM     84  O   UNL     1     -11.464  13.083  -7.434  1.00  0.00    -0.744 OA
ENDBRANCH  77  81
ENDBRANCH  50  74
BRANCH  62  85
ATOM     85  C   UNL     1      -7.449  21.716  -4.049  1.00  0.00     0.023 A 
ATOM     86  C   UNL     1      -8.485  21.759  -3.100  1.00  0.00     0.031 A 
ATOM     87  C   UNL     1      -7.458  22.670  -5.083  1.00  0.00     0.131 A 
ATOM     88  C   UNL     1      -9.517  22.699  -3.236  1.00  0.00     0.055 A 
ATOM     89  C   UNL     1      -8.454  23.642  -5.178  1.00  0.00     0.041 A 
ATOM     90  F   UNL     1      -6.493  22.674  -6.017  1.00  0.00    -0.206 F 
ATOM     91  C   UNL     1      -9.499  23.652  -4.258  1.00  0.00     0.022 A 
BRANCH  88  92
ATOM     92  S   UNL     1     -10.936  22.603  -2.111  1.00  0.00     0.124 S 
ATOM     93  O   UNL     1     -11.430  21.253  -2.360  1.00  0.00    -0.237 OA
ATOM     94  O   UNL     1     -10.317  22.825  -0.808  1.00  0.00    -0.237 OA
ATOM     95  O   UNL     1     -11.812  23.679  -2.571  1.00  0.00    -0.744 OA
ENDBRANCH  88  92
ENDBRANCH  62  85
ENDBRANCH  36  37
ENDBRANCH  28  31
ENDBRANCH  26  27
ENDBRANCH  25  26
ENDBRANCH   1  25
TORSDOF 17
