REMARK SMILES CCc1ccc(C(=O)NCCCNC(=O)c2ccc(-c3c4nc(c(-c5cc(S(=O)(=O)[O-])ccc5F)c5ccc([nH]5)c(-c5cc(S(=O)(=O)[O-])ccc5F)c5nc(c(-c6cc(S(=O)(=O)[O-])ccc6F)c6ccc3[nH]6)C=C5)C=C4)cc2)cc1S(=O)(=O)Nc1ccc(F)c(F)c1F
REMARK SMILES IDX 11 1 10 2 9 3 7 4 8 5 6 7 3 8 4 9 80 10 5 11 79 12 2 13 1 14
REMARK SMILES IDX 81 15 82 16 83 17 84 18 85 20 86 21 92 22 87 23 90 24 93 25
REMARK SMILES IDX 88 26 91 27 89 28 12 29 13 30 14 31 15 33 16 34 17 35 78 36
REMARK SMILES IDX 18 37 77 38 19 39 20 40 21 41 71 42 22 43 76 44 70 45 72 46
REMARK SMILES IDX 23 47 75 48 69 49 68 50 24 52 56 53 36 54 55 55 37 56 40 57
REMARK SMILES IDX 54 58 73 59 38 60 39 61 53 63 74 64 41 65 25 66 26 67 34 68
REMARK SMILES IDX 27 69 33 70 35 71 32 72 28 73 29 74 30 75 31 76 57 77 58 78
REMARK SMILES IDX 66 79 59 80 65 81 67 82 64 83 60 84 61 85 62 86 63 87 42 88
REMARK SMILES IDX 43 89 51 90 44 91 50 92 52 93 49 94 45 95 46 96 47 97 48 98
REMARK H PARENT 9 6 84 19 13 32 72 51 40 62
REMARK Flexibility Score: inf
ROOT
ATOM      1  C   UNL     1       2.577  -4.278   5.519  1.00  0.00     0.042 C 
ENDROOT
BRANCH   1   2
ATOM      2  C   UNL     1       3.509  -4.754   4.407  1.00  0.00     0.118 C 
BRANCH   2   3
ATOM      3  N   UNL     1       2.924  -5.840   3.649  1.00  0.00    -0.352 N 
ATOM      4  C   UNL     1       2.290  -5.944   2.447  1.00  0.00     0.251 C 
ATOM      5  O   UNL     1       1.952  -7.086   2.120  1.00  0.00    -0.269 OA
ATOM      6  H   UNL     1       3.002  -6.706   4.110  1.00  0.00     0.163 HD
BRANCH   4   7
ATOM      7  C   UNL     1       1.948  -4.816   1.531  1.00  0.00     0.041 A 
ATOM      8  C   UNL     1       0.707  -2.921  -0.155  1.00  0.00    -0.028 A 
ATOM      9  C   UNL     1       0.792  -4.271  -0.529  1.00  0.00     0.006 A 
ATOM     10  C   UNL     1       1.523  -2.483   0.895  1.00  0.00     0.091 A 
ATOM     11  C   UNL     1       1.416  -5.199   0.295  1.00  0.00     0.014 A 
ATOM     12  C   UNL     1       2.046  -3.448   1.790  1.00  0.00     0.036 A 
BRANCH   8  13
ATOM     13  C   UNL     1      -0.471  -2.187  -0.738  1.00  0.00     0.033 C 
ATOM     14  C   UNL     1      -1.409  -1.663   0.344  1.00  0.00     0.009 C 
ENDBRANCH   8  13
BRANCH  10  15
ATOM     15  S   UNL     1       2.159  -0.823   1.176  1.00  0.00     0.262 S 
ATOM     16  O   UNL     1       1.997  -0.582   2.597  1.00  0.00    -0.201 OA
ATOM     17  O   UNL     1       3.478  -0.802   0.580  1.00  0.00    -0.201 OA
BRANCH  15  18
ATOM     18  N   UNL     1       1.231   0.353   0.458  1.00  0.00    -0.277 N 
ATOM     19  H   UNL     1       0.740   0.950   1.067  1.00  0.00     0.180 HD
BRANCH  18  20
ATOM     20  C   UNL     1       1.062   0.599  -0.931  1.00  0.00     0.088 A 
ATOM     21  C   UNL     1       2.004   0.267  -1.908  1.00  0.00     0.033 A 
ATOM     22  C   UNL     1      -0.172   1.139  -1.331  1.00  0.00     0.185 A 
ATOM     23  C   UNL     1       1.663   0.361  -3.263  1.00  0.00     0.045 A 
ATOM     24  C   UNL     1      -0.518   1.208  -2.672  1.00  0.00     0.196 A 
ATOM     25  F   UNL     1      -1.077   1.472  -0.395  1.00  0.00    -0.201 F 
ATOM     26  C   UNL     1       0.394   0.801  -3.634  1.00  0.00     0.162 A 
ATOM     27  F   UNL     1      -1.750   1.599  -3.030  1.00  0.00    -0.200 F 
ATOM     28  F   UNL     1       0.052   0.803  -4.929  1.00  0.00    -0.204 F 
ENDBRANCH  18  20
ENDBRANCH  15  18
ENDBRANCH  10  15
ENDBRANCH   4   7
ENDBRANCH   2   3
ENDBRANCH   1   2
BRANCH   1  29
ATOM     29  C   UNL     1       2.419  -5.301   6.648  1.00  0.00     0.118 C 
BRANCH  29  30
ATOM     30  N   UNL     1       3.691  -5.573   7.305  1.00  0.00    -0.352 N 
ATOM     31  C   UNL     1       4.064  -5.382   8.610  1.00  0.00     0.251 C 
ATOM     32  H   UNL     1       4.388  -5.952   6.723  1.00  0.00     0.163 HD
ATOM     33  O   UNL     1       5.258  -5.378   8.898  1.00  0.00    -0.269 OA
BRANCH  31  34
ATOM     34  C   UNL     1       3.041  -5.200   9.659  1.00  0.00     0.039 A 
ATOM     35  C   UNL     1       3.271  -4.270  10.676  1.00  0.00     0.014 A 
ATOM     36  C   UNL     1       1.893  -5.997   9.678  1.00  0.00     0.014 A 
ATOM     37  C   UNL     1       2.332  -4.115  11.697  1.00  0.00     0.010 A 
ATOM     38  C   UNL     1       0.931  -5.802  10.664  1.00  0.00     0.010 A 
ATOM     39  C   UNL     1       1.149  -4.870  11.690  1.00  0.00    -0.014 A 
BRANCH  39  40
ATOM     40  C   UNL     1       0.139  -4.724  12.767  1.00  0.00     0.031 A 
ATOM     41  C   UNL     1      -0.117  -5.865  13.712  1.00  0.00     0.074 A 
ATOM     42  C   UNL     1      -0.584  -3.592  12.848  1.00  0.00     0.049 A 
ATOM     43  N   UNL     1      -1.006  -5.969  14.666  1.00  0.00    -0.248 NA
ATOM     44  C   UNL     1       0.720  -7.060  13.536  1.00  0.00     0.031 C 
ATOM     45  C   UNL     1      -0.442  -2.434  11.963  1.00  0.00     0.029 A 
ATOM     46  N   UNL     1      -1.587  -3.231  13.710  1.00  0.00    -0.354 N 
ATOM     47  C   UNL     1      -0.848  -7.247  15.194  1.00  0.00     0.074 A 
ATOM     48  C   UNL     1       0.180  -7.897  14.408  1.00  0.00     0.031 C 
ATOM     49  C   UNL     1      -1.308  -1.482  12.345  1.00  0.00     0.029 A 
ATOM     50  C   UNL     1      -2.094  -1.976  13.471  1.00  0.00     0.049 A 
ATOM     51  H   UNL     1      -1.915  -3.816  14.431  1.00  0.00     0.167 HD
ATOM     52  C   UNL     1      -1.485  -7.815  16.248  1.00  0.00     0.034 A 
ATOM     53  C   UNL     1      -3.084  -1.304  14.089  1.00  0.00     0.034 A 
ATOM     54  C   UNL     1      -2.500  -7.141  17.023  1.00  0.00     0.049 A 
ATOM     55  C   UNL     1      -3.797  -1.962  15.241  1.00  0.00     0.074 A 
ATOM     56  C   UNL     1      -3.175  -7.591  18.144  1.00  0.00     0.029 A 
ATOM     57  N   UNL     1      -2.994  -5.871  16.748  1.00  0.00    -0.354 N 
ATOM     58  N   UNL     1      -3.607  -3.154  15.759  1.00  0.00    -0.248 NA
ATOM     59  C   UNL     1      -4.852  -1.179  15.896  1.00  0.00     0.031 C 
ATOM     60  C   UNL     1      -4.116  -6.620  18.510  1.00  0.00     0.029 A 
ATOM     61  C   UNL     1      -3.984  -5.534  17.659  1.00  0.00     0.049 A 
ATOM     62  H   UNL     1      -2.685  -5.293  16.013  1.00  0.00     0.167 HD
ATOM     63  C   UNL     1      -4.499  -3.251  16.822  1.00  0.00     0.074 A 
ATOM     64  C   UNL     1      -5.219  -1.993  16.874  1.00  0.00     0.031 C 
ATOM     65  C   UNL     1      -4.701  -4.281  17.683  1.00  0.00     0.034 A 
BRANCH  52  66
ATOM     66  C   UNL     1      -1.116  -9.240  16.591  1.00  0.00     0.023 A 
ATOM     67  C   UNL     1       0.193  -9.594  16.967  1.00  0.00     0.031 A 
ATOM     68  C   UNL     1      -2.066 -10.271  16.481  1.00  0.00     0.131 A 
ATOM     69  C   UNL     1       0.538 -10.945  17.121  1.00  0.00     0.055 A 
ATOM     70  C   UNL     1      -1.737 -11.607  16.724  1.00  0.00     0.041 A 
ATOM     71  F   UNL     1      -3.328 -10.002  16.109  1.00  0.00    -0.206 F 
ATOM     72  C   UNL     1      -0.423 -11.953  17.026  1.00  0.00     0.022 A 
BRANCH  69  73
ATOM     73  S   UNL     1       2.295 -11.375  17.271  1.00  0.00     0.124 S 
ATOM     74  O   UNL     1       2.845 -10.796  16.047  1.00  0.00    -0.237 OA
ATOM     75  O   UNL     1       2.675 -10.719  18.516  1.00  0.00    -0.237 OA
ATOM     76  O   UNL     1       2.288 -12.836  17.311  1.00  0.00    -0.744 OA
ENDBRANCH  69  73
ENDBRANCH  52  66
BRANCH  53  77
ATOM     77  C   UNL     1      -3.455   0.067  13.642  1.00  0.00     0.023 A 
ATOM     78  C   UNL     1      -3.226   1.176  14.471  1.00  0.00     0.031 A 
ATOM     79  C   UNL     1      -4.061   0.287  12.393  1.00  0.00     0.131 A 
ATOM     80  C   UNL     1      -3.635   2.453  14.058  1.00  0.00     0.055 A 
ATOM     81  C   UNL     1      -4.426   1.565  11.968  1.00  0.00     0.041 A 
ATOM     82  F   UNL     1      -4.292  -0.740  11.560  1.00  0.00    -0.206 F 
ATOM     83  C   UNL     1      -4.223   2.657  12.807  1.00  0.00     0.022 A 
BRANCH  80  84
ATOM     84  S   UNL     1      -3.441   3.841  15.209  1.00  0.00     0.124 S 
ATOM     85  O   UNL     1      -4.238   3.397  16.347  1.00  0.00    -0.237 OA
ATOM     86  O   UNL     1      -1.996   3.869  15.409  1.00  0.00    -0.237 OA
ATOM     87  O   UNL     1      -3.988   4.976  14.468  1.00  0.00    -0.744 OA
ENDBRANCH  80  84
ENDBRANCH  53  77
BRANCH  65  88
ATOM     88  C   UNL     1      -5.716  -4.059  18.776  1.00  0.00     0.023 A 
ATOM     89  C   UNL     1      -7.089  -3.946  18.498  1.00  0.00     0.031 A 
ATOM     90  C   UNL     1      -5.297  -3.935  20.113  1.00  0.00     0.131 A 
ATOM     91  C   UNL     1      -7.990  -3.660  19.534  1.00  0.00     0.055 A 
ATOM     92  C   UNL     1      -6.205  -3.707  21.148  1.00  0.00     0.041 A 
ATOM     93  F   UNL     1      -3.997  -4.033  20.433  1.00  0.00    -0.206 F 
ATOM     94  C   UNL     1      -7.558  -3.554  20.859  1.00  0.00     0.022 A 
BRANCH  91  95
ATOM     95  S   UNL     1      -9.725  -3.339  19.117  1.00  0.00     0.124 S 
ATOM     96  O   UNL     1      -9.614  -2.198  18.214  1.00  0.00    -0.237 OA
ATOM     97  O   UNL     1     -10.138  -4.598  18.504  1.00  0.00    -0.237 OA
ATOM     98  O   UNL     1     -10.342  -3.049  20.410  1.00  0.00    -0.744 OA
ENDBRANCH  91  95
ENDBRANCH  65  88
ENDBRANCH  39  40
ENDBRANCH  31  34
ENDBRANCH  29  30
ENDBRANCH   1  29
TORSDOF 17
