REMARK SMILES O=C1CC[C@H](CNC(=O)N[C@@H]2C=C[C@@H](C(=O)NCCCNC(=O)c3ccc(-c4c5nc(c(-c6cc(S(=O)(=O)[O-])ccc6F)c6ccc([nH]6)c(-c6cc(S(=O)(=O)[O-])ccc6F)c6nc(c(-c7cc(S(=O)(=O)[O-])ccc7F)c7ccc4[nH]7)C=C6)C=C5)cc3)C2)N1
REMARK SMILES IDX 19 1 18 2 17 3 15 4 16 5 14 7 11 8 12 9 87 10 13 11 10 12
REMARK SMILES IDX 7 13 8 14 9 16 6 18 5 19 1 20 2 21 3 22 88 23 4 24 20 26
REMARK SMILES IDX 21 27 22 28 23 30 24 31 25 32 86 33 26 34 85 35 27 36 28 37
REMARK SMILES IDX 29 38 79 39 30 40 84 41 78 42 80 43 31 44 83 45 77 46 76 47
REMARK SMILES IDX 32 49 64 50 44 51 63 52 45 53 48 54 62 55 81 56 46 57 47 58
REMARK SMILES IDX 61 60 82 61 49 62 33 63 34 64 42 65 35 66 41 67 43 68 40 69
REMARK SMILES IDX 36 70 37 71 38 72 39 73 65 74 66 75 74 76 67 77 73 78 75 79
REMARK SMILES IDX 72 80 68 81 69 82 70 83 71 84 50 85 51 86 59 87 52 88 58 89
REMARK SMILES IDX 60 90 57 91 53 92 54 93 55 94 56 95
REMARK H PARENT 17 6 7 15 10 17 88 25 21 29 80 48 48 59
REMARK Flexibility Score: inf
ROOT
ATOM      1  C   UNL     1      -4.827  -4.691   5.205  1.00  0.00     0.042 C 
ENDROOT
BRANCH   1   2
ATOM      2  C   UNL     1      -3.581  -3.912   5.618  1.00  0.00     0.117 C 
BRANCH   2   3
ATOM      3  N   UNL     1      -2.444  -4.756   5.935  1.00  0.00    -0.356 N 
ATOM      4  C   UNL     1      -1.218  -4.877   5.357  1.00  0.00     0.227 C 
ATOM      5  O   UNL     1      -0.377  -5.549   5.965  1.00  0.00    -0.274 OA
ATOM      6  H   UNL     1      -2.585  -5.348   6.709  1.00  0.00     0.163 HD
BRANCH   4   7
ATOM      7  C   UNL     1      -0.868  -4.295   3.981  1.00  0.00     0.103 C 
ATOM      8  C   UNL     1      -2.408  -3.702   2.143  1.00  0.00     0.107 C 
ATOM      9  C   UNL     1      -1.755  -2.500   2.754  1.00  0.00    -0.006 C 
ATOM     10  C   UNL     1      -1.734  -4.877   2.866  1.00  0.00     0.047 C 
ATOM     11  C   UNL     1      -0.967  -2.817   3.789  1.00  0.00    -0.016 C 
BRANCH   8  12
ATOM     12  N   UNL     1      -2.190  -3.714   0.715  1.00  0.00    -0.332 N 
ATOM     13  N   UNL     1      -3.523  -5.499  -0.100  1.00  0.00    -0.336 N 
ATOM     14  C   UNL     1      -2.671  -4.474  -0.284  1.00  0.00     0.315 C 
ATOM     15  H   UNL     1      -3.834  -5.924  -0.932  1.00  0.00     0.165 HD
ATOM     16  O   UNL     1      -2.303  -4.224  -1.434  1.00  0.00    -0.249 OA
ATOM     17  H   UNL     1      -1.559  -3.022   0.410  1.00  0.00     0.165 HD
BRANCH  13  18
ATOM     18  C   UNL     1      -4.061  -6.084   1.106  1.00  0.00     0.142 C 
BRANCH  18  19
ATOM     19  C   UNL     1      -5.276  -7.013   0.940  1.00  0.00     0.101 C 
ATOM     20  O   UNL     1      -5.747  -8.342   4.148  1.00  0.00    -0.275 OA
ATOM     21  C   UNL     1      -5.518  -8.184   2.960  1.00  0.00     0.220 C 
ATOM     22  C   UNL     1      -4.626  -9.031   2.088  1.00  0.00     0.102 C 
ATOM     23  N   UNL     1      -5.961  -7.118   2.208  1.00  0.00    -0.352 N 
ATOM     24  C   UNL     1      -4.882  -8.465   0.686  1.00  0.00     0.036 C 
ATOM     25  H   UNL     1      -6.666  -6.496   2.502  1.00  0.00     0.163 HD
ENDBRANCH  18  19
ENDBRANCH  13  18
ENDBRANCH   8  12
ENDBRANCH   4   7
ENDBRANCH   2   3
ENDBRANCH   1   2
BRANCH   1  26
ATOM     26  C   UNL     1      -5.442  -5.568   6.296  1.00  0.00     0.118 C 
BRANCH  26  27
ATOM     27  N   UNL     1      -5.859  -4.804   7.463  1.00  0.00    -0.352 N 
ATOM     28  C   UNL     1      -7.091  -4.642   8.048  1.00  0.00     0.251 C 
ATOM     29  H   UNL     1      -5.130  -4.318   7.912  1.00  0.00     0.163 HD
ATOM     30  O   UNL     1      -7.212  -3.785   8.922  1.00  0.00    -0.269 OA
BRANCH  28  31
ATOM     31  C   UNL     1      -8.267  -5.450   7.641  1.00  0.00     0.039 A 
ATOM     32  C   UNL     1      -9.527  -4.839   7.641  1.00  0.00     0.014 A 
ATOM     33  C   UNL     1      -8.164  -6.808   7.330  1.00  0.00     0.014 A 
ATOM     34  C   UNL     1     -10.665  -5.567   7.278  1.00  0.00     0.010 A 
ATOM     35  C   UNL     1      -9.289  -7.517   6.904  1.00  0.00     0.010 A 
ATOM     36  C   UNL     1     -10.553  -6.907   6.877  1.00  0.00    -0.014 A 
BRANCH  36  37
ATOM     37  C   UNL     1     -11.741  -7.687   6.438  1.00  0.00     0.031 A 
ATOM     38  C   UNL     1     -12.208  -8.873   7.239  1.00  0.00     0.074 A 
ATOM     39  C   UNL     1     -12.363  -7.368   5.286  1.00  0.00     0.049 A 
ATOM     40  N   UNL     1     -13.166  -9.727   6.977  1.00  0.00    -0.248 NA
ATOM     41  C   UNL     1     -11.484  -9.147   8.488  1.00  0.00     0.031 C 
ATOM     42  C   UNL     1     -11.995  -6.255   4.409  1.00  0.00     0.029 A 
ATOM     43  N   UNL     1     -13.427  -7.955   4.648  1.00  0.00    -0.354 N 
ATOM     44  C   UNL     1     -13.144 -10.654   8.015  1.00  0.00     0.074 A 
ATOM     45  C   UNL     1     -12.046 -10.279   8.883  1.00  0.00     0.031 C 
ATOM     46  C   UNL     1     -12.833  -6.227   3.360  1.00  0.00     0.029 A 
ATOM     47  C   UNL     1     -13.765  -7.346   3.462  1.00  0.00     0.049 A 
ATOM     48  H   UNL     1     -13.904  -8.738   5.005  1.00  0.00     0.167 HD
ATOM     49  C   UNL     1     -13.971 -11.708   8.232  1.00  0.00     0.034 A 
ATOM     50  C   UNL     1     -14.708  -7.659   2.551  1.00  0.00     0.034 A 
ATOM     51  C   UNL     1     -15.070 -12.060   7.364  1.00  0.00     0.049 A 
ATOM     52  C   UNL     1     -15.593  -8.855   2.793  1.00  0.00     0.074 A 
ATOM     53  C   UNL     1     -16.010 -13.064   7.525  1.00  0.00     0.029 A 
ATOM     54  N   UNL     1     -15.371 -11.429   6.163  1.00  0.00    -0.354 N 
ATOM     55  N   UNL     1     -15.589  -9.695   3.803  1.00  0.00    -0.248 NA
ATOM     56  C   UNL     1     -16.611  -9.141   1.775  1.00  0.00     0.031 C 
ATOM     57  C   UNL     1     -16.832 -13.085   6.393  1.00  0.00     0.029 A 
ATOM     58  C   UNL     1     -16.457 -12.045   5.557  1.00  0.00     0.049 A 
ATOM     59  H   UNL     1     -14.884 -10.656   5.795  1.00  0.00     0.167 HD
ATOM     60  C   UNL     1     -16.630 -10.587   3.557  1.00  0.00     0.074 A 
ATOM     61  C   UNL     1     -17.239 -10.180   2.307  1.00  0.00     0.031 C 
ATOM     62  C   UNL     1     -17.049 -11.640   4.303  1.00  0.00     0.034 A 
BRANCH  49  63
ATOM     63  C   UNL     1     -13.687 -12.577   9.436  1.00  0.00     0.023 A 
ATOM     64  C   UNL     1     -13.745 -12.071  10.747  1.00  0.00     0.031 A 
ATOM     65  C   UNL     1     -13.316 -13.923   9.269  1.00  0.00     0.131 A 
ATOM     66  C   UNL     1     -13.353 -12.876  11.827  1.00  0.00     0.055 A 
ATOM     67  C   UNL     1     -13.010 -14.745  10.356  1.00  0.00     0.041 A 
ATOM     68  F   UNL     1     -13.225 -14.461   8.042  1.00  0.00    -0.206 F 
ATOM     69  C   UNL     1     -13.009 -14.217  11.644  1.00  0.00     0.022 A 
BRANCH  66  70
ATOM     70  S   UNL     1     -13.145 -12.100  13.454  1.00  0.00     0.124 S 
ATOM     71  O   UNL     1     -12.175 -11.048  13.157  1.00  0.00    -0.237 OA
ATOM     72  O   UNL     1     -14.497 -11.653  13.765  1.00  0.00    -0.237 OA
ATOM     73  O   UNL     1     -12.637 -13.186  14.290  1.00  0.00    -0.744 OA
ENDBRANCH  66  70
ENDBRANCH  49  63
BRANCH  50  74
ATOM     74  C   UNL     1     -14.869  -6.834   1.321  1.00  0.00     0.023 A 
ATOM     75  C   UNL     1     -16.033  -6.079   1.111  1.00  0.00     0.031 A 
ATOM     76  C   UNL     1     -13.876  -6.810   0.326  1.00  0.00     0.131 A 
ATOM     77  C   UNL     1     -16.194  -5.361  -0.085  1.00  0.00     0.055 A 
ATOM     78  C   UNL     1     -14.021  -6.057  -0.841  1.00  0.00     0.041 A 
ATOM     79  F   UNL     1     -12.741  -7.509   0.483  1.00  0.00    -0.206 F 
ATOM     80  C   UNL     1     -15.190  -5.335  -1.056  1.00  0.00     0.022 A 
BRANCH  77  81
ATOM     81  S   UNL     1     -17.767  -4.509  -0.380  1.00  0.00     0.124 S 
ATOM     82  O   UNL     1     -18.716  -5.615  -0.341  1.00  0.00    -0.237 OA
ATOM     83  O   UNL     1     -17.821  -3.575   0.740  1.00  0.00    -0.237 OA
ATOM     84  O   UNL     1     -17.578  -3.893  -1.692  1.00  0.00    -0.744 OA
ENDBRANCH  77  81
ENDBRANCH  50  74
BRANCH  62  85
ATOM     85  C   UNL     1     -18.260 -12.393   3.808  1.00  0.00     0.023 A 
ATOM     86  C   UNL     1     -18.227 -13.165   2.633  1.00  0.00     0.031 A 
ATOM     87  C   UNL     1     -19.471 -12.326   4.521  1.00  0.00     0.131 A 
ATOM     88  C   UNL     1     -19.395 -13.797   2.180  1.00  0.00     0.055 A 
ATOM     89  C   UNL     1     -20.614 -13.004   4.096  1.00  0.00     0.041 A 
ATOM     90  F   UNL     1     -19.560 -11.601   5.648  1.00  0.00    -0.206 F 
ATOM     91  C   UNL     1     -20.584 -13.735   2.912  1.00  0.00     0.022 A 
BRANCH  88  92
ATOM     92  S   UNL     1     -19.366 -14.636   0.571  1.00  0.00     0.124 S 
ATOM     93  O   UNL     1     -18.995 -13.550  -0.331  1.00  0.00    -0.237 OA
ATOM     94  O   UNL     1     -18.354 -15.668   0.775  1.00  0.00    -0.237 OA
ATOM     95  O   UNL     1     -20.732 -15.131   0.417  1.00  0.00    -0.744 OA
ENDBRANCH  88  92
ENDBRANCH  62  85
ENDBRANCH  36  37
ENDBRANCH  28  31
ENDBRANCH  26  27
ENDBRANCH   1  26
TORSDOF 16
