REMARK SMILES Cc1c(C[NH2+][C@@H]2CCCc3ccccc32)c(C(=O)NCCCNC(=O)c2ccc(-c3c4nc(c(-c5cc(S(=O)(=O)[O-])ccc5F)c5ccc([nH]5)c(-c5cc(S(=O)(=O)[O-])ccc5F)c5nc(c(-c6cc(S(=O)(=O)[O-])ccc6F)c6ccc3[nH]6)C=C5)C=C4)cc2)c(C)n1Cc1cccc(Cl)c1
REMARK SMILES IDX 21 1 20 2 19 3 17 4 18 5 16 7 1 8 2 9 3 10 91 11 89 12 90 13
REMARK SMILES IDX 4 14 5 15 6 18 7 19 15 20 8 21 10 22 14 23 9 24 11 25 13 26
REMARK SMILES IDX 12 27 92 28 93 29 94 30 99 31 95 32 97 33 96 34 98 35 22 36
REMARK SMILES IDX 23 37 24 38 25 40 26 41 27 42 88 43 28 44 87 45 29 46 30 47
REMARK SMILES IDX 31 48 81 49 32 50 86 51 80 52 82 53 33 54 85 55 79 56 78 57
REMARK SMILES IDX 34 59 66 60 46 61 65 62 47 63 50 64 64 65 83 66 48 67 49 68
REMARK SMILES IDX 63 70 84 71 51 72 35 73 36 74 44 75 37 76 43 77 45 78 42 79
REMARK SMILES IDX 38 80 39 81 40 82 41 83 67 84 68 85 76 86 69 87 75 88 77 89
REMARK SMILES IDX 74 90 70 91 71 92 72 93 73 94 52 95 53 96 61 97 54 98 60 99
REMARK SMILES IDX 62 100 59 101 55 102 56 103 57 104 58 105
REMARK H PARENT 19 6 5 16 5 17 23 39 82 58 50 69
REMARK Flexibility Score: inf
ROOT
ATOM      1  C   UNL     1      -1.015   7.511  -0.434  1.00  0.00     0.042 C 
ENDROOT
BRANCH   1   2
ATOM      2  C   UNL     1      -0.682   7.174   1.022  1.00  0.00     0.118 C 
BRANCH   2   3
ATOM      3  N   UNL     1      -1.512   6.136   1.605  1.00  0.00    -0.352 N 
ATOM      4  C   UNL     1      -1.514   4.771   1.730  1.00  0.00     0.253 C 
ATOM      5  O   UNL     1      -2.523   4.359   2.313  1.00  0.00    -0.269 OA
ATOM      6  H   UNL     1      -2.305   6.527   2.037  1.00  0.00     0.163 HD
BRANCH   4   7
ATOM      7  C   UNL     1      -0.520   3.824   1.174  1.00  0.00     0.069 A 
ATOM      8  C   UNL     1       0.607   0.358   0.172  1.00  0.00     0.065 C 
ATOM      9  C   UNL     1       0.331   1.800   0.449  1.00  0.00     0.025 A 
ATOM     10  C   UNL     1      -0.762   2.381   1.086  1.00  0.00     0.040 A 
ATOM     11  N   UNL     1       1.154   2.834   0.049  1.00  0.00    -0.343 N 
ATOM     12  C   UNL     1       0.824   3.956   0.805  1.00  0.00     0.028 A 
ATOM     13  C   UNL     1       1.851   4.972   1.163  1.00  0.00     0.065 C 
BRANCH  10  14
ATOM     14  C   UNL     1      -1.985   1.632   1.564  1.00  0.00     0.300 C 
BRANCH  14  15
ATOM     15  N   UNL     1      -1.918   1.404   3.011  1.00  0.00    -0.336 N 
ATOM     16  H   UNL     1      -1.734   2.294   3.474  1.00  0.00     0.347 HD
ATOM     17  H   UNL     1      -1.172   0.730   3.184  1.00  0.00     0.347 HD
BRANCH  15  18
ATOM     18  C   UNL     1      -3.169   0.838   3.553  1.00  0.00     0.214 C 
ATOM     19  C   UNL     1      -3.294   1.190   5.050  1.00  0.00     0.070 C 
ATOM     20  C   UNL     1      -3.252  -0.671   3.346  1.00  0.00     0.012 A 
ATOM     21  C   UNL     1      -2.365   0.354   5.923  1.00  0.00     0.011 C 
ATOM     22  C   UNL     1      -2.932  -1.582   4.373  1.00  0.00    -0.039 A 
ATOM     23  C   UNL     1      -3.631  -1.178   2.091  1.00  0.00     0.010 A 
ATOM     24  C   UNL     1      -2.694  -1.129   5.793  1.00  0.00     0.036 C 
ATOM     25  C   UNL     1      -2.938  -2.961   4.104  1.00  0.00     0.004 A 
ATOM     26  C   UNL     1      -3.621  -2.547   1.831  1.00  0.00     0.001 A 
ATOM     27  C   UNL     1      -3.260  -3.439   2.834  1.00  0.00     0.000 A 
ENDBRANCH  15  18
ENDBRANCH  14  15
ENDBRANCH  10  14
BRANCH  11  28
ATOM     28  C   UNL     1       2.308   2.694  -0.853  1.00  0.00     0.157 C 
BRANCH  28  29
ATOM     29  C   UNL     1       2.112   3.291  -2.235  1.00  0.00    -0.027 A 
ATOM     30  C   UNL     1       2.248   2.493  -3.385  1.00  0.00     0.005 A 
ATOM     31  C   UNL     1       1.901   4.666  -2.420  1.00  0.00     0.026 A 
ATOM     32  C   UNL     1       2.182   3.054  -4.667  1.00  0.00     0.002 A 
ATOM     33  C   UNL     1       1.837   5.224  -3.698  1.00  0.00     0.041 A 
ATOM     34  C   UNL     1       1.980   4.424  -4.824  1.00  0.00     0.020 A 
ATOM     35  Cl  UNL     1       1.607   6.920  -3.871  1.00  0.00    -0.084 Cl
ENDBRANCH  28  29
ENDBRANCH  11  28
ENDBRANCH   4   7
ENDBRANCH   2   3
ENDBRANCH   1   2
BRANCH   1  36
ATOM     36  C   UNL     1      -2.359   8.240  -0.644  1.00  0.00     0.118 C 
BRANCH  36  37
ATOM     37  N   UNL     1      -2.242   9.686  -0.631  1.00  0.00    -0.352 N 
ATOM     38  C   UNL     1      -3.048  10.633  -1.232  1.00  0.00     0.251 C 
ATOM     39  H   UNL     1      -1.479  10.043  -0.122  1.00  0.00     0.163 HD
ATOM     40  O   UNL     1      -2.730  11.812  -1.101  1.00  0.00    -0.269 OA
BRANCH  38  41
ATOM     41  C   UNL     1      -4.204  10.263  -2.113  1.00  0.00     0.039 A 
ATOM     42  C   UNL     1      -3.992  10.299  -3.480  1.00  0.00     0.014 A 
ATOM     43  C   UNL     1      -5.530  10.102  -1.672  1.00  0.00     0.014 A 
ATOM     44  C   UNL     1      -5.077  10.133  -4.372  1.00  0.00     0.010 A 
ATOM     45  C   UNL     1      -6.648  10.024  -2.594  1.00  0.00     0.010 A 
ATOM     46  C   UNL     1      -6.462  10.066  -3.985  1.00  0.00    -0.014 A 
BRANCH  46  47
ATOM     47  C   UNL     1      -7.501  10.508  -5.095  1.00  0.00     0.031 A 
ATOM     48  C   UNL     1      -6.857  11.690  -5.742  1.00  0.00     0.074 A 
ATOM     49  C   UNL     1      -8.777  10.255  -5.570  1.00  0.00     0.049 A 
ATOM     50  N   UNL     1      -6.472  12.707  -5.023  1.00  0.00    -0.248 NA
ATOM     51  C   UNL     1      -6.270  11.625  -7.082  1.00  0.00     0.031 C 
ATOM     52  C   UNL     1      -9.792   9.348  -5.020  1.00  0.00     0.029 A 
ATOM     53  N   UNL     1      -9.481  10.766  -6.699  1.00  0.00    -0.354 N 
ATOM     54  C   UNL     1      -5.843  13.563  -5.890  1.00  0.00     0.074 A 
ATOM     55  C   UNL     1      -5.548  12.749  -7.061  1.00  0.00     0.031 C 
ATOM     56  C   UNL     1     -10.876   9.259  -5.844  1.00  0.00     0.029 A 
ATOM     57  C   UNL     1     -10.727  10.130  -7.008  1.00  0.00     0.049 A 
ATOM     58  H   UNL     1      -9.130  11.512  -7.237  1.00  0.00     0.167 HD
ATOM     59  C   UNL     1      -6.229  14.870  -5.851  1.00  0.00     0.034 A 
ATOM     60  C   UNL     1     -11.603  10.314  -8.069  1.00  0.00     0.034 A 
ATOM     61  C   UNL     1      -7.060  15.205  -6.977  1.00  0.00     0.049 A 
ATOM     62  C   UNL     1     -11.382  11.668  -8.584  1.00  0.00     0.074 A 
ATOM     63  C   UNL     1      -6.924  15.025  -8.338  1.00  0.00     0.029 A 
ATOM     64  N   UNL     1      -8.407  15.371  -6.731  1.00  0.00    -0.354 N 
ATOM     65  N   UNL     1     -11.865  12.704  -7.976  1.00  0.00    -0.248 NA
ATOM     66  C   UNL     1     -10.694  11.943  -9.839  1.00  0.00     0.031 C 
ATOM     67  C   UNL     1      -8.211  14.652  -8.797  1.00  0.00     0.029 A 
ATOM     68  C   UNL     1      -9.147  14.889  -7.795  1.00  0.00     0.049 A 
ATOM     69  H   UNL     1      -8.787  15.773  -5.917  1.00  0.00     0.167 HD
ATOM     70  C   UNL     1     -11.132  13.736  -8.469  1.00  0.00     0.074 A 
ATOM     71  C   UNL     1     -10.663  13.275  -9.761  1.00  0.00     0.031 C 
ATOM     72  C   UNL     1     -10.549  14.569  -7.569  1.00  0.00     0.034 A 
BRANCH  59  73
ATOM     73  C   UNL     1      -6.399  15.403  -4.454  1.00  0.00     0.023 A 
ATOM     74  C   UNL     1      -5.389  16.202  -3.899  1.00  0.00     0.031 A 
ATOM     75  C   UNL     1      -7.447  14.985  -3.608  1.00  0.00     0.131 A 
ATOM     76  C   UNL     1      -5.415  16.508  -2.527  1.00  0.00     0.055 A 
ATOM     77  C   UNL     1      -7.440  15.242  -2.238  1.00  0.00     0.041 A 
ATOM     78  F   UNL     1      -8.486  14.292  -4.103  1.00  0.00    -0.206 F 
ATOM     79  C   UNL     1      -6.411  15.998  -1.687  1.00  0.00     0.022 A 
BRANCH  76  80
ATOM     80  S   UNL     1      -4.134  17.601  -1.853  1.00  0.00     0.124 S 
ATOM     81  O   UNL     1      -2.902  16.875  -2.148  1.00  0.00    -0.237 OA
ATOM     82  O   UNL     1      -4.338  18.825  -2.624  1.00  0.00    -0.237 OA
ATOM     83  O   UNL     1      -4.471  17.705  -0.435  1.00  0.00    -0.744 OA
ENDBRANCH  76  80
ENDBRANCH  59  73
BRANCH  60  84
ATOM     84  C   UNL     1     -12.822   9.669  -8.749  1.00  0.00     0.023 A 
ATOM     85  C   UNL     1     -13.669  10.431  -9.640  1.00  0.00     0.031 A 
ATOM     86  C   UNL     1     -13.012   8.286  -8.803  1.00  0.00     0.131 A 
ATOM     87  C   UNL     1     -14.567   9.825 -10.553  1.00  0.00     0.055 A 
ATOM     88  C   UNL     1     -13.933   7.684  -9.693  1.00  0.00     0.041 A 
ATOM     89  F   UNL     1     -12.250   7.466  -8.066  1.00  0.00    -0.206 F 
ATOM     90  C   UNL     1     -14.693   8.444 -10.584  1.00  0.00     0.022 A 
BRANCH  87  91
ATOM     91  S   UNL     1     -15.409  10.803 -11.865  1.00  0.00     0.124 S 
ATOM     92  O   UNL     1     -16.627  11.257 -11.202  1.00  0.00    -0.237 OA
ATOM     93  O   UNL     1     -14.427  11.830 -12.195  1.00  0.00    -0.237 OA
ATOM     94  O   UNL     1     -15.623   9.818 -12.928  1.00  0.00    -0.744 OA
ENDBRANCH  87  91
ENDBRANCH  60  84
BRANCH  72  95
ATOM     95  C   UNL     1     -11.352  14.919  -6.300  1.00  0.00     0.023 A 
ATOM     96  C   UNL     1     -12.243  14.060  -5.597  1.00  0.00     0.031 A 
ATOM     97  C   UNL     1     -11.279  16.237  -5.817  1.00  0.00     0.131 A 
ATOM     98  C   UNL     1     -13.040  14.527  -4.533  1.00  0.00     0.055 A 
ATOM     99  C   UNL     1     -12.025  16.688  -4.723  1.00  0.00     0.041 A 
ATOM    100  F   UNL     1     -10.483  17.137  -6.416  1.00  0.00    -0.206 F 
ATOM    101  C   UNL     1     -12.927  15.841  -4.089  1.00  0.00     0.022 A 
BRANCH  98 102
ATOM    102  S   UNL     1     -14.320  13.459  -3.784  1.00  0.00     0.124 S 
ATOM    103  O   UNL     1     -15.005  12.891  -4.952  1.00  0.00    -0.237 OA
ATOM    104  O   UNL     1     -13.523  12.508  -3.003  1.00  0.00    -0.237 OA
ATOM    105  O   UNL     1     -15.122  14.376  -3.002  1.00  0.00    -0.744 OA
ENDBRANCH  98 102
ENDBRANCH  72  95
ENDBRANCH  46  47
ENDBRANCH  38  41
ENDBRANCH  36  37
ENDBRANCH   1  36
TORSDOF 18
