REMARK SMILES CC[C@@H](NC(=O)NC1(CC(=O)NCCCNC(=O)c2ccc(-c3c4nc(c(-c5cc(S(=O)(=O)[O-])ccc5F)c5ccc([nH]5)c(-c5cc(S(=O)(=O)[O-])ccc5F)c5nc(c(-c6cc(S(=O)(=O)[O-])ccc6F)c6ccc3[nH]6)C=C5)C=C4)cc2)CCC1)C(C)C
REMARK SMILES IDX 13 1 12 2 10 3 11 4 9 6 8 7 82 8 84 9 83 10 7 11 4 12 5 13
REMARK SMILES IDX 6 15 3 17 2 18 1 19 85 20 86 21 87 22 14 23 15 24 16 25
REMARK SMILES IDX 17 26 18 28 19 29 20 30 81 31 21 32 80 33 22 34 23 35 24 36
REMARK SMILES IDX 74 37 25 38 79 39 73 40 75 41 26 42 78 43 72 44 71 45 27 47
REMARK SMILES IDX 59 48 39 49 58 50 40 51 43 52 57 53 76 54 41 55 42 56 56 58
REMARK SMILES IDX 77 59 44 60 28 61 29 62 37 63 30 64 36 65 38 66 35 67 31 68
REMARK SMILES IDX 32 69 33 70 34 71 60 72 61 73 69 74 62 75 68 76 70 77 67 78
REMARK SMILES IDX 63 79 64 80 65 81 66 82 45 83 46 84 54 85 47 86 53 87 55 88
REMARK SMILES IDX 52 89 48 90 49 91 50 92 51 93
REMARK H PARENT 12 5 4 14 7 16 16 27 75 46 43 57
REMARK Flexibility Score: inf
ROOT
ATOM      1  C   UNL     1      -2.599  -7.622  -1.210  1.00  0.00     0.117 C 
ENDROOT
BRANCH   1   2
ATOM      2  N   UNL     1      -3.034  -6.371  -0.614  1.00  0.00    -0.356 N 
ATOM      3  C   UNL     1      -2.359  -5.210  -0.378  1.00  0.00     0.222 C 
ATOM      4  O   UNL     1      -2.988  -4.311   0.187  1.00  0.00    -0.275 OA
ATOM      5  H   UNL     1      -3.977  -6.360  -0.332  1.00  0.00     0.163 HD
BRANCH   3   6
ATOM      6  C   UNL     1      -0.922  -5.003  -0.844  1.00  0.00     0.128 C 
BRANCH   6   7
ATOM      7  C   UNL     1       0.202  -5.367   0.151  1.00  0.00     0.051 C 
ATOM      8  C   UNL     1       1.745  -5.343  -0.287  1.00  0.00     0.029 C 
ATOM      9  C   UNL     1       0.494  -6.913   0.225  1.00  0.00     0.029 C 
ATOM     10  C   UNL     1       1.571  -6.742  -0.844  1.00  0.00     0.005 C 
BRANCH   7  11
ATOM     11  N   UNL     1      -0.027  -4.783   1.514  1.00  0.00    -0.332 N 
ATOM     12  N   UNL     1      -0.613  -2.494   1.207  1.00  0.00    -0.335 N 
ATOM     13  C   UNL     1      -0.472  -3.590   1.988  1.00  0.00     0.315 C 
ATOM     14  H   UNL     1      -1.517  -2.307   0.867  1.00  0.00     0.165 HD
ATOM     15  O   UNL     1      -0.852  -3.533   3.160  1.00  0.00    -0.249 OA
ATOM     16  H   UNL     1       0.199  -5.414   2.236  1.00  0.00     0.165 HD
BRANCH  12  17
ATOM     17  C   UNL     1       0.462  -1.542   0.810  1.00  0.00     0.086 C 
BRANCH  17  18
ATOM     18  C   UNL     1      -0.166  -0.307   0.129  1.00  0.00     0.022 C 
ATOM     19  C   UNL     1       0.634   0.963   0.395  1.00  0.00     0.006 C 
ENDBRANCH  17  18
BRANCH  17  20
ATOM     20  C   UNL     1       1.543  -2.253  -0.024  1.00  0.00     0.005 C 
ATOM     21  C   UNL     1       1.926  -1.782  -1.427  1.00  0.00     0.009 C 
ATOM     22  C   UNL     1       2.785  -2.547   0.823  1.00  0.00     0.009 C 
ENDBRANCH  17  20
ENDBRANCH  12  17
ENDBRANCH   7  11
ENDBRANCH   6   7
ENDBRANCH   3   6
ENDBRANCH   1   2
BRANCH   1  23
ATOM     23  C   UNL     1      -2.235  -8.645  -0.133  1.00  0.00     0.042 C 
BRANCH  23  24
ATOM     24  C   UNL     1      -3.362  -9.560   0.292  1.00  0.00     0.118 C 
BRANCH  24  25
ATOM     25  N   UNL     1      -3.605 -10.573  -0.716  1.00  0.00    -0.352 N 
ATOM     26  C   UNL     1      -2.989 -11.778  -0.956  1.00  0.00     0.251 C 
ATOM     27  H   UNL     1      -4.339 -10.362  -1.337  1.00  0.00     0.163 HD
ATOM     28  O   UNL     1      -3.072 -12.232  -2.098  1.00  0.00    -0.269 OA
BRANCH  26  29
ATOM     29  C   UNL     1      -2.243 -12.539   0.085  1.00  0.00     0.039 A 
ATOM     30  C   UNL     1      -1.347 -13.531  -0.338  1.00  0.00     0.014 A 
ATOM     31  C   UNL     1      -2.481 -12.403   1.454  1.00  0.00     0.014 A 
ATOM     32  C   UNL     1      -0.725 -14.371   0.593  1.00  0.00     0.010 A 
ATOM     33  C   UNL     1      -1.758 -13.147   2.387  1.00  0.00     0.010 A 
ATOM     34  C   UNL     1      -0.917 -14.182   1.970  1.00  0.00    -0.014 A 
BRANCH  34  35
ATOM     35  C   UNL     1      -0.309 -15.109   2.965  1.00  0.00     0.031 A 
ATOM     36  C   UNL     1      -1.187 -15.917   3.894  1.00  0.00     0.074 A 
ATOM     37  C   UNL     1       1.032 -15.219   3.035  1.00  0.00     0.049 A 
ATOM     38  N   UNL     1      -0.846 -16.795   4.803  1.00  0.00    -0.248 NA
ATOM     39  C   UNL     1      -2.637 -15.679   3.818  1.00  0.00     0.031 C 
ATOM     40  C   UNL     1       1.983 -14.442   2.236  1.00  0.00     0.029 A 
ATOM     41  N   UNL     1       1.830 -16.031   3.799  1.00  0.00    -0.354 N 
ATOM     42  C   UNL     1      -2.032 -17.199   5.412  1.00  0.00     0.074 A 
ATOM     43  C   UNL     1      -3.091 -16.409   4.825  1.00  0.00     0.031 C 
ATOM     44  C   UNL     1       3.229 -14.857   2.509  1.00  0.00     0.029 A 
ATOM     45  C   UNL     1       3.173 -15.895   3.531  1.00  0.00     0.049 A 
ATOM     46  H   UNL     1       1.475 -16.653   4.474  1.00  0.00     0.167 HD
ATOM     47  C   UNL     1      -2.228 -18.162   6.347  1.00  0.00     0.034 A 
ATOM     48  C   UNL     1       4.237 -16.543   4.044  1.00  0.00     0.034 A 
ATOM     49  C   UNL     1      -1.159 -18.955   6.905  1.00  0.00     0.049 A 
ATOM     50  C   UNL     1       3.995 -17.625   5.064  1.00  0.00     0.074 A 
ATOM     51  C   UNL     1      -1.237 -19.994   7.816  1.00  0.00     0.029 A 
ATOM     52  N   UNL     1       0.189 -18.792   6.606  1.00  0.00    -0.354 N 
ATOM     53  N   UNL     1       2.858 -18.039   5.578  1.00  0.00    -0.248 NA
ATOM     54  C   UNL     1       5.177 -18.340   5.554  1.00  0.00     0.031 C 
ATOM     55  C   UNL     1       0.065 -20.412   8.118  1.00  0.00     0.029 A 
ATOM     56  C   UNL     1       0.953 -19.691   7.334  1.00  0.00     0.049 A 
ATOM     57  H   UNL     1       0.548 -18.134   5.968  1.00  0.00     0.167 HD
ATOM     58  C   UNL     1       3.191 -19.081   6.439  1.00  0.00     0.074 A 
ATOM     59  C   UNL     1       4.627 -19.253   6.340  1.00  0.00     0.031 C 
ATOM     60  C   UNL     1       2.389 -19.827   7.244  1.00  0.00     0.034 A 
BRANCH  47  61
ATOM     61  C   UNL     1      -3.645 -18.389   6.832  1.00  0.00     0.023 A 
ATOM     62  C   UNL     1      -4.673 -18.792   5.960  1.00  0.00     0.031 A 
ATOM     63  C   UNL     1      -3.983 -18.168   8.180  1.00  0.00     0.131 A 
ATOM     64  C   UNL     1      -5.996 -18.878   6.423  1.00  0.00     0.055 A 
ATOM     65  C   UNL     1      -5.286 -18.342   8.653  1.00  0.00     0.041 A 
ATOM     66  F   UNL     1      -3.054 -17.762   9.060  1.00  0.00    -0.206 F 
ATOM     67  C   UNL     1      -6.306 -18.682   7.769  1.00  0.00     0.022 A 
BRANCH  64  68
ATOM     68  S   UNL     1      -7.327 -19.098   5.209  1.00  0.00     0.124 S 
ATOM     69  O   UNL     1      -7.142 -17.927   4.354  1.00  0.00    -0.237 OA
ATOM     70  O   UNL     1      -6.999 -20.385   4.609  1.00  0.00    -0.237 OA
ATOM     71  O   UNL     1      -8.541 -19.079   6.023  1.00  0.00    -0.744 OA
ENDBRANCH  64  68
ENDBRANCH  47  61
BRANCH  48  72
ATOM     72  C   UNL     1       5.618 -16.202   3.594  1.00  0.00     0.023 A 
ATOM     73  C   UNL     1       6.414 -17.141   2.918  1.00  0.00     0.031 A 
ATOM     74  C   UNL     1       6.175 -14.939   3.861  1.00  0.00     0.131 A 
ATOM     75  C   UNL     1       7.736 -16.820   2.573  1.00  0.00     0.055 A 
ATOM     76  C   UNL     1       7.471 -14.604   3.467  1.00  0.00     0.041 A 
ATOM     77  F   UNL     1       5.455 -14.000   4.497  1.00  0.00    -0.206 F 
ATOM     78  C   UNL     1       8.265 -15.553   2.831  1.00  0.00     0.022 A 
BRANCH  75  79
ATOM     79  S   UNL     1       8.787 -18.111   1.853  1.00  0.00     0.124 S 
ATOM     80  O   UNL     1       8.729 -19.148   2.882  1.00  0.00    -0.237 OA
ATOM     81  O   UNL     1       8.092 -18.408   0.607  1.00  0.00    -0.237 OA
ATOM     82  O   UNL     1      10.082 -17.454   1.704  1.00  0.00    -0.744 OA
ENDBRANCH  75  79
ENDBRANCH  48  72
BRANCH  60  83
ATOM     83  C   UNL     1       3.065 -20.905   8.056  1.00  0.00     0.023 A 
ATOM     84  C   UNL     1       4.024 -20.593   9.036  1.00  0.00     0.031 A 
ATOM     85  C   UNL     1       2.793 -22.262   7.808  1.00  0.00     0.131 A 
ATOM     86  C   UNL     1       4.745 -21.620   9.661  1.00  0.00     0.055 A 
ATOM     87  C   UNL     1       3.456 -23.281   8.493  1.00  0.00     0.041 A 
ATOM     88  F   UNL     1       1.888 -22.621   6.884  1.00  0.00    -0.206 F 
ATOM     89  C   UNL     1       4.455 -22.963   9.409  1.00  0.00     0.022 A 
BRANCH  86  90
ATOM     90  S   UNL     1       6.171 -21.173  10.689  1.00  0.00     0.124 S 
ATOM     91  O   UNL     1       6.968 -20.369   9.767  1.00  0.00    -0.237 OA
ATOM     92  O   UNL     1       5.546 -20.448  11.790  1.00  0.00    -0.237 OA
ATOM     93  O   UNL     1       6.753 -22.465  11.048  1.00  0.00    -0.744 OA
ENDBRANCH  86  90
ENDBRANCH  60  83
ENDBRANCH  34  35
ENDBRANCH  26  29
ENDBRANCH  24  25
ENDBRANCH  23  24
ENDBRANCH   1  23
TORSDOF 18
