REMARK SMILES COc1cc(CC(=O)N2CCC[C@H]2C(=O)NCCCNC(=O)c2ccc(-c3c4nc(c(-c5cc(S(=O)(=O)[O-])ccc5F)c5ccc([nH]5)c(-c5cc(S(=O)(=O)[O-])ccc5F)c5nc(c(-c6cc(S(=O)(=O)[O-])ccc6F)c6ccc3[nH]6)C=C5)C=C4)cc2)ccc1C
REMARK SMILES IDX 17 1 16 2 14 3 15 4 13 6 9 7 10 8 11 9 12 10 7 11 8 12 6 13
REMARK SMILES IDX 5 14 3 15 4 16 88 17 87 18 89 19 86 20 2 21 1 22 18 23 19 24
REMARK SMILES IDX 20 25 21 26 22 28 23 29 24 30 85 31 25 32 84 33 26 34 27 35
REMARK SMILES IDX 28 36 78 37 29 38 83 39 77 40 79 41 30 42 82 43 76 44 75 45
REMARK SMILES IDX 31 47 63 48 43 49 62 50 44 51 47 52 61 53 80 54 45 55 46 56
REMARK SMILES IDX 60 58 81 59 48 60 32 61 33 62 41 63 34 64 40 65 42 66 39 67
REMARK SMILES IDX 35 68 36 69 37 70 38 71 64 72 65 73 73 74 66 75 72 76 74 77
REMARK SMILES IDX 71 78 67 79 68 80 69 81 70 82 49 83 50 84 58 85 51 86 57 87
REMARK SMILES IDX 59 88 56 89 52 90 53 91 54 92 55 93
REMARK H PARENT 16 5 20 27 79 46 47 57
REMARK Flexibility Score: inf
ROOT
ATOM      1  C   UNL     1       3.873   5.580  -5.764  1.00  0.00     0.117 C 
ENDROOT
BRANCH   1   2
ATOM      2  N   UNL     1       4.897   6.390  -5.131  1.00  0.00    -0.354 N 
ATOM      3  C   UNL     1       5.823   6.105  -4.176  1.00  0.00     0.242 C 
ATOM      4  O   UNL     1       6.679   6.968  -3.942  1.00  0.00    -0.273 OA
ATOM      5  H   UNL     1       4.927   7.320  -5.453  1.00  0.00     0.163 HD
BRANCH   3   6
ATOM      6  C   UNL     1       5.895   4.748  -3.436  1.00  0.00     0.174 C 
ATOM      7  N   UNL     1       4.797   4.376  -2.544  1.00  0.00    -0.330 N 
ATOM      8  C   UNL     1       4.102   3.194  -3.002  1.00  0.00     0.120 C 
ATOM      9  C   UNL     1       4.931   2.600  -4.125  1.00  0.00     0.024 C 
ATOM     10  C   UNL     1       6.106   3.546  -4.358  1.00  0.00     0.037 C 
BRANCH   7  11
ATOM     11  C   UNL     1       4.657   5.009  -1.324  1.00  0.00     0.227 C 
ATOM     12  O   UNL     1       5.279   6.040  -1.057  1.00  0.00    -0.275 OA
BRANCH  11  13
ATOM     13  C   UNL     1       3.861   4.334  -0.213  1.00  0.00     0.135 C 
BRANCH  13  14
ATOM     14  C   UNL     1       2.412   4.018  -0.483  1.00  0.00    -0.035 A 
ATOM     15  C   UNL     1       0.631   2.354  -0.672  1.00  0.00     0.122 A 
ATOM     16  C   UNL     1       1.957   2.691  -0.383  1.00  0.00     0.051 A 
ATOM     17  C   UNL     1      -0.266   3.365  -1.048  1.00  0.00    -0.009 A 
ATOM     18  C   UNL     1       0.175   4.700  -1.083  1.00  0.00     0.007 A 
ATOM     19  C   UNL     1      -1.702   3.078  -1.388  1.00  0.00     0.048 C 
ATOM     20  C   UNL     1       1.502   5.025  -0.806  1.00  0.00     0.005 A 
BRANCH  15  21
ATOM     21  O   UNL     1       0.142   1.074  -0.653  1.00  0.00    -0.496 OA
ATOM     22  C   UNL     1       0.912   0.093   0.030  1.00  0.00     0.278 C 
ENDBRANCH  15  21
ENDBRANCH  13  14
ENDBRANCH  11  13
ENDBRANCH   7  11
ENDBRANCH   3   6
ENDBRANCH   1   2
BRANCH   1  23
ATOM     23  C   UNL     1       2.510   5.739  -5.112  1.00  0.00     0.042 C 
BRANCH  23  24
ATOM     24  C   UNL     1       1.739   6.926  -5.675  1.00  0.00     0.118 C 
BRANCH  24  25
ATOM     25  N   UNL     1       0.800   6.580  -6.744  1.00  0.00    -0.352 N 
ATOM     26  C   UNL     1      -0.076   7.408  -7.433  1.00  0.00     0.251 C 
ATOM     27  H   UNL     1       0.789   5.633  -7.011  1.00  0.00     0.163 HD
ATOM     28  O   UNL     1      -0.848   6.975  -8.267  1.00  0.00    -0.269 OA
BRANCH  26  29
ATOM     29  C   UNL     1       0.043   8.871  -7.222  1.00  0.00     0.039 A 
ATOM     30  C   UNL     1       0.333   9.656  -8.344  1.00  0.00     0.014 A 
ATOM     31  C   UNL     1       0.161   9.392  -5.938  1.00  0.00     0.014 A 
ATOM     32  C   UNL     1       0.988  10.870  -8.168  1.00  0.00     0.010 A 
ATOM     33  C   UNL     1       0.905  10.540  -5.764  1.00  0.00     0.010 A 
ATOM     34  C   UNL     1       1.374  11.243  -6.880  1.00  0.00    -0.014 A 
BRANCH  34  35
ATOM     35  C   UNL     1       2.379  12.268  -6.627  1.00  0.00     0.031 A 
ATOM     36  C   UNL     1       1.987  13.586  -6.098  1.00  0.00     0.074 A 
ATOM     37  C   UNL     1       3.684  12.000  -6.850  1.00  0.00     0.049 A 
ATOM     38  N   UNL     1       2.625  14.682  -6.330  1.00  0.00    -0.248 NA
ATOM     39  C   UNL     1       0.796  13.771  -5.281  1.00  0.00     0.031 C 
ATOM     40  C   UNL     1       4.836  12.815  -6.473  1.00  0.00     0.029 A 
ATOM     41  N   UNL     1       4.208  11.024  -7.696  1.00  0.00    -0.354 N 
ATOM     42  C   UNL     1       2.124  15.641  -5.480  1.00  0.00     0.074 A 
ATOM     43  C   UNL     1       0.942  15.043  -4.901  1.00  0.00     0.031 C 
ATOM     44  C   UNL     1       5.867  12.497  -7.271  1.00  0.00     0.029 A 
ATOM     45  C   UNL     1       5.374  11.563  -8.268  1.00  0.00     0.049 A 
ATOM     46  H   UNL     1       3.833  10.128  -7.862  1.00  0.00     0.167 HD
ATOM     47  C   UNL     1       2.842  16.777  -5.244  1.00  0.00     0.034 A 
ATOM     48  C   UNL     1       5.479  11.722  -9.618  1.00  0.00     0.034 A 
ATOM     49  C   UNL     1       4.075  16.810  -6.032  1.00  0.00     0.049 A 
ATOM     50  C   UNL     1       5.659  13.162 -10.044  1.00  0.00     0.074 A 
ATOM     51  C   UNL     1       5.399  16.545  -5.718  1.00  0.00     0.029 A 
ATOM     52  N   UNL     1       4.008  16.867  -7.421  1.00  0.00    -0.354 N 
ATOM     53  N   UNL     1       5.439  14.194  -9.276  1.00  0.00    -0.248 NA
ATOM     54  C   UNL     1       6.085  13.547 -11.384  1.00  0.00     0.031 C 
ATOM     55  C   UNL     1       6.116  16.387  -6.933  1.00  0.00     0.029 A 
ATOM     56  C   UNL     1       5.239  16.587  -7.986  1.00  0.00     0.049 A 
ATOM     57  H   UNL     1       3.194  17.078  -7.933  1.00  0.00     0.167 HD
ATOM     58  C   UNL     1       5.645  15.353  -9.985  1.00  0.00     0.074 A 
ATOM     59  C   UNL     1       6.084  14.888 -11.290  1.00  0.00     0.031 C 
ATOM     60  C   UNL     1       5.418  16.588  -9.435  1.00  0.00     0.034 A 
BRANCH  47  61
ATOM     61  C   UNL     1       2.580  17.684  -4.060  1.00  0.00     0.023 A 
ATOM     62  C   UNL     1       3.656  18.359  -3.446  1.00  0.00     0.031 A 
ATOM     63  C   UNL     1       1.323  17.889  -3.459  1.00  0.00     0.131 A 
ATOM     64  C   UNL     1       3.487  19.071  -2.243  1.00  0.00     0.055 A 
ATOM     65  C   UNL     1       1.164  18.533  -2.224  1.00  0.00     0.041 A 
ATOM     66  F   UNL     1       0.187  17.522  -4.069  1.00  0.00    -0.206 F 
ATOM     67  C   UNL     1       2.255  19.115  -1.599  1.00  0.00     0.022 A 
BRANCH  64  68
ATOM     68  S   UNL     1       4.901  19.963  -1.536  1.00  0.00     0.124 S 
ATOM     69  O   UNL     1       5.874  18.895  -1.332  1.00  0.00    -0.237 OA
ATOM     70  O   UNL     1       5.210  20.929  -2.585  1.00  0.00    -0.237 OA
ATOM     71  O   UNL     1       4.356  20.543  -0.308  1.00  0.00    -0.744 OA
ENDBRANCH  64  68
ENDBRANCH  47  61
BRANCH  48  72
ATOM     72  C   UNL     1       4.764  10.665 -10.390  1.00  0.00     0.023 A 
ATOM     73  C   UNL     1       5.150   9.325 -10.162  1.00  0.00     0.031 A 
ATOM     74  C   UNL     1       3.521  10.893 -10.994  1.00  0.00     0.131 A 
ATOM     75  C   UNL     1       4.242   8.278 -10.379  1.00  0.00     0.055 A 
ATOM     76  C   UNL     1       2.642   9.837 -11.268  1.00  0.00     0.041 A 
ATOM     77  F   UNL     1       3.083  12.143 -11.207  1.00  0.00    -0.206 F 
ATOM     78  C   UNL     1       2.981   8.528 -10.918  1.00  0.00     0.022 A 
BRANCH  75  79
ATOM     79  S   UNL     1       4.621   6.639  -9.691  1.00  0.00     0.124 S 
ATOM     80  O   UNL     1       5.317   5.990 -10.795  1.00  0.00    -0.237 OA
ATOM     81  O   UNL     1       5.438   6.957  -8.521  1.00  0.00    -0.237 OA
ATOM     82  O   UNL     1       3.307   6.088  -9.363  1.00  0.00    -0.744 OA
ENDBRANCH  75  79
ENDBRANCH  48  72
BRANCH  60  83
ATOM     83  C   UNL     1       5.423  17.920 -10.172  1.00  0.00     0.023 A 
ATOM     84  C   UNL     1       5.449  18.042 -11.569  1.00  0.00     0.031 A 
ATOM     85  C   UNL     1       5.342  19.148  -9.465  1.00  0.00     0.131 A 
ATOM     86  C   UNL     1       5.486  19.301 -12.200  1.00  0.00     0.055 A 
ATOM     87  C   UNL     1       5.298  20.397 -10.095  1.00  0.00     0.041 A 
ATOM     88  F   UNL     1       5.290  19.195  -8.126  1.00  0.00    -0.206 F 
ATOM     89  C   UNL     1       5.389  20.482 -11.473  1.00  0.00     0.022 A 
BRANCH  86  90
ATOM     90  S   UNL     1       5.730  19.354 -13.996  1.00  0.00     0.124 S 
ATOM     91  O   UNL     1       7.048  18.742 -14.138  1.00  0.00    -0.237 OA
ATOM     92  O   UNL     1       4.608  18.561 -14.488  1.00  0.00    -0.237 OA
ATOM     93  O   UNL     1       5.671  20.779 -14.312  1.00  0.00    -0.744 OA
ENDBRANCH  86  90
ENDBRANCH  60  83
ENDBRANCH  34  35
ENDBRANCH  26  29
ENDBRANCH  24  25
ENDBRANCH  23  24
ENDBRANCH   1  23
TORSDOF 17
