REMARK SMILES CC(C)c1nc(OCC(=O)NCCCNC(=O)c2ccc(-c3c4nc(c(-c5cc(S(=O)(=O)[O-])ccc5F)c5ccc([nH]5)c(-c5cc(S(=O)(=O)[O-])ccc5F)c5nc(c(-c6cc(S(=O)(=O)[O-])ccc6F)c6ccc3[nH]6)C=C5)C=C4)cc2)cc(-c2ccccn2)n1
REMARK SMILES IDX 13 1 12 2 11 3 9 4 10 5 8 7 7 8 6 9 4 10 5 11 89 12 82 13
REMARK SMILES IDX 81 14 2 15 1 16 3 17 83 18 84 19 88 20 85 21 87 22 86 23
REMARK SMILES IDX 14 24 15 25 16 26 17 28 18 29 19 30 80 31 20 32 79 33 21 34
REMARK SMILES IDX 22 35 23 36 73 37 24 38 78 39 72 40 74 41 25 42 77 43 71 44
REMARK SMILES IDX 70 45 26 47 58 48 38 49 57 50 39 51 42 52 56 53 75 54 40 55
REMARK SMILES IDX 41 56 55 58 76 59 43 60 27 61 28 62 36 63 29 64 35 65 37 66
REMARK SMILES IDX 34 67 30 68 31 69 32 70 33 71 59 72 60 73 68 74 61 75 67 76
REMARK SMILES IDX 69 77 66 78 62 79 63 80 64 81 65 82 44 83 45 84 53 85 46 86
REMARK SMILES IDX 52 87 54 88 51 89 47 90 48 91 49 92 50 93
REMARK H PARENT 11 6 15 27 74 46 42 57
REMARK Flexibility Score: inf
ROOT
ATOM      1  C   UNL     1      -3.166  -4.178   2.246  1.00  0.00     0.042 C 
ENDROOT
BRANCH   1   2
ATOM      2  C   UNL     1      -4.464  -4.604   1.569  1.00  0.00     0.117 C 
BRANCH   2   3
ATOM      3  N   UNL     1      -5.367  -3.489   1.345  1.00  0.00    -0.353 N 
ATOM      4  C   UNL     1      -5.692  -2.891   0.165  1.00  0.00     0.258 C 
ATOM      5  O   UNL     1      -6.487  -1.948   0.172  1.00  0.00    -0.271 OA
ATOM      6  H   UNL     1      -5.800  -3.118   2.148  1.00  0.00     0.163 HD
BRANCH   4   7
ATOM      7  C   UNL     1      -5.081  -3.409  -1.143  1.00  0.00     0.331 C 
BRANCH   7   8
ATOM      8  O   UNL     1      -3.670  -3.341  -1.246  1.00  0.00    -0.467 OA
BRANCH   8   9
ATOM      9  C   UNL     1      -3.087  -2.106  -1.243  1.00  0.00     0.217 A 
ATOM     10  C   UNL     1      -1.071  -1.006  -1.089  1.00  0.00     0.135 A 
ATOM     11  N   UNL     1      -1.752  -2.167  -1.136  1.00  0.00    -0.198 NA
ATOM     12  N   UNL     1      -1.657   0.203  -1.130  1.00  0.00    -0.231 NA
ATOM     13  C   UNL     1      -3.002   0.234  -1.231  1.00  0.00     0.096 A 
ATOM     14  C   UNL     1      -3.761  -0.914  -1.323  1.00  0.00     0.099 A 
BRANCH  10  15
ATOM     15  C   UNL     1       0.447  -1.050  -1.064  1.00  0.00     0.051 C 
ATOM     16  C   UNL     1       1.019  -0.073  -0.032  1.00  0.00     0.016 C 
ATOM     17  C   UNL     1       1.007  -2.453  -0.797  1.00  0.00     0.016 C 
ENDBRANCH  10  15
BRANCH  13  18
ATOM     18  C   UNL     1      -3.661   1.546  -1.180  1.00  0.00     0.089 A 
ATOM     19  C   UNL     1      -4.517   1.875  -0.125  1.00  0.00     0.030 A 
ATOM     20  N   UNL     1      -3.473   2.372  -2.241  1.00  0.00    -0.255 NA
ATOM     21  C   UNL     1      -5.199   3.087  -0.155  1.00  0.00     0.004 A 
ATOM     22  C   UNL     1      -4.137   3.549  -2.234  1.00  0.00     0.112 A 
ATOM     23  C   UNL     1      -5.006   3.943  -1.231  1.00  0.00     0.020 A 
ENDBRANCH  13  18
ENDBRANCH   8   9
ENDBRANCH   7   8
ENDBRANCH   4   7
ENDBRANCH   2   3
ENDBRANCH   1   2
BRANCH   1  24
ATOM     24  C   UNL     1      -3.347  -3.558   3.629  1.00  0.00     0.118 C 
BRANCH  24  25
ATOM     25  N   UNL     1      -3.999  -4.454   4.575  1.00  0.00    -0.352 N 
ATOM     26  C   UNL     1      -3.568  -4.935   5.787  1.00  0.00     0.251 C 
ATOM     27  H   UNL     1      -4.893  -4.764   4.302  1.00  0.00     0.163 HD
ATOM     28  O   UNL     1      -4.213  -5.829   6.335  1.00  0.00    -0.269 OA
BRANCH  26  29
ATOM     29  C   UNL     1      -2.337  -4.412   6.418  1.00  0.00     0.039 A 
ATOM     30  C   UNL     1      -1.470  -5.308   7.051  1.00  0.00     0.014 A 
ATOM     31  C   UNL     1      -2.041  -3.047   6.410  1.00  0.00     0.014 A 
ATOM     32  C   UNL     1      -0.277  -4.843   7.611  1.00  0.00     0.010 A 
ATOM     33  C   UNL     1      -0.814  -2.598   6.892  1.00  0.00     0.010 A 
ATOM     34  C   UNL     1       0.082  -3.490   7.501  1.00  0.00    -0.014 A 
BRANCH  34  35
ATOM     35  C   UNL     1       1.384  -2.990   8.020  1.00  0.00     0.031 A 
ATOM     36  C   UNL     1       1.419  -1.963   9.119  1.00  0.00     0.074 A 
ATOM     37  C   UNL     1       2.534  -3.416   7.462  1.00  0.00     0.049 A 
ATOM     38  N   UNL     1       2.448  -1.360   9.659  1.00  0.00    -0.248 NA
ATOM     39  C   UNL     1       0.121  -1.537   9.658  1.00  0.00     0.031 C 
ATOM     40  C   UNL     1       2.633  -4.387   6.371  1.00  0.00     0.029 A 
ATOM     41  N   UNL     1       3.838  -3.090   7.735  1.00  0.00    -0.354 N 
ATOM     42  C   UNL     1       1.920  -0.478  10.598  1.00  0.00     0.074 A 
ATOM     43  C   UNL     1       0.479  -0.571  10.488  1.00  0.00     0.031 C 
ATOM     44  C   UNL     1       3.929  -4.609   6.097  1.00  0.00     0.029 A 
ATOM     45  C   UNL     1       4.751  -3.757   6.951  1.00  0.00     0.049 A 
ATOM     46  H   UNL     1       4.097  -2.439   8.427  1.00  0.00     0.167 HD
ATOM     47  C   UNL     1       2.574   0.311  11.488  1.00  0.00     0.034 A 
ATOM     48  C   UNL     1       6.096  -3.687   6.918  1.00  0.00     0.034 A 
ATOM     49  C   UNL     1       4.013   0.399  11.575  1.00  0.00     0.049 A 
ATOM     50  C   UNL     1       6.803  -2.751   7.865  1.00  0.00     0.074 A 
ATOM     51  C   UNL     1       4.781   1.139  12.458  1.00  0.00     0.029 A 
ATOM     52  N   UNL     1       4.904  -0.264  10.739  1.00  0.00    -0.354 N 
ATOM     53  N   UNL     1       6.293  -1.953   8.775  1.00  0.00    -0.248 NA
ATOM     54  C   UNL     1       8.268  -2.714   7.783  1.00  0.00     0.031 C 
ATOM     55  C   UNL     1       6.127   0.988  12.104  1.00  0.00     0.029 A 
ATOM     56  C   UNL     1       6.210   0.080  11.060  1.00  0.00     0.049 A 
ATOM     57  H   UNL     1       4.646  -0.887  10.022  1.00  0.00     0.167 HD
ATOM     58  C   UNL     1       7.381  -1.348   9.400  1.00  0.00     0.074 A 
ATOM     59  C   UNL     1       8.570  -1.881   8.768  1.00  0.00     0.031 C 
ATOM     60  C   UNL     1       7.393  -0.443  10.413  1.00  0.00     0.034 A 
BRANCH  47  61
ATOM     61  C   UNL     1       1.722   1.161  12.407  1.00  0.00     0.023 A 
ATOM     62  C   UNL     1       0.783   0.584  13.281  1.00  0.00     0.031 A 
ATOM     63  C   UNL     1       1.797   2.564  12.363  1.00  0.00     0.131 A 
ATOM     64  C   UNL     1      -0.118   1.400  13.982  1.00  0.00     0.055 A 
ATOM     65  C   UNL     1       0.967   3.372  13.146  1.00  0.00     0.041 A 
ATOM     66  F   UNL     1       2.658   3.180  11.537  1.00  0.00    -0.206 F 
ATOM     67  C   UNL     1      -0.014   2.791  13.943  1.00  0.00     0.022 A 
BRANCH  64  68
ATOM     68  S   UNL     1      -1.551   0.616  14.773  1.00  0.00     0.124 S 
ATOM     69  O   UNL     1      -2.158  -0.091  13.648  1.00  0.00    -0.237 OA
ATOM     70  O   UNL     1      -0.930  -0.219  15.794  1.00  0.00    -0.237 OA
ATOM     71  O   UNL     1      -2.326   1.748  15.277  1.00  0.00    -0.744 OA
ENDBRANCH  64  68
ENDBRANCH  47  61
BRANCH  48  72
ATOM     72  C   UNL     1       6.869  -4.535   5.966  1.00  0.00     0.023 A 
ATOM     73  C   UNL     1       7.730  -5.538   6.436  1.00  0.00     0.031 A 
ATOM     74  C   UNL     1       6.776  -4.342   4.576  1.00  0.00     0.131 A 
ATOM     75  C   UNL     1       8.494  -6.287   5.528  1.00  0.00     0.055 A 
ATOM     76  C   UNL     1       7.497  -5.125   3.674  1.00  0.00     0.041 A 
ATOM     77  F   UNL     1       5.964  -3.398   4.074  1.00  0.00    -0.206 F 
ATOM     78  C   UNL     1       8.371  -6.098   4.149  1.00  0.00     0.022 A 
BRANCH  75  79
ATOM     79  S   UNL     1       9.706  -7.468   6.179  1.00  0.00     0.124 S 
ATOM     80  O   UNL     1      10.582  -6.597   6.954  1.00  0.00    -0.237 OA
ATOM     81  O   UNL     1       8.861  -8.377   6.947  1.00  0.00    -0.237 OA
ATOM     82  O   UNL     1      10.302  -8.043   4.975  1.00  0.00    -0.744 OA
ENDBRANCH  75  79
ENDBRANCH  48  72
BRANCH  60  83
ATOM     83  C   UNL     1       8.745  -0.011  10.935  1.00  0.00     0.023 A 
ATOM     84  C   UNL     1       9.655   0.710  10.142  1.00  0.00     0.031 A 
ATOM     85  C   UNL     1       9.133  -0.343  12.246  1.00  0.00     0.131 A 
ATOM     86  C   UNL     1      10.928   1.022  10.646  1.00  0.00     0.055 A 
ATOM     87  C   UNL     1      10.373   0.030  12.765  1.00  0.00     0.041 A 
ATOM     88  F   UNL     1       8.309  -1.037  13.048  1.00  0.00    -0.206 F 
ATOM     89  C   UNL     1      11.285   0.704  11.959  1.00  0.00     0.022 A 
BRANCH  86  90
ATOM     90  S   UNL     1      12.154   1.755   9.526  1.00  0.00     0.124 S 
ATOM     91  O   UNL     1      12.228   0.757   8.464  1.00  0.00    -0.237 OA
ATOM     92  O   UNL     1      11.529   3.024   9.167  1.00  0.00    -0.237 OA
ATOM     93  O   UNL     1      13.352   1.867  10.356  1.00  0.00    -0.744 OA
ENDBRANCH  86  90
ENDBRANCH  60  83
ENDBRANCH  34  35
ENDBRANCH  26  29
ENDBRANCH  24  25
ENDBRANCH   1  24
TORSDOF 17
