REMARK SMILES O=C(NCCCNC(=O)c1ccc2nc(-c3c[nH]nc3-c3ccc(F)cc3F)[nH]c2c1)c1ccc(-c2c3nc(c(-c4cc(S(=O)(=O)[O-])ccc4F)c4ccc([nH]4)c(-c4cc(S(=O)(=O)[O-])ccc4F)c4nc(c(-c5cc(S(=O)(=O)[O-])ccc5F)c5ccc2[nH]5)C=C4)C=C3)cc1
REMARK SMILES IDX 4 1 3 2 1 3 2 4 32 6 33 7 94 8 34 9 93 10 35 11 36 12 37 13
REMARK SMILES IDX 87 14 38 15 92 16 86 17 88 18 39 19 91 20 85 21 84 22 40 24
REMARK SMILES IDX 72 25 52 26 71 27 53 28 56 29 70 30 89 31 54 32 55 33 69 35
REMARK SMILES IDX 90 36 57 37 41 38 42 39 50 40 43 41 49 42 51 43 48 44 44 45
REMARK SMILES IDX 45 46 46 47 47 48 73 49 74 50 82 51 75 52 81 53 83 54 80 55
REMARK SMILES IDX 76 56 77 57 78 58 79 59 58 60 59 61 67 62 60 63 66 64 68 65
REMARK SMILES IDX 65 66 61 67 62 68 63 69 64 70 5 71 6 72 7 73 8 74 9 76 10 77
REMARK SMILES IDX 11 78 31 79 12 80 30 81 13 82 29 83 14 84 15 85 16 87 17 88
REMARK SMILES IDX 20 89 18 90 19 91 21 93 22 94 27 95 23 96 26 97 28 98 24 99
REMARK SMILES IDX 25 100
REMARK H PARENT 3 5 88 23 56 34 7 75 29 86 18 92
REMARK Flexibility Score: inf
ROOT
ATOM      1  C   UNL     1       4.467   0.420  -1.349  1.00  0.00     0.118 C 
ENDROOT
BRANCH   1   2
ATOM      2  N   UNL     1       3.037   0.499  -1.074  1.00  0.00    -0.352 N 
ATOM      3  O   UNL     1       1.100   0.108   0.004  1.00  0.00    -0.269 OA
ATOM      4  C   UNL     1       2.328   0.117   0.041  1.00  0.00     0.251 C 
ATOM      5  H   UNL     1       2.494   0.885  -1.799  1.00  0.00     0.163 HD
BRANCH   4   6
ATOM      6  C   UNL     1       3.039  -0.298   1.270  1.00  0.00     0.039 A 
ATOM      7  C   UNL     1       4.165   0.398   1.706  1.00  0.00     0.014 A 
ATOM      8  C   UNL     1       2.569  -1.393   2.002  1.00  0.00     0.014 A 
ATOM      9  C   UNL     1       4.922  -0.102   2.757  1.00  0.00     0.010 A 
ATOM     10  C   UNL     1       3.271  -1.827   3.133  1.00  0.00     0.010 A 
ATOM     11  C   UNL     1       4.474  -1.206   3.500  1.00  0.00    -0.014 A 
BRANCH  11  12
ATOM     12  C   UNL     1       5.266  -1.640   4.681  1.00  0.00     0.031 A 
ATOM     13  C   UNL     1       5.908  -2.999   4.737  1.00  0.00     0.074 A 
ATOM     14  C   UNL     1       5.455  -0.758   5.684  1.00  0.00     0.049 A 
ATOM     15  N   UNL     1       6.665  -3.514   5.674  1.00  0.00    -0.248 NA
ATOM     16  C   UNL     1       5.663  -3.901   3.603  1.00  0.00     0.031 C 
ATOM     17  C   UNL     1       4.871   0.587   5.739  1.00  0.00     0.029 A 
ATOM     18  N   UNL     1       6.207  -0.836   6.827  1.00  0.00    -0.354 N 
ATOM     19  C   UNL     1       6.982  -4.800   5.248  1.00  0.00     0.074 A 
ATOM     20  C   UNL     1       6.299  -5.000   3.987  1.00  0.00     0.031 C 
ATOM     21  C   UNL     1       5.335   1.225   6.822  1.00  0.00     0.029 A 
ATOM     22  C   UNL     1       6.183   0.315   7.580  1.00  0.00     0.049 A 
ATOM     23  H   UNL     1       6.714  -1.639   7.085  1.00  0.00     0.167 HD
ATOM     24  C   UNL     1       7.779  -5.720   5.849  1.00  0.00     0.034 A 
ATOM     25  C   UNL     1       6.762   0.605   8.761  1.00  0.00     0.034 A 
ATOM     26  C   UNL     1       8.448  -5.504   7.111  1.00  0.00     0.049 A 
ATOM     27  C   UNL     1       7.615  -0.446   9.419  1.00  0.00     0.074 A 
ATOM     28  C   UNL     1       9.270  -6.370   7.813  1.00  0.00     0.029 A 
ATOM     29  N   UNL     1       8.371  -4.338   7.864  1.00  0.00    -0.354 N 
ATOM     30  N   UNL     1       7.900  -1.657   9.000  1.00  0.00    -0.248 NA
ATOM     31  C   UNL     1       8.228  -0.088  10.702  1.00  0.00     0.031 C 
ATOM     32  C   UNL     1       9.644  -5.751   9.012  1.00  0.00     0.029 A 
ATOM     33  C   UNL     1       9.114  -4.471   9.029  1.00  0.00     0.049 A 
ATOM     34  H   UNL     1       7.864  -3.535   7.609  1.00  0.00     0.167 HD
ATOM     35  C   UNL     1       8.737  -2.202   9.967  1.00  0.00     0.074 A 
ATOM     36  C   UNL     1       8.937  -1.174  10.969  1.00  0.00     0.031 C 
ATOM     37  C   UNL     1       9.286  -3.442  10.027  1.00  0.00     0.034 A 
BRANCH  24  38
ATOM     38  C   UNL     1       7.939  -7.056   5.161  1.00  0.00     0.023 A 
ATOM     39  C   UNL     1       8.572  -7.171   3.910  1.00  0.00     0.031 A 
ATOM     40  C   UNL     1       7.442  -8.229   5.756  1.00  0.00     0.131 A 
ATOM     41  C   UNL     1       8.637  -8.417   3.268  1.00  0.00     0.055 A 
ATOM     42  C   UNL     1       7.575  -9.479   5.145  1.00  0.00     0.041 A 
ATOM     43  F   UNL     1       6.811  -8.181   6.939  1.00  0.00    -0.206 F 
ATOM     44  C   UNL     1       8.164  -9.576   3.888  1.00  0.00     0.022 A 
BRANCH  41  45
ATOM     45  S   UNL     1       9.237  -8.482   1.557  1.00  0.00     0.124 S 
ATOM     46  O   UNL     1       8.286  -7.606   0.876  1.00  0.00    -0.237 OA
ATOM     47  O   UNL     1      10.598  -7.973   1.679  1.00  0.00    -0.237 OA
ATOM     48  O   UNL     1       9.129  -9.897   1.209  1.00  0.00    -0.744 OA
ENDBRANCH  41  45
ENDBRANCH  24  38
BRANCH  25  49
ATOM     49  C   UNL     1       6.521   1.923   9.414  1.00  0.00     0.023 A 
ATOM     50  C   UNL     1       7.571   2.820   9.655  1.00  0.00     0.031 A 
ATOM     51  C   UNL     1       5.230   2.289   9.838  1.00  0.00     0.131 A 
ATOM     52  C   UNL     1       7.322   4.018  10.344  1.00  0.00     0.055 A 
ATOM     53  C   UNL     1       4.976   3.507  10.467  1.00  0.00     0.041 A 
ATOM     54  F   UNL     1       4.187   1.469   9.627  1.00  0.00    -0.206 F 
ATOM     55  C   UNL     1       6.030   4.374  10.738  1.00  0.00     0.022 A 
BRANCH  52  56
ATOM     56  S   UNL     1       8.731   5.062  10.806  1.00  0.00     0.124 S 
ATOM     57  O   UNL     1       9.570   4.123  11.542  1.00  0.00    -0.237 OA
ATOM     58  O   UNL     1       9.232   5.485   9.503  1.00  0.00    -0.237 OA
ATOM     59  O   UNL     1       8.121   6.118  11.611  1.00  0.00    -0.744 OA
ENDBRANCH  52  56
ENDBRANCH  25  49
BRANCH  37  60
ATOM     60  C   UNL     1      10.178  -3.725  11.211  1.00  0.00     0.023 A 
ATOM     61  C   UNL     1       9.665  -3.784  12.519  1.00  0.00     0.031 A 
ATOM     62  C   UNL     1      11.561  -3.892  11.032  1.00  0.00     0.131 A 
ATOM     63  C   UNL     1      10.540  -3.934  13.605  1.00  0.00     0.055 A 
ATOM     64  C   UNL     1      12.420  -4.103  12.111  1.00  0.00     0.041 A 
ATOM     65  F   UNL     1      12.103  -3.842   9.804  1.00  0.00    -0.206 F 
ATOM     66  C   UNL     1      11.913  -4.109  13.408  1.00  0.00     0.022 A 
BRANCH  63  67
ATOM     67  S   UNL     1       9.873  -3.791  15.285  1.00  0.00     0.124 S 
ATOM     68  O   UNL     1       9.276  -2.459  15.262  1.00  0.00    -0.237 OA
ATOM     69  O   UNL     1       8.937  -4.908  15.345  1.00  0.00    -0.237 OA
ATOM     70  O   UNL     1      11.054  -3.926  16.136  1.00  0.00    -0.744 OA
ENDBRANCH  63  67
ENDBRANCH  37  60
ENDBRANCH  11  12
ENDBRANCH   4   6
ENDBRANCH   1   2
BRANCH   1  71
ATOM     71  C   UNL     1       4.800  -0.536  -2.485  1.00  0.00     0.042 C 
BRANCH  71  72
ATOM     72  C   UNL     1       4.243  -0.104  -3.833  1.00  0.00     0.118 C 
BRANCH  72  73
ATOM     73  N   UNL     1       4.789   1.177  -4.258  1.00  0.00    -0.352 N 
ATOM     74  C   UNL     1       5.672   1.441  -5.271  1.00  0.00     0.251 C 
ATOM     75  H   UNL     1       4.482   1.960  -3.748  1.00  0.00     0.163 HD
ATOM     76  O   UNL     1       6.212   2.539  -5.363  1.00  0.00    -0.269 OA
BRANCH  74  77
ATOM     77  C   UNL     1       5.954   0.404  -6.280  1.00  0.00     0.042 A 
ATOM     78  C   UNL     1       4.889  -0.174  -6.986  1.00  0.00     0.016 A 
ATOM     79  C   UNL     1       7.293   0.082  -6.554  1.00  0.00     0.042 A 
ATOM     80  C   UNL     1       5.132  -1.101  -8.000  1.00  0.00     0.031 A 
ATOM     81  C   UNL     1       7.500  -0.852  -7.570  1.00  0.00     0.067 A 
ATOM     82  C   UNL     1       6.462  -1.407  -8.311  1.00  0.00     0.089 A 
ATOM     83  N   UNL     1       8.632  -1.424  -8.101  1.00  0.00    -0.338 N 
ATOM     84  N   UNL     1       6.947  -2.173  -9.329  1.00  0.00    -0.228 NA
ATOM     85  C   UNL     1       8.257  -2.139  -9.209  1.00  0.00     0.142 A 
ATOM     86  H   UNL     1       9.548  -1.336  -7.748  1.00  0.00     0.168 HD
BRANCH  85  87
ATOM     87  C   UNL     1       9.168  -2.729 -10.212  1.00  0.00     0.063 A 
ATOM     88  C   UNL     1      10.436  -3.209 -10.006  1.00  0.00     0.117 A 
ATOM     89  C   UNL     1       8.911  -2.883 -11.605  1.00  0.00     0.106 A 
ATOM     90  N   UNL     1      10.827  -3.708 -11.216  1.00  0.00    -0.284 N 
ATOM     91  N   UNL     1       9.956  -3.471 -12.212  1.00  0.00    -0.175 NA
ATOM     92  H   UNL     1      11.671  -4.197 -11.347  1.00  0.00     0.189 HD
BRANCH  89  93
ATOM     93  C   UNL     1       7.782  -2.345 -12.357  1.00  0.00     0.039 A 
ATOM     94  C   UNL     1       7.492  -0.970 -12.274  1.00  0.00     0.016 A 
ATOM     95  C   UNL     1       6.959  -3.159 -13.138  1.00  0.00     0.135 A 
ATOM     96  C   UNL     1       6.392  -0.433 -12.944  1.00  0.00     0.040 A 
ATOM     97  C   UNL     1       5.863  -2.627 -13.816  1.00  0.00     0.079 A 
ATOM     98  F   UNL     1       7.186  -4.478 -13.238  1.00  0.00    -0.206 F 
ATOM     99  C   UNL     1       5.589  -1.269 -13.709  1.00  0.00     0.126 A 
ATOM    100  F   UNL     1       4.532  -0.755 -14.352  1.00  0.00    -0.207 F 
ENDBRANCH  89  93
ENDBRANCH  85  87
ENDBRANCH  74  77
ENDBRANCH  72  73
ENDBRANCH  71  72
ENDBRANCH   1  71
TORSDOF 15
