REMARK SMILES CCOC(=O)c1cccc(Nc2c(-c3ccc(C(=O)NCCCNC(=O)c4ccc(-c5c6nc(c(-c7cc(S(=O)(=O)[O-])ccc7F)c7ccc([nH]7)c(-c7cc(S(=O)(=O)[O-])ccc7F)c7nc(c(-c8cc(S(=O)(=O)[O-])ccc8F)c8ccc5[nH]8)C=C7)C=C6)cc4)cc3)nc3cnccn23)c1
REMARK SMILES IDX 18 1 19 2 20 3 17 5 14 6 15 7 91 8 16 9 90 10 13 11 12 12
REMARK SMILES IDX 98 13 92 14 93 15 97 16 94 17 96 18 95 19 11 20 10 22 6 23
REMARK SMILES IDX 7 24 99 25 8 26 9 27 4 28 5 29 3 30 2 31 1 32 21 33 22 34
REMARK SMILES IDX 23 35 24 36 25 37 26 39 27 40 28 41 89 42 29 43 88 44 30 45
REMARK SMILES IDX 31 46 32 47 82 48 33 49 87 50 81 51 83 52 34 53 86 54 80 55
REMARK SMILES IDX 79 56 35 58 67 59 47 60 66 61 48 62 51 63 65 64 84 65 49 66
REMARK SMILES IDX 50 67 64 69 85 70 52 71 36 72 37 73 45 74 38 75 44 76 46 77
REMARK SMILES IDX 43 78 39 79 40 80 41 81 42 82 68 83 69 84 77 85 70 86 76 87
REMARK SMILES IDX 78 88 75 89 71 90 72 91 73 92 74 93 53 94 54 95 62 96 55 97
REMARK SMILES IDX 61 98 63 99 60 100 56 101 57 102 58 103 59 104
REMARK H PARENT 20 4 11 21 24 38 83 57 51 68
REMARK Flexibility Score: inf
ROOT
ATOM      1  C   UNL     1       4.081   1.236 -11.700  1.00  0.00     0.251 C 
ATOM      2  O   UNL     1       4.677   2.127 -11.094  1.00  0.00    -0.269 OA
ATOM      3  N   UNL     1       3.720   1.473 -13.002  1.00  0.00    -0.352 N 
ATOM      4  H   UNL     1       3.904   2.390 -13.310  1.00  0.00     0.163 HD
ENDROOT
BRANCH   1   5
ATOM      5  C   UNL     1       3.828  -0.057 -11.009  1.00  0.00     0.039 A 
ATOM      6  C   UNL     1       3.500  -2.486  -9.632  1.00  0.00     0.004 A 
ATOM      7  C   UNL     1       4.581  -1.655  -9.330  1.00  0.00     0.011 A 
ATOM      8  C   UNL     1       2.568  -2.089 -10.592  1.00  0.00     0.011 A 
ATOM      9  C   UNL     1       4.744  -0.449 -10.020  1.00  0.00     0.014 A 
ATOM     10  C   UNL     1       2.716  -0.868 -11.253  1.00  0.00     0.014 A 
BRANCH   6  11
ATOM     11  C   UNL     1       3.325  -3.753  -8.965  1.00  0.00     0.114 A 
ATOM     12  C   UNL     1       2.874  -3.916  -7.661  1.00  0.00     0.143 A 
ATOM     13  N   UNL     1       2.771  -5.287  -7.516  1.00  0.00    -0.283 N 
ATOM     14  N   UNL     1       3.585  -4.955  -9.580  1.00  0.00    -0.225 NA
ATOM     15  C   UNL     1       3.251  -5.846  -8.676  1.00  0.00     0.157 A 
ATOM     16  C   UNL     1       2.277  -6.110  -6.516  1.00  0.00     0.115 A 
ATOM     17  C   UNL     1       3.287  -7.277  -8.786  1.00  0.00     0.158 A 
ATOM     18  C   UNL     1       2.329  -7.441  -6.699  1.00  0.00     0.129 A 
ATOM     19  N   UNL     1       2.852  -8.054  -7.828  1.00  0.00    -0.259 NA
BRANCH  12  20
ATOM     20  N   UNL     1       2.488  -3.006  -6.724  1.00  0.00    -0.339 N 
ATOM     21  H   UNL     1       1.766  -2.386  -6.978  1.00  0.00     0.168 HD
BRANCH  20  22
ATOM     22  C   UNL     1       3.021  -2.865  -5.420  1.00  0.00     0.040 A 
ATOM     23  C   UNL     1       2.994  -1.705  -3.281  1.00  0.00     0.062 A 
ATOM     24  C   UNL     1       4.054  -2.490  -2.821  1.00  0.00     0.016 A 
ATOM     25  C   UNL     1       2.465  -1.901  -4.563  1.00  0.00     0.041 A 
ATOM     26  C   UNL     1       4.579  -3.481  -3.643  1.00  0.00     0.003 A 
ATOM     27  C   UNL     1       4.069  -3.662  -4.931  1.00  0.00     0.026 A 
BRANCH  23  28
ATOM     28  C   UNL     1       2.511  -0.620  -2.406  1.00  0.00     0.338 C 
ATOM     29  O   UNL     1       3.259   0.139  -1.814  1.00  0.00    -0.246 OA
BRANCH  28  30
ATOM     30  O   UNL     1       1.161  -0.678  -2.313  1.00  0.00    -0.462 OA
BRANCH  30  31
ATOM     31  C   UNL     1       0.571   0.291  -1.431  1.00  0.00     0.230 C 
ATOM     32  C   UNL     1       0.764  -0.093   0.028  1.00  0.00     0.049 C 
ENDBRANCH  30  31
ENDBRANCH  28  30
ENDBRANCH  23  28
ENDBRANCH  20  22
ENDBRANCH  12  20
ENDBRANCH   6  11
ENDBRANCH   1   5
BRANCH   3  33
ATOM     33  C   UNL     1       3.118   0.619 -14.012  1.00  0.00     0.118 C 
BRANCH  33  34
ATOM     34  C   UNL     1       1.629   0.922 -14.185  1.00  0.00     0.042 C 
BRANCH  34  35
ATOM     35  C   UNL     1       1.352   2.214 -14.949  1.00  0.00     0.118 C 
BRANCH  35  36
ATOM     36  N   UNL     1       1.684   2.090 -16.360  1.00  0.00    -0.352 N 
ATOM     37  C   UNL     1       0.898   2.277 -17.470  1.00  0.00     0.251 C 
ATOM     38  H   UNL     1       2.615   1.833 -16.548  1.00  0.00     0.163 HD
ATOM     39  O   UNL     1       1.312   1.890 -18.561  1.00  0.00    -0.269 OA
BRANCH  37  40
ATOM     40  C   UNL     1      -0.433   2.920 -17.367  1.00  0.00     0.039 A 
ATOM     41  C   UNL     1      -1.478   2.428 -18.157  1.00  0.00     0.014 A 
ATOM     42  C   UNL     1      -0.647   4.032 -16.547  1.00  0.00     0.014 A 
ATOM     43  C   UNL     1      -2.743   3.020 -18.091  1.00  0.00     0.010 A 
ATOM     44  C   UNL     1      -1.924   4.582 -16.436  1.00  0.00     0.010 A 
ATOM     45  C   UNL     1      -2.984   4.086 -17.211  1.00  0.00    -0.014 A 
BRANCH  45  46
ATOM     46  C   UNL     1      -4.334   4.699 -17.094  1.00  0.00     0.031 A 
ATOM     47  C   UNL     1      -4.554   6.130 -17.508  1.00  0.00     0.074 A 
ATOM     48  C   UNL     1      -5.342   3.988 -16.550  1.00  0.00     0.049 A 
ATOM     49  N   UNL     1      -5.629   6.867 -17.400  1.00  0.00    -0.248 NA
ATOM     50  C   UNL     1      -3.402   6.832 -18.095  1.00  0.00     0.031 C 
ATOM     51  C   UNL     1      -5.239   2.607 -16.073  1.00  0.00     0.029 A 
ATOM     52  N   UNL     1      -6.646   4.330 -16.288  1.00  0.00    -0.354 N 
ATOM     53  C   UNL     1      -5.278   8.126 -17.877  1.00  0.00     0.074 A 
ATOM     54  C   UNL     1      -3.878   8.060 -18.241  1.00  0.00     0.031 C 
ATOM     55  C   UNL     1      -6.428   2.220 -15.582  1.00  0.00     0.029 A 
ATOM     56  C   UNL     1      -7.367   3.334 -15.670  1.00  0.00     0.049 A 
ATOM     57  H   UNL     1      -7.029   5.207 -16.522  1.00  0.00     0.167 HD
ATOM     58  C   UNL     1      -6.056   9.229 -18.009  1.00  0.00     0.034 A 
ATOM     59  C   UNL     1      -8.633   3.325 -15.207  1.00  0.00     0.034 A 
ATOM     60  C   UNL     1      -7.458   9.268 -17.673  1.00  0.00     0.049 A 
ATOM     61  C   UNL     1      -9.480   4.560 -15.382  1.00  0.00     0.074 A 
ATOM     62  C   UNL     1      -8.359  10.303 -17.854  1.00  0.00     0.029 A 
ATOM     63  N   UNL     1      -8.163   8.229 -17.079  1.00  0.00    -0.354 N 
ATOM     64  N   UNL     1      -9.151   5.720 -15.904  1.00  0.00    -0.248 NA
ATOM     65  C   UNL     1     -10.872   4.482 -14.919  1.00  0.00     0.031 C 
ATOM     66  C   UNL     1      -9.589   9.916 -17.311  1.00  0.00     0.029 A 
ATOM     67  C   UNL     1      -9.477   8.612 -16.856  1.00  0.00     0.049 A 
ATOM     68  H   UNL     1      -7.785   7.350 -16.849  1.00  0.00     0.167 HD
ATOM     69  C   UNL     1     -10.306   6.496 -15.859  1.00  0.00     0.074 A 
ATOM     70  C   UNL     1     -11.341   5.669 -15.275  1.00  0.00     0.031 C 
ATOM     71  C   UNL     1     -10.496   7.777 -16.267  1.00  0.00     0.034 A 
BRANCH  58  72
ATOM     72  C   UNL     1      -5.402  10.495 -18.511  1.00  0.00     0.023 A 
ATOM     73  C   UNL     1      -4.875  10.597 -19.810  1.00  0.00     0.031 A 
ATOM     74  C   UNL     1      -5.309  11.620 -17.672  1.00  0.00     0.131 A 
ATOM     75  C   UNL     1      -4.226  11.775 -20.211  1.00  0.00     0.055 A 
ATOM     76  C   UNL     1      -4.726  12.814 -18.102  1.00  0.00     0.041 A 
ATOM     77  F   UNL     1      -5.778  11.576 -16.415  1.00  0.00    -0.206 F 
ATOM     78  C   UNL     1      -4.170  12.892 -19.375  1.00  0.00     0.022 A 
BRANCH  75  79
ATOM     79  S   UNL     1      -3.356  11.788 -21.803  1.00  0.00     0.124 S 
ATOM     80  O   UNL     1      -2.369  10.729 -21.607  1.00  0.00    -0.237 OA
ATOM     81  O   UNL     1      -4.426  11.496 -22.750  1.00  0.00    -0.237 OA
ATOM     82  O   UNL     1      -2.804  13.139 -21.881  1.00  0.00    -0.744 OA
ENDBRANCH  75  79
ENDBRANCH  58  72
BRANCH  59  83
ATOM     83  C   UNL     1      -9.178   2.122 -14.514  1.00  0.00     0.023 A 
ATOM     84  C   UNL     1     -10.252   1.398 -15.053  1.00  0.00     0.031 A 
ATOM     85  C   UNL     1      -8.666   1.713 -13.269  1.00  0.00     0.131 A 
ATOM     86  C   UNL     1     -10.817   0.337 -14.327  1.00  0.00     0.055 A 
ATOM     87  C   UNL     1      -9.195   0.622 -12.576  1.00  0.00     0.041 A 
ATOM     88  F   UNL     1      -7.635   2.366 -12.710  1.00  0.00    -0.206 F 
ATOM     89  C   UNL     1     -10.288  -0.062 -13.098  1.00  0.00     0.022 A 
BRANCH  86  90
ATOM     90  S   UNL     1     -12.321  -0.449 -14.967  1.00  0.00     0.124 S 
ATOM     91  O   UNL     1     -13.214   0.694 -15.115  1.00  0.00    -0.237 OA
ATOM     92  O   UNL     1     -11.840  -1.053 -16.205  1.00  0.00    -0.237 OA
ATOM     93  O   UNL     1     -12.684  -1.395 -13.914  1.00  0.00    -0.744 OA
ENDBRANCH  86  90
ENDBRANCH  59  83
BRANCH  71  94
ATOM     94  C   UNL     1     -11.890   8.337 -16.135  1.00  0.00     0.023 A 
ATOM     95  C   UNL     1     -12.473   8.582 -14.879  1.00  0.00     0.031 A 
ATOM     96  C   UNL     1     -12.650   8.615 -17.285  1.00  0.00     0.131 A 
ATOM     97  C   UNL     1     -13.798   9.038 -14.802  1.00  0.00     0.055 A 
ATOM     98  C   UNL     1     -13.947   9.125 -17.202  1.00  0.00     0.041 A 
ATOM     99  F   UNL     1     -12.142   8.398 -18.508  1.00  0.00    -0.206 F 
ATOM    100  C   UNL     1     -14.532   9.326 -15.956  1.00  0.00     0.022 A 
BRANCH  97 101
ATOM    101  S   UNL     1     -14.580   9.168 -13.171  1.00  0.00     0.124 S 
ATOM    102  O   UNL     1     -14.483   7.798 -12.677  1.00  0.00    -0.237 OA
ATOM    103  O   UNL     1     -13.737  10.150 -12.497  1.00  0.00    -0.237 OA
ATOM    104  O   UNL     1     -15.936   9.623 -13.476  1.00  0.00    -0.744 OA
ENDBRANCH  97 101
ENDBRANCH  71  94
ENDBRANCH  45  46
ENDBRANCH  37  40
ENDBRANCH  35  36
ENDBRANCH  34  35
ENDBRANCH  33  34
ENDBRANCH   3  33
TORSDOF 19
