REMARK SMILES [NH3+]C[C@H]1CC[C@@H](C(=O)NCc2ccc(C(=O)NCCCNC(=O)c3ccc(-c4c5nc(c(-c6cc(S(=O)(=O)[O-])ccc6F)c6ccc([nH]6)c(-c6cc(S(=O)(=O)[O-])ccc6F)c6nc(c(-c7cc(S(=O)(=O)[O-])ccc7F)c7ccc4[nH]7)C=C6)C=C5)cc3)cc2)CC1
REMARK SMILES IDX 18 1 17 2 15 3 16 4 14 6 11 7 12 8 88 9 13 10 87 11 10 12
REMARK SMILES IDX 9 13 7 14 8 15 6 17 3 18 4 19 90 20 5 21 89 22 2 23 1 24
REMARK SMILES IDX 19 28 20 29 21 30 22 31 23 33 24 34 25 35 86 36 26 37 85 38
REMARK SMILES IDX 27 39 28 40 29 41 79 42 30 43 84 44 78 45 80 46 31 47 83 48
REMARK SMILES IDX 77 49 76 50 32 52 64 53 44 54 63 55 45 56 48 57 62 58 81 59
REMARK SMILES IDX 46 60 47 61 61 63 82 64 49 65 33 66 34 67 42 68 35 69 41 70
REMARK SMILES IDX 43 71 40 72 36 73 37 74 38 75 39 76 65 77 66 78 74 79 67 80
REMARK SMILES IDX 73 81 75 82 72 83 68 84 69 85 70 86 71 87 50 88 51 89 59 90
REMARK SMILES IDX 52 91 58 92 60 93 57 94 53 95 54 96 55 97 56 98
REMARK H PARENT 17 5 9 16 1 25 1 26 1 27 21 32 80 51 48 62
REMARK Flexibility Score: inf
ROOT
ATOM      1  C   UNL     1      -2.335  -4.893   2.446  1.00  0.00     0.118 C 
ENDROOT
BRANCH   1   2
ATOM      2  N   UNL     1      -2.548  -4.425   3.803  1.00  0.00    -0.352 N 
ATOM      3  C   UNL     1      -2.650  -3.185   4.375  1.00  0.00     0.251 C 
ATOM      4  O   UNL     1      -2.886  -3.152   5.585  1.00  0.00    -0.269 OA
ATOM      5  H   UNL     1      -2.639  -5.159   4.453  1.00  0.00     0.163 HD
BRANCH   3   6
ATOM      6  C   UNL     1      -2.531  -1.895   3.634  1.00  0.00     0.039 A 
ATOM      7  C   UNL     1      -2.338   0.671   2.431  1.00  0.00    -0.029 A 
ATOM      8  C   UNL     1      -2.925   0.525   3.689  1.00  0.00     0.006 A 
ATOM      9  C   UNL     1      -1.899  -0.484   1.767  1.00  0.00     0.006 A 
ATOM     10  C   UNL     1      -3.028  -0.744   4.275  1.00  0.00     0.014 A 
ATOM     11  C   UNL     1      -1.930  -1.737   2.389  1.00  0.00     0.014 A 
BRANCH   7  12
ATOM     12  C   UNL     1      -2.099   2.000   1.764  1.00  0.00     0.151 C 
BRANCH  12  13
ATOM     13  N   UNL     1      -2.177   3.156   2.621  1.00  0.00    -0.352 N 
ATOM     14  C   UNL     1      -1.257   3.954   3.206  1.00  0.00     0.223 C 
ATOM     15  O   UNL     1      -1.719   4.971   3.745  1.00  0.00    -0.275 OA
ATOM     16  H   UNL     1      -3.103   3.422   2.825  1.00  0.00     0.163 HD
BRANCH  14  17
ATOM     17  C   UNL     1       0.260   3.710   3.269  1.00  0.00     0.078 C 
ATOM     18  C   UNL     1       1.849   1.418   2.088  1.00  0.00     0.044 C 
ATOM     19  C   UNL     1       1.419   2.609   1.220  1.00  0.00     0.010 C 
ATOM     20  C   UNL     1       1.034   1.259   3.381  1.00  0.00     0.010 C 
ATOM     21  C   UNL     1       1.059   3.880   1.980  1.00  0.00     0.014 C 
ATOM     22  C   UNL     1       0.717   2.540   4.131  1.00  0.00     0.014 C 
BRANCH  18  23
ATOM     23  C   UNL     1       1.776   0.079   1.313  1.00  0.00     0.262 C 
BRANCH  23  24
ATOM     24  N   UNL     1       2.387   0.086  -0.007  1.00  0.00    -0.357 N 
ATOM     25  H   UNL     1       2.287  -0.835  -0.433  1.00  0.00     0.344 HD
ATOM     26  H   UNL     1       3.377   0.316   0.078  1.00  0.00     0.344 HD
ATOM     27  H   UNL     1       1.925   0.783  -0.592  1.00  0.00     0.344 HD
ENDBRANCH  23  24
ENDBRANCH  18  23
ENDBRANCH  14  17
ENDBRANCH  12  13
ENDBRANCH   7  12
ENDBRANCH   3   6
ENDBRANCH   1   2
BRANCH   1  28
ATOM     28  C   UNL     1      -0.898  -5.380   2.250  1.00  0.00     0.042 C 
BRANCH  28  29
ATOM     29  C   UNL     1      -0.694  -6.815   2.737  1.00  0.00     0.118 C 
BRANCH  29  30
ATOM     30  N   UNL     1      -1.423  -7.765   1.906  1.00  0.00    -0.352 N 
ATOM     31  C   UNL     1      -0.991  -8.900   1.270  1.00  0.00     0.251 C 
ATOM     32  H   UNL     1      -2.377  -7.558   1.782  1.00  0.00     0.163 HD
ATOM     33  O   UNL     1      -1.710  -9.410   0.416  1.00  0.00    -0.269 OA
BRANCH  31  34
ATOM     34  C   UNL     1       0.320  -9.499   1.598  1.00  0.00     0.039 A 
ATOM     35  C   UNL     1       1.081 -10.050   0.563  1.00  0.00     0.014 A 
ATOM     36  C   UNL     1       0.774  -9.574   2.918  1.00  0.00     0.014 A 
ATOM     37  C   UNL     1       2.316 -10.637   0.845  1.00  0.00     0.010 A 
ATOM     38  C   UNL     1       2.035 -10.100   3.189  1.00  0.00     0.010 A 
ATOM     39  C   UNL     1       2.814 -10.644   2.157  1.00  0.00    -0.014 A 
BRANCH  39  40
ATOM     40  C   UNL     1       4.148 -11.218   2.464  1.00  0.00     0.031 A 
ATOM     41  C   UNL     1       4.268 -12.427   3.350  1.00  0.00     0.074 A 
ATOM     42  C   UNL     1       5.253 -10.602   2.001  1.00  0.00     0.049 A 
ATOM     43  N   UNL     1       5.343 -13.031   3.788  1.00  0.00    -0.248 NA
ATOM     44  C   UNL     1       3.010 -13.011   3.836  1.00  0.00     0.031 C 
ATOM     45  C   UNL     1       5.257  -9.387   1.183  1.00  0.00     0.029 A 
ATOM     46  N   UNL     1       6.582 -10.897   2.166  1.00  0.00    -0.354 N 
ATOM     47  C   UNL     1       4.893 -14.053   4.618  1.00  0.00     0.074 A 
ATOM     48  C   UNL     1       3.450 -13.944   4.666  1.00  0.00     0.031 C 
ATOM     49  C   UNL     1       6.526  -9.047   0.910  1.00  0.00     0.029 A 
ATOM     50  C   UNL     1       7.425  -9.991   1.566  1.00  0.00     0.049 A 
ATOM     51  H   UNL     1       6.902 -11.682   2.666  1.00  0.00     0.167 HD
ATOM     52  C   UNL     1       5.617 -15.002   5.264  1.00  0.00     0.034 A 
ATOM     53  C   UNL     1       8.770  -9.917   1.560  1.00  0.00     0.034 A 
ATOM     54  C   UNL     1       7.057 -15.092   5.189  1.00  0.00     0.049 A 
ATOM     55  C   UNL     1       9.557 -10.983   2.274  1.00  0.00     0.074 A 
ATOM     56  C   UNL     1       7.890 -16.058   5.727  1.00  0.00     0.029 A 
ATOM     57  N   UNL     1       7.881 -14.171   4.551  1.00  0.00    -0.354 N 
ATOM     58  N   UNL     1       9.118 -11.993   2.989  1.00  0.00    -0.248 NA
ATOM     59  C   UNL     1      11.018 -10.908   2.167  1.00  0.00     0.031 C 
ATOM     60  C   UNL     1       9.216 -15.681   5.480  1.00  0.00     0.029 A 
ATOM     61  C   UNL     1       9.213 -14.524   4.717  1.00  0.00     0.049 A 
ATOM     62  H   UNL     1       7.565 -13.383   4.053  1.00  0.00     0.167 HD
ATOM     63  C   UNL     1      10.251 -12.686   3.403  1.00  0.00     0.074 A 
ATOM     64  C   UNL     1      11.390 -11.987   2.840  1.00  0.00     0.031 C 
ATOM     65  C   UNL     1      10.341 -13.801   4.174  1.00  0.00     0.034 A 
BRANCH  52  66
ATOM     66  C   UNL     1       4.860 -15.983   6.131  1.00  0.00     0.023 A 
ATOM     67  C   UNL     1       3.875 -16.837   5.601  1.00  0.00     0.031 A 
ATOM     68  C   UNL     1       5.089 -16.032   7.518  1.00  0.00     0.131 A 
ATOM     69  C   UNL     1       3.090 -17.622   6.459  1.00  0.00     0.055 A 
ATOM     70  C   UNL     1       4.367 -16.886   8.355  1.00  0.00     0.041 A 
ATOM     71  F   UNL     1       6.002 -15.232   8.089  1.00  0.00    -0.206 F 
ATOM     72  C   UNL     1       3.346 -17.673   7.830  1.00  0.00     0.022 A 
BRANCH  69  73
ATOM     73  S   UNL     1       1.616 -18.436   5.780  1.00  0.00     0.124 S 
ATOM     74  O   UNL     1       0.893 -17.304   5.205  1.00  0.00    -0.237 OA
ATOM     75  O   UNL     1       2.189 -19.379   4.827  1.00  0.00    -0.237 OA
ATOM     76  O   UNL     1       0.985 -19.037   6.953  1.00  0.00    -0.744 OA
ENDBRANCH  69  73
ENDBRANCH  52  66
BRANCH  53  77
ATOM     77  C   UNL     1       9.446  -8.784   0.870  1.00  0.00     0.023 A 
ATOM     78  C   UNL     1      10.210  -8.985  -0.290  1.00  0.00     0.031 A 
ATOM     79  C   UNL     1       9.325  -7.472   1.363  1.00  0.00     0.131 A 
ATOM     80  C   UNL     1      10.847  -7.895  -0.904  1.00  0.00     0.055 A 
ATOM     81  C   UNL     1       9.924  -6.385   0.724  1.00  0.00     0.041 A 
ATOM     82  F   UNL     1       8.596  -7.225   2.463  1.00  0.00    -0.206 F 
ATOM     83  C   UNL     1      10.698  -6.596  -0.413  1.00  0.00     0.022 A 
BRANCH  80  84
ATOM     84  S   UNL     1      11.916  -8.205  -2.336  1.00  0.00     0.124 S 
ATOM     85  O   UNL     1      12.923  -9.095  -1.769  1.00  0.00    -0.237 OA
ATOM     86  O   UNL     1      10.986  -8.809  -3.284  1.00  0.00    -0.237 OA
ATOM     87  O   UNL     1      12.394  -6.872  -2.699  1.00  0.00    -0.744 OA
ENDBRANCH  80  84
ENDBRANCH  53  77
BRANCH  65  88
ATOM     88  C   UNL     1      11.727 -14.345   4.427  1.00  0.00     0.023 A 
ATOM     89  C   UNL     1      12.673 -13.635   5.188  1.00  0.00     0.031 A 
ATOM     90  C   UNL     1      12.111 -15.586   3.887  1.00  0.00     0.131 A 
ATOM     91  C   UNL     1      13.971 -14.144   5.341  1.00  0.00     0.055 A 
ATOM     92  C   UNL     1      13.384 -16.117   4.096  1.00  0.00     0.041 A 
ATOM     93  F   UNL     1      11.251 -16.304   3.148  1.00  0.00    -0.206 F 
ATOM     94  C   UNL     1      14.327 -15.389   4.815  1.00  0.00     0.022 A 
BRANCH  91  95
ATOM     95  S   UNL     1      15.222 -13.112   6.154  1.00  0.00     0.124 S 
ATOM     96  O   UNL     1      15.222 -11.919   5.313  1.00  0.00    -0.237 OA
ATOM     97  O   UNL     1      14.669 -12.948   7.494  1.00  0.00    -0.237 OA
ATOM     98  O   UNL     1      16.436 -13.922   6.079  1.00  0.00    -0.744 OA
ENDBRANCH  91  95
ENDBRANCH  65  88
ENDBRANCH  39  40
ENDBRANCH  31  34
ENDBRANCH  29  30
ENDBRANCH  28  29
ENDBRANCH   1  28
TORSDOF 18
