REMARK SMILES NC(=O)c1ccsc1NS(=O)(=O)c1ccc(C(=O)NCCCNC(=O)c2ccc(-c3c4nc(c(-c5cc(S(=O)(=O)[O-])ccc5F)c5ccc([nH]5)c(-c5cc(S(=O)(=O)[O-])ccc5F)c5nc(c(-c6cc(S(=O)(=O)[O-])ccc6F)c6ccc3[nH]6)C=C5)C=C4)cc2)cc1
REMARK SMILES IDX 20 1 19 2 17 3 18 4 16 6 13 7 14 8 90 9 15 10 89 11 10 12
REMARK SMILES IDX 11 13 12 14 9 15 8 17 4 18 5 19 6 20 7 21 2 22 1 23 3 26
REMARK SMILES IDX 21 27 22 28 23 29 24 30 25 32 26 33 27 34 88 35 28 36 87 37
REMARK SMILES IDX 29 38 30 39 31 40 81 41 32 42 86 43 80 44 82 45 33 46 85 47
REMARK SMILES IDX 79 48 78 49 34 51 66 52 46 53 65 54 47 55 50 56 64 57 83 58
REMARK SMILES IDX 48 59 49 60 63 62 84 63 51 64 35 65 36 66 44 67 37 68 43 69
REMARK SMILES IDX 45 70 42 71 38 72 39 73 40 74 41 75 67 76 68 77 76 78 69 79
REMARK SMILES IDX 75 80 77 81 74 82 70 83 71 84 72 85 73 86 52 87 53 88 61 89
REMARK SMILES IDX 54 90 60 91 62 92 59 93 55 94 56 95 57 96 58 97
REMARK H PARENT 19 5 9 16 1 24 1 25 23 31 82 50 50 61
REMARK Flexibility Score: inf
ROOT
ATOM      1  C   UNL     1       1.243   9.899  -6.269  1.00  0.00     0.118 C 
ENDROOT
BRANCH   1   2
ATOM      2  N   UNL     1       2.251   8.891  -6.557  1.00  0.00    -0.352 N 
ATOM      3  C   UNL     1       2.333   7.587  -6.139  1.00  0.00     0.251 C 
ATOM      4  O   UNL     1       3.169   6.838  -6.637  1.00  0.00    -0.269 OA
ATOM      5  H   UNL     1       2.986   9.190  -7.140  1.00  0.00     0.163 HD
BRANCH   3   6
ATOM      6  C   UNL     1       1.409   7.053  -5.112  1.00  0.00     0.039 A 
ATOM      7  C   UNL     1      -0.178   5.888  -3.138  1.00  0.00     0.087 A 
ATOM      8  C   UNL     1       0.029   5.205  -4.341  1.00  0.00     0.023 A 
ATOM      9  C   UNL     1       0.367   7.161  -2.934  1.00  0.00     0.023 A 
ATOM     10  C   UNL     1       0.845   5.784  -5.319  1.00  0.00     0.015 A 
ATOM     11  C   UNL     1       1.173   7.735  -3.916  1.00  0.00     0.015 A 
BRANCH   7  12
ATOM     12  S   UNL     1      -1.014   5.114  -1.775  1.00  0.00     0.262 S 
ATOM     13  O   UNL     1      -2.403   5.013  -2.172  1.00  0.00    -0.201 OA
ATOM     14  O   UNL     1      -0.642   5.818  -0.564  1.00  0.00    -0.201 OA
BRANCH  12  15
ATOM     15  N   UNL     1      -0.464   3.553  -1.630  1.00  0.00    -0.270 N 
ATOM     16  H   UNL     1      -1.140   2.873  -1.406  1.00  0.00     0.181 HD
BRANCH  15  17
ATOM     17  C   UNL     1       0.869   3.082  -1.792  1.00  0.00     0.115 A 
ATOM     18  C   UNL     1       1.177   1.737  -1.627  1.00  0.00     0.074 A 
ATOM     19  C   UNL     1       2.483   1.448  -2.158  1.00  0.00     0.028 A 
ATOM     20  C   UNL     1       3.151   2.583  -2.556  1.00  0.00     0.068 A 
ATOM     21  S   UNL     1       2.261   3.986  -2.170  1.00  0.00    -0.125 S 
BRANCH  18  22
ATOM     22  C   UNL     1       0.257   0.772  -1.039  1.00  0.00     0.251 C 
ATOM     23  N   UNL     1       0.852  -0.255  -0.365  1.00  0.00    -0.366 N 
ATOM     24  H   UNL     1       0.299  -0.950   0.062  1.00  0.00     0.159 HD
ATOM     25  H   UNL     1       1.833  -0.301  -0.304  1.00  0.00     0.159 HD
ATOM     26  O   UNL     1      -0.964   0.887  -1.076  1.00  0.00    -0.269 OA
ENDBRANCH  18  22
ENDBRANCH  15  17
ENDBRANCH  12  15
ENDBRANCH   7  12
ENDBRANCH   3   6
ENDBRANCH   1   2
BRANCH   1  27
ATOM     27  C   UNL     1       1.802  11.043  -5.427  1.00  0.00     0.042 C 
BRANCH  27  28
ATOM     28  C   UNL     1       2.738  11.971  -6.195  1.00  0.00     0.118 C 
BRANCH  28  29
ATOM     29  N   UNL     1       2.031  12.739  -7.208  1.00  0.00    -0.352 N 
ATOM     30  C   UNL     1       1.963  14.096  -7.397  1.00  0.00     0.251 C 
ATOM     31  H   UNL     1       1.524  12.202  -7.859  1.00  0.00     0.163 HD
ATOM     32  O   UNL     1       1.118  14.544  -8.168  1.00  0.00    -0.269 OA
BRANCH  30  33
ATOM     33  C   UNL     1       2.881  15.014  -6.683  1.00  0.00     0.039 A 
ATOM     34  C   UNL     1       2.393  16.254  -6.257  1.00  0.00     0.014 A 
ATOM     35  C   UNL     1       4.228  14.695  -6.491  1.00  0.00     0.014 A 
ATOM     36  C   UNL     1       3.245  17.157  -5.615  1.00  0.00     0.010 A 
ATOM     37  C   UNL     1       5.058  15.565  -5.787  1.00  0.00     0.010 A 
ATOM     38  C   UNL     1       4.582  16.814  -5.361  1.00  0.00    -0.014 A 
BRANCH  38  39
ATOM     39  C   UNL     1       5.510  17.771  -4.703  1.00  0.00     0.031 A 
ATOM     40  C   UNL     1       6.690  18.313  -5.466  1.00  0.00     0.074 A 
ATOM     41  C   UNL     1       5.321  18.113  -3.413  1.00  0.00     0.049 A 
ATOM     42  N   UNL     1       7.659  19.090  -5.056  1.00  0.00    -0.248 NA
ATOM     43  C   UNL     1       6.810  17.895  -6.872  1.00  0.00     0.031 C 
ATOM     44  C   UNL     1       4.232  17.628  -2.562  1.00  0.00     0.029 A 
ATOM     45  N   UNL     1       6.041  18.941  -2.590  1.00  0.00    -0.354 N 
ATOM     46  C   UNL     1       8.514  19.239  -6.145  1.00  0.00     0.074 A 
ATOM     47  C   UNL     1       7.978  18.419  -7.211  1.00  0.00     0.031 C 
ATOM     48  C   UNL     1       4.346  18.183  -1.345  1.00  0.00     0.029 A 
ATOM     49  C   UNL     1       5.534  19.030  -1.314  1.00  0.00     0.049 A 
ATOM     50  H   UNL     1       6.845  19.427  -2.885  1.00  0.00     0.167 HD
ATOM     51  C   UNL     1       9.628  20.006  -6.253  1.00  0.00     0.034 A 
ATOM     52  C   UNL     1       5.983  19.709  -0.240  1.00  0.00     0.034 A 
ATOM     53  C   UNL     1      10.135  20.832  -5.184  1.00  0.00     0.049 A 
ATOM     54  C   UNL     1       7.225  20.553  -0.381  1.00  0.00     0.074 A 
ATOM     55  C   UNL     1      11.229  21.680  -5.192  1.00  0.00     0.029 A 
ATOM     56  N   UNL     1       9.582  20.913  -3.911  1.00  0.00    -0.354 N 
ATOM     57  N   UNL     1       8.002  20.712  -1.428  1.00  0.00    -0.248 NA
ATOM     58  C   UNL     1       7.639  21.323   0.798  1.00  0.00     0.031 C 
ATOM     59  C   UNL     1      11.372  22.226  -3.911  1.00  0.00     0.029 A 
ATOM     60  C   UNL     1      10.323  21.780  -3.123  1.00  0.00     0.049 A 
ATOM     61  H   UNL     1       8.781  20.425  -3.613  1.00  0.00     0.167 HD
ATOM     62  C   UNL     1       8.974  21.631  -1.042  1.00  0.00     0.074 A 
ATOM     63  C   UNL     1       8.678  21.997   0.328  1.00  0.00     0.031 C 
ATOM     64  C   UNL     1      10.014  22.133  -1.757  1.00  0.00     0.034 A 
BRANCH  51  65
ATOM     65  C   UNL     1      10.379  19.959  -7.564  1.00  0.00     0.023 A 
ATOM     66  C   UNL     1       9.787  20.374  -8.771  1.00  0.00     0.031 A 
ATOM     67  C   UNL     1      11.692  19.458  -7.617  1.00  0.00     0.131 A 
ATOM     68  C   UNL     1      10.470  20.201  -9.984  1.00  0.00     0.055 A 
ATOM     69  C   UNL     1      12.400  19.371  -8.818  1.00  0.00     0.041 A 
ATOM     70  F   UNL     1      12.305  19.027  -6.503  1.00  0.00    -0.206 F 
ATOM     71  C   UNL     1      11.783  19.727 -10.014  1.00  0.00     0.022 A 
BRANCH  68  72
ATOM     72  S   UNL     1       9.562  20.458 -11.533  1.00  0.00     0.124 S 
ATOM     73  O   UNL     1       8.479  19.485 -11.404  1.00  0.00    -0.237 OA
ATOM     74  O   UNL     1       9.175  21.861 -11.443  1.00  0.00    -0.237 OA
ATOM     75  O   UNL     1      10.549  20.148 -12.565  1.00  0.00    -0.744 OA
ENDBRANCH  68  72
ENDBRANCH  51  65
BRANCH  52  76
ATOM     76  C   UNL     1       5.261  19.626   1.062  1.00  0.00     0.023 A 
ATOM     77  C   UNL     1       4.641  20.756   1.618  1.00  0.00     0.031 A 
ATOM     78  C   UNL     1       5.214  18.424   1.789  1.00  0.00     0.131 A 
ATOM     79  C   UNL     1       4.043  20.674   2.885  1.00  0.00     0.055 A 
ATOM     80  C   UNL     1       4.571  18.334   3.025  1.00  0.00     0.041 A 
ATOM     81  F   UNL     1       5.784  17.311   1.300  1.00  0.00    -0.206 F 
ATOM     82  C   UNL     1       3.993  19.468   3.587  1.00  0.00     0.022 A 
BRANCH  79  83
ATOM     83  S   UNL     1       3.403  22.193   3.642  1.00  0.00     0.124 S 
ATOM     84  O   UNL     1       4.591  23.038   3.662  1.00  0.00    -0.237 OA
ATOM     85  O   UNL     1       2.355  22.581   2.703  1.00  0.00    -0.237 OA
ATOM     86  O   UNL     1       2.930  21.748   4.951  1.00  0.00    -0.744 OA
ENDBRANCH  79  83
ENDBRANCH  52  76
BRANCH  64  87
ATOM     87  C   UNL     1      10.867  23.180  -1.082  1.00  0.00     0.023 A 
ATOM     88  C   UNL     1      11.676  22.878   0.027  1.00  0.00     0.031 A 
ATOM     89  C   UNL     1      10.854  24.505  -1.552  1.00  0.00     0.131 A 
ATOM     90  C   UNL     1      12.393  23.901   0.667  1.00  0.00     0.055 A 
ATOM     91  C   UNL     1      11.616  25.506  -0.949  1.00  0.00     0.041 A 
ATOM     92  F   UNL     1      10.098  24.849  -2.607  1.00  0.00    -0.206 F 
ATOM     93  C   UNL     1      12.381  25.210   0.176  1.00  0.00     0.022 A 
BRANCH  90  94
ATOM     94  S   UNL     1      13.266  23.519   2.210  1.00  0.00     0.124 S 
ATOM     95  O   UNL     1      12.188  23.008   3.051  1.00  0.00    -0.237 OA
ATOM     96  O   UNL     1      14.255  22.538   1.774  1.00  0.00    -0.237 OA
ATOM     97  O   UNL     1      13.815  24.810   2.622  1.00  0.00    -0.744 OA
ENDBRANCH  90  94
ENDBRANCH  64  87
ENDBRANCH  38  39
ENDBRANCH  30  33
ENDBRANCH  28  29
ENDBRANCH  27  28
ENDBRANCH   1  27
TORSDOF 17
