REMARK SMILES Cc1ccccc1[C@@H]1[NH2+][C@@H](C(=O)NCCCNC(=O)c2ccc(-c3c4nc(c(-c5cc(S(=O)(=O)[O-])ccc5F)c5ccc([nH]5)c(-c5cc(S(=O)(=O)[O-])ccc5F)c5nc(c(-c6cc(S(=O)(=O)[O-])ccc6F)c6ccc3[nH]6)C=C5)C=C4)cc2)CC2=c3ccccc3=N[C@@H]21
REMARK SMILES IDX 16 1 15 2 14 3 13 4 11 5 12 6 10 8 8 9 9 10 92 11 84 14
REMARK SMILES IDX 91 15 83 16 85 17 90 18 86 19 89 20 87 21 88 22 7 23 1 24
REMARK SMILES IDX 2 25 3 26 4 27 6 28 5 29 17 30 18 31 19 33 20 34 21 35 82 36
REMARK SMILES IDX 22 37 81 38 23 39 24 40 25 41 75 42 26 43 80 44 74 45 76 46
REMARK SMILES IDX 27 47 79 48 73 49 72 50 28 52 60 53 40 54 59 55 41 56 44 57
REMARK SMILES IDX 58 58 77 59 42 60 43 61 57 63 78 64 45 65 29 66 30 67 38 68
REMARK SMILES IDX 31 69 37 70 39 71 36 72 32 73 33 74 34 75 35 76 61 77 62 78
REMARK SMILES IDX 70 79 63 80 69 81 71 82 68 83 64 84 65 85 66 86 67 87 46 88
REMARK SMILES IDX 47 89 55 90 48 91 54 92 56 93 53 94 49 95 50 96 51 97 52 98
REMARK H PARENT 13 7 9 12 9 13 17 32 76 51 44 62
REMARK Flexibility Score: inf
ROOT
ATOM      1  C   UNL     1       3.797   4.114  -2.260  1.00  0.00     0.118 C 
ENDROOT
BRANCH   1   2
ATOM      2  C   UNL     1       3.891   5.028  -1.032  1.00  0.00     0.042 C 
BRANCH   2   3
ATOM      3  C   UNL     1       3.151   6.378  -0.912  1.00  0.00     0.118 C 
BRANCH   3   4
ATOM      4  N   UNL     1       1.708   6.516  -0.650  1.00  0.00    -0.351 N 
ATOM      5  C   UNL     1       1.114   6.446   0.620  1.00  0.00     0.278 C 
ATOM      6  O   UNL     1       0.365   7.317   1.050  1.00  0.00    -0.268 OA
ATOM      7  H   UNL     1       1.117   6.668  -1.423  1.00  0.00     0.163 HD
BRANCH   5   8
ATOM      8  C   UNL     1       1.289   5.073   1.256  1.00  0.00     0.277 C 
ATOM      9  C   UNL     1       0.463   2.762   0.965  1.00  0.00     0.243 C 
ATOM     10  N   UNL     1       0.262   4.210   0.681  1.00  0.00    -0.327 N 
ATOM     11  C   UNL     1       1.719   2.343   1.854  1.00  0.00     0.196 C 
ATOM     12  H   UNL     1      -0.642   4.490   1.061  1.00  0.00     0.347 HD
ATOM     13  H   UNL     1       0.313   4.324  -0.331  1.00  0.00     0.347 HD
ATOM     14  C   UNL     1       2.235   3.514   2.708  1.00  0.00    -0.024 C 
ATOM     15  N   UNL     1       2.930   1.887   1.106  1.00  0.00    -0.270 NA
ATOM     16  C   UNL     1       1.381   4.778   2.749  1.00  0.00     0.109 C 
ATOM     17  C   UNL     1       3.572   3.585   2.669  1.00  0.00     0.002 A 
ATOM     18  C   UNL     1       3.902   2.579   1.629  1.00  0.00     0.066 A 
ATOM     19  C   UNL     1       4.462   4.683   2.936  1.00  0.00     0.010 A 
ATOM     20  C   UNL     1       5.311   2.586   1.155  1.00  0.00     0.028 A 
ATOM     21  C   UNL     1       5.669   4.704   2.349  1.00  0.00     0.001 A 
ATOM     22  C   UNL     1       6.109   3.615   1.496  1.00  0.00     0.002 A 
BRANCH   9  23
ATOM     23  C   UNL     1      -0.011   1.990  -0.278  1.00  0.00     0.015 A 
ATOM     24  C   UNL     1      -1.672   0.550   1.020  1.00  0.00     0.045 C 
ATOM     25  C   UNL     1      -1.140   1.142  -0.251  1.00  0.00    -0.042 A 
ATOM     26  C   UNL     1      -1.903   0.955  -1.423  1.00  0.00     0.004 A 
ATOM     27  C   UNL     1      -1.560   1.591  -2.610  1.00  0.00     0.000 A 
ATOM     28  C   UNL     1       0.407   2.470  -1.530  1.00  0.00     0.010 A 
ATOM     29  C   UNL     1      -0.402   2.345  -2.652  1.00  0.00     0.001 A 
ENDBRANCH   9  23
ENDBRANCH   5   8
ENDBRANCH   3   4
ENDBRANCH   2   3
ENDBRANCH   1   2
BRANCH   1  30
ATOM     30  N   UNL     1       5.138   3.618  -2.629  1.00  0.00    -0.352 N 
ATOM     31  C   UNL     1       5.565   2.488  -3.302  1.00  0.00     0.251 C 
ATOM     32  H   UNL     1       5.872   4.207  -2.339  1.00  0.00     0.163 HD
ATOM     33  O   UNL     1       6.739   2.252  -3.485  1.00  0.00    -0.269 OA
BRANCH  31  34
ATOM     34  C   UNL     1       4.550   1.633  -3.951  1.00  0.00     0.039 A 
ATOM     35  C   UNL     1       4.576   1.584  -5.352  1.00  0.00     0.014 A 
ATOM     36  C   UNL     1       3.506   1.062  -3.236  1.00  0.00     0.014 A 
ATOM     37  C   UNL     1       3.429   1.209  -6.045  1.00  0.00     0.010 A 
ATOM     38  C   UNL     1       2.365   0.684  -3.927  1.00  0.00     0.010 A 
ATOM     39  C   UNL     1       2.288   0.878  -5.314  1.00  0.00    -0.014 A 
BRANCH  39  40
ATOM     40  C   UNL     1       0.949   1.043  -5.880  1.00  0.00     0.031 A 
ATOM     41  C   UNL     1       0.088  -0.086  -6.274  1.00  0.00     0.074 A 
ATOM     42  C   UNL     1       0.418   2.288  -5.917  1.00  0.00     0.049 A 
ATOM     43  N   UNL     1      -0.858   0.007  -7.152  1.00  0.00    -0.248 NA
ATOM     44  C   UNL     1       0.212  -1.416  -5.696  1.00  0.00     0.031 C 
ATOM     45  C   UNL     1      -0.989   2.636  -6.131  1.00  0.00     0.029 A 
ATOM     46  N   UNL     1       1.035   3.534  -5.823  1.00  0.00    -0.354 N 
ATOM     47  C   UNL     1      -1.661  -1.097  -7.004  1.00  0.00     0.074 A 
ATOM     48  C   UNL     1      -0.897  -2.000  -6.166  1.00  0.00     0.031 C 
ATOM     49  C   UNL     1      -1.071   3.943  -6.420  1.00  0.00     0.029 A 
ATOM     50  C   UNL     1       0.285   4.415  -6.613  1.00  0.00     0.049 A 
ATOM     51  H   UNL     1       1.841   3.754  -5.302  1.00  0.00     0.167 HD
ATOM     52  C   UNL     1      -2.950  -1.081  -7.457  1.00  0.00     0.034 A 
ATOM     53  C   UNL     1       0.761   4.989  -7.758  1.00  0.00     0.034 A 
ATOM     54  C   UNL     1      -3.343   0.219  -8.016  1.00  0.00     0.049 A 
ATOM     55  C   UNL     1      -0.046   4.635  -8.998  1.00  0.00     0.074 A 
ATOM     56  C   UNL     1      -4.172   1.244  -7.583  1.00  0.00     0.029 A 
ATOM     57  N   UNL     1      -2.669   0.727  -9.116  1.00  0.00    -0.354 N 
ATOM     58  N   UNL     1      -1.116   3.889  -8.995  1.00  0.00    -0.248 NA
ATOM     59  C   UNL     1       0.357   5.004 -10.354  1.00  0.00     0.031 C 
ATOM     60  C   UNL     1      -3.996   2.364  -8.448  1.00  0.00     0.029 A 
ATOM     61  C   UNL     1      -3.074   2.017  -9.418  1.00  0.00     0.049 A 
ATOM     62  H   UNL     1      -1.985   0.232  -9.621  1.00  0.00     0.167 HD
ATOM     63  C   UNL     1      -1.477   3.582 -10.280  1.00  0.00     0.074 A 
ATOM     64  C   UNL     1      -0.532   4.325 -11.098  1.00  0.00     0.031 C 
ATOM     65  C   UNL     1      -2.477   2.692 -10.565  1.00  0.00     0.034 A 
BRANCH  52  66
ATOM     66  C   UNL     1      -3.947  -2.175  -7.136  1.00  0.00     0.023 A 
ATOM     67  C   UNL     1      -5.320  -1.875  -7.015  1.00  0.00     0.031 A 
ATOM     68  C   UNL     1      -3.608  -3.529  -6.940  1.00  0.00     0.131 A 
ATOM     69  C   UNL     1      -6.250  -2.845  -6.596  1.00  0.00     0.055 A 
ATOM     70  C   UNL     1      -4.518  -4.479  -6.455  1.00  0.00     0.041 A 
ATOM     71  F   UNL     1      -2.392  -3.997  -7.259  1.00  0.00    -0.206 F 
ATOM     72  C   UNL     1      -5.846  -4.133  -6.262  1.00  0.00     0.022 A 
BRANCH  69  73
ATOM     73  S   UNL     1      -8.009  -2.405  -6.519  1.00  0.00     0.124 S 
ATOM     74  O   UNL     1      -8.010  -1.287  -5.582  1.00  0.00    -0.237 OA
ATOM     75  O   UNL     1      -8.306  -2.081  -7.911  1.00  0.00    -0.237 OA
ATOM     76  O   UNL     1      -8.643  -3.626  -6.024  1.00  0.00    -0.744 OA
ENDBRANCH  69  73
ENDBRANCH  52  66
BRANCH  53  77
ATOM     77  C   UNL     1       2.228   5.242  -7.728  1.00  0.00     0.023 A 
ATOM     78  C   UNL     1       2.689   6.153  -6.760  1.00  0.00     0.031 A 
ATOM     79  C   UNL     1       3.152   4.346  -8.281  1.00  0.00     0.131 A 
ATOM     80  C   UNL     1       3.985   6.034  -6.238  1.00  0.00     0.055 A 
ATOM     81  C   UNL     1       4.464   4.269  -7.798  1.00  0.00     0.041 A 
ATOM     82  F   UNL     1       2.765   3.439  -9.189  1.00  0.00    -0.206 F 
ATOM     83  C   UNL     1       4.870   5.077  -6.733  1.00  0.00     0.022 A 
BRANCH  80  84
ATOM     84  S   UNL     1       4.360   6.942  -4.714  1.00  0.00     0.124 S 
ATOM     85  O   UNL     1       4.788   8.242  -5.211  1.00  0.00    -0.237 OA
ATOM     86  O   UNL     1       3.071   6.921  -4.028  1.00  0.00    -0.237 OA
ATOM     87  O   UNL     1       5.399   6.143  -4.068  1.00  0.00    -0.744 OA
ENDBRANCH  80  84
ENDBRANCH  53  77
BRANCH  65  88
ATOM     88  C   UNL     1      -2.925   2.332 -11.966  1.00  0.00     0.023 A 
ATOM     89  C   UNL     1      -2.810   3.222 -13.045  1.00  0.00     0.031 A 
ATOM     90  C   UNL     1      -3.539   1.091 -12.261  1.00  0.00     0.131 A 
ATOM     91  C   UNL     1      -3.155   2.830 -14.351  1.00  0.00     0.055 A 
ATOM     92  C   UNL     1      -3.954   0.732 -13.546  1.00  0.00     0.041 A 
ATOM     93  F   UNL     1      -3.747   0.158 -11.322  1.00  0.00    -0.206 F 
ATOM     94  C   UNL     1      -3.738   1.592 -14.608  1.00  0.00     0.022 A 
BRANCH  91  95
ATOM     95  S   UNL     1      -2.756   3.947 -15.719  1.00  0.00     0.124 S 
ATOM     96  O   UNL     1      -3.415   5.186 -15.319  1.00  0.00    -0.237 OA
ATOM     97  O   UNL     1      -1.296   3.963 -15.671  1.00  0.00    -0.237 OA
ATOM     98  O   UNL     1      -3.331   3.283 -16.886  1.00  0.00    -0.744 OA
ENDBRANCH  91  95
ENDBRANCH  65  88
ENDBRANCH  39  40
ENDBRANCH  31  34
ENDBRANCH   1  30
TORSDOF 14
