REMARK SMILES Cc1ccc(NC(=O)C[N@H+]2CCC[C@@H](C(=O)NCCCNC(=O)c3ccc(-c4c5nc(c(-c6cc(S(=O)(=O)[O-])ccc6F)c6ccc([nH]6)c(-c6cc(S(=O)(=O)[O-])ccc6F)c6nc(c(-c7cc(S(=O)(=O)[O-])ccc7F)c7ccc4[nH]7)C=C6)C=C5)cc3)C2)cc1F
REMARK SMILES IDX 19 1 18 2 17 3 15 4 16 5 14 7 10 8 11 9 87 10 12 12 13 13
REMARK SMILES IDX 9 14 7 15 6 16 8 18 5 19 1 20 2 21 3 22 89 23 4 24 88 25
REMARK SMILES IDX 90 26 20 27 21 28 22 29 23 31 24 32 25 33 86 34 26 35 85 36
REMARK SMILES IDX 27 37 28 38 29 39 79 40 30 41 84 42 78 43 80 44 31 45 83 46
REMARK SMILES IDX 77 47 76 48 32 50 64 51 44 52 63 53 45 54 48 55 62 56 81 57
REMARK SMILES IDX 46 58 47 59 61 61 82 62 49 63 33 64 34 65 42 66 35 67 41 68
REMARK SMILES IDX 43 69 40 70 36 71 37 72 38 73 39 74 65 75 66 76 74 77 67 78
REMARK SMILES IDX 73 79 75 80 72 81 68 82 69 83 70 84 71 85 50 86 51 87 59 88
REMARK SMILES IDX 52 89 58 90 60 91 57 92 53 93 54 94 55 95 56 96
REMARK H PARENT 17 6 10 11 6 17 21 30 80 49 48 60
REMARK Flexibility Score: inf
ROOT
ATOM      1  C   UNL     1       1.158   1.119  -2.068  1.00  0.00     0.042 C 
ENDROOT
BRANCH   1   2
ATOM      2  C   UNL     1      -0.093   0.287  -1.957  1.00  0.00     0.117 C 
BRANCH   2   3
ATOM      3  N   UNL     1      -0.915   0.347  -3.154  1.00  0.00    -0.356 N 
ATOM      4  C   UNL     1      -1.325  -0.720  -3.905  1.00  0.00     0.228 C 
ATOM      5  O   UNL     1      -2.070  -0.553  -4.867  1.00  0.00    -0.275 OA
ATOM      6  H   UNL     1      -1.205   1.240  -3.451  1.00  0.00     0.163 HD
BRANCH   4   7
ATOM      7  C   UNL     1      -0.847  -2.077  -3.439  1.00  0.00     0.133 C 
ATOM      8  N   UNL     1      -1.128  -3.698  -1.593  1.00  0.00    -0.326 N 
ATOM      9  C   UNL     1      -1.111  -4.801  -2.574  1.00  0.00     0.262 C 
ATOM     10  C   UNL     1      -1.685  -2.493  -2.220  1.00  0.00     0.276 C 
ATOM     11  H   UNL     1      -0.180  -3.452  -1.308  1.00  0.00     0.348 HD
ATOM     12  C   UNL     1      -0.367  -4.444  -3.871  1.00  0.00     0.062 C 
ATOM     13  C   UNL     1      -0.902  -3.159  -4.499  1.00  0.00     0.025 C 
BRANCH   8  14
ATOM     14  C   UNL     1      -1.800  -4.125  -0.333  1.00  0.00     0.363 C 
BRANCH  14  15
ATOM     15  C   UNL     1      -2.916  -3.221   0.190  1.00  0.00     0.279 C 
ATOM     16  N   UNL     1      -2.713  -2.022   0.809  1.00  0.00    -0.321 N 
ATOM     17  H   UNL     1      -3.555  -1.577   1.059  1.00  0.00     0.170 HD
ATOM     18  O   UNL     1      -4.097  -3.566   0.030  1.00  0.00    -0.268 OA
BRANCH  16  19
ATOM     19  C   UNL     1      -1.578  -1.275   1.172  1.00  0.00     0.044 A 
ATOM     20  C   UNL     1       1.744   1.361   2.051  1.00  0.00     0.047 C 
ATOM     21  C   UNL     1       0.575   0.446   1.833  1.00  0.00    -0.015 A 
ATOM     22  C   UNL     1      -0.747   0.892   1.921  1.00  0.00     0.008 A 
ATOM     23  C   UNL     1       0.791  -0.869   1.441  1.00  0.00     0.128 A 
ATOM     24  C   UNL     1      -1.810   0.047   1.579  1.00  0.00     0.026 A 
ATOM     25  C   UNL     1      -0.264  -1.726   1.129  1.00  0.00     0.065 A 
ATOM     26  F   UNL     1       2.044  -1.333   1.328  1.00  0.00    -0.207 F 
ENDBRANCH  16  19
ENDBRANCH  14  15
ENDBRANCH   8  14
ENDBRANCH   4   7
ENDBRANCH   2   3
ENDBRANCH   1   2
BRANCH   1  27
ATOM     27  C   UNL     1       0.827   2.565  -1.847  1.00  0.00     0.118 C 
BRANCH  27  28
ATOM     28  N   UNL     1       0.223   2.812  -0.526  1.00  0.00    -0.352 N 
ATOM     29  C   UNL     1       0.439   3.871   0.322  1.00  0.00     0.251 C 
ATOM     30  H   UNL     1      -0.415   2.132  -0.211  1.00  0.00     0.163 HD
ATOM     31  O   UNL     1      -0.060   3.916   1.448  1.00  0.00    -0.269 OA
BRANCH  29  32
ATOM     32  C   UNL     1       1.154   4.990  -0.239  1.00  0.00     0.039 A 
ATOM     33  C   UNL     1       2.177   5.695   0.388  1.00  0.00     0.014 A 
ATOM     34  C   UNL     1       0.725   5.281  -1.527  1.00  0.00     0.014 A 
ATOM     35  C   UNL     1       2.688   6.787  -0.290  1.00  0.00     0.010 A 
ATOM     36  C   UNL     1       1.511   6.037  -2.304  1.00  0.00     0.010 A 
ATOM     37  C   UNL     1       2.282   6.958  -1.614  1.00  0.00    -0.014 A 
BRANCH  37  38
ATOM     38  C   UNL     1       2.426   8.154  -2.404  1.00  0.00     0.031 A 
ATOM     39  C   UNL     1       3.777   8.509  -2.809  1.00  0.00     0.074 A 
ATOM     40  C   UNL     1       1.247   8.630  -2.884  1.00  0.00     0.049 A 
ATOM     41  N   UNL     1       4.183   9.709  -2.996  1.00  0.00    -0.248 NA
ATOM     42  C   UNL     1       4.829   7.500  -2.969  1.00  0.00     0.031 C 
ATOM     43  C   UNL     1       0.954   9.464  -4.029  1.00  0.00     0.029 A 
ATOM     44  N   UNL     1      -0.038   8.377  -2.363  1.00  0.00    -0.354 N 
ATOM     45  C   UNL     1       5.337   9.574  -3.735  1.00  0.00     0.074 A 
ATOM     46  C   UNL     1       5.826   8.244  -3.458  1.00  0.00     0.031 C 
ATOM     47  C   UNL     1      -0.314   9.919  -3.917  1.00  0.00     0.029 A 
ATOM     48  C   UNL     1      -0.815   9.501  -2.611  1.00  0.00     0.049 A 
ATOM     49  H   UNL     1      -0.331   7.555  -1.907  1.00  0.00     0.167 HD
ATOM     50  C   UNL     1       5.553  10.446  -4.761  1.00  0.00     0.034 A 
ATOM     51  C   UNL     1      -1.198  10.315  -1.578  1.00  0.00     0.034 A 
ATOM     52  C   UNL     1       4.405  11.366  -4.876  1.00  0.00     0.049 A 
ATOM     53  C   UNL     1      -0.478  11.645  -1.682  1.00  0.00     0.074 A 
ATOM     54  C   UNL     1       3.320  11.393  -5.739  1.00  0.00     0.029 A 
ATOM     55  N   UNL     1       4.049  12.171  -3.796  1.00  0.00    -0.354 N 
ATOM     56  N   UNL     1       0.617  11.817  -2.370  1.00  0.00    -0.248 NA
ATOM     57  C   UNL     1      -0.935  12.876  -1.053  1.00  0.00     0.031 C 
ATOM     58  C   UNL     1       2.298  12.191  -5.150  1.00  0.00     0.029 A 
ATOM     59  C   UNL     1       2.749  12.644  -3.922  1.00  0.00     0.049 A 
ATOM     60  H   UNL     1       4.643  12.379  -3.039  1.00  0.00     0.167 HD
ATOM     61  C   UNL     1       1.025  13.117  -2.300  1.00  0.00     0.074 A 
ATOM     62  C   UNL     1      -0.004  13.746  -1.487  1.00  0.00     0.031 C 
ATOM     63  C   UNL     1       2.178  13.540  -2.905  1.00  0.00     0.034 A 
BRANCH  50  64
ATOM     64  C   UNL     1       6.591  10.226  -5.847  1.00  0.00     0.023 A 
ATOM     65  C   UNL     1       7.726   9.391  -5.708  1.00  0.00     0.031 A 
ATOM     66  C   UNL     1       6.475  10.872  -7.095  1.00  0.00     0.131 A 
ATOM     67  C   UNL     1       8.617   9.163  -6.776  1.00  0.00     0.055 A 
ATOM     68  C   UNL     1       7.388  10.684  -8.141  1.00  0.00     0.041 A 
ATOM     69  F   UNL     1       5.460  11.702  -7.370  1.00  0.00    -0.206 F 
ATOM     70  C   UNL     1       8.457   9.815  -7.993  1.00  0.00     0.022 A 
BRANCH  67  71
ATOM     71  S   UNL     1       9.979   7.965  -6.636  1.00  0.00     0.124 S 
ATOM     72  O   UNL     1       9.780   7.124  -7.815  1.00  0.00    -0.237 OA
ATOM     73  O   UNL     1      11.159   8.824  -6.678  1.00  0.00    -0.237 OA
ATOM     74  O   UNL     1       9.729   7.298  -5.361  1.00  0.00    -0.744 OA
ENDBRANCH  67  71
ENDBRANCH  50  64
BRANCH  51  75
ATOM     75  C   UNL     1      -1.438   9.567  -0.294  1.00  0.00     0.023 A 
ATOM     76  C   UNL     1      -0.476   9.540   0.729  1.00  0.00     0.031 A 
ATOM     77  C   UNL     1      -2.403   8.531  -0.316  1.00  0.00     0.131 A 
ATOM     78  C   UNL     1      -0.398   8.419   1.579  1.00  0.00     0.055 A 
ATOM     79  C   UNL     1      -2.284   7.397   0.492  1.00  0.00     0.041 A 
ATOM     80  F   UNL     1      -3.378   8.535  -1.241  1.00  0.00    -0.206 F 
ATOM     81  C   UNL     1      -1.249   7.320   1.417  1.00  0.00     0.022 A 
BRANCH  78  82
ATOM     82  S   UNL     1       0.917   8.334   2.835  1.00  0.00     0.124 S 
ATOM     83  O   UNL     1       0.298   9.048   3.947  1.00  0.00    -0.237 OA
ATOM     84  O   UNL     1       1.102   6.901   3.048  1.00  0.00    -0.237 OA
ATOM     85  O   UNL     1       2.034   9.006   2.183  1.00  0.00    -0.744 OA
ENDBRANCH  78  82
ENDBRANCH  51  75
BRANCH  63  86
ATOM     86  C   UNL     1       2.883  14.861  -2.672  1.00  0.00     0.023 A 
ATOM     87  C   UNL     1       3.976  15.188  -3.515  1.00  0.00     0.031 A 
ATOM     88  C   UNL     1       2.660  15.743  -1.605  1.00  0.00     0.131 A 
ATOM     89  C   UNL     1       4.802  16.286  -3.265  1.00  0.00     0.055 A 
ATOM     90  C   UNL     1       3.414  16.908  -1.425  1.00  0.00     0.041 A 
ATOM     91  F   UNL     1       1.758  15.498  -0.648  1.00  0.00    -0.206 F 
ATOM     92  C   UNL     1       4.503  17.174  -2.241  1.00  0.00     0.022 A 
BRANCH  89  93
ATOM     93  S   UNL     1       6.368  16.484  -4.157  1.00  0.00     0.124 S 
ATOM     94  O   UNL     1       6.072  17.622  -5.023  1.00  0.00    -0.237 OA
ATOM     95  O   UNL     1       7.306  16.753  -3.068  1.00  0.00    -0.237 OA
ATOM     96  O   UNL     1       6.553  15.205  -4.830  1.00  0.00    -0.744 OA
ENDBRANCH  89  93
ENDBRANCH  63  86
ENDBRANCH  37  38
ENDBRANCH  29  32
ENDBRANCH  27  28
ENDBRANCH   1  27
TORSDOF 16
