REMARK SMILES O=C(NCCCNC(=O)[C@@H]1CC[C@@H](CNC(=O)c2cccc(O)c2)O1)c1ccc(-c2c3nc(c(-c4cc(S(=O)(=O)[O-])ccc4F)c4ccc([nH]4)c(-c4cc(S(=O)(=O)[O-])ccc4F)c4nc(c(-c5cc(S(=O)(=O)[O-])ccc5F)c5ccc2[nH]5)C=C4)C=C3)cc1
REMARK SMILES IDX 5 1 4 2 3 3 1 4 2 5 26 7 27 8 88 9 28 10 87 11 29 12 30 13
REMARK SMILES IDX 31 14 81 15 32 16 86 17 80 18 82 19 33 20 85 21 79 22 78 23
REMARK SMILES IDX 34 25 66 26 46 27 65 28 47 29 50 30 64 31 83 32 48 33 49 34
REMARK SMILES IDX 63 36 84 37 51 38 35 39 36 40 44 41 37 42 43 43 45 44 42 45
REMARK SMILES IDX 38 46 39 47 40 48 41 49 67 50 68 51 76 52 69 53 75 54 77 55
REMARK SMILES IDX 74 56 70 57 71 58 72 59 73 60 52 61 53 62 61 63 54 64 60 65
REMARK SMILES IDX 62 66 59 67 55 68 56 69 57 70 58 71 6 72 7 73 8 74 9 76
REMARK SMILES IDX 10 77 11 78 25 79 12 80 13 81 14 82 15 83 16 84 17 86 18 87
REMARK SMILES IDX 19 88 24 89 20 90 22 91 21 92 23 93
REMARK H PARENT 3 6 82 24 50 35 7 75 15 85 23 94
REMARK Flexibility Score: inf
ROOT
ATOM      1  C   UNL     1       4.780  -1.143  -2.362  1.00  0.00     0.042 C 
ENDROOT
BRANCH   1   2
ATOM      2  C   UNL     1       4.518   0.062  -1.470  1.00  0.00     0.118 C 
BRANCH   2   3
ATOM      3  N   UNL     1       3.096   0.257  -1.200  1.00  0.00    -0.352 N 
ATOM      4  O   UNL     1       1.167   0.147  -0.051  1.00  0.00    -0.269 OA
ATOM      5  C   UNL     1       2.397   0.167  -0.023  1.00  0.00     0.251 C 
ATOM      6  H   UNL     1       2.553   0.488  -1.988  1.00  0.00     0.163 HD
BRANCH   5   7
ATOM      7  C   UNL     1       3.113   0.095   1.267  1.00  0.00     0.039 A 
ATOM      8  C   UNL     1       4.244   0.882   1.492  1.00  0.00     0.014 A 
ATOM      9  C   UNL     1       2.629  -0.739   2.279  1.00  0.00     0.014 A 
ATOM     10  C   UNL     1       4.974   0.726   2.662  1.00  0.00     0.010 A 
ATOM     11  C   UNL     1       3.308  -0.818   3.498  1.00  0.00     0.010 A 
ATOM     12  C   UNL     1       4.501  -0.104   3.690  1.00  0.00    -0.014 A 
BRANCH  12  13
ATOM     13  C   UNL     1       5.238  -0.144   4.978  1.00  0.00     0.031 A 
ATOM     14  C   UNL     1       5.884  -1.410   5.464  1.00  0.00     0.074 A 
ATOM     15  C   UNL     1       5.345   0.995   5.691  1.00  0.00     0.049 A 
ATOM     16  N   UNL     1       6.571  -1.616   6.559  1.00  0.00    -0.248 NA
ATOM     17  C   UNL     1       5.732  -2.602   4.617  1.00  0.00     0.031 C 
ATOM     18  C   UNL     1       4.755   2.282   5.310  1.00  0.00     0.029 A 
ATOM     19  N   UNL     1       5.996   1.266   6.866  1.00  0.00    -0.354 N 
ATOM     20  C   UNL     1       6.925  -2.960   6.542  1.00  0.00     0.074 A 
ATOM     21  C   UNL     1       6.341  -3.529   5.344  1.00  0.00     0.031 C 
ATOM     22  C   UNL     1       5.112   3.213   6.205  1.00  0.00     0.029 A 
ATOM     23  C   UNL     1       5.885   2.578   7.265  1.00  0.00     0.049 A 
ATOM     24  H   UNL     1       6.496   0.588   7.375  1.00  0.00     0.167 HD
ATOM     25  C   UNL     1       7.675  -3.649   7.439  1.00  0.00     0.034 A 
ATOM     26  C   UNL     1       6.328   3.198   8.375  1.00  0.00     0.034 A 
ATOM     27  C   UNL     1       8.240  -3.060   8.632  1.00  0.00     0.049 A 
ATOM     28  C   UNL     1       7.105   2.396   9.384  1.00  0.00     0.074 A 
ATOM     29  C   UNL     1       9.033  -3.658   9.596  1.00  0.00     0.029 A 
ATOM     30  N   UNL     1       8.061  -1.740   9.033  1.00  0.00    -0.354 N 
ATOM     31  N   UNL     1       7.446   1.128   9.343  1.00  0.00    -0.248 NA
ATOM     32  C   UNL     1       7.558   3.107  10.584  1.00  0.00     0.031 C 
ATOM     33  C   UNL     1       9.269  -2.725  10.613  1.00  0.00     0.029 A 
ATOM     34  C   UNL     1       8.698  -1.518  10.246  1.00  0.00     0.049 A 
ATOM     35  H   UNL     1       7.556  -1.062   8.529  1.00  0.00     0.167 HD
ATOM     36  C   UNL     1       8.176   0.897  10.505  1.00  0.00     0.074 A 
ATOM     37  C   UNL     1       8.242   2.162  11.210  1.00  0.00     0.031 C 
ATOM     38  C   UNL     1       8.741  -0.255  10.947  1.00  0.00     0.034 A 
BRANCH  25  39
ATOM     39  C   UNL     1       7.884  -5.125   7.188  1.00  0.00     0.023 A 
ATOM     40  C   UNL     1       8.575  -5.594   6.056  1.00  0.00     0.031 A 
ATOM     41  C   UNL     1       7.370  -6.079   8.084  1.00  0.00     0.131 A 
ATOM     42  C   UNL     1       8.671  -6.973   5.814  1.00  0.00     0.055 A 
ATOM     43  C   UNL     1       7.540  -7.450   7.880  1.00  0.00     0.041 A 
ATOM     44  F   UNL     1       6.682  -5.695   9.171  1.00  0.00    -0.206 F 
ATOM     45  C   UNL     1       8.181  -7.905   6.732  1.00  0.00     0.022 A 
BRANCH  42  46
ATOM     46  S   UNL     1       9.318  -7.529   4.213  1.00  0.00     0.124 S 
ATOM     47  O   UNL     1       8.408  -6.870   3.277  1.00  0.00    -0.237 OA
ATOM     48  O   UNL     1      10.686  -7.023   4.230  1.00  0.00    -0.237 OA
ATOM     49  O   UNL     1       9.188  -8.983   4.274  1.00  0.00    -0.744 OA
ENDBRANCH  42  46
ENDBRANCH  25  39
BRANCH  26  50
ATOM     50  C   UNL     1       6.014   4.636   8.607  1.00  0.00     0.023 A 
ATOM     51  C   UNL     1       7.033   5.596   8.696  1.00  0.00     0.031 A 
ATOM     52  C   UNL     1       4.685   5.068   8.771  1.00  0.00     0.131 A 
ATOM     53  C   UNL     1       6.710   6.931   8.986  1.00  0.00     0.055 A 
ATOM     54  C   UNL     1       4.365   6.406   8.997  1.00  0.00     0.041 A 
ATOM     55  F   UNL     1       3.671   4.191   8.693  1.00  0.00    -0.206 F 
ATOM     56  C   UNL     1       5.383   7.345   9.120  1.00  0.00     0.022 A 
BRANCH  53  57
ATOM     57  S   UNL     1       8.061   8.105   9.276  1.00  0.00     0.124 S 
ATOM     58  O   UNL     1       8.780   7.466  10.372  1.00  0.00    -0.237 OA
ATOM     59  O   UNL     1       8.738   8.112   7.983  1.00  0.00    -0.237 OA
ATOM     60  O   UNL     1       7.367   9.343   9.621  1.00  0.00    -0.744 OA
ENDBRANCH  53  57
ENDBRANCH  26  50
BRANCH  38  61
ATOM     61  C   UNL     1       9.516  -0.178  12.240  1.00  0.00     0.023 A 
ATOM     62  C   UNL     1       8.886   0.099  13.466  1.00  0.00     0.031 A 
ATOM     63  C   UNL     1      10.911  -0.359  12.240  1.00  0.00     0.131 A 
ATOM     64  C   UNL     1       9.656   0.249  14.630  1.00  0.00     0.055 A 
ATOM     65  C   UNL     1      11.664  -0.275  13.411  1.00  0.00     0.041 A 
ATOM     66  F   UNL     1      11.566  -0.621  11.097  1.00  0.00    -0.206 F 
ATOM     67  C   UNL     1      11.039   0.045  14.613  1.00  0.00     0.022 A 
BRANCH  64  68
ATOM     68  S   UNL     1       8.841   0.816  16.147  1.00  0.00     0.124 S 
ATOM     69  O   UNL     1       8.277   2.095  15.727  1.00  0.00    -0.237 OA
ATOM     70  O   UNL     1       7.879  -0.251  16.402  1.00  0.00    -0.237 OA
ATOM     71  O   UNL     1       9.936   0.907  17.111  1.00  0.00    -0.744 OA
ENDBRANCH  64  68
ENDBRANCH  38  61
ENDBRANCH  12  13
ENDBRANCH   5   7
ENDBRANCH   2   3
ENDBRANCH   1   2
BRANCH   1  72
ATOM     72  C   UNL     1       4.142  -1.017  -3.737  1.00  0.00     0.117 C 
BRANCH  72  73
ATOM     73  N   UNL     1       4.748   0.025  -4.543  1.00  0.00    -0.354 N 
ATOM     74  C   UNL     1       5.686  -0.083  -5.530  1.00  0.00     0.249 C 
ATOM     75  H   UNL     1       4.439   0.940  -4.352  1.00  0.00     0.163 HD
ATOM     76  O   UNL     1       6.035   0.949  -6.110  1.00  0.00    -0.272 OA
BRANCH  74  77
ATOM     77  C   UNL     1       6.215  -1.459  -5.963  1.00  0.00     0.207 C 
ATOM     78  C   UNL     1       5.189  -2.231  -6.777  1.00  0.00     0.045 C 
ATOM     79  O   UNL     1       6.619  -2.309  -4.886  1.00  0.00    -0.363 OA
ATOM     80  C   UNL     1       5.611  -3.664  -6.572  1.00  0.00     0.037 C 
ATOM     81  C   UNL     1       6.210  -3.657  -5.173  1.00  0.00     0.138 C 
BRANCH  81  82
ATOM     82  C   UNL     1       7.373  -4.639  -4.970  1.00  0.00     0.148 C 
BRANCH  82  83
ATOM     83  N   UNL     1       8.519  -4.352  -5.828  1.00  0.00    -0.349 N 
ATOM     84  C   UNL     1       9.631  -3.592  -5.562  1.00  0.00     0.251 C 
ATOM     85  H   UNL     1       8.489  -4.760  -6.724  1.00  0.00     0.163 HD
ATOM     86  O   UNL     1      10.341  -3.221  -6.495  1.00  0.00    -0.269 OA
BRANCH  84  87
ATOM     87  C   UNL     1       9.991  -3.237  -4.172  1.00  0.00     0.043 A 
ATOM     88  C   UNL     1      10.068  -4.219  -3.176  1.00  0.00     0.014 A 
ATOM     89  C   UNL     1      10.346  -1.917  -3.882  1.00  0.00     0.060 A 
ATOM     90  C   UNL     1      10.430  -3.866  -1.875  1.00  0.00     0.005 A 
ATOM     91  C   UNL     1      10.721  -1.582  -2.585  1.00  0.00     0.116 A 
ATOM     92  C   UNL     1      10.754  -2.542  -1.576  1.00  0.00     0.046 A 
BRANCH  91  93
ATOM     93  O   UNL     1      11.062  -0.285  -2.333  1.00  0.00    -0.508 OA
ATOM     94  H   UNL     1      11.319  -0.028  -1.470  1.00  0.00     0.293 HD
ENDBRANCH  91  93
ENDBRANCH  84  87
ENDBRANCH  82  83
ENDBRANCH  81  82
ENDBRANCH  74  77
ENDBRANCH  72  73
ENDBRANCH   1  72
TORSDOF 17
