REMARK SMILES O=C(CCOc1cccc(/C=C2/SC(=S)N(c3ccc(Cl)c(Cl)c3)C2=O)c1)NCCCNC(=O)c1ccc(-c2c3nc(c(-c4cc(S(=O)(=O)[O-])ccc4F)c4ccc([nH]4)c(-c4cc(S(=O)(=O)[O-])ccc4F)c4nc(c(-c5cc(S(=O)(=O)[O-])ccc5F)c5ccc2[nH]5)C=C4)C=C3)cc1
REMARK SMILES IDX 29 1 28 2 1 3 2 4 3 6 4 7 5 8 6 9 7 10 27 11 8 12 10 13 9 14
REMARK SMILES IDX 11 15 12 16 13 17 25 18 14 19 16 20 26 21 15 22 17 23 18 24
REMARK SMILES IDX 24 25 19 26 22 27 20 28 23 29 21 30 30 31 31 32 32 33 33 34
REMARK SMILES IDX 34 36 35 37 36 38 97 39 37 40 96 41 38 42 39 43 40 44 90 45
REMARK SMILES IDX 41 46 95 47 89 48 91 49 42 50 94 51 88 52 87 53 43 55 75 56
REMARK SMILES IDX 55 57 74 58 56 59 59 60 73 61 92 62 57 63 58 64 72 66 93 67
REMARK SMILES IDX 60 68 44 69 45 70 53 71 46 72 52 73 54 74 51 75 47 76 48 77
REMARK SMILES IDX 49 78 50 79 76 80 77 81 85 82 78 83 84 84 86 85 83 86 79 87
REMARK SMILES IDX 80 88 81 89 82 90 61 91 62 92 70 93 63 94 69 95 71 96 68 97
REMARK SMILES IDX 64 98 65 99 66 100 67 101
REMARK H PARENT 28 5 32 35 91 54 59 65
REMARK Flexibility Score: inf
ROOT
ATOM      1  C   UNL     1       4.338  -1.728   0.527  1.00  0.00     0.117 C 
ENDROOT
BRANCH   1   2
ATOM      2  N   UNL     1       4.412  -0.739  -0.523  1.00  0.00    -0.356 N 
ATOM      3  O   UNL     1       2.171  -0.651  -1.062  1.00  0.00    -0.275 OA
ATOM      4  C   UNL     1       3.280  -0.128  -1.014  1.00  0.00     0.223 C 
ATOM      5  H   UNL     1       5.290  -0.497  -0.895  1.00  0.00     0.163 HD
BRANCH   4   6
ATOM      6  C   UNL     1       3.503   1.316  -1.374  1.00  0.00     0.141 C 
BRANCH   6   7
ATOM      7  C   UNL     1       2.862   2.234  -0.326  1.00  0.00     0.239 C 
BRANCH   7   8
ATOM      8  O   UNL     1       3.505   2.216   0.951  1.00  0.00    -0.493 OA
BRANCH   8   9
ATOM      9  C   UNL     1       2.960   1.543   2.017  1.00  0.00     0.119 A 
ATOM     10  C   UNL     1       3.548   1.872   3.243  1.00  0.00     0.046 A 
ATOM     11  C   UNL     1       2.048   0.476   1.975  1.00  0.00     0.054 A 
ATOM     12  C   UNL     1       3.274   1.121   4.389  1.00  0.00     0.004 A 
ATOM     13  C   UNL     1       1.836  -0.354   3.107  1.00  0.00    -0.021 A 
ATOM     14  C   UNL     1       2.439  -0.000   4.318  1.00  0.00     0.008 A 
BRANCH  13  15
ATOM     15  C   UNL     1       0.984  -1.562   3.007  1.00  0.00     0.029 C 
ATOM     16  C   UNL     1       1.255  -2.864   2.762  1.00  0.00     0.081 C 
ATOM     17  S   UNL     1      -0.044  -3.975   2.459  1.00  0.00    -0.054 SA
ATOM     18  C   UNL     1       2.534  -3.632   2.542  1.00  0.00     0.270 C 
ATOM     19  C   UNL     1       0.994  -5.109   1.585  1.00  0.00     0.152 C 
ATOM     20  N   UNL     1       2.311  -4.680   1.636  1.00  0.00    -0.261 N 
ATOM     21  O   UNL     1       3.570  -3.375   3.119  1.00  0.00    -0.268 OA
ATOM     22  S   UNL     1       0.340  -6.496   0.913  1.00  0.00    -0.051 S 
BRANCH  20  23
ATOM     23  C   UNL     1       3.387  -5.217   0.830  1.00  0.00     0.052 A 
ATOM     24  C   UNL     1       4.702  -5.329   1.303  1.00  0.00     0.028 A 
ATOM     25  C   UNL     1       3.177  -5.507  -0.533  1.00  0.00     0.048 A 
ATOM     26  C   UNL     1       5.766  -5.682   0.452  1.00  0.00     0.024 A 
ATOM     27  C   UNL     1       4.234  -5.859  -1.391  1.00  0.00     0.061 A 
ATOM     28  C   UNL     1       5.537  -5.930  -0.901  1.00  0.00     0.059 A 
ATOM     29  Cl  UNL     1       3.860  -6.133  -3.058  1.00  0.00    -0.083 Cl
ATOM     30  Cl  UNL     1       6.896  -6.265  -1.914  1.00  0.00    -0.083 Cl
ENDBRANCH  20  23
ENDBRANCH  13  15
ENDBRANCH   8   9
ENDBRANCH   7   8
ENDBRANCH   6   7
ENDBRANCH   4   6
ENDBRANCH   1   2
BRANCH   1  31
ATOM     31  C   UNL     1       4.845  -1.106   1.825  1.00  0.00     0.042 C 
BRANCH  31  32
ATOM     32  C   UNL     1       6.149  -1.634   2.377  1.00  0.00     0.118 C 
BRANCH  32  33
ATOM     33  N   UNL     1       6.345  -1.067   3.712  1.00  0.00    -0.352 N 
ATOM     34  C   UNL     1       6.080  -1.522   4.982  1.00  0.00     0.251 C 
ATOM     35  H   UNL     1       6.753  -0.171   3.697  1.00  0.00     0.163 HD
ATOM     36  O   UNL     1       5.917  -0.660   5.851  1.00  0.00    -0.269 OA
BRANCH  34  37
ATOM     37  C   UNL     1       6.036  -2.959   5.378  1.00  0.00     0.039 A 
ATOM     38  C   UNL     1       5.623  -3.273   6.686  1.00  0.00     0.014 A 
ATOM     39  C   UNL     1       6.504  -3.998   4.578  1.00  0.00     0.014 A 
ATOM     40  C   UNL     1       5.707  -4.584   7.179  1.00  0.00     0.010 A 
ATOM     41  C   UNL     1       6.479  -5.320   5.026  1.00  0.00     0.010 A 
ATOM     42  C   UNL     1       6.136  -5.625   6.348  1.00  0.00    -0.014 A 
BRANCH  42  43
ATOM     43  C   UNL     1       6.343  -7.017   6.837  1.00  0.00     0.031 A 
ATOM     44  C   UNL     1       7.721  -7.634   6.752  1.00  0.00     0.074 A 
ATOM     45  C   UNL     1       5.304  -7.755   7.272  1.00  0.00     0.049 A 
ATOM     46  N   UNL     1       8.093  -8.876   6.930  1.00  0.00    -0.248 NA
ATOM     47  C   UNL     1       8.820  -6.733   6.368  1.00  0.00     0.031 C 
ATOM     48  C   UNL     1       3.924  -7.285   7.392  1.00  0.00     0.029 A 
ATOM     49  N   UNL     1       5.246  -9.066   7.675  1.00  0.00    -0.354 N 
ATOM     50  C   UNL     1       9.456  -8.912   6.643  1.00  0.00     0.074 A 
ATOM     51  C   UNL     1       9.828  -7.579   6.223  1.00  0.00     0.031 C 
ATOM     52  C   UNL     1       3.157  -8.288   7.848  1.00  0.00     0.029 A 
ATOM     53  C   UNL     1       3.977  -9.487   8.001  1.00  0.00     0.049 A 
ATOM     54  H   UNL     1       6.037  -9.650   7.726  1.00  0.00     0.167 HD
ATOM     55  C   UNL     1      10.320  -9.955   6.737  1.00  0.00     0.034 A 
ATOM     56  C   UNL     1       3.522 -10.704   8.359  1.00  0.00     0.034 A 
ATOM     57  C   UNL     1       9.938 -11.270   7.194  1.00  0.00     0.049 A 
ATOM     58  C   UNL     1       4.498 -11.851   8.454  1.00  0.00     0.074 A 
ATOM     59  C   UNL     1      10.738 -12.385   7.380  1.00  0.00     0.029 A 
ATOM     60  N   UNL     1       8.647 -11.649   7.540  1.00  0.00    -0.354 N 
ATOM     61  N   UNL     1       5.786 -11.866   8.195  1.00  0.00    -0.248 NA
ATOM     62  C   UNL     1       3.958 -13.141   8.901  1.00  0.00     0.031 C 
ATOM     63  C   UNL     1       9.922 -13.451   7.776  1.00  0.00     0.029 A 
ATOM     64  C   UNL     1       8.625 -12.984   7.914  1.00  0.00     0.049 A 
ATOM     65  H   UNL     1       7.862 -11.056   7.522  1.00  0.00     0.167 HD
ATOM     66  C   UNL     1       6.214 -13.160   8.480  1.00  0.00     0.074 A 
ATOM     67  C   UNL     1       5.051 -13.887   8.947  1.00  0.00     0.031 C 
ATOM     68  C   UNL     1       7.455 -13.700   8.368  1.00  0.00     0.034 A 
BRANCH  55  69
ATOM     69  C   UNL     1      11.753  -9.718   6.311  1.00  0.00     0.023 A 
ATOM     70  C   UNL     1      12.576  -8.777   6.956  1.00  0.00     0.031 A 
ATOM     71  C   UNL     1      12.298 -10.425   5.223  1.00  0.00     0.131 A 
ATOM     72  C   UNL     1      13.861  -8.509   6.460  1.00  0.00     0.055 A 
ATOM     73  C   UNL     1      13.610 -10.217   4.790  1.00  0.00     0.041 A 
ATOM     74  F   UNL     1      11.559 -11.321   4.551  1.00  0.00    -0.206 F 
ATOM     75  C   UNL     1      14.395  -9.243   5.398  1.00  0.00     0.022 A 
BRANCH  72  76
ATOM     76  S   UNL     1      14.765  -7.083   7.122  1.00  0.00     0.124 S 
ATOM     77  O   UNL     1      13.846  -5.987   6.822  1.00  0.00    -0.237 OA
ATOM     78  O   UNL     1      14.911  -7.427   8.531  1.00  0.00    -0.237 OA
ATOM     79  O   UNL     1      16.006  -7.074   6.349  1.00  0.00    -0.744 OA
ENDBRANCH  72  76
ENDBRANCH  55  69
BRANCH  56  80
ATOM     80  C   UNL     1       2.073 -10.912   8.646  1.00  0.00     0.023 A 
ATOM     81  C   UNL     1       1.637 -11.267   9.932  1.00  0.00     0.031 A 
ATOM     82  C   UNL     1       1.107 -10.794   7.631  1.00  0.00     0.131 A 
ATOM     83  C   UNL     1       0.279 -11.535  10.162  1.00  0.00     0.055 A 
ATOM     84  C   UNL     1      -0.251 -11.008   7.878  1.00  0.00     0.041 A 
ATOM     85  F   UNL     1       1.469 -10.453   6.385  1.00  0.00    -0.206 F 
ATOM     86  C   UNL     1      -0.670 -11.394   9.148  1.00  0.00     0.022 A 
BRANCH  83  87
ATOM     87  S   UNL     1      -0.219 -12.151  11.794  1.00  0.00     0.124 S 
ATOM     88  O   UNL     1       0.590 -13.358  11.915  1.00  0.00    -0.237 OA
ATOM     89  O   UNL     1       0.153 -11.040  12.663  1.00  0.00    -0.237 OA
ATOM     90  O   UNL     1      -1.656 -12.373  11.650  1.00  0.00    -0.744 OA
ENDBRANCH  83  87
ENDBRANCH  56  80
BRANCH  68  91
ATOM     91  C   UNL     1       7.618 -15.136   8.809  1.00  0.00     0.023 A 
ATOM     92  C   UNL     1       6.987 -16.195   8.133  1.00  0.00     0.031 A 
ATOM     93  C   UNL     1       8.393 -15.443   9.942  1.00  0.00     0.131 A 
ATOM     94  C   UNL     1       7.083 -17.501   8.637  1.00  0.00     0.055 A 
ATOM     95  C   UNL     1       8.540 -16.754  10.399  1.00  0.00     0.041 A 
ATOM     96  F   UNL     1       9.017 -14.472  10.628  1.00  0.00    -0.206 F 
ATOM     97  C   UNL     1       7.869 -17.790   9.756  1.00  0.00     0.022 A 
BRANCH  94  98
ATOM     98  S   UNL     1       6.073 -18.803   7.877  1.00  0.00     0.124 S 
ATOM     99  O   UNL     1       4.726 -18.258   8.011  1.00  0.00    -0.237 OA
ATOM    100  O   UNL     1       6.607 -18.859   6.520  1.00  0.00    -0.237 OA
ATOM    101  O   UNL     1       6.352 -19.978   8.701  1.00  0.00    -0.744 OA
ENDBRANCH  94  98
ENDBRANCH  68  91
ENDBRANCH  42  43
ENDBRANCH  34  37
ENDBRANCH  32  33
ENDBRANCH  31  32
ENDBRANCH   1  31
TORSDOF 18
