REMARK SMILES O=C(NCCCNC(=O)[C@@H]1CCC[C@@H](C(=O)N2CCN3C(=O)NC[C@@H]3C2)C1)c1ccc(-c2c3nc(c(-c4cc(S(=O)(=O)[O-])ccc4F)c4ccc([nH]4)c(-c4cc(S(=O)(=O)[O-])ccc4F)c4nc(c(-c5cc(S(=O)(=O)[O-])ccc5F)c5ccc2[nH]5)C=C4)C=C3)cc1
REMARK SMILES IDX 4 1 3 2 1 3 2 4 28 6 29 7 90 8 30 9 89 10 31 11 32 12 33 13
REMARK SMILES IDX 83 14 34 15 88 16 82 17 84 18 35 19 87 20 81 21 80 22 36 24
REMARK SMILES IDX 68 25 48 26 67 27 49 28 52 29 66 30 85 31 50 32 51 33 65 35
REMARK SMILES IDX 86 36 53 37 37 38 38 39 46 40 39 41 45 42 47 43 44 44 40 45
REMARK SMILES IDX 41 46 42 47 43 48 69 49 70 50 78 51 71 52 77 53 79 54 76 55
REMARK SMILES IDX 72 56 73 57 74 58 75 59 54 60 55 61 63 62 56 63 62 64 64 65
REMARK SMILES IDX 61 66 57 67 58 68 59 69 60 70 5 71 6 72 7 73 8 74 9 76 10 77
REMARK SMILES IDX 11 78 27 79 12 80 14 81 13 82 15 83 16 84 17 85 18 86 26 87
REMARK SMILES IDX 19 88 25 89 20 90 24 91 21 92 23 93 22 94
REMARK H PARENT 3 5 84 23 52 34 7 75 23 95
REMARK Flexibility Score: inf
ROOT
ATOM      1  C   UNL     1       4.345   0.427  -1.214  1.00  0.00     0.118 C 
ENDROOT
BRANCH   1   2
ATOM      2  N   UNL     1       2.947   0.690  -0.884  1.00  0.00    -0.352 N 
ATOM      3  O   UNL     1       1.024   0.286   0.216  1.00  0.00    -0.269 OA
ATOM      4  C   UNL     1       2.249   0.318   0.236  1.00  0.00     0.251 C 
ATOM      5  H   UNL     1       2.439   1.202  -1.554  1.00  0.00     0.163 HD
BRANCH   4   6
ATOM      6  C   UNL     1       3.003  -0.021   1.455  1.00  0.00     0.039 A 
ATOM      7  C   UNL     1       4.146   0.716   1.773  1.00  0.00     0.014 A 
ATOM      8  C   UNL     1       2.570  -1.056   2.285  1.00  0.00     0.014 A 
ATOM      9  C   UNL     1       4.948   0.317   2.823  1.00  0.00     0.010 A 
ATOM     10  C   UNL     1       3.308  -1.363   3.430  1.00  0.00     0.010 A 
ATOM     11  C   UNL     1       4.508  -0.686   3.697  1.00  0.00    -0.014 A 
BRANCH  11  12
ATOM     12  C   UNL     1       5.285  -0.919   4.935  1.00  0.00     0.031 A 
ATOM     13  C   UNL     1       5.934  -2.241   5.205  1.00  0.00     0.074 A 
ATOM     14  C   UNL     1       5.432   0.116   5.787  1.00  0.00     0.049 A 
ATOM     15  N   UNL     1       6.643  -2.609   6.240  1.00  0.00    -0.248 NA
ATOM     16  C   UNL     1       5.757  -3.291   4.191  1.00  0.00     0.031 C 
ATOM     17  C   UNL     1       4.843   1.449   5.601  1.00  0.00     0.029 A 
ATOM     18  N   UNL     1       6.136   0.232   6.955  1.00  0.00    -0.354 N 
ATOM     19  C   UNL     1       6.994  -3.933   6.010  1.00  0.00     0.074 A 
ATOM     20  C   UNL     1       6.378  -4.317   4.756  1.00  0.00     0.031 C 
ATOM     21  C   UNL     1       5.262   2.259   6.580  1.00  0.00     0.029 A 
ATOM     22  C   UNL     1       6.058   1.483   7.520  1.00  0.00     0.049 A 
ATOM     23  H   UNL     1       6.648  -0.509   7.352  1.00  0.00     0.167 HD
ATOM     24  C   UNL     1       7.769  -4.742   6.774  1.00  0.00     0.034 A 
ATOM     25  C   UNL     1       6.541   1.947   8.687  1.00  0.00     0.034 A 
ATOM     26  C   UNL     1       8.358  -4.330   8.027  1.00  0.00     0.049 A 
ATOM     27  C   UNL     1       7.326   1.000   9.551  1.00  0.00     0.074 A 
ATOM     28  C   UNL     1       9.154  -5.064   8.888  1.00  0.00     0.029 A 
ATOM     29  N   UNL     1       8.208  -3.073   8.603  1.00  0.00    -0.354 N 
ATOM     30  N   UNL     1       7.647  -0.253   9.321  1.00  0.00    -0.248 NA
ATOM     31  C   UNL     1       7.816   1.528  10.828  1.00  0.00     0.031 C 
ATOM     32  C   UNL     1       9.421  -4.280  10.016  1.00  0.00     0.029 A 
ATOM     33  C   UNL     1       8.871  -3.023   9.820  1.00  0.00     0.049 A 
ATOM     34  H   UNL     1       7.705  -2.326   8.204  1.00  0.00     0.167 HD
ATOM     35  C   UNL     1       8.403  -0.654  10.417  1.00  0.00     0.074 A 
ATOM     36  C   UNL     1       8.510   0.499  11.289  1.00  0.00     0.031 C 
ATOM     37  C   UNL     1       8.958  -1.865  10.681  1.00  0.00     0.034 A 
BRANCH  24  38
ATOM     38  C   UNL     1       7.982  -6.158   6.293  1.00  0.00     0.023 A 
ATOM     39  C   UNL     1       8.642  -6.436   5.083  1.00  0.00     0.031 A 
ATOM     40  C   UNL     1       7.503  -7.246   7.044  1.00  0.00     0.131 A 
ATOM     41  C   UNL     1       8.741  -7.759   4.626  1.00  0.00     0.055 A 
ATOM     42  C   UNL     1       7.681  -8.567   6.626  1.00  0.00     0.041 A 
ATOM     43  F   UNL     1       6.841  -7.045   8.195  1.00  0.00    -0.206 F 
ATOM     44  C   UNL     1       8.291  -8.829   5.403  1.00  0.00     0.022 A 
BRANCH  41  45
ATOM     45  S   UNL     1       9.334  -8.049   2.936  1.00  0.00     0.124 S 
ATOM     46  O   UNL     1       8.372  -7.280   2.150  1.00  0.00    -0.237 OA
ATOM     47  O   UNL     1      10.691  -7.518   2.981  1.00  0.00    -0.237 OA
ATOM     48  O   UNL     1       9.235  -9.499   2.781  1.00  0.00    -0.744 OA
ENDBRANCH  41  45
ENDBRANCH  24  38
BRANCH  25  49
ATOM     49  C   UNL     1       6.252   3.342   9.124  1.00  0.00     0.023 A 
ATOM     50  C   UNL     1       7.289   4.252   9.373  1.00  0.00     0.031 A 
ATOM     51  C   UNL     1       4.931   3.773   9.351  1.00  0.00     0.131 A 
ATOM     52  C   UNL     1       6.995   5.521   9.893  1.00  0.00     0.055 A 
ATOM     53  C   UNL     1       4.639   5.062   9.796  1.00  0.00     0.041 A 
ATOM     54  F   UNL     1       3.897   2.945   9.129  1.00  0.00    -0.206 F 
ATOM     55  C   UNL     1       5.677   5.939  10.089  1.00  0.00     0.022 A 
BRANCH  52  56
ATOM     56  S   UNL     1       8.370   6.572  10.430  1.00  0.00     0.124 S 
ATOM     57  O   UNL     1       9.059   5.698  11.373  1.00  0.00    -0.237 OA
ATOM     58  O   UNL     1       9.061   6.832   9.172  1.00  0.00    -0.237 OA
ATOM     59  O   UNL     1       7.702   7.728  11.024  1.00  0.00    -0.744 OA
ENDBRANCH  52  56
ENDBRANCH  25  49
BRANCH  37  60
ATOM     60  C   UNL     1       9.774  -1.973  11.946  1.00  0.00     0.023 A 
ATOM     61  C   UNL     1       9.192  -1.829  13.217  1.00  0.00     0.031 A 
ATOM     62  C   UNL     1      11.161  -2.191  11.873  1.00  0.00     0.131 A 
ATOM     63  C   UNL     1      10.003  -1.834  14.360  1.00  0.00     0.055 A 
ATOM     64  C   UNL     1      11.952  -2.270  13.019  1.00  0.00     0.041 A 
ATOM     65  F   UNL     1      11.771  -2.328  10.685  1.00  0.00    -0.206 F 
ATOM     66  C   UNL     1      11.377  -2.075  14.271  1.00  0.00     0.022 A 
BRANCH  63  67
ATOM     67  S   UNL     1       9.258  -1.404  15.957  1.00  0.00     0.124 S 
ATOM     68  O   UNL     1       8.720  -0.074  15.690  1.00  0.00    -0.237 OA
ATOM     69  O   UNL     1       8.273  -2.465  16.137  1.00  0.00    -0.237 OA
ATOM     70  O   UNL     1      10.387  -1.443  16.884  1.00  0.00    -0.744 OA
ENDBRANCH  63  67
ENDBRANCH  37  60
ENDBRANCH  11  12
ENDBRANCH   4   6
ENDBRANCH   1   2
BRANCH   1  71
ATOM     71  C   UNL     1       4.446  -0.621  -2.305  1.00  0.00     0.042 C 
BRANCH  71  72
ATOM     72  C   UNL     1       3.897  -0.074  -3.614  1.00  0.00     0.117 C 
BRANCH  72  73
ATOM     73  N   UNL     1       4.868   0.809  -4.222  1.00  0.00    -0.356 N 
ATOM     74  C   UNL     1       6.028   0.526  -4.871  1.00  0.00     0.223 C 
ATOM     75  H   UNL     1       4.655   1.768  -4.156  1.00  0.00     0.163 HD
ATOM     76  O   UNL     1       6.854   1.443  -4.929  1.00  0.00    -0.275 OA
BRANCH  74  77
ATOM     77  C   UNL     1       6.204  -0.747  -5.710  1.00  0.00     0.079 C 
ATOM     78  C   UNL     1       5.525  -2.049  -5.274  1.00  0.00     0.013 C 
ATOM     79  C   UNL     1       7.680  -0.947  -6.080  1.00  0.00     0.027 C 
ATOM     80  C   UNL     1       5.923  -3.337  -5.985  1.00  0.00     0.002 C 
ATOM     81  C   UNL     1       8.010  -2.215  -6.866  1.00  0.00     0.079 C 
ATOM     82  C   UNL     1       7.413  -3.458  -6.206  1.00  0.00     0.013 C 
BRANCH  81  83
ATOM     83  C   UNL     1       7.841  -2.243  -8.406  1.00  0.00     0.225 C 
ATOM     84  O   UNL     1       8.831  -2.480  -9.110  1.00  0.00    -0.275 OA
BRANCH  83  85
ATOM     85  N   UNL     1       6.585  -2.251  -8.986  1.00  0.00    -0.339 N 
ATOM     86  C   UNL     1       5.565  -1.218  -8.795  1.00  0.00     0.141 C 
ATOM     87  C   UNL     1       6.286  -3.301  -9.958  1.00  0.00     0.146 C 
ATOM     88  C   UNL     1       4.513  -0.989  -9.896  1.00  0.00     0.143 C 
ATOM     89  C   UNL     1       5.765  -2.710 -11.257  1.00  0.00     0.125 C 
ATOM     90  N   UNL     1       4.599  -1.884 -11.017  1.00  0.00    -0.317 N 
ATOM     91  C   UNL     1       5.231  -3.737 -12.251  1.00  0.00     0.144 C 
ATOM     92  C   UNL     1       3.639  -2.047 -11.997  1.00  0.00     0.317 C 
ATOM     93  N   UNL     1       4.059  -3.099 -12.799  1.00  0.00    -0.336 N 
ATOM     94  O   UNL     1       2.603  -1.431 -12.129  1.00  0.00    -0.249 OA
ATOM     95  H   UNL     1       3.614  -3.374 -13.633  1.00  0.00     0.165 HD
ENDBRANCH  83  85
ENDBRANCH  81  83
ENDBRANCH  74  77
ENDBRANCH  72  73
ENDBRANCH  71  72
ENDBRANCH   1  71
TORSDOF 15
