REMARK SMILES C[NH2+][C@]1(C(=O)NCCCNC(=O)c2ccc(-c3c4nc(c(-c5cc(S(=O)(=O)[O-])ccc5F)c5ccc([nH]5)c(-c5cc(S(=O)(=O)[O-])ccc5F)c5nc(c(-c6cc(S(=O)(=O)[O-])ccc6F)c6ccc3[nH]6)C=C5)C=C4)cc2)CCC[C@@H]([N@H+]2CC[C@@H](C)C2)C1
REMARK SMILES IDX 9 1 8 2 7 3 6 4 4 5 5 6 3 8 76 9 86 10 77 11 79 12 78 13
REMARK SMILES IDX 2 14 1 15 80 18 81 19 85 20 82 22 83 23 84 24 10 25 11 26
REMARK SMILES IDX 12 28 13 29 14 30 75 31 15 32 74 33 16 34 17 35 18 36 68 37
REMARK SMILES IDX 19 38 73 39 67 40 69 41 20 42 72 43 66 44 65 45 21 47 53 48
REMARK SMILES IDX 33 49 52 50 34 51 37 52 51 53 70 54 35 55 36 56 50 58 71 59
REMARK SMILES IDX 38 60 22 61 23 62 31 63 24 64 30 65 32 66 29 67 25 68 26 69
REMARK SMILES IDX 27 70 28 71 54 72 55 73 63 74 56 75 62 76 64 77 61 78 57 79
REMARK SMILES IDX 58 80 59 81 60 82 39 83 40 84 48 85 41 86 47 87 49 88 46 89
REMARK SMILES IDX 42 90 43 91 44 92 45 93
REMARK H PARENT 6 7 2 16 2 17 80 21 10 27 69 46 37 57
REMARK Flexibility Score: inf
ROOT
ATOM      1  C   UNL     1       2.436  -2.281   4.531  1.00  0.00     0.118 C 
ENDROOT
BRANCH   1   2
ATOM      2  C   UNL     1       0.937  -2.216   4.290  1.00  0.00     0.042 C 
BRANCH   2   3
ATOM      3  C   UNL     1       0.519  -1.035   3.435  1.00  0.00     0.118 C 
BRANCH   3   4
ATOM      4  N   UNL     1       1.058  -1.113   2.082  1.00  0.00    -0.351 N 
ATOM      5  C   UNL     1       0.464  -1.170   0.853  1.00  0.00     0.281 C 
ATOM      6  O   UNL     1       1.230  -1.057  -0.111  1.00  0.00    -0.268 OA
ATOM      7  H   UNL     1       2.042  -1.127   2.048  1.00  0.00     0.163 HD
BRANCH   5   8
ATOM      8  C   UNL     1      -1.095  -1.237   0.678  1.00  0.00     0.181 C 
ATOM      9  C   UNL     1      -1.739  -2.431   1.411  1.00  0.00     0.079 C 
ATOM     10  C   UNL     1      -1.598   0.122   1.216  1.00  0.00     0.144 C 
ATOM     11  C   UNL     1      -3.251  -2.285   1.571  1.00  0.00     0.013 C 
ATOM     12  C   UNL     1      -3.075   0.254   1.597  1.00  0.00     0.190 C 
ATOM     13  C   UNL     1      -3.603  -1.001   2.320  1.00  0.00     0.065 C 
BRANCH   8  14
ATOM     14  N   UNL     1      -1.473  -1.238  -0.775  1.00  0.00    -0.336 N 
ATOM     15  C   UNL     1      -1.022  -2.391  -1.550  1.00  0.00     0.331 C 
ATOM     16  H   UNL     1      -2.490  -1.201  -0.834  1.00  0.00     0.346 HD
ATOM     17  H   UNL     1      -1.003  -0.430  -1.183  1.00  0.00     0.346 HD
ENDBRANCH   8  14
BRANCH  12  18
ATOM     18  N   UNL     1      -3.338   1.494   2.372  1.00  0.00    -0.332 N 
ATOM     19  C   UNL     1      -2.830   1.525   3.751  1.00  0.00     0.262 C 
ATOM     20  C   UNL     1      -2.917   2.738   1.710  1.00  0.00     0.265 C 
ATOM     21  H   UNL     1      -4.356   1.455   2.413  1.00  0.00     0.348 HD
ATOM     22  C   UNL     1      -2.213   2.903   3.973  1.00  0.00     0.070 C 
ATOM     23  C   UNL     1      -1.843   3.394   2.582  1.00  0.00     0.047 C 
ATOM     24  C   UNL     1      -0.399   3.044   2.214  1.00  0.00     0.014 C 
ENDBRANCH  12  18
ENDBRANCH   5   8
ENDBRANCH   3   4
ENDBRANCH   2   3
ENDBRANCH   1   2
BRANCH   1  25
ATOM     25  N   UNL     1       2.924  -1.163   5.328  1.00  0.00    -0.352 N 
ATOM     26  C   UNL     1       3.501  -1.158   6.577  1.00  0.00     0.251 C 
ATOM     27  H   UNL     1       2.827  -0.277   4.909  1.00  0.00     0.163 HD
ATOM     28  O   UNL     1       3.661  -0.095   7.162  1.00  0.00    -0.269 OA
BRANCH  26  29
ATOM     29  C   UNL     1       3.890  -2.436   7.215  1.00  0.00     0.039 A 
ATOM     30  C   UNL     1       3.628  -2.625   8.573  1.00  0.00     0.014 A 
ATOM     31  C   UNL     1       4.496  -3.452   6.472  1.00  0.00     0.014 A 
ATOM     32  C   UNL     1       3.900  -3.862   9.163  1.00  0.00     0.010 A 
ATOM     33  C   UNL     1       4.664  -4.713   7.032  1.00  0.00     0.010 A 
ATOM     34  C   UNL     1       4.374  -4.932   8.386  1.00  0.00    -0.014 A 
BRANCH  34  35
ATOM     35  C   UNL     1       4.585  -6.284   8.970  1.00  0.00     0.031 A 
ATOM     36  C   UNL     1       5.957  -6.902   8.957  1.00  0.00     0.074 A 
ATOM     37  C   UNL     1       3.533  -6.977   9.450  1.00  0.00     0.049 A 
ATOM     38  N   UNL     1       6.330  -8.098   9.335  1.00  0.00    -0.248 NA
ATOM     39  C   UNL     1       7.049  -6.078   8.415  1.00  0.00     0.031 C 
ATOM     40  C   UNL     1       2.147  -6.500   9.480  1.00  0.00     0.029 A 
ATOM     41  N   UNL     1       3.459  -8.233   9.999  1.00  0.00    -0.354 N 
ATOM     42  C   UNL     1       7.693  -8.174   9.065  1.00  0.00     0.074 A 
ATOM     43  C   UNL     1       8.063  -6.929   8.426  1.00  0.00     0.031 C 
ATOM     44  C   UNL     1       1.371  -7.436  10.048  1.00  0.00     0.029 A 
ATOM     45  C   UNL     1       2.186  -8.603  10.371  1.00  0.00     0.049 A 
ATOM     46  H   UNL     1       4.244  -8.816  10.117  1.00  0.00     0.167 HD
ATOM     47  C   UNL     1       8.560  -9.177   9.347  1.00  0.00     0.034 A 
ATOM     48  C   UNL     1       1.724  -9.755  10.896  1.00  0.00     0.034 A 
ATOM     49  C   UNL     1       8.175 -10.406   9.996  1.00  0.00     0.049 A 
ATOM     50  C   UNL     1       2.702 -10.871  11.169  1.00  0.00     0.074 A 
ATOM     51  C   UNL     1       8.979 -11.466  10.377  1.00  0.00     0.029 A 
ATOM     52  N   UNL     1       6.876 -10.746  10.354  1.00  0.00    -0.354 N 
ATOM     53  N   UNL     1       3.998 -10.906  10.953  1.00  0.00    -0.248 NA
ATOM     54  C   UNL     1       2.159 -12.098  11.766  1.00  0.00     0.031 C 
ATOM     55  C   UNL     1       8.159 -12.476  10.890  1.00  0.00     0.029 A 
ATOM     56  C   UNL     1       6.853 -12.013  10.917  1.00  0.00     0.049 A 
ATOM     57  H   UNL     1       6.087 -10.171  10.225  1.00  0.00     0.167 HD
ATOM     58  C   UNL     1       4.427 -12.145  11.425  1.00  0.00     0.074 A 
ATOM     59  C   UNL     1       3.256 -12.818  11.947  1.00  0.00     0.031 C 
ATOM     60  C   UNL     1       5.677 -12.675  11.430  1.00  0.00     0.034 A 
BRANCH  47  61
ATOM     61  C   UNL     1      10.001  -8.992   8.933  1.00  0.00     0.023 A 
ATOM     62  C   UNL     1      10.794  -7.955   9.454  1.00  0.00     0.031 A 
ATOM     63  C   UNL     1      10.587  -9.855   7.990  1.00  0.00     0.131 A 
ATOM     64  C   UNL     1      12.099  -7.761   8.976  1.00  0.00     0.055 A 
ATOM     65  C   UNL     1      11.915  -9.710   7.584  1.00  0.00     0.041 A 
ATOM     66  F   UNL     1       9.875 -10.850   7.438  1.00  0.00    -0.206 F 
ATOM     67  C   UNL     1      12.675  -8.649   8.066  1.00  0.00     0.022 A 
BRANCH  64  68
ATOM     68  S   UNL     1      12.978  -6.247   9.450  1.00  0.00     0.124 S 
ATOM     69  O   UNL     1      12.072  -5.213   8.955  1.00  0.00    -0.237 OA
ATOM     70  O   UNL     1      13.069  -6.375  10.900  1.00  0.00    -0.237 OA
ATOM     71  O   UNL     1      14.247  -6.348   8.733  1.00  0.00    -0.744 OA
ENDBRANCH  64  68
ENDBRANCH  47  61
BRANCH  48  72
ATOM     72  C   UNL     1       0.271  -9.928  11.190  1.00  0.00     0.023 A 
ATOM     73  C   UNL     1      -0.182 -10.145  12.502  1.00  0.00     0.031 A 
ATOM     74  C   UNL     1      -0.683  -9.933  10.157  1.00  0.00     0.131 A 
ATOM     75  C   UNL     1      -1.539 -10.413  12.739  1.00  0.00     0.055 A 
ATOM     76  C   UNL     1      -2.042 -10.138  10.406  1.00  0.00     0.041 A 
ATOM     77  F   UNL     1      -0.308  -9.730   8.884  1.00  0.00    -0.206 F 
ATOM     78  C   UNL     1      -2.474 -10.395  11.703  1.00  0.00     0.022 A 
BRANCH  75  79
ATOM     79  S   UNL     1      -2.048 -10.892  14.413  1.00  0.00     0.124 S 
ATOM     80  O   UNL     1      -1.208 -12.059  14.655  1.00  0.00    -0.237 OA
ATOM     81  O   UNL     1      -1.723  -9.695  15.182  1.00  0.00    -0.237 OA
ATOM     82  O   UNL     1      -3.476 -11.168  14.268  1.00  0.00    -0.744 OA
ENDBRANCH  75  79
ENDBRANCH  48  72
BRANCH  60  83
ATOM     83  C   UNL     1       5.848 -14.030  12.075  1.00  0.00     0.023 A 
ATOM     84  C   UNL     1       5.260 -15.190  11.541  1.00  0.00     0.031 A 
ATOM     85  C   UNL     1       6.613 -14.159  13.249  1.00  0.00     0.131 A 
ATOM     86  C   UNL     1       5.397 -16.415  12.211  1.00  0.00     0.055 A 
ATOM     87  C   UNL     1       6.803 -15.392  13.873  1.00  0.00     0.041 A 
ATOM     88  F   UNL     1       7.195 -13.085  13.807  1.00  0.00    -0.206 F 
ATOM     89  C   UNL     1       6.181 -16.527  13.362  1.00  0.00     0.022 A 
BRANCH  86  90
ATOM     90  S   UNL     1       4.453 -17.844  11.614  1.00  0.00     0.124 S 
ATOM     91  O   UNL     1       3.081 -17.352  11.687  1.00  0.00    -0.237 OA
ATOM     92  O   UNL     1       4.991 -18.035  10.272  1.00  0.00    -0.237 OA
ATOM     93  O   UNL     1       4.785 -18.898  12.571  1.00  0.00    -0.744 OA
ENDBRANCH  86  90
ENDBRANCH  60  83
ENDBRANCH  34  35
ENDBRANCH  26  29
ENDBRANCH   1  25
TORSDOF 15
