REMARK SMILES CC(C)[C@H](C[C@H]1Cc2ccccc21)C(=O)NCCCNC(=O)c1ccc(-c2c3nc(c(-c4cc(S(=O)(=O)[O-])ccc4F)c4ccc([nH]4)c(-c4cc(S(=O)(=O)[O-])ccc4F)c4nc(c(-c5cc(S(=O)(=O)[O-])ccc5F)c5ccc2[nH]5)C=C4)C=C3)cc1
REMARK SMILES IDX 18 1 17 2 16 3 14 4 15 5 4 7 2 8 1 9 3 10 5 11 6 12 7 13
REMARK SMILES IDX 13 14 8 15 12 16 9 17 11 18 10 19 19 20 20 21 21 22 22 24
REMARK SMILES IDX 23 25 24 26 85 27 25 28 84 29 26 30 27 31 28 32 78 33 29 34
REMARK SMILES IDX 83 35 77 36 79 37 30 38 82 39 76 40 75 41 31 43 63 44 43 45
REMARK SMILES IDX 62 46 44 47 47 48 61 49 80 50 45 51 46 52 60 54 81 55 48 56
REMARK SMILES IDX 32 57 33 58 41 59 34 60 40 61 42 62 39 63 35 64 36 65 37 66
REMARK SMILES IDX 38 67 64 68 65 69 73 70 66 71 72 72 74 73 71 74 67 75 68 76
REMARK SMILES IDX 69 77 70 78 49 79 50 80 58 81 51 82 57 83 59 84 56 85 52 86
REMARK SMILES IDX 53 87 54 88 55 89
REMARK H PARENT 16 6 20 23 79 42 47 53
REMARK Flexibility Score: inf
ROOT
ATOM      1  C   UNL     1       0.935  -4.607   1.577  1.00  0.00     0.042 C 
ENDROOT
BRANCH   1   2
ATOM      2  C   UNL     1      -0.229  -3.918   0.895  1.00  0.00     0.117 C 
BRANCH   2   3
ATOM      3  N   UNL     1      -1.138  -3.285   1.823  1.00  0.00    -0.356 N 
ATOM      4  C   UNL     1      -1.596  -2.010   1.861  1.00  0.00     0.223 C 
ATOM      5  O   UNL     1      -2.420  -1.725   2.735  1.00  0.00    -0.275 OA
ATOM      6  H   UNL     1      -1.476  -3.870   2.538  1.00  0.00     0.163 HD
BRANCH   4   7
ATOM      7  C   UNL     1      -1.120  -0.944   0.874  1.00  0.00     0.081 C 
BRANCH   7   8
ATOM      8  C   UNL     1      -1.654  -1.072  -0.586  1.00  0.00    -0.005 C 
ATOM      9  C   UNL     1      -0.795  -1.790  -1.629  1.00  0.00     0.008 C 
ATOM     10  C   UNL     1      -3.071  -1.664  -0.620  1.00  0.00     0.008 C 
ENDBRANCH   7   8
BRANCH   7  11
ATOM     11  C   UNL     1       0.380  -0.637   1.092  1.00  0.00     0.022 C 
BRANCH  11  12
ATOM     12  C   UNL     1       0.670   0.860   0.966  1.00  0.00     0.025 C 
ATOM     13  C   UNL     1      -0.003   1.821   2.022  1.00  0.00     0.044 C 
ATOM     14  C   UNL     1       1.983   1.294   1.583  1.00  0.00    -0.041 A 
ATOM     15  C   UNL     1       1.387   2.172   2.456  1.00  0.00    -0.044 A 
ATOM     16  C   UNL     1       3.348   1.126   1.551  1.00  0.00     0.004 A 
ATOM     17  C   UNL     1       2.108   2.944   3.337  1.00  0.00     0.004 A 
ATOM     18  C   UNL     1       4.112   1.894   2.438  1.00  0.00     0.000 A 
ATOM     19  C   UNL     1       3.496   2.802   3.321  1.00  0.00     0.000 A 
ENDBRANCH  11  12
ENDBRANCH   7  11
ENDBRANCH   4   7
ENDBRANCH   2   3
ENDBRANCH   1   2
BRANCH   1  20
ATOM     20  C   UNL     1       0.526  -5.739   2.504  1.00  0.00     0.118 C 
BRANCH  20  21
ATOM     21  N   UNL     1      -0.157  -6.822   1.808  1.00  0.00    -0.352 N 
ATOM     22  C   UNL     1       0.244  -8.115   1.556  1.00  0.00     0.251 C 
ATOM     23  H   UNL     1      -1.050  -6.592   1.463  1.00  0.00     0.163 HD
ATOM     24  O   UNL     1      -0.405  -8.804   0.782  1.00  0.00    -0.269 OA
BRANCH  22  25
ATOM     25  C   UNL     1       1.471  -8.648   2.191  1.00  0.00     0.039 A 
ATOM     26  C   UNL     1       2.332  -9.451   1.439  1.00  0.00     0.014 A 
ATOM     27  C   UNL     1       1.777  -8.354   3.520  1.00  0.00     0.014 A 
ATOM     28  C   UNL     1       3.538  -9.884   1.997  1.00  0.00     0.010 A 
ATOM     29  C   UNL     1       3.026  -8.682   4.031  1.00  0.00     0.010 A 
ATOM     30  C   UNL     1       3.918  -9.462   3.281  1.00  0.00    -0.014 A 
BRANCH  30  31
ATOM     31  C   UNL     1       5.230  -9.835   3.871  1.00  0.00     0.031 A 
ATOM     32  C   UNL     1       5.281 -10.608   5.163  1.00  0.00     0.074 A 
ATOM     33  C   UNL     1       6.369  -9.402   3.296  1.00  0.00     0.049 A 
ATOM     34  N   UNL     1       6.315 -10.940   5.892  1.00  0.00    -0.248 NA
ATOM     35  C   UNL     1       3.989 -11.017   5.734  1.00  0.00     0.031 C 
ATOM     36  C   UNL     1       6.447  -8.584   2.083  1.00  0.00     0.029 A 
ATOM     37  N   UNL     1       7.680  -9.573   3.663  1.00  0.00    -0.354 N 
ATOM     38  C   UNL     1       5.796 -11.568   7.020  1.00  0.00     0.074 A 
ATOM     39  C   UNL     1       4.355 -11.499   6.910  1.00  0.00     0.031 C 
ATOM     40  C   UNL     1       7.736  -8.349   1.793  1.00  0.00     0.029 A 
ATOM     41  C   UNL     1       8.575  -8.957   2.820  1.00  0.00     0.049 A 
ATOM     42  H   UNL     1       7.955 -10.090   4.455  1.00  0.00     0.167 HD
ATOM     43  C   UNL     1       6.460 -12.172   8.038  1.00  0.00     0.034 A 
ATOM     44  C   UNL     1       9.919  -8.878   2.874  1.00  0.00     0.034 A 
ATOM     45  C   UNL     1       7.898 -12.252   8.112  1.00  0.00     0.049 A 
ATOM     46  C   UNL     1      10.641  -9.570   4.000  1.00  0.00     0.074 A 
ATOM     47  C   UNL     1       8.679 -12.913   9.044  1.00  0.00     0.029 A 
ATOM     48  N   UNL     1       8.775 -11.642   7.222  1.00  0.00    -0.354 N 
ATOM     49  N   UNL     1      10.141 -10.228   5.021  1.00  0.00    -0.248 NA
ATOM     50  C   UNL     1      12.108  -9.523   3.972  1.00  0.00     0.031 C 
ATOM     51  C   UNL     1      10.023 -12.644   8.758  1.00  0.00     0.029 A 
ATOM     52  C   UNL     1      10.087 -11.882   7.603  1.00  0.00     0.049 A 
ATOM     53  H   UNL     1       8.504 -11.117   6.435  1.00  0.00     0.167 HD
ATOM     54  C   UNL     1      11.234 -10.690   5.747  1.00  0.00     0.074 A 
ATOM     55  C   UNL     1      12.418 -10.251   5.035  1.00  0.00     0.031 C 
ATOM     56  C   UNL     1      11.258 -11.416   6.895  1.00  0.00     0.034 A 
BRANCH  43  57
ATOM     57  C   UNL     1       5.626 -12.761   9.155  1.00  0.00     0.023 A 
ATOM     58  C   UNL     1       4.676 -13.771   8.917  1.00  0.00     0.031 A 
ATOM     59  C   UNL     1       5.737 -12.265  10.466  1.00  0.00     0.131 A 
ATOM     60  C   UNL     1       3.805 -14.173   9.941  1.00  0.00     0.055 A 
ATOM     61  C   UNL     1       4.933 -12.740  11.505  1.00  0.00     0.041 A 
ATOM     62  F   UNL     1       6.611 -11.289  10.757  1.00  0.00    -0.206 F 
ATOM     63  C   UNL     1       3.944 -13.684  11.241  1.00  0.00     0.022 A 
BRANCH  60  64
ATOM     64  S   UNL     1       2.374 -15.200   9.504  1.00  0.00     0.124 S 
ATOM     65  O   UNL     1       1.719 -14.376   8.490  1.00  0.00    -0.237 OA
ATOM     66  O   UNL     1       3.001 -16.425   9.024  1.00  0.00    -0.237 OA
ATOM     67  O   UNL     1       1.642 -15.322  10.763  1.00  0.00    -0.744 OA
ENDBRANCH  60  64
ENDBRANCH  43  57
BRANCH  44  68
ATOM     68  C   UNL     1      10.664  -8.113   1.835  1.00  0.00     0.023 A 
ATOM     69  C   UNL     1      11.494  -8.764   0.909  1.00  0.00     0.031 A 
ATOM     70  C   UNL     1      10.552  -6.713   1.753  1.00  0.00     0.131 A 
ATOM     71  C   UNL     1      12.205  -8.014  -0.041  1.00  0.00     0.055 A 
ATOM     72  C   UNL     1      11.227  -5.976   0.779  1.00  0.00     0.041 A 
ATOM     73  F   UNL     1       9.761  -6.045   2.607  1.00  0.00    -0.206 F 
ATOM     74  C   UNL     1      12.067  -6.626  -0.120  1.00  0.00     0.022 A 
BRANCH  71  75
ATOM     75  S   UNL     1      13.355  -8.875  -1.147  1.00  0.00     0.124 S 
ATOM     76  O   UNL     1      14.297  -9.461  -0.201  1.00  0.00    -0.237 OA
ATOM     77  O   UNL     1      12.472  -9.810  -1.835  1.00  0.00    -0.237 OA
ATOM     78  O   UNL     1      13.893  -7.802  -1.982  1.00  0.00    -0.744 OA
ENDBRANCH  71  75
ENDBRANCH  44  68
BRANCH  56  79
ATOM     79  C   UNL     1      12.615 -11.803   7.429  1.00  0.00     0.023 A 
ATOM     80  C   UNL     1      13.519 -10.844   7.919  1.00  0.00     0.031 A 
ATOM     81  C   UNL     1      13.014 -13.152   7.437  1.00  0.00     0.131 A 
ATOM     82  C   UNL     1      14.796 -11.240   8.343  1.00  0.00     0.055 A 
ATOM     83  C   UNL     1      14.262 -13.547   7.919  1.00  0.00     0.041 A 
ATOM     84  F   UNL     1      12.192 -14.110   6.978  1.00  0.00    -0.206 F 
ATOM     85  C   UNL     1      15.167 -12.587   8.362  1.00  0.00     0.022 A 
BRANCH  82  86
ATOM     86  S   UNL     1      16.006  -9.960   8.777  1.00  0.00     0.124 S 
ATOM     87  O   UNL     1      16.077  -9.180   7.545  1.00  0.00    -0.237 OA
ATOM     88  O   UNL     1      15.369  -9.301   9.912  1.00  0.00    -0.237 OA
ATOM     89  O   UNL     1      17.211 -10.722   9.099  1.00  0.00    -0.744 OA
ENDBRANCH  82  86
ENDBRANCH  56  79
ENDBRANCH  30  31
ENDBRANCH  22  25
ENDBRANCH  20  21
ENDBRANCH   1  20
TORSDOF 16
