REMARK SMILES C[C@H]1C[N@H+]2CCCC[C@@H]2CN1c1ccc(C(=O)NCCCNC(=O)c2ccc(-c3c4nc(c(-c5cc(S(=O)(=O)[O-])ccc5F)c5ccc([nH]5)c(-c5cc(S(=O)(=O)[O-])ccc5F)c5nc(c(-c6cc(S(=O)(=O)[O-])ccc6F)c6ccc3[nH]6)C=C5)C=C4)cc2)cc1Cl
REMARK SMILES IDX 21 1 20 2 19 3 18 4 16 5 17 6 15 8 12 9 13 10 89 11 14 12
REMARK SMILES IDX 88 13 90 14 11 15 1 16 2 17 3 18 4 19 10 20 5 21 9 22 6 24
REMARK SMILES IDX 8 25 7 26 22 27 23 28 24 30 25 31 26 32 87 33 27 34 86 35
REMARK SMILES IDX 28 36 29 37 30 38 80 39 31 40 85 41 79 42 81 43 32 44 84 45
REMARK SMILES IDX 78 46 77 47 33 49 65 50 45 51 64 52 46 53 49 54 63 55 82 56
REMARK SMILES IDX 47 57 48 58 62 60 83 61 50 62 34 63 35 64 43 65 36 66 42 67
REMARK SMILES IDX 44 68 41 69 37 70 38 71 39 72 40 73 66 74 67 75 75 76 68 77
REMARK SMILES IDX 74 78 76 79 73 80 69 81 70 82 71 83 72 84 51 85 52 86 60 87
REMARK SMILES IDX 53 88 59 89 61 90 58 91 54 92 55 93 56 94 57 95
REMARK H PARENT 18 7 4 23 22 29 81 48 49 59
REMARK Flexibility Score: inf
ROOT
ATOM      1  C   UNL     1      -1.226   3.038   7.722  1.00  0.00     0.118 C 
ENDROOT
BRANCH   1   2
ATOM      2  C   UNL     1      -1.206   1.893   6.712  1.00  0.00     0.042 C 
BRANCH   2   3
ATOM      3  C   UNL     1      -2.508   1.758   5.923  1.00  0.00     0.118 C 
BRANCH   3   4
ATOM      4  N   UNL     1      -2.610   2.769   4.886  1.00  0.00    -0.352 N 
ATOM      5  C   UNL     1      -2.415   2.728   3.530  1.00  0.00     0.251 C 
ATOM      6  O   UNL     1      -2.683   3.743   2.886  1.00  0.00    -0.269 OA
ATOM      7  H   UNL     1      -2.869   3.657   5.223  1.00  0.00     0.163 HD
BRANCH   5   8
ATOM      8  C   UNL     1      -1.922   1.527   2.800  1.00  0.00     0.041 A 
ATOM      9  C   UNL     1      -0.902  -0.605   1.211  1.00  0.00     0.056 A 
ATOM     10  C   UNL     1      -1.715   0.390   0.654  1.00  0.00     0.028 A 
ATOM     11  C   UNL     1      -0.647  -0.527   2.594  1.00  0.00     0.065 A 
ATOM     12  C   UNL     1      -2.217   1.440   1.433  1.00  0.00     0.016 A 
ATOM     13  C   UNL     1      -1.120   0.540   3.365  1.00  0.00     0.036 A 
ATOM     14  Cl  UNL     1       0.344  -1.690   3.414  1.00  0.00    -0.082 Cl
BRANCH   9  15
ATOM     15  N   UNL     1      -0.311  -1.555   0.403  1.00  0.00    -0.356 N 
ATOM     16  C   UNL     1       1.302   0.141  -0.514  1.00  0.00     0.037 C 
ATOM     17  C   UNL     1       0.621  -1.225  -0.694  1.00  0.00     0.134 C 
ATOM     18  C   UNL     1       1.757  -2.296  -0.774  1.00  0.00     0.287 C 
ATOM     19  N   UNL     1       1.340  -3.718  -0.674  1.00  0.00    -0.329 N 
ATOM     20  C   UNL     1      -0.758  -2.951   0.477  1.00  0.00     0.182 C 
ATOM     21  C   UNL     1       2.544  -4.561  -0.559  1.00  0.00     0.262 C 
ATOM     22  C   UNL     1       0.475  -3.888   0.525  1.00  0.00     0.203 C 
ATOM     23  H   UNL     1       0.815  -3.994  -1.504  1.00  0.00     0.348 HD
ATOM     24  C   UNL     1       2.193  -6.041  -0.405  1.00  0.00     0.062 C 
ATOM     25  C   UNL     1       0.032  -5.351   0.662  1.00  0.00     0.067 C 
ATOM     26  C   UNL     1       1.245  -6.272   0.766  1.00  0.00     0.012 C 
ENDBRANCH   9  15
ENDBRANCH   5   8
ENDBRANCH   3   4
ENDBRANCH   2   3
ENDBRANCH   1   2
BRANCH   1  27
ATOM     27  N   UNL     1      -2.164   2.782   8.804  1.00  0.00    -0.352 N 
ATOM     28  C   UNL     1      -1.951   2.689  10.157  1.00  0.00     0.251 C 
ATOM     29  H   UNL     1      -3.099   2.656   8.522  1.00  0.00     0.163 HD
ATOM     30  O   UNL     1      -2.829   2.201  10.863  1.00  0.00    -0.269 OA
BRANCH  28  31
ATOM     31  C   UNL     1      -0.685   3.162  10.760  1.00  0.00     0.039 A 
ATOM     32  C   UNL     1      -0.140   2.445  11.829  1.00  0.00     0.014 A 
ATOM     33  C   UNL     1      -0.068   4.337  10.322  1.00  0.00     0.014 A 
ATOM     34  C   UNL     1       1.043   2.882  12.429  1.00  0.00     0.010 A 
ATOM     35  C   UNL     1       1.150   4.732  10.873  1.00  0.00     0.010 A 
ATOM     36  C   UNL     1       1.712   4.016  11.940  1.00  0.00    -0.014 A 
BRANCH  36  37
ATOM     37  C   UNL     1       2.985   4.482  12.548  1.00  0.00     0.031 A 
ATOM     38  C   UNL     1       3.046   5.821  13.233  1.00  0.00     0.074 A 
ATOM     39  C   UNL     1       4.093   3.726  12.438  1.00  0.00     0.049 A 
ATOM     40  N   UNL     1       4.074   6.441  13.756  1.00  0.00    -0.248 NA
ATOM     41  C   UNL     1       1.786   6.575  13.311  1.00  0.00     0.031 C 
ATOM     42  C   UNL     1       4.163   2.422  11.773  1.00  0.00     0.029 A 
ATOM     43  N   UNL     1       5.375   3.942  12.876  1.00  0.00    -0.354 N 
ATOM     44  C   UNL     1       3.588   7.661  14.215  1.00  0.00     0.074 A 
ATOM     45  C   UNL     1       2.190   7.719  13.843  1.00  0.00     0.031 C 
ATOM     46  C   UNL     1       5.413   1.944  11.875  1.00  0.00     0.029 A 
ATOM     47  C   UNL     1       6.245   2.923  12.566  1.00  0.00     0.049 A 
ATOM     48  H   UNL     1       5.647   4.752  13.366  1.00  0.00     0.167 HD
ATOM     49  C   UNL     1       4.239   8.630  14.906  1.00  0.00     0.034 A 
ATOM     50  C   UNL     1       7.565   2.796  12.806  1.00  0.00     0.034 A 
ATOM     51  C   UNL     1       5.634   8.552  15.270  1.00  0.00     0.049 A 
ATOM     52  C   UNL     1       8.280   3.905  13.537  1.00  0.00     0.074 A 
ATOM     53  C   UNL     1       6.391   9.456  15.996  1.00  0.00     0.029 A 
ATOM     54  N   UNL     1       6.487   7.508  14.929  1.00  0.00    -0.354 N 
ATOM     55  N   UNL     1       7.799   5.038  13.995  1.00  0.00    -0.248 NA
ATOM     56  C   UNL     1       9.712   3.710  13.791  1.00  0.00     0.031 C 
ATOM     57  C   UNL     1       7.711   8.992  16.037  1.00  0.00     0.029 A 
ATOM     58  C   UNL     1       7.765   7.760  15.405  1.00  0.00     0.049 A 
ATOM     59  H   UNL     1       6.222   6.707  14.423  1.00  0.00     0.167 HD
ATOM     60  C   UNL     1       8.866   5.673  14.625  1.00  0.00     0.074 A 
ATOM     61  C   UNL     1      10.008   4.792  14.496  1.00  0.00     0.031 C 
ATOM     62  C   UNL     1       8.898   6.874  15.259  1.00  0.00     0.034 A 
BRANCH  49  63
ATOM     63  C   UNL     1       3.446   9.862  15.282  1.00  0.00     0.023 A 
ATOM     64  C   UNL     1       2.311   9.783  16.108  1.00  0.00     0.031 A 
ATOM     65  C   UNL     1       3.794  11.124  14.769  1.00  0.00     0.131 A 
ATOM     66  C   UNL     1       1.512  10.918  16.317  1.00  0.00     0.055 A 
ATOM     67  C   UNL     1       3.047  12.269  15.057  1.00  0.00     0.041 A 
ATOM     68  F   UNL     1       4.855  11.265  13.958  1.00  0.00    -0.206 F 
ATOM     69  C   UNL     1       1.887  12.167  15.819  1.00  0.00     0.022 A 
BRANCH  66  70
ATOM     70  S   UNL     1      -0.110  10.700  17.099  1.00  0.00     0.124 S 
ATOM     71  O   UNL     1      -0.746   9.743  16.195  1.00  0.00    -0.237 OA
ATOM     72  O   UNL     1       0.241  10.195  18.420  1.00  0.00    -0.237 OA
ATOM     73  O   UNL     1      -0.686  12.043  17.075  1.00  0.00    -0.744 OA
ENDBRANCH  66  70
ENDBRANCH  49  63
BRANCH  50  74
ATOM     74  C   UNL     1       8.300   1.579  12.360  1.00  0.00     0.023 A 
ATOM     75  C   UNL     1       8.871   0.702  13.295  1.00  0.00     0.031 A 
ATOM     76  C   UNL     1       8.476   1.293  10.994  1.00  0.00     0.131 A 
ATOM     77  C   UNL     1       9.629  -0.394  12.855  1.00  0.00     0.055 A 
ATOM     78  C   UNL     1       9.185   0.172  10.561  1.00  0.00     0.041 A 
ATOM     79  F   UNL     1       7.945   2.096  10.058  1.00  0.00    -0.206 F 
ATOM     80  C   UNL     1       9.779  -0.673  11.495  1.00  0.00     0.022 A 
BRANCH  77  81
ATOM     81  S   UNL     1      10.486  -1.408  14.091  1.00  0.00     0.124 S 
ATOM     82  O   UNL     1      11.330  -0.419  14.752  1.00  0.00    -0.237 OA
ATOM     83  O   UNL     1       9.373  -1.931  14.877  1.00  0.00    -0.237 OA
ATOM     84  O   UNL     1      11.196  -2.398  13.284  1.00  0.00    -0.744 OA
ENDBRANCH  77  81
ENDBRANCH  50  74
BRANCH  62  85
ATOM     85  C   UNL     1      10.203   7.270  15.906  1.00  0.00     0.023 A 
ATOM     86  C   UNL     1      11.354   7.547  15.148  1.00  0.00     0.031 A 
ATOM     87  C   UNL     1      10.299   7.352  17.307  1.00  0.00     0.131 A 
ATOM     88  C   UNL     1      12.565   7.833  15.796  1.00  0.00     0.055 A 
ATOM     89  C   UNL     1      11.491   7.699  17.944  1.00  0.00     0.041 A 
ATOM     90  F   UNL     1       9.232   7.096  18.081  1.00  0.00    -0.206 F 
ATOM     91  C   UNL     1      12.637   7.928  17.188  1.00  0.00     0.022 A 
BRANCH  88  92
ATOM     92  S   UNL     1      14.073   7.983  14.797  1.00  0.00     0.124 S 
ATOM     93  O   UNL     1      14.126   6.685  14.132  1.00  0.00    -0.237 OA
ATOM     94  O   UNL     1      13.769   9.126  13.943  1.00  0.00    -0.237 OA
ATOM     95  O   UNL     1      15.120   8.214  15.791  1.00  0.00    -0.744 OA
ENDBRANCH  88  92
ENDBRANCH  62  85
ENDBRANCH  36  37
ENDBRANCH  28  31
ENDBRANCH   1  27
TORSDOF 14
