REMARK SMILES COc1ccccc1-c1nnc(SCCC(=O)NCCCNC(=O)c2ccc(-c3c4nc(c(-c5cc(S(=O)(=O)[O-])ccc5F)c5ccc([nH]5)c(-c5cc(S(=O)(=O)[O-])ccc5F)c5nc(c(-c6cc(S(=O)(=O)[O-])ccc6F)c6ccc3[nH]6)C=C5)C=C4)cc2)o1
REMARK SMILES IDX 19 1 18 2 16 3 17 4 15 6 14 7 13 8 12 9 9 10 10 11 88 12
REMARK SMILES IDX 11 13 8 14 3 15 4 16 5 17 7 18 6 19 2 20 1 21 20 22 21 23
REMARK SMILES IDX 22 24 23 25 24 27 25 28 26 29 87 30 27 31 86 32 28 33 29 34
REMARK SMILES IDX 30 35 80 36 31 37 85 38 79 39 81 40 32 41 84 42 78 43 77 44
REMARK SMILES IDX 33 46 65 47 45 48 64 49 46 50 49 51 63 52 82 53 47 54 48 55
REMARK SMILES IDX 62 57 83 58 50 59 34 60 35 61 43 62 36 63 42 64 44 65 41 66
REMARK SMILES IDX 37 67 38 68 39 69 40 70 66 71 67 72 75 73 68 74 74 75 76 76
REMARK SMILES IDX 73 77 69 78 70 79 71 80 72 81 51 82 52 83 60 84 53 85 59 86
REMARK SMILES IDX 61 87 58 88 54 89 55 90 56 91 57 92
REMARK H PARENT 18 5 22 26 81 45 49 56
REMARK Flexibility Score: inf
ROOT
ATOM      1  C   UNL     1       3.610  -1.889   0.649  1.00  0.00     0.117 C 
ENDROOT
BRANCH   1   2
ATOM      2  N   UNL     1       2.828  -1.270  -0.408  1.00  0.00    -0.356 N 
ATOM      3  C   UNL     1       2.671  -1.613  -1.714  1.00  0.00     0.220 C 
ATOM      4  O   UNL     1       1.681  -1.218  -2.331  1.00  0.00    -0.275 OA
ATOM      5  H   UNL     1       2.328  -0.468  -0.132  1.00  0.00     0.163 HD
BRANCH   3   6
ATOM      6  C   UNL     1       3.737  -2.391  -2.428  1.00  0.00     0.111 C 
BRANCH   6   7
ATOM      7  C   UNL     1       4.462  -1.471  -3.407  1.00  0.00     0.090 C 
BRANCH   7   8
ATOM      8  S   UNL     1       5.768  -0.466  -2.660  1.00  0.00    -0.065 SA
BRANCH   8   9
ATOM      9  C   UNL     1       4.957   0.889  -1.925  1.00  0.00     0.276 A 
ATOM     10  C   UNL     1       3.552   2.350  -1.246  1.00  0.00     0.252 A 
ATOM     11  N   UNL     1       4.708   2.650  -0.689  1.00  0.00    -0.107 NA
ATOM     12  O   UNL     1       3.634   1.245  -2.063  1.00  0.00    -0.411 OA
ATOM     13  N   UNL     1       5.603   1.699  -1.110  1.00  0.00    -0.101 NA
BRANCH  10  14
ATOM     14  C   UNL     1       2.302   3.097  -1.158  1.00  0.00     0.081 A 
ATOM     15  C   UNL     1       1.034   2.520  -0.998  1.00  0.00     0.131 A 
ATOM     16  C   UNL     1      -0.117   3.325  -1.011  1.00  0.00     0.047 A 
ATOM     17  C   UNL     1      -0.010   4.713  -1.044  1.00  0.00     0.004 A 
ATOM     18  C   UNL     1       2.388   4.503  -1.156  1.00  0.00     0.018 A 
ATOM     19  C   UNL     1       1.246   5.304  -1.085  1.00  0.00     0.001 A 
BRANCH  15  20
ATOM     20  O   UNL     1       0.906   1.167  -0.823  1.00  0.00    -0.496 OA
ATOM     21  C   UNL     1       0.251   0.839   0.408  1.00  0.00     0.278 C 
ENDBRANCH  15  20
ENDBRANCH  10  14
ENDBRANCH   8   9
ENDBRANCH   7   8
ENDBRANCH   6   7
ENDBRANCH   3   6
ENDBRANCH   1   2
BRANCH   1  22
ATOM     22  C   UNL     1       4.785  -1.057   1.160  1.00  0.00     0.042 C 
BRANCH  22  23
ATOM     23  C   UNL     1       4.436   0.331   1.697  1.00  0.00     0.118 C 
BRANCH  23  24
ATOM     24  N   UNL     1       3.822   0.314   3.013  1.00  0.00    -0.352 N 
ATOM     25  C   UNL     1       4.119   1.072   4.122  1.00  0.00     0.251 C 
ATOM     26  H   UNL     1       3.089  -0.333   3.129  1.00  0.00     0.163 HD
ATOM     27  O   UNL     1       3.503   0.853   5.167  1.00  0.00    -0.269 OA
BRANCH  25  28
ATOM     28  C   UNL     1       5.188   2.102   4.099  1.00  0.00     0.039 A 
ATOM     29  C   UNL     1       6.109   2.115   5.153  1.00  0.00     0.014 A 
ATOM     30  C   UNL     1       5.284   3.067   3.091  1.00  0.00     0.014 A 
ATOM     31  C   UNL     1       7.150   3.049   5.168  1.00  0.00     0.010 A 
ATOM     32  C   UNL     1       6.354   3.974   3.085  1.00  0.00     0.010 A 
ATOM     33  C   UNL     1       7.303   3.972   4.121  1.00  0.00    -0.014 A 
BRANCH  33  34
ATOM     34  C   UNL     1       8.463   4.911   4.111  1.00  0.00     0.031 A 
ATOM     35  C   UNL     1       8.264   6.391   4.306  1.00  0.00     0.074 A 
ATOM     36  C   UNL     1       9.709   4.429   3.927  1.00  0.00     0.049 A 
ATOM     37  N   UNL     1       9.158   7.347   4.355  1.00  0.00    -0.248 NA
ATOM     38  C   UNL     1       6.879   6.855   4.457  1.00  0.00     0.031 C 
ATOM     39  C   UNL     1      10.041   3.020   3.706  1.00  0.00     0.029 A 
ATOM     40  N   UNL     1      10.928   5.063   3.900  1.00  0.00    -0.354 N 
ATOM     41  C   UNL     1       8.447   8.528   4.547  1.00  0.00     0.074 A 
ATOM     42  C   UNL     1       7.043   8.168   4.549  1.00  0.00     0.031 C 
ATOM     43  C   UNL     1      11.373   2.894   3.593  1.00  0.00     0.029 A 
ATOM     44  C   UNL     1      11.991   4.214   3.689  1.00  0.00     0.049 A 
ATOM     45  H   UNL     1      11.032   6.034   4.021  1.00  0.00     0.167 HD
ATOM     46  C   UNL     1       8.919   9.789   4.724  1.00  0.00     0.034 A 
ATOM     47  C   UNL     1      13.312   4.464   3.574  1.00  0.00     0.034 A 
ATOM     48  C   UNL     1      10.321  10.140   4.707  1.00  0.00     0.049 A 
ATOM     49  C   UNL     1      13.807   5.883   3.711  1.00  0.00     0.074 A 
ATOM     50  C   UNL     1      10.900  11.381   4.917  1.00  0.00     0.029 A 
ATOM     51  N   UNL     1      11.364   9.260   4.449  1.00  0.00    -0.354 N 
ATOM     52  N   UNL     1      13.124   6.979   3.946  1.00  0.00    -0.248 NA
ATOM     53  C   UNL     1      15.255   6.096   3.579  1.00  0.00     0.031 C 
ATOM     54  C   UNL     1      12.279  11.267   4.707  1.00  0.00     0.029 A 
ATOM     55  C   UNL     1      12.576   9.938   4.454  1.00  0.00     0.049 A 
ATOM     56  H   UNL     1      11.260   8.295   4.285  1.00  0.00     0.167 HD
ATOM     57  C   UNL     1      14.064   8.004   4.022  1.00  0.00     0.074 A 
ATOM     58  C   UNL     1      15.361   7.393   3.824  1.00  0.00     0.031 C 
ATOM     59  C   UNL     1      13.870   9.330   4.241  1.00  0.00     0.034 A 
BRANCH  46  60
ATOM     60  C   UNL     1       7.902  10.891   4.919  1.00  0.00     0.023 A 
ATOM     61  C   UNL     1       7.035  10.909   6.027  1.00  0.00     0.031 A 
ATOM     62  C   UNL     1       7.788  11.932   3.981  1.00  0.00     0.131 A 
ATOM     63  C   UNL     1       6.049  11.902   6.129  1.00  0.00     0.055 A 
ATOM     64  C   UNL     1       6.859  12.964   4.132  1.00  0.00     0.041 A 
ATOM     65  F   UNL     1       8.574  11.961   2.893  1.00  0.00    -0.206 F 
ATOM     66  C   UNL     1       5.971  12.944   5.203  1.00  0.00     0.022 A 
BRANCH  63  67
ATOM     67  S   UNL     1       4.775  11.730   7.410  1.00  0.00     0.124 S 
ATOM     68  O   UNL     1       4.205  10.424   7.087  1.00  0.00    -0.237 OA
ATOM     69  O   UNL     1       5.553  11.802   8.641  1.00  0.00    -0.237 OA
ATOM     70  O   UNL     1       3.887  12.865   7.165  1.00  0.00    -0.744 OA
ENDBRANCH  63  67
ENDBRANCH  46  60
BRANCH  47  71
ATOM     71  C   UNL     1      14.271   3.354   3.293  1.00  0.00     0.023 A 
ATOM     72  C   UNL     1      15.279   3.014   4.210  1.00  0.00     0.031 A 
ATOM     73  C   UNL     1      14.226   2.654   2.075  1.00  0.00     0.131 A 
ATOM     74  C   UNL     1      16.230   2.037   3.874  1.00  0.00     0.055 A 
ATOM     75  C   UNL     1      15.137   1.642   1.770  1.00  0.00     0.041 A 
ATOM     76  F   UNL     1      13.284   2.940   1.161  1.00  0.00    -0.206 F 
ATOM     77  C   UNL     1      16.156   1.339   2.667  1.00  0.00     0.022 A 
BRANCH  74  78
ATOM     78  S   UNL     1      17.625   1.757   4.999  1.00  0.00     0.124 S 
ATOM     79  O   UNL     1      18.230   3.083   5.059  1.00  0.00    -0.237 OA
ATOM     80  O   UNL     1      16.951   1.303   6.211  1.00  0.00    -0.237 OA
ATOM     81  O   UNL     1      18.417   0.739   4.312  1.00  0.00    -0.744 OA
ENDBRANCH  74  78
ENDBRANCH  47  71
BRANCH  59  82
ATOM     82  C   UNL     1      15.101  10.204   4.325  1.00  0.00     0.023 A 
ATOM     83  C   UNL     1      15.941  10.416   3.217  1.00  0.00     0.031 A 
ATOM     84  C   UNL     1      15.446  10.824   5.540  1.00  0.00     0.131 A 
ATOM     85  C   UNL     1      17.113  11.177   3.361  1.00  0.00     0.055 A 
ATOM     86  C   UNL     1      16.578  11.633   5.660  1.00  0.00     0.041 A 
ATOM     87  F   UNL     1      14.685  10.655   6.634  1.00  0.00    -0.206 F 
ATOM     88  C   UNL     1      17.426  11.802   4.571  1.00  0.00     0.022 A 
BRANCH  85  89
ATOM     89  S   UNL     1      18.276  11.263   1.970  1.00  0.00     0.124 S 
ATOM     90  O   UNL     1      18.592   9.855   1.751  1.00  0.00    -0.237 OA
ATOM     91  O   UNL     1      17.476  11.906   0.933  1.00  0.00    -0.237 OA
ATOM     92  O   UNL     1      19.377  12.071   2.493  1.00  0.00    -0.744 OA
ENDBRANCH  85  89
ENDBRANCH  59  82
ENDBRANCH  33  34
ENDBRANCH  25  28
ENDBRANCH  23  24
ENDBRANCH  22  23
ENDBRANCH   1  22
TORSDOF 18
