REMARK SMILES O=C(NCCCNC(=O)c1ccc(-c2c3nc(c(-c4cc(S(=O)(=O)[O-])ccc4F)c4ccc([nH]4)c(-c4cc(S(=O)(=O)[O-])ccc4F)c4nc(c(-c5cc(S(=O)(=O)[O-])ccc5F)c5ccc2[nH]5)C=C4)C=C3)cc1)c1ccc(NC(=O)[C@@H]2CC=CC[C@H]2C(=O)Nc2cccc([N+](=O)[O-])c2)cc1
REMARK SMILES IDX 4 1 3 2 1 3 2 4 73 6 74 7 99 8 75 9 98 10 76 11 77 12 78 13
REMARK SMILES IDX 79 15 80 16 81 17 85 18 82 19 84 20 83 21 86 22 87 23 88 24
REMARK SMILES IDX 89 26 90 27 97 28 91 29 93 30 92 31 94 32 95 33 96 34 5 35
REMARK SMILES IDX 6 36 7 37 8 38 9 40 10 41 11 42 72 43 12 44 71 45 13 46
REMARK SMILES IDX 14 47 15 48 65 49 16 50 70 51 64 52 66 53 17 54 69 55 63 56
REMARK SMILES IDX 62 57 18 59 50 60 30 61 49 62 31 63 34 64 48 65 67 66 32 67
REMARK SMILES IDX 33 68 47 70 68 71 35 72 19 73 20 74 28 75 21 76 27 77 29 78
REMARK SMILES IDX 26 79 22 80 23 81 24 82 25 83 51 84 52 85 60 86 53 87 59 88
REMARK SMILES IDX 61 89 58 90 54 91 55 92 56 93 57 94 36 95 37 96 45 97 38 98
REMARK SMILES IDX 44 99 46 100 43 101 39 102 40 103 41 104 42 105
REMARK H PARENT 3 5 77 14 88 25 7 39 66 58 34 69
REMARK Flexibility Score: inf
ROOT
ATOM      1  C   UNL     1      12.310  -4.679  -1.179  1.00  0.00     0.118 C 
ENDROOT
BRANCH   1   2
ATOM      2  N   UNL     1      12.148  -6.123  -0.996  1.00  0.00    -0.352 N 
ATOM      3  O   UNL     1      11.084  -8.083  -0.589  1.00  0.00    -0.269 OA
ATOM      4  C   UNL     1      11.008  -6.889  -0.867  1.00  0.00     0.251 C 
ATOM      5  H   UNL     1      12.990  -6.630  -0.958  1.00  0.00     0.163 HD
BRANCH   4   6
ATOM      6  C   UNL     1       9.685  -6.263  -1.058  1.00  0.00     0.039 A 
ATOM      7  C   UNL     1       9.543  -5.294  -2.035  1.00  0.00     0.016 A 
ATOM      8  C   UNL     1       8.600  -6.572  -0.236  1.00  0.00     0.016 A 
ATOM      9  C   UNL     1       8.451  -4.456  -1.994  1.00  0.00     0.027 A 
ATOM     10  C   UNL     1       7.404  -5.848  -0.371  1.00  0.00     0.027 A 
ATOM     11  C   UNL     1       7.327  -4.775  -1.268  1.00  0.00     0.041 A 
BRANCH  11  12
ATOM     12  N   UNL     1       6.115  -4.103  -1.436  1.00  0.00    -0.326 N 
ATOM     13  C   UNL     1       5.645  -3.222  -2.358  1.00  0.00     0.228 C 
ATOM     14  H   UNL     1       5.458  -4.312  -0.734  1.00  0.00     0.169 HD
ATOM     15  O   UNL     1       4.458  -2.889  -2.208  1.00  0.00    -0.274 OA
BRANCH  13  16
ATOM     16  C   UNL     1       6.411  -2.593  -3.539  1.00  0.00     0.095 C 
ATOM     17  C   UNL     1       7.093  -3.555  -4.536  1.00  0.00     0.041 C 
ATOM     18  C   UNL     1       7.180  -1.331  -3.094  1.00  0.00     0.095 C 
ATOM     19  C   UNL     1       8.469  -3.171  -5.008  1.00  0.00    -0.030 C 
ATOM     20  C   UNL     1       8.505  -0.981  -3.803  1.00  0.00     0.041 C 
ATOM     21  C   UNL     1       9.095  -2.038  -4.675  1.00  0.00    -0.030 C 
BRANCH  18  22
ATOM     22  C   UNL     1       6.276  -0.087  -3.024  1.00  0.00     0.228 C 
ATOM     23  O   UNL     1       5.973   0.372  -1.916  1.00  0.00    -0.274 OA
ATOM     24  N   UNL     1       5.872   0.630  -4.123  1.00  0.00    -0.326 N 
ATOM     25  H   UNL     1       5.362   1.446  -3.918  1.00  0.00     0.169 HD
BRANCH  24  26
ATOM     26  C   UNL     1       6.069   0.386  -5.488  1.00  0.00     0.048 A 
ATOM     27  C   UNL     1       6.740   1.347  -6.246  1.00  0.00     0.026 A 
ATOM     28  C   UNL     1       5.590  -0.759  -6.115  1.00  0.00     0.111 A 
ATOM     29  C   UNL     1       7.074   1.085  -7.579  1.00  0.00     0.009 A 
ATOM     30  C   UNL     1       5.961  -1.043  -7.433  1.00  0.00     0.271 A 
ATOM     31  C   UNL     1       6.718  -0.129  -8.168  1.00  0.00     0.086 A 
BRANCH  30  32
ATOM     32  N   UNL     1       5.575  -2.328  -8.028  1.00  0.00     0.062 N 
ATOM     33  O   UNL     1       6.120  -2.656  -9.091  1.00  0.00    -0.258 OA
ATOM     34  O   UNL     1       4.742  -3.018  -7.423  1.00  0.00    -0.258 OA
ENDBRANCH  30  32
ENDBRANCH  24  26
ENDBRANCH  18  22
ENDBRANCH  13  16
ENDBRANCH  11  12
ENDBRANCH   4   6
ENDBRANCH   1   2
BRANCH   1  35
ATOM     35  C   UNL     1      12.941  -3.987   0.007  1.00  0.00     0.042 C 
BRANCH  35  36
ATOM     36  C   UNL     1      14.397  -4.347   0.189  1.00  0.00     0.118 C 
BRANCH  36  37
ATOM     37  N   UNL     1      15.223  -3.912  -0.932  1.00  0.00    -0.352 N 
ATOM     38  C   UNL     1      16.240  -2.989  -0.975  1.00  0.00     0.251 C 
ATOM     39  H   UNL     1      15.019  -4.346  -1.792  1.00  0.00     0.163 HD
ATOM     40  O   UNL     1      16.669  -2.616  -2.063  1.00  0.00    -0.269 OA
BRANCH  38  41
ATOM     41  C   UNL     1      16.786  -2.433   0.282  1.00  0.00     0.039 A 
ATOM     42  C   UNL     1      17.146  -1.085   0.336  1.00  0.00     0.014 A 
ATOM     43  C   UNL     1      16.931  -3.239   1.413  1.00  0.00     0.014 A 
ATOM     44  C   UNL     1      17.578  -0.534   1.545  1.00  0.00     0.010 A 
ATOM     45  C   UNL     1      17.233  -2.664   2.638  1.00  0.00     0.010 A 
ATOM     46  C   UNL     1      17.584  -1.310   2.715  1.00  0.00    -0.014 A 
BRANCH  46  47
ATOM     47  C   UNL     1      18.002  -0.754   4.026  1.00  0.00     0.031 A 
ATOM     48  C   UNL     1      19.175  -1.365   4.748  1.00  0.00     0.074 A 
ATOM     49  C   UNL     1      17.285   0.232   4.599  1.00  0.00     0.049 A 
ATOM     50  N   UNL     1      19.629  -1.122   5.950  1.00  0.00    -0.248 NA
ATOM     51  C   UNL     1      19.906  -2.426   4.037  1.00  0.00     0.031 C 
ATOM     52  C   UNL     1      16.098   0.865   4.020  1.00  0.00     0.029 A 
ATOM     53  N   UNL     1      17.444   0.868   5.804  1.00  0.00    -0.354 N 
ATOM     54  C   UNL     1      20.675  -2.018   6.148  1.00  0.00     0.074 A 
ATOM     55  C   UNL     1      20.737  -2.857   4.972  1.00  0.00     0.031 C 
ATOM     56  C   UNL     1      15.655   1.818   4.856  1.00  0.00     0.029 A 
ATOM     57  C   UNL     1      16.494   1.832   6.050  1.00  0.00     0.049 A 
ATOM     58  H   UNL     1      18.169   0.654   6.434  1.00  0.00     0.167 HD
ATOM     59  C   UNL     1      21.526  -2.111   7.199  1.00  0.00     0.034 A 
ATOM     60  C   UNL     1      16.317   2.630   7.121  1.00  0.00     0.034 A 
ATOM     61  C   UNL     1      21.468  -1.242   8.347  1.00  0.00     0.049 A 
ATOM     62  C   UNL     1      17.281   2.518   8.274  1.00  0.00     0.074 A 
ATOM     63  C   UNL     1      22.311  -1.203   9.444  1.00  0.00     0.029 A 
ATOM     64  N   UNL     1      20.512  -0.253   8.546  1.00  0.00    -0.354 N 
ATOM     65  N   UNL     1      18.295   1.696   8.427  1.00  0.00    -0.248 NA
ATOM     66  C   UNL     1      17.086   3.450   9.391  1.00  0.00     0.031 C 
ATOM     67  C   UNL     1      21.831  -0.232  10.330  1.00  0.00     0.029 A 
ATOM     68  C   UNL     1      20.732   0.387   9.755  1.00  0.00     0.049 A 
ATOM     69  H   UNL     1      19.784  -0.038   7.918  1.00  0.00     0.167 HD
ATOM     70  C   UNL     1      18.878   2.037   9.644  1.00  0.00     0.074 A 
ATOM     71  C   UNL     1      18.111   3.147  10.174  1.00  0.00     0.031 C 
ATOM     72  C   UNL     1      19.952   1.489  10.267  1.00  0.00     0.034 A 
BRANCH  59  73
ATOM     73  C   UNL     1      22.570  -3.201   7.149  1.00  0.00     0.023 A 
ATOM     74  C   UNL     1      23.550  -3.241   6.141  1.00  0.00     0.031 A 
ATOM     75  C   UNL     1      22.562  -4.241   8.095  1.00  0.00     0.131 A 
ATOM     76  C   UNL     1      24.418  -4.339   6.047  1.00  0.00     0.055 A 
ATOM     77  C   UNL     1      23.488  -5.286   8.050  1.00  0.00     0.041 A 
ATOM     78  F   UNL     1      21.639  -4.272   9.070  1.00  0.00    -0.206 F 
ATOM     79  C   UNL     1      24.412  -5.349   7.011  1.00  0.00     0.022 A 
BRANCH  76  80
ATOM     80  S   UNL     1      25.445  -4.505   4.561  1.00  0.00     0.124 S 
ATOM     81  O   UNL     1      24.433  -4.560   3.509  1.00  0.00    -0.237 OA
ATOM     82  O   UNL     1      26.258  -3.295   4.603  1.00  0.00    -0.237 OA
ATOM     83  O   UNL     1      26.171  -5.753   4.784  1.00  0.00    -0.744 OA
ENDBRANCH  76  80
ENDBRANCH  59  73
BRANCH  60  84
ATOM     84  C   UNL     1      15.191   3.605   7.159  1.00  0.00     0.023 A 
ATOM     85  C   UNL     1      15.435   4.988   7.171  1.00  0.00     0.031 A 
ATOM     86  C   UNL     1      13.855   3.171   7.222  1.00  0.00     0.131 A 
ATOM     87  C   UNL     1      14.365   5.887   7.294  1.00  0.00     0.055 A 
ATOM     88  C   UNL     1      12.790   4.071   7.293  1.00  0.00     0.041 A 
ATOM     89  F   UNL     1      13.566   1.860   7.203  1.00  0.00    -0.206 F 
ATOM     90  C   UNL     1      13.043   5.438   7.344  1.00  0.00     0.022 A 
BRANCH  87  91
ATOM     91  S   UNL     1      14.733   7.654   7.471  1.00  0.00     0.124 S 
ATOM     92  O   UNL     1      15.577   7.665   8.659  1.00  0.00    -0.237 OA
ATOM     93  O   UNL     1      15.399   7.951   6.207  1.00  0.00    -0.237 OA
ATOM     94  O   UNL     1      13.414   8.261   7.635  1.00  0.00    -0.744 OA
ENDBRANCH  87  91
ENDBRANCH  60  84
BRANCH  72  95
ATOM     95  C   UNL     1      20.386   2.123  11.565  1.00  0.00     0.023 A 
ATOM     96  C   UNL     1      19.590   2.062  12.722  1.00  0.00     0.031 A 
ATOM     97  C   UNL     1      21.609   2.813  11.636  1.00  0.00     0.131 A 
ATOM     98  C   UNL     1      19.999   2.732  13.885  1.00  0.00     0.055 A 
ATOM     99  C   UNL     1      22.040   3.425  12.814  1.00  0.00     0.041 A 
ATOM    100  F   UNL     1      22.407   2.902  10.560  1.00  0.00    -0.206 F 
ATOM    101  C   UNL     1      21.226   3.398  13.943  1.00  0.00     0.022 A 
BRANCH  98 102
ATOM    102  S   UNL     1      18.860   2.802  15.294  1.00  0.00     0.124 S 
ATOM    103  O   UNL     1      17.683   3.429  14.702  1.00  0.00    -0.237 OA
ATOM    104  O   UNL     1      18.720   1.394  15.652  1.00  0.00    -0.237 OA
ATOM    105  O   UNL     1      19.573   3.621  16.272  1.00  0.00    -0.744 OA
ENDBRANCH  98 102
ENDBRANCH  72  95
ENDBRANCH  46  47
ENDBRANCH  38  41
ENDBRANCH  36  37
ENDBRANCH  35  36
ENDBRANCH   1  35
TORSDOF 18
