REMARK SMILES O=C(NCCCNC(=O)[C@@H](Cc1ccc(O)cc1)Nc1c2ccccc2nc2ccccc12)c1ccc(-c2c3nc(c(-c4cc(S(=O)(=O)[O-])ccc4F)c4ccc([nH]4)c(-c4cc(S(=O)(=O)[O-])ccc4F)c4nc(c(-c5cc(S(=O)(=O)[O-])ccc5F)c5ccc2[nH]5)C=C4)C=C3)cc1
REMARK SMILES IDX 5 1 4 2 3 3 1 4 2 5 34 7 35 8 96 9 36 10 95 11 37 12 38 13
REMARK SMILES IDX 39 14 89 15 40 16 94 17 88 18 90 19 41 20 93 21 87 22 86 23
REMARK SMILES IDX 42 25 74 26 54 27 73 28 55 29 58 30 72 31 91 32 56 33 57 34
REMARK SMILES IDX 71 36 92 37 59 38 43 39 44 40 52 41 45 42 51 43 53 44 50 45
REMARK SMILES IDX 46 46 47 47 48 48 49 49 75 50 76 51 84 52 77 53 83 54 85 55
REMARK SMILES IDX 82 56 78 57 79 58 80 59 81 60 60 61 61 62 69 63 62 64 68 65
REMARK SMILES IDX 70 66 67 67 63 68 64 69 65 70 66 71 6 72 7 73 8 74 9 76
REMARK SMILES IDX 10 77 11 78 12 79 13 80 18 81 14 82 17 83 15 84 16 85 19 87
REMARK SMILES IDX 20 89 21 90 33 91 22 92 26 93 28 94 32 95 23 96 25 97 27 98
REMARK SMILES IDX 29 99 31 100 24 101 30 102
REMARK H PARENT 3 6 90 24 58 35 7 75 16 86 19 88
REMARK Flexibility Score: inf
ROOT
ATOM      1  C   UNL     1       4.182  -2.015  -1.376  1.00  0.00     0.042 C 
ENDROOT
BRANCH   1   2
ATOM      2  C   UNL     1       3.776  -0.636  -1.875  1.00  0.00     0.118 C 
BRANCH   2   3
ATOM      3  N   UNL     1       2.465  -0.236  -1.393  1.00  0.00    -0.352 N 
ATOM      4  O   UNL     1       0.823   0.386  -0.028  1.00  0.00    -0.269 OA
ATOM      5  C   UNL     1       2.040   0.355  -0.226  1.00  0.00     0.251 C 
ATOM      6  H   UNL     1       1.737  -0.426  -2.028  1.00  0.00     0.163 HD
BRANCH   5   7
ATOM      7  C   UNL     1       2.952   0.945   0.796  1.00  0.00     0.039 A 
ATOM      8  C   UNL     1       4.171   1.547   0.491  1.00  0.00     0.014 A 
ATOM      9  C   UNL     1       2.498   1.014   2.124  1.00  0.00     0.014 A 
ATOM     10  C   UNL     1       4.973   2.097   1.498  1.00  0.00     0.010 A 
ATOM     11  C   UNL     1       3.252   1.661   3.117  1.00  0.00     0.010 A 
ATOM     12  C   UNL     1       4.514   2.194   2.821  1.00  0.00    -0.014 A 
BRANCH  12  13
ATOM     13  C   UNL     1       5.338   2.912   3.842  1.00  0.00     0.031 A 
ATOM     14  C   UNL     1       5.843   2.212   5.078  1.00  0.00     0.074 A 
ATOM     15  C   UNL     1       5.657   4.210   3.642  1.00  0.00     0.049 A 
ATOM     16  N   UNL     1       6.621   2.669   6.028  1.00  0.00    -0.248 NA
ATOM     17  C   UNL     1       5.409   0.823   5.280  1.00  0.00     0.031 C 
ATOM     18  C   UNL     1       5.207   5.023   2.509  1.00  0.00     0.029 A 
ATOM     19  N   UNL     1       6.449   5.070   4.365  1.00  0.00    -0.354 N 
ATOM     20  C   UNL     1       6.758   1.633   6.948  1.00  0.00     0.074 A 
ATOM     21  C   UNL     1       5.951   0.536   6.455  1.00  0.00     0.031 C 
ATOM     22  C   UNL     1       5.777   6.235   2.579  1.00  0.00     0.029 A 
ATOM     23  C   UNL     1       6.581   6.316   3.793  1.00  0.00     0.049 A 
ATOM     24  H   UNL     1       6.880   4.819   5.214  1.00  0.00     0.167 HD
ATOM     25  C   UNL     1       7.490   1.596   8.091  1.00  0.00     0.034 A 
ATOM     26  C   UNL     1       7.262   7.407   4.197  1.00  0.00     0.034 A 
ATOM     27  C   UNL     1       8.289   2.695   8.580  1.00  0.00     0.049 A 
ATOM     28  C   UNL     1       8.053   7.344   5.477  1.00  0.00     0.074 A 
ATOM     29  C   UNL     1       9.099   2.739   9.704  1.00  0.00     0.029 A 
ATOM     30  N   UNL     1       8.372   3.949   7.989  1.00  0.00    -0.354 N 
ATOM     31  N   UNL     1       8.205   6.337   6.306  1.00  0.00    -0.248 NA
ATOM     32  C   UNL     1       8.769   8.564   5.872  1.00  0.00     0.031 C 
ATOM     33  C   UNL     1       9.613   4.035   9.829  1.00  0.00     0.029 A 
ATOM     34  C   UNL     1       9.192   4.780   8.740  1.00  0.00     0.049 A 
ATOM     35  H   UNL     1       7.915   4.211   7.157  1.00  0.00     0.167 HD
ATOM     36  C   UNL     1       9.060   6.797   7.304  1.00  0.00     0.074 A 
ATOM     37  C   UNL     1       9.403   8.162   6.963  1.00  0.00     0.031 C 
ATOM     38  C   UNL     1       9.522   6.145   8.402  1.00  0.00     0.034 A 
BRANCH  25  39
ATOM     39  C   UNL     1       7.425   0.331   8.916  1.00  0.00     0.023 A 
ATOM     40  C   UNL     1       7.901  -0.897   8.426  1.00  0.00     0.031 A 
ATOM     41  C   UNL     1       6.860   0.348  10.204  1.00  0.00     0.131 A 
ATOM     42  C   UNL     1       7.735  -2.067   9.183  1.00  0.00     0.055 A 
ATOM     43  C   UNL     1       6.770  -0.806  10.986  1.00  0.00     0.041 A 
ATOM     44  F   UNL     1       6.372   1.487  10.721  1.00  0.00    -0.206 F 
ATOM     45  C   UNL     1       7.194  -2.026  10.470  1.00  0.00     0.022 A 
BRANCH  42  46
ATOM     46  S   UNL     1       8.099  -3.660   8.397  1.00  0.00     0.124 S 
ATOM     47  O   UNL     1       7.223  -3.616   7.227  1.00  0.00    -0.237 OA
ATOM     48  O   UNL     1       9.526  -3.562   8.130  1.00  0.00    -0.237 OA
ATOM     49  O   UNL     1       7.716  -4.640   9.415  1.00  0.00    -0.744 OA
ENDBRANCH  42  46
ENDBRANCH  25  39
BRANCH  26  50
ATOM     50  C   UNL     1       7.221   8.664   3.393  1.00  0.00     0.023 A 
ATOM     51  C   UNL     1       8.383   9.185   2.802  1.00  0.00     0.031 A 
ATOM     52  C   UNL     1       6.024   9.387   3.243  1.00  0.00     0.131 A 
ATOM     53  C   UNL     1       8.333  10.415   2.126  1.00  0.00     0.055 A 
ATOM     54  C   UNL     1       5.968  10.580   2.522  1.00  0.00     0.041 A 
ATOM     55  F   UNL     1       4.883   8.932   3.786  1.00  0.00    -0.206 F 
ATOM     56  C   UNL     1       7.131  11.108   1.969  1.00  0.00     0.022 A 
BRANCH  53  57
ATOM     57  S   UNL     1       9.883  11.138   1.521  1.00  0.00     0.124 S 
ATOM     58  O   UNL     1      10.659  11.247   2.750  1.00  0.00    -0.237 OA
ATOM     59  O   UNL     1      10.332  10.132   0.564  1.00  0.00    -0.237 OA
ATOM     60  O   UNL     1       9.459  12.407   0.934  1.00  0.00    -0.744 OA
ENDBRANCH  53  57
ENDBRANCH  26  50
BRANCH  38  61
ATOM     61  C   UNL     1      10.493   6.894   9.283  1.00  0.00     0.023 A 
ATOM     62  C   UNL     1      10.113   8.040  10.004  1.00  0.00     0.031 A 
ATOM     63  C   UNL     1      11.832   6.472   9.373  1.00  0.00     0.131 A 
ATOM     64  C   UNL     1      11.074   8.762  10.728  1.00  0.00     0.055 A 
ATOM     65  C   UNL     1      12.769   7.158  10.147  1.00  0.00     0.041 A 
ATOM     66  F   UNL     1      12.253   5.387   8.704  1.00  0.00    -0.206 F 
ATOM     67  C   UNL     1      12.396   8.320  10.817  1.00  0.00     0.022 A 
BRANCH  64  68
ATOM     68  S   UNL     1      10.599  10.352  11.463  1.00  0.00     0.124 S 
ATOM     69  O   UNL     1      10.107  11.088  10.303  1.00  0.00    -0.237 OA
ATOM     70  O   UNL     1       9.591   9.954  12.440  1.00  0.00    -0.237 OA
ATOM     71  O   UNL     1      11.849  10.854  12.031  1.00  0.00    -0.744 OA
ENDBRANCH  64  68
ENDBRANCH  38  61
ENDBRANCH  12  13
ENDBRANCH   5   7
ENDBRANCH   2   3
ENDBRANCH   1   2
BRANCH   1  72
ATOM     72  C   UNL     1       3.795  -3.165  -2.302  1.00  0.00     0.117 C 
BRANCH  72  73
ATOM     73  N   UNL     1       4.708  -3.261  -3.429  1.00  0.00    -0.354 N 
ATOM     74  C   UNL     1       5.787  -4.047  -3.693  1.00  0.00     0.242 C 
ATOM     75  H   UNL     1       4.503  -2.626  -4.153  1.00  0.00     0.163 HD
ATOM     76  O   UNL     1       6.477  -3.679  -4.657  1.00  0.00    -0.273 OA
BRANCH  74  77
ATOM     77  C   UNL     1       6.202  -5.319  -2.908  1.00  0.00     0.173 C 
BRANCH  77  78
ATOM     78  C   UNL     1       7.041  -5.041  -1.635  1.00  0.00     0.070 C 
BRANCH  78  79
ATOM     79  C   UNL     1       6.411  -4.452  -0.395  1.00  0.00    -0.045 A 
ATOM     80  C   UNL     1       6.953  -3.285   0.171  1.00  0.00     0.007 A 
ATOM     81  C   UNL     1       5.350  -5.083   0.268  1.00  0.00     0.007 A 
ATOM     82  C   UNL     1       6.370  -2.695   1.296  1.00  0.00     0.046 A 
ATOM     83  C   UNL     1       4.752  -4.485   1.379  1.00  0.00     0.046 A 
ATOM     84  C   UNL     1       5.250  -3.284   1.867  1.00  0.00     0.115 A 
BRANCH  84  85
ATOM     85  O   UNL     1       4.590  -2.694   2.903  1.00  0.00    -0.508 OA
ATOM     86  H   UNL     1       4.900  -1.883   3.255  1.00  0.00     0.293 HD
ENDBRANCH  84  85
ENDBRANCH  78  79
ENDBRANCH  77  78
BRANCH  77  87
ATOM     87  N   UNL     1       5.097  -6.266  -2.704  1.00  0.00    -0.372 N 
ATOM     88  H   UNL     1       4.410  -5.999  -2.051  1.00  0.00     0.161 HD
BRANCH  87  89
ATOM     89  C   UNL     1       4.905  -7.506  -3.330  1.00  0.00     0.054 A 
ATOM     90  C   UNL     1       5.929  -8.502  -3.474  1.00  0.00     0.024 A 
ATOM     91  C   UNL     1       3.598  -7.797  -3.841  1.00  0.00     0.024 A 
ATOM     92  C   UNL     1       7.284  -8.394  -3.059  1.00  0.00     0.012 A 
ATOM     93  C   UNL     1       5.550  -9.739  -4.041  1.00  0.00     0.073 A 
ATOM     94  C   UNL     1       3.368  -9.082  -4.369  1.00  0.00     0.073 A 
ATOM     95  C   UNL     1       2.516  -6.876  -3.867  1.00  0.00     0.012 A 
ATOM     96  C   UNL     1       8.213  -9.424  -3.221  1.00  0.00     0.001 A 
ATOM     97  C   UNL     1       6.481 -10.762  -4.178  1.00  0.00     0.029 A 
ATOM     98  N   UNL     1       4.313 -10.018  -4.456  1.00  0.00    -0.248 NA
ATOM     99  C   UNL     1       2.105  -9.421  -4.837  1.00  0.00     0.029 A 
ATOM    100  C   UNL     1       1.257  -7.230  -4.358  1.00  0.00     0.001 A 
ATOM    101  C   UNL     1       7.808 -10.619  -3.782  1.00  0.00     0.002 A 
ATOM    102  C   UNL     1       1.047  -8.513  -4.834  1.00  0.00     0.002 A 
ENDBRANCH  87  89
ENDBRANCH  77  87
ENDBRANCH  74  77
ENDBRANCH  72  73
ENDBRANCH   1  72
TORSDOF 18
