REMARK SMILES O=C(/C=C/N[C@@H](Cc1c[nH]c2ccccc12)C(=O)NCCCNC(=O)c1ccc(-c2c3nc(c(-c4cc(S(=O)(=O)[O-])ccc4F)c4ccc([nH]4)c(-c4cc(S(=O)(=O)[O-])ccc4F)c4nc(c(-c5cc(S(=O)(=O)[O-])ccc5F)c5ccc2[nH]5)C=C4)C=C3)cc1)c1ccccc1
REMARK SMILES IDX 20 1 19 2 17 3 18 4 6 6 5 7 4 9 3 10 2 11 1 12 89 13 90 14
REMARK SMILES IDX 94 15 91 16 93 17 92 18 7 19 8 20 9 21 16 22 10 23 11 24
REMARK SMILES IDX 15 25 12 27 14 28 13 29 21 30 22 31 23 32 24 33 25 35 26 36
REMARK SMILES IDX 27 37 88 38 28 39 87 40 29 41 30 42 31 43 81 44 32 45 86 46
REMARK SMILES IDX 80 47 82 48 33 49 85 50 79 51 78 52 34 54 66 55 46 56 65 57
REMARK SMILES IDX 47 58 50 59 64 60 83 61 48 62 49 63 63 65 84 66 51 67 35 68
REMARK SMILES IDX 36 69 44 70 37 71 43 72 45 73 42 74 38 75 39 76 40 77 41 78
REMARK SMILES IDX 67 79 68 80 76 81 69 82 75 83 77 84 74 85 70 86 71 87 72 88
REMARK SMILES IDX 73 89 52 90 53 91 61 92 54 93 60 94 62 95 59 96 55 97 56 98
REMARK SMILES IDX 57 99 58 100
REMARK H PARENT 19 5 5 8 10 26 23 34 82 53 50 64
REMARK Flexibility Score: inf
ROOT
ATOM      1  C   UNL     1       5.957   1.163   5.287  1.00  0.00     0.117 C 
ENDROOT
BRANCH   1   2
ATOM      2  N   UNL     1       6.760   0.250   4.530  1.00  0.00    -0.354 N 
ATOM      3  C   UNL     1       7.161   0.426   3.230  1.00  0.00     0.242 C 
ATOM      4  O   UNL     1       8.098  -0.282   2.838  1.00  0.00    -0.273 OA
ATOM      5  H   UNL     1       7.049  -0.576   4.982  1.00  0.00     0.163 HD
BRANCH   3   6
ATOM      6  C   UNL     1       6.463   1.428   2.248  1.00  0.00     0.173 C 
BRANCH   6   7
ATOM      7  N   UNL     1       5.018   1.182   2.138  1.00  0.00    -0.379 N 
ATOM      8  H   UNL     1       4.470   1.422   2.920  1.00  0.00     0.160 HD
BRANCH   7   9
ATOM      9  C   UNL     1       4.352   0.654   1.063  1.00  0.00     0.082 C 
ATOM     10  C   UNL     1       3.041   0.386   1.022  1.00  0.00     0.070 C 
BRANCH  10  11
ATOM     11  C   UNL     1       2.305  -0.160  -0.147  1.00  0.00     0.187 C 
ATOM     12  O   UNL     1       1.085  -0.041  -0.207  1.00  0.00    -0.289 OA
BRANCH  11  13
ATOM     13  C   UNL     1       3.032  -0.809  -1.258  1.00  0.00     0.022 A 
ATOM     14  C   UNL     1       4.029  -1.764  -1.030  1.00  0.00     0.012 A 
ATOM     15  C   UNL     1       2.681  -0.458  -2.566  1.00  0.00     0.012 A 
ATOM     16  C   UNL     1       4.711  -2.324  -2.112  1.00  0.00     0.001 A 
ATOM     17  C   UNL     1       3.362  -1.022  -3.643  1.00  0.00     0.001 A 
ATOM     18  C   UNL     1       4.382  -1.947  -3.415  1.00  0.00     0.000 A 
ENDBRANCH  11  13
ENDBRANCH  10  11
ENDBRANCH   7   9
ENDBRANCH   6   7
BRANCH   6  19
ATOM     19  C   UNL     1       6.848   2.925   2.318  1.00  0.00     0.072 C 
BRANCH  19  20
ATOM     20  C   UNL     1       6.258   3.894   3.325  1.00  0.00    -0.020 A 
ATOM     21  C   UNL     1       5.045   3.885   3.993  1.00  0.00     0.087 A 
ATOM     22  C   UNL     1       6.826   5.179   3.660  1.00  0.00     0.003 A 
ATOM     23  N   UNL     1       5.109   4.801   5.011  1.00  0.00    -0.361 N 
ATOM     24  C   UNL     1       6.128   5.680   4.758  1.00  0.00     0.046 A 
ATOM     25  C   UNL     1       7.859   5.973   3.119  1.00  0.00     0.010 A 
ATOM     26  H   UNL     1       4.516   4.824   5.797  1.00  0.00     0.166 HD
ATOM     27  C   UNL     1       6.452   6.879   5.399  1.00  0.00     0.026 A 
ATOM     28  C   UNL     1       8.129   7.228   3.682  1.00  0.00     0.001 A 
ATOM     29  C   UNL     1       7.451   7.661   4.820  1.00  0.00     0.002 A 
ENDBRANCH  19  20
ENDBRANCH   6  19
ENDBRANCH   3   6
ENDBRANCH   1   2
BRANCH   1  30
ATOM     30  C   UNL     1       4.849   0.573   6.131  1.00  0.00     0.042 C 
BRANCH  30  31
ATOM     31  C   UNL     1       5.254   0.299   7.566  1.00  0.00     0.118 C 
BRANCH  31  32
ATOM     32  N   UNL     1       5.709   1.495   8.278  1.00  0.00    -0.352 N 
ATOM     33  C   UNL     1       5.173   2.213   9.322  1.00  0.00     0.251 C 
ATOM     34  H   UNL     1       6.562   1.855   7.945  1.00  0.00     0.163 HD
ATOM     35  O   UNL     1       5.689   3.290   9.621  1.00  0.00    -0.269 OA
BRANCH  33  36
ATOM     36  C   UNL     1       3.972   1.742  10.047  1.00  0.00     0.039 A 
ATOM     37  C   UNL     1       3.065   2.676  10.559  1.00  0.00     0.014 A 
ATOM     38  C   UNL     1       3.723   0.385  10.224  1.00  0.00     0.014 A 
ATOM     39  C   UNL     1       1.870   2.241  11.142  1.00  0.00     0.010 A 
ATOM     40  C   UNL     1       2.475  -0.041  10.654  1.00  0.00     0.010 A 
ATOM     41  C   UNL     1       1.535   0.879  11.136  1.00  0.00    -0.014 A 
BRANCH  41  42
ATOM     42  C   UNL     1       0.235   0.372  11.653  1.00  0.00     0.031 A 
ATOM     43  C   UNL     1       0.220  -0.689  12.726  1.00  0.00     0.074 A 
ATOM     44  C   UNL     1      -0.921   0.781  11.095  1.00  0.00     0.049 A 
ATOM     45  N   UNL     1      -0.784  -1.382  13.199  1.00  0.00    -0.248 NA
ATOM     46  C   UNL     1       1.524  -1.062  13.295  1.00  0.00     0.031 C 
ATOM     47  C   UNL     1      -1.043   1.760  10.012  1.00  0.00     0.029 A 
ATOM     48  N   UNL     1      -2.218   0.420  11.358  1.00  0.00    -0.354 N 
ATOM     49  C   UNL     1      -0.225  -2.295  14.089  1.00  0.00     0.074 A 
ATOM     50  C   UNL     1       1.210  -2.132  14.005  1.00  0.00     0.031 C 
ATOM     51  C   UNL     1      -2.342   1.960   9.742  1.00  0.00     0.029 A 
ATOM     52  C   UNL     1      -3.145   1.084  10.588  1.00  0.00     0.049 A 
ATOM     53  H   UNL     1      -2.463  -0.251  12.035  1.00  0.00     0.167 HD
ATOM     54  C   UNL     1      -0.848  -3.159  14.930  1.00  0.00     0.034 A 
ATOM     55  C   UNL     1      -4.489   0.994  10.566  1.00  0.00     0.034 A 
ATOM     56  C   UNL     1      -2.282  -3.280  15.024  1.00  0.00     0.049 A 
ATOM     57  C   UNL     1      -5.166   0.025  11.500  1.00  0.00     0.074 A 
ATOM     58  C   UNL     1      -3.030  -4.074  15.873  1.00  0.00     0.029 A 
ATOM     59  N   UNL     1      -3.188  -2.579  14.236  1.00  0.00    -0.354 N 
ATOM     60  N   UNL     1      -4.629  -0.805  12.364  1.00  0.00    -0.248 NA
ATOM     61  C   UNL     1      -6.633  -0.013  11.458  1.00  0.00     0.031 C 
ATOM     62  C   UNL     1      -4.383  -3.899  15.559  1.00  0.00     0.029 A 
ATOM     63  C   UNL     1      -4.486  -2.938  14.565  1.00  0.00     0.049 A 
ATOM     64  H   UNL     1      -2.944  -1.922  13.545  1.00  0.00     0.167 HD
ATOM     65  C   UNL     1      -5.696  -1.438  12.996  1.00  0.00     0.074 A 
ATOM     66  C   UNL     1      -6.905  -0.885  12.417  1.00  0.00     0.031 C 
ATOM     67  C   UNL     1      -5.680  -2.383  13.971  1.00  0.00     0.034 A 
BRANCH  54  68
ATOM     68  C   UNL     1       0.036  -4.035  15.793  1.00  0.00     0.023 A 
ATOM     69  C   UNL     1       0.973  -3.481  16.685  1.00  0.00     0.031 A 
ATOM     70  C   UNL     1       0.007  -5.434  15.665  1.00  0.00     0.131 A 
ATOM     71  C   UNL     1       1.923  -4.303  17.307  1.00  0.00     0.055 A 
ATOM     72  C   UNL     1       0.885  -6.258  16.376  1.00  0.00     0.041 A 
ATOM     73  F   UNL     1      -0.850  -6.028  14.820  1.00  0.00    -0.206 F 
ATOM     74  C   UNL     1       1.869  -5.692  17.182  1.00  0.00     0.022 A 
BRANCH  71  75
ATOM     75  S   UNL     1       3.353  -3.515  18.099  1.00  0.00     0.124 S 
ATOM     76  O   UNL     1       3.915  -2.746  16.991  1.00  0.00    -0.237 OA
ATOM     77  O   UNL     1       2.735  -2.739  19.167  1.00  0.00    -0.237 OA
ATOM     78  O   UNL     1       4.169  -4.646  18.538  1.00  0.00    -0.744 OA
ENDBRANCH  71  75
ENDBRANCH  54  68
BRANCH  55  79
ATOM     79  C   UNL     1      -5.287   1.862   9.655  1.00  0.00     0.023 A 
ATOM     80  C   UNL     1      -6.127   2.859  10.176  1.00  0.00     0.031 A 
ATOM     81  C   UNL     1      -5.237   1.703   8.260  1.00  0.00     0.131 A 
ATOM     82  C   UNL     1      -6.914   3.634   9.311  1.00  0.00     0.055 A 
ATOM     83  C   UNL     1      -5.987   2.508   7.400  1.00  0.00     0.041 A 
ATOM     84  F   UNL     1      -4.441   0.772   7.711  1.00  0.00    -0.206 F 
ATOM     85  C   UNL     1      -6.840   3.474   7.926  1.00  0.00     0.022 A 
BRANCH  82  86
ATOM     86  S   UNL     1      -8.084   4.819  10.031  1.00  0.00     0.124 S 
ATOM     87  O   UNL     1      -8.942   3.945  10.822  1.00  0.00    -0.237 OA
ATOM     88  O   UNL     1      -7.197   5.701  10.783  1.00  0.00    -0.237 OA
ATOM     89  O   UNL     1      -8.716   5.425   8.861  1.00  0.00    -0.744 OA
ENDBRANCH  82  86
ENDBRANCH  55  79
BRANCH  67  90
ATOM     90  C   UNL     1      -7.016  -2.836  14.506  1.00  0.00     0.023 A 
ATOM     91  C   UNL     1      -7.927  -3.558  13.715  1.00  0.00     0.031 A 
ATOM     92  C   UNL     1      -7.387  -2.526  15.827  1.00  0.00     0.131 A 
ATOM     93  C   UNL     1      -9.186  -3.896  14.233  1.00  0.00     0.055 A 
ATOM     94  C   UNL     1      -8.615  -2.920  16.357  1.00  0.00     0.041 A 
ATOM     95  F   UNL     1      -6.556  -1.836  16.625  1.00  0.00    -0.206 F 
ATOM     96  C   UNL     1      -9.529  -3.597  15.555  1.00  0.00     0.022 A 
BRANCH  93  97
ATOM     97  S   UNL     1     -10.409  -4.649  13.126  1.00  0.00     0.124 S 
ATOM     98  O   UNL     1     -10.527  -3.643  12.076  1.00  0.00    -0.237 OA
ATOM     99  O   UNL     1      -9.757  -5.897  12.743  1.00  0.00    -0.237 OA
ATOM    100  O   UNL     1     -11.590  -4.802  13.973  1.00  0.00    -0.744 OA
ENDBRANCH  93  97
ENDBRANCH  67  90
ENDBRANCH  41  42
ENDBRANCH  33  36
ENDBRANCH  31  32
ENDBRANCH  30  31
ENDBRANCH   1  30
TORSDOF 19
