REMARK SMILES O=C(NCCCNC(=O)c1cn(C2C[NH+](CC[NH+]3CCCCC3)C2)nn1)c1ccc(-c2c3nc(c(-c4cc(S(=O)(=O)[O-])ccc4F)c4ccc([nH]4)c(-c4cc(S(=O)(=O)[O-])ccc4F)c4nc(c(-c5cc(S(=O)(=O)[O-])ccc5F)c5ccc2[nH]5)C=C4)C=C3)cc1
REMARK SMILES IDX 5 1 4 2 3 3 1 4 2 5 27 7 28 8 89 9 29 10 88 11 30 12 31 13
REMARK SMILES IDX 32 14 82 15 33 16 87 17 81 18 83 19 34 20 86 21 80 22 79 23
REMARK SMILES IDX 35 25 67 26 47 27 66 28 48 29 51 30 65 31 84 32 49 33 50 34
REMARK SMILES IDX 64 36 85 37 52 38 36 39 37 40 45 41 38 42 44 43 46 44 43 45
REMARK SMILES IDX 39 46 40 47 41 48 42 49 68 50 69 51 77 52 70 53 76 54 78 55
REMARK SMILES IDX 75 56 71 57 72 58 73 59 74 60 53 61 54 62 62 63 55 64 61 65
REMARK SMILES IDX 63 66 60 67 56 68 57 69 58 70 59 71 6 72 7 73 8 74 9 76
REMARK SMILES IDX 10 77 11 78 26 79 12 80 25 81 13 82 14 83 24 84 15 85 16 87
REMARK SMILES IDX 17 88 18 89 19 90 23 91 20 93 22 94 21 95
REMARK H PARENT 3 6 83 24 51 35 7 75 15 86 18 92
REMARK Flexibility Score: inf
ROOT
ATOM      1  C   UNL     1       4.863  -0.939   2.024  1.00  0.00     0.042 C 
ENDROOT
BRANCH   1   2
ATOM      2  C   UNL     1       4.645  -0.861   0.514  1.00  0.00     0.118 C 
BRANCH   2   3
ATOM      3  N   UNL     1       3.268  -0.992   0.083  1.00  0.00    -0.352 N 
ATOM      4  O   UNL     1       1.173  -0.608  -0.492  1.00  0.00    -0.269 OA
ATOM      5  C   UNL     1       2.183  -0.158   0.057  1.00  0.00     0.251 C 
ATOM      6  H   UNL     1       3.066  -1.888  -0.274  1.00  0.00     0.163 HD
BRANCH   5   7
ATOM      7  C   UNL     1       2.127   1.202   0.664  1.00  0.00     0.039 A 
ATOM      8  C   UNL     1       3.229   1.973   1.034  1.00  0.00     0.014 A 
ATOM      9  C   UNL     1       0.841   1.747   0.846  1.00  0.00     0.014 A 
ATOM     10  C   UNL     1       3.054   3.232   1.610  1.00  0.00     0.010 A 
ATOM     11  C   UNL     1       0.661   3.012   1.403  1.00  0.00     0.010 A 
ATOM     12  C   UNL     1       1.772   3.755   1.798  1.00  0.00    -0.014 A 
BRANCH  12  13
ATOM     13  C   UNL     1       1.654   5.141   2.260  1.00  0.00     0.031 A 
ATOM     14  C   UNL     1       2.137   6.192   1.318  1.00  0.00     0.074 A 
ATOM     15  C   UNL     1       0.989   5.528   3.367  1.00  0.00     0.049 A 
ATOM     16  N   UNL     1       3.024   7.112   1.521  1.00  0.00    -0.248 NA
ATOM     17  C   UNL     1       1.588   6.188  -0.046  1.00  0.00     0.031 C 
ATOM     18  C   UNL     1       0.164   4.696   4.242  1.00  0.00     0.029 A 
ATOM     19  N   UNL     1       0.816   6.789   3.870  1.00  0.00    -0.354 N 
ATOM     20  C   UNL     1       3.008   7.928   0.390  1.00  0.00     0.074 A 
ATOM     21  C   UNL     1       2.205   7.239  -0.586  1.00  0.00     0.031 C 
ATOM     22  C   UNL     1      -0.589   5.497   5.026  1.00  0.00     0.029 A 
ATOM     23  C   UNL     1      -0.216   6.884   4.793  1.00  0.00     0.049 A 
ATOM     24  H   UNL     1       1.371   7.556   3.601  1.00  0.00     0.167 HD
ATOM     25  C   UNL     1       3.513   9.194   0.402  1.00  0.00     0.034 A 
ATOM     26  C   UNL     1      -0.783   8.015   5.286  1.00  0.00     0.034 A 
ATOM     27  C   UNL     1       4.418   9.397   1.508  1.00  0.00     0.049 A 
ATOM     28  C   UNL     1       0.180   9.127   5.115  1.00  0.00     0.074 A 
ATOM     29  C   UNL     1       5.570   8.773   1.950  1.00  0.00     0.029 A 
ATOM     30  N   UNL     1       4.029  10.211   2.546  1.00  0.00    -0.354 N 
ATOM     31  N   UNL     1       1.312   9.216   5.755  1.00  0.00    -0.248 NA
ATOM     32  C   UNL     1       0.062   9.985   3.946  1.00  0.00     0.031 C 
ATOM     33  C   UNL     1       5.516   8.854   3.372  1.00  0.00     0.029 A 
ATOM     34  C   UNL     1       4.355   9.553   3.705  1.00  0.00     0.049 A 
ATOM     35  H   UNL     1       3.600  11.094   2.472  1.00  0.00     0.167 HD
ATOM     36  C   UNL     1       2.186   9.809   4.859  1.00  0.00     0.074 A 
ATOM     37  C   UNL     1       1.332  10.376   3.821  1.00  0.00     0.031 C 
ATOM     38  C   UNL     1       3.524   9.540   4.892  1.00  0.00     0.034 A 
BRANCH  25  39
ATOM     39  C   UNL     1       2.973  10.357  -0.410  1.00  0.00     0.023 A 
ATOM     40  C   UNL     1       3.631  11.598  -0.288  1.00  0.00     0.031 A 
ATOM     41  C   UNL     1       1.711  10.397  -1.044  1.00  0.00     0.131 A 
ATOM     42  C   UNL     1       3.003  12.796  -0.670  1.00  0.00     0.055 A 
ATOM     43  C   UNL     1       1.127  11.584  -1.502  1.00  0.00     0.041 A 
ATOM     44  F   UNL     1       0.933   9.316  -1.171  1.00  0.00    -0.206 F 
ATOM     45  C   UNL     1       1.756  12.798  -1.284  1.00  0.00     0.022 A 
BRANCH  42  46
ATOM     46  S   UNL     1       3.752  14.361  -0.144  1.00  0.00     0.124 S 
ATOM     47  O   UNL     1       3.954  14.123   1.282  1.00  0.00    -0.237 OA
ATOM     48  O   UNL     1       4.956  14.409  -0.967  1.00  0.00    -0.237 OA
ATOM     49  O   UNL     1       2.731  15.353  -0.472  1.00  0.00    -0.744 OA
ENDBRANCH  42  46
ENDBRANCH  25  39
BRANCH  26  50
ATOM     50  C   UNL     1      -2.201   8.210   5.687  1.00  0.00     0.023 A 
ATOM     51  C   UNL     1      -2.610   9.259   6.533  1.00  0.00     0.031 A 
ATOM     52  C   UNL     1      -3.224   7.472   5.050  1.00  0.00     0.131 A 
ATOM     53  C   UNL     1      -3.985   9.519   6.727  1.00  0.00     0.055 A 
ATOM     54  C   UNL     1      -4.581   7.719   5.262  1.00  0.00     0.041 A 
ATOM     55  F   UNL     1      -2.940   6.536   4.131  1.00  0.00    -0.206 F 
ATOM     56  C   UNL     1      -4.968   8.751   6.100  1.00  0.00     0.022 A 
BRANCH  53  57
ATOM     57  S   UNL     1      -4.516  10.954   7.715  1.00  0.00     0.124 S 
ATOM     58  O   UNL     1      -4.219  10.519   9.075  1.00  0.00    -0.237 OA
ATOM     59  O   UNL     1      -3.687  12.028   7.180  1.00  0.00    -0.237 OA
ATOM     60  O   UNL     1      -5.941  11.071   7.403  1.00  0.00    -0.744 OA
ENDBRANCH  53  57
ENDBRANCH  26  50
BRANCH  38  61
ATOM     61  C   UNL     1       4.118   8.922   6.138  1.00  0.00     0.023 A 
ATOM     62  C   UNL     1       3.681   7.712   6.717  1.00  0.00     0.031 A 
ATOM     63  C   UNL     1       5.261   9.534   6.686  1.00  0.00     0.131 A 
ATOM     64  C   UNL     1       4.373   7.165   7.814  1.00  0.00     0.055 A 
ATOM     65  C   UNL     1       5.954   8.982   7.763  1.00  0.00     0.041 A 
ATOM     66  F   UNL     1       5.749  10.668   6.156  1.00  0.00    -0.206 F 
ATOM     67  C   UNL     1       5.507   7.797   8.337  1.00  0.00     0.022 A 
BRANCH  64  68
ATOM     68  S   UNL     1       3.802   5.618   8.586  1.00  0.00     0.124 S 
ATOM     69  O   UNL     1       2.366   5.819   8.739  1.00  0.00    -0.237 OA
ATOM     70  O   UNL     1       4.206   4.609   7.609  1.00  0.00    -0.237 OA
ATOM     71  O   UNL     1       4.548   5.571   9.845  1.00  0.00    -0.744 OA
ENDBRANCH  64  68
ENDBRANCH  38  61
ENDBRANCH  12  13
ENDBRANCH   5   7
ENDBRANCH   2   3
ENDBRANCH   1   2
BRANCH   1  72
ATOM     72  C   UNL     1       4.353  -2.215   2.700  1.00  0.00     0.118 C 
BRANCH  72  73
ATOM     73  N   UNL     1       4.896  -3.428   2.107  1.00  0.00    -0.351 N 
ATOM     74  C   UNL     1       5.464  -4.539   2.671  1.00  0.00     0.273 C 
ATOM     75  H   UNL     1       4.845  -3.455   1.124  1.00  0.00     0.163 HD
ATOM     76  O   UNL     1       5.982  -5.359   1.896  1.00  0.00    -0.267 OA
BRANCH  74  77
ATOM     77  C   UNL     1       5.470  -4.741   4.108  1.00  0.00     0.170 A 
ATOM     78  C   UNL     1       4.523  -4.404   5.061  1.00  0.00     0.145 A 
ATOM     79  N   UNL     1       6.500  -5.398   4.738  1.00  0.00    -0.125 NA
ATOM     80  N   UNL     1       5.119  -4.719   6.252  1.00  0.00    -0.237 N 
ATOM     81  N   UNL     1       6.274  -5.382   6.042  1.00  0.00    -0.066 NA
BRANCH  80  82
ATOM     82  C   UNL     1       4.878  -4.135   7.533  1.00  0.00     0.218 C 
ATOM     83  C   UNL     1       4.028  -2.831   7.530  1.00  0.00     0.296 C 
ATOM     84  C   UNL     1       3.739  -4.680   8.397  1.00  0.00     0.296 C 
ATOM     85  N   UNL     1       3.424  -3.279   8.794  1.00  0.00    -0.326 N 
ATOM     86  H   UNL     1       2.474  -3.034   9.071  1.00  0.00     0.348 HD
BRANCH  85  87
ATOM     87  C   UNL     1       4.134  -2.758   9.988  1.00  0.00     0.324 C 
BRANCH  87  88
ATOM     88  C   UNL     1       5.693  -2.615  10.191  1.00  0.00     0.324 C 
BRANCH  88  89
ATOM     89  N   UNL     1       6.510  -1.577   9.524  1.00  0.00    -0.330 N 
ATOM     90  C   UNL     1       7.245  -2.018   8.341  1.00  0.00     0.262 C 
ATOM     91  C   UNL     1       5.867  -0.262   9.441  1.00  0.00     0.262 C 
ATOM     92  H   UNL     1       7.276  -1.411  10.177  1.00  0.00     0.348 HD
ATOM     93  C   UNL     1       8.057  -0.944   7.622  1.00  0.00     0.062 C 
ATOM     94  C   UNL     1       6.707   0.798   8.723  1.00  0.00     0.062 C 
ATOM     95  C   UNL     1       7.199   0.286   7.378  1.00  0.00     0.012 C 
ENDBRANCH  88  89
ENDBRANCH  87  88
ENDBRANCH  85  87
ENDBRANCH  80  82
ENDBRANCH  74  77
ENDBRANCH  72  73
ENDBRANCH   1  72
TORSDOF 17
