REMARK SMILES [NH3+][C@H]1C=C[C@H](C(=O)N2CCCc3c(C(=O)NCCCNC(=O)c4ccc(-c5c6nc(c(-c7cc(S(=O)(=O)[O-])ccc7F)c7ccc([nH]7)c(-c7cc(S(=O)(=O)[O-])ccc7F)c7nc(c(-c8cc(S(=O)(=O)[O-])ccc8F)c8ccc5[nH]8)C=C7)C=C6)cc4)cccc32)C1
REMARK SMILES IDX 18 1 17 2 16 3 14 4 15 5 13 7 8 8 9 9 89 10 10 11 12 12
REMARK SMILES IDX 88 13 11 14 87 15 86 16 6 17 7 18 5 19 2 20 3 21 90 22 4 23
REMARK SMILES IDX 1 24 19 28 20 29 21 30 22 32 23 33 24 34 85 35 25 36 84 37
REMARK SMILES IDX 26 38 27 39 28 40 78 41 29 42 83 43 77 44 79 45 30 46 82 47
REMARK SMILES IDX 76 48 75 49 31 51 63 52 43 53 62 54 44 55 47 56 61 57 80 58
REMARK SMILES IDX 45 59 46 60 60 62 81 63 48 64 32 65 33 66 41 67 34 68 40 69
REMARK SMILES IDX 42 70 39 71 35 72 36 73 37 74 38 75 64 76 65 77 73 78 66 79
REMARK SMILES IDX 72 80 74 81 71 82 67 83 68 84 69 85 70 86 49 87 50 88 58 89
REMARK SMILES IDX 51 90 57 91 59 92 56 93 52 94 53 95 54 96 55 97
REMARK H PARENT 16 6 1 25 1 26 1 27 20 31 79 50 47 61
REMARK Flexibility Score: inf
ROOT
ATOM      1  C   UNL     1      -7.159   2.226   4.855  1.00  0.00     0.042 C 
ENDROOT
BRANCH   1   2
ATOM      2  C   UNL     1      -7.908   2.978   3.755  1.00  0.00     0.118 C 
BRANCH   2   3
ATOM      3  N   UNL     1      -7.751   4.412   3.897  1.00  0.00    -0.352 N 
ATOM      4  C   UNL     1      -6.934   5.409   3.443  1.00  0.00     0.251 C 
ATOM      5  O   UNL     1      -7.301   6.526   3.837  1.00  0.00    -0.269 OA
ATOM      6  H   UNL     1      -8.438   4.776   4.500  1.00  0.00     0.163 HD
BRANCH   4   7
ATOM      7  C   UNL     1      -5.712   5.358   2.546  1.00  0.00     0.045 A 
ATOM      8  N   UNL     1      -2.679   3.506   1.188  1.00  0.00    -0.312 N 
ATOM      9  C   UNL     1      -3.088   2.142   1.473  1.00  0.00     0.126 C 
ATOM     10  C   UNL     1      -3.617   4.560   1.498  1.00  0.00     0.048 A 
ATOM     11  C   UNL     1      -3.719   2.053   2.837  1.00  0.00     0.027 C 
ATOM     12  C   UNL     1      -4.783   4.314   2.284  1.00  0.00    -0.011 A 
ATOM     13  C   UNL     1      -3.377   5.850   1.007  1.00  0.00     0.027 A 
ATOM     14  C   UNL     1      -4.930   2.956   2.885  1.00  0.00     0.040 C 
ATOM     15  C   UNL     1      -4.269   6.880   1.254  1.00  0.00     0.003 A 
ATOM     16  C   UNL     1      -5.417   6.630   1.998  1.00  0.00     0.014 A 
BRANCH   8  17
ATOM     17  C   UNL     1      -1.334   3.802   0.962  1.00  0.00     0.234 C 
ATOM     18  O   UNL     1      -0.765   4.699   1.598  1.00  0.00    -0.274 OA
BRANCH  17  19
ATOM     19  C   UNL     1      -0.644   3.161  -0.272  1.00  0.00     0.108 C 
ATOM     20  C   UNL     1       0.642   1.177   0.304  1.00  0.00     0.205 C 
ATOM     21  C   UNL     1       1.540   2.358   0.149  1.00  0.00     0.033 C 
ATOM     22  C   UNL     1      -0.592   1.645  -0.479  1.00  0.00     0.087 C 
ATOM     23  C   UNL     1       0.840   3.448  -0.190  1.00  0.00    -0.012 C 
BRANCH  20  24
ATOM     24  N   UNL     1       1.201  -0.034  -0.259  1.00  0.00    -0.352 N 
ATOM     25  H   UNL     1       2.017  -0.317   0.284  1.00  0.00     0.345 HD
ATOM     26  H   UNL     1       1.478   0.136  -1.225  1.00  0.00     0.345 HD
ATOM     27  H   UNL     1       0.501  -0.776  -0.231  1.00  0.00     0.345 HD
ENDBRANCH  20  24
ENDBRANCH  17  19
ENDBRANCH   8  17
ENDBRANCH   4   7
ENDBRANCH   2   3
ENDBRANCH   1   2
BRANCH   1  28
ATOM     28  C   UNL     1      -8.038   1.562   5.892  1.00  0.00     0.118 C 
BRANCH  28  29
ATOM     29  N   UNL     1      -8.725   0.402   5.353  1.00  0.00    -0.352 N 
ATOM     30  C   UNL     1      -8.733  -0.898   5.802  1.00  0.00     0.251 C 
ATOM     31  H   UNL     1      -9.264   0.571   4.547  1.00  0.00     0.163 HD
ATOM     32  O   UNL     1      -9.192  -1.772   5.073  1.00  0.00    -0.269 OA
BRANCH  30  33
ATOM     33  C   UNL     1      -8.169  -1.246   7.130  1.00  0.00     0.039 A 
ATOM     34  C   UNL     1      -7.537  -2.483   7.290  1.00  0.00     0.014 A 
ATOM     35  C   UNL     1      -8.273  -0.379   8.222  1.00  0.00     0.014 A 
ATOM     36  C   UNL     1      -6.974  -2.823   8.523  1.00  0.00     0.010 A 
ATOM     37  C   UNL     1      -7.615  -0.670   9.412  1.00  0.00     0.010 A 
ATOM     38  C   UNL     1      -6.979  -1.906   9.586  1.00  0.00    -0.014 A 
BRANCH  38  39
ATOM     39  C   UNL     1      -6.366  -2.235  10.899  1.00  0.00     0.031 A 
ATOM     40  C   UNL     1      -7.226  -2.268  12.136  1.00  0.00     0.074 A 
ATOM     41  C   UNL     1      -5.039  -2.450  10.983  1.00  0.00     0.049 A 
ATOM     42  N   UNL     1      -6.877  -2.459  13.383  1.00  0.00    -0.248 NA
ATOM     43  C   UNL     1      -8.665  -2.018  11.951  1.00  0.00     0.031 C 
ATOM     44  C   UNL     1      -4.103  -2.404   9.857  1.00  0.00     0.029 A 
ATOM     45  N   UNL     1      -4.243  -2.747  12.060  1.00  0.00    -0.354 N 
ATOM     46  C   UNL     1      -8.047  -2.336  14.127  1.00  0.00     0.074 A 
ATOM     47  C   UNL     1      -9.099  -1.984  13.200  1.00  0.00     0.031 C 
ATOM     48  C   UNL     1      -2.869  -2.699  10.297  1.00  0.00     0.029 A 
ATOM     49  C   UNL     1      -2.912  -2.900  11.741  1.00  0.00     0.049 A 
ATOM     50  H   UNL     1      -4.591  -2.842  12.976  1.00  0.00     0.167 HD
ATOM     51  C   UNL     1      -8.230  -2.527  15.456  1.00  0.00     0.034 A 
ATOM     52  C   UNL     1      -1.848  -3.159  12.527  1.00  0.00     0.034 A 
ATOM     53  C   UNL     1      -7.168  -2.898  16.359  1.00  0.00     0.049 A 
ATOM     54  C   UNL     1      -2.074  -3.342  14.008  1.00  0.00     0.074 A 
ATOM     55  C   UNL     1      -7.245  -3.172  17.713  1.00  0.00     0.029 A 
ATOM     56  N   UNL     1      -5.834  -3.041  16.000  1.00  0.00    -0.354 N 
ATOM     57  N   UNL     1      -3.196  -3.274  14.688  1.00  0.00    -0.248 NA
ATOM     58  C   UNL     1      -0.893  -3.647  14.825  1.00  0.00     0.031 C 
ATOM     59  C   UNL     1      -5.950  -3.404  18.187  1.00  0.00     0.029 A 
ATOM     60  C   UNL     1      -5.074  -3.365  17.113  1.00  0.00     0.049 A 
ATOM     61  H   UNL     1      -5.479  -2.928  15.089  1.00  0.00     0.167 HD
ATOM     62  C   UNL     1      -2.858  -3.564  16.007  1.00  0.00     0.074 A 
ATOM     63  C   UNL     1      -1.433  -3.824  16.021  1.00  0.00     0.031 C 
ATOM     64  C   UNL     1      -3.652  -3.615  17.108  1.00  0.00     0.034 A 
BRANCH  51  65
ATOM     65  C   UNL     1      -9.620  -2.315  16.010  1.00  0.00     0.023 A 
ATOM     66  C   UNL     1     -10.711  -3.100  15.595  1.00  0.00     0.031 A 
ATOM     67  C   UNL     1      -9.864  -1.301  16.953  1.00  0.00     0.131 A 
ATOM     68  C   UNL     1     -12.002  -2.811  16.063  1.00  0.00     0.055 A 
ATOM     69  C   UNL     1     -11.137  -1.075  17.481  1.00  0.00     0.041 A 
ATOM     70  F   UNL     1      -8.868  -0.503  17.371  1.00  0.00    -0.206 F 
ATOM     71  C   UNL     1     -12.218  -1.822  17.025  1.00  0.00     0.022 A 
BRANCH  68  72
ATOM     72  S   UNL     1     -13.412  -3.648  15.288  1.00  0.00     0.124 S 
ATOM     73  O   UNL     1     -13.263  -3.245  13.891  1.00  0.00    -0.237 OA
ATOM     74  O   UNL     1     -13.146  -5.051  15.580  1.00  0.00    -0.237 OA
ATOM     75  O   UNL     1     -14.570  -3.076  15.973  1.00  0.00    -0.744 OA
ENDBRANCH  68  72
ENDBRANCH  51  65
BRANCH  52  76
ATOM     76  C   UNL     1      -0.477  -3.255  11.946  1.00  0.00     0.023 A 
ATOM     77  C   UNL     1       0.258  -4.449  12.021  1.00  0.00     0.031 A 
ATOM     78  C   UNL     1       0.141  -2.140  11.352  1.00  0.00     0.131 A 
ATOM     79  C   UNL     1       1.585  -4.486  11.565  1.00  0.00     0.055 A 
ATOM     80  C   UNL     1       1.440  -2.199  10.843  1.00  0.00     0.041 A 
ATOM     81  F   UNL     1      -0.515  -0.973  11.250  1.00  0.00    -0.206 F 
ATOM     82  C   UNL     1       2.176  -3.373  10.963  1.00  0.00     0.022 A 
BRANCH  79  83
ATOM     83  S   UNL     1       2.566  -5.981  11.869  1.00  0.00     0.124 S 
ATOM     84  O   UNL     1       2.470  -6.108  13.319  1.00  0.00    -0.237 OA
ATOM     85  O   UNL     1       1.844  -6.980  11.088  1.00  0.00    -0.237 OA
ATOM     86  O   UNL     1       3.889  -5.629  11.358  1.00  0.00    -0.744 OA
ENDBRANCH  79  83
ENDBRANCH  52  76
BRANCH  64  87
ATOM     87  C   UNL     1      -2.998  -4.018  18.407  1.00  0.00     0.023 A 
ATOM     88  C   UNL     1      -2.025  -3.216  19.028  1.00  0.00     0.031 A 
ATOM     89  C   UNL     1      -3.350  -5.230  19.027  1.00  0.00     0.131 A 
ATOM     90  C   UNL     1      -1.395  -3.664  20.199  1.00  0.00     0.055 A 
ATOM     91  C   UNL     1      -2.771  -5.637  20.229  1.00  0.00     0.041 A 
ATOM     92  F   UNL     1      -4.271  -6.038  18.476  1.00  0.00    -0.206 F 
ATOM     93  C   UNL     1      -1.776  -4.859  20.814  1.00  0.00     0.022 A 
BRANCH  90  94
ATOM     94  S   UNL     1       0.004  -2.712  20.852  1.00  0.00     0.124 S 
ATOM     95  O   UNL     1       0.926  -2.716  19.721  1.00  0.00    -0.237 OA
ATOM     96  O   UNL     1      -0.613  -1.428  21.168  1.00  0.00    -0.237 OA
ATOM     97  O   UNL     1       0.438  -3.492  22.010  1.00  0.00    -0.744 OA
ENDBRANCH  90  94
ENDBRANCH  64  87
ENDBRANCH  38  39
ENDBRANCH  30  33
ENDBRANCH  28  29
ENDBRANCH   1  28
TORSDOF 16
