REMARK SMILES O=C(NCCCNC(=O)C1(NC(=O)c2ccncc2Cl)CCCCC1)c1ccc(-c2c3nc(c(-c4cc(S(=O)(=O)[O-])ccc4F)c4ccc([nH]4)c(-c4cc(S(=O)(=O)[O-])ccc4F)c4nc(c(-c5cc(S(=O)(=O)[O-])ccc5F)c5ccc2[nH]5)C=C4)C=C3)cc1
REMARK SMILES IDX 4 1 3 2 1 3 2 4 26 6 27 7 88 8 28 9 87 10 29 11 30 12 31 13
REMARK SMILES IDX 81 14 32 15 86 16 80 17 82 18 33 19 85 20 79 21 78 22 34 24
REMARK SMILES IDX 66 25 46 26 65 27 47 28 50 29 64 30 83 31 48 32 49 33 63 35
REMARK SMILES IDX 84 36 51 37 35 38 36 39 44 40 37 41 43 42 45 43 42 44 38 45
REMARK SMILES IDX 39 46 40 47 41 48 67 49 68 50 76 51 69 52 75 53 77 54 74 55
REMARK SMILES IDX 70 56 71 57 72 58 73 59 52 60 53 61 61 62 54 63 60 64 62 65
REMARK SMILES IDX 59 66 55 67 56 68 57 69 58 70 5 71 6 72 7 73 8 74 9 76 10 77
REMARK SMILES IDX 21 78 25 79 22 80 24 81 23 82 11 83 12 84 13 86 14 87 15 88
REMARK SMILES IDX 19 89 16 90 18 91 20 92 17 93
REMARK H PARENT 3 5 82 23 50 34 7 75 11 85
REMARK Flexibility Score: inf
ROOT
ATOM      1  C   UNL     1       4.428  -0.936   1.060  1.00  0.00     0.118 C 
ENDROOT
BRANCH   1   2
ATOM      2  N   UNL     1       3.055  -1.013   0.589  1.00  0.00    -0.352 N 
ATOM      3  O   UNL     1       1.137  -0.254  -0.284  1.00  0.00    -0.269 OA
ATOM      4  C   UNL     1       2.363  -0.181  -0.254  1.00  0.00     0.251 C 
ATOM      5  H   UNL     1       2.542  -1.783   0.926  1.00  0.00     0.163 HD
BRANCH   4   6
ATOM      6  C   UNL     1       3.069   0.782  -1.128  1.00  0.00     0.039 A 
ATOM      7  C   UNL     1       4.222   0.416  -1.830  1.00  0.00     0.014 A 
ATOM      8  C   UNL     1       2.500   2.043  -1.332  1.00  0.00     0.014 A 
ATOM      9  C   UNL     1       4.848   1.333  -2.675  1.00  0.00     0.010 A 
ATOM     10  C   UNL     1       3.097   2.941  -2.221  1.00  0.00     0.010 A 
ATOM     11  C   UNL     1       4.280   2.596  -2.893  1.00  0.00    -0.014 A 
BRANCH  11  12
ATOM     12  C   UNL     1       4.886   3.539  -3.868  1.00  0.00     0.031 A 
ATOM     13  C   UNL     1       5.489   4.831  -3.402  1.00  0.00     0.074 A 
ATOM     14  C   UNL     1       4.840   3.246  -5.182  1.00  0.00     0.049 A 
ATOM     15  N   UNL     1       5.967   5.825  -4.107  1.00  0.00    -0.248 NA
ATOM     16  C   UNL     1       5.546   5.037  -1.949  1.00  0.00     0.031 C 
ATOM     17  C   UNL     1       4.269   2.024  -5.751  1.00  0.00     0.029 A 
ATOM     18  N   UNL     1       5.259   3.960  -6.276  1.00  0.00    -0.354 N 
ATOM     19  C   UNL     1       6.368   6.786  -3.185  1.00  0.00     0.074 A 
ATOM     20  C   UNL     1       6.039   6.265  -1.873  1.00  0.00     0.031 C 
ATOM     21  C   UNL     1       4.367   2.076  -7.088  1.00  0.00     0.029 A 
ATOM     22  C   UNL     1       4.954   3.356  -7.473  1.00  0.00     0.049 A 
ATOM     23  H   UNL     1       5.732   4.821  -6.210  1.00  0.00     0.167 HD
ATOM     24  C   UNL     1       6.962   7.985  -3.416  1.00  0.00     0.034 A 
ATOM     25  C   UNL     1       5.090   3.796  -8.739  1.00  0.00     0.034 A 
ATOM     26  C   UNL     1       7.268   8.487  -4.735  1.00  0.00     0.049 A 
ATOM     27  C   UNL     1       5.699   5.150  -8.978  1.00  0.00     0.074 A 
ATOM     28  C   UNL     1       7.904   9.665  -5.086  1.00  0.00     0.029 A 
ATOM     29  N   UNL     1       6.940   7.847  -5.926  1.00  0.00    -0.354 N 
ATOM     30  N   UNL     1       6.103   6.037  -8.099  1.00  0.00    -0.248 NA
ATOM     31  C   UNL     1       5.876   5.561 -10.376  1.00  0.00     0.031 C 
ATOM     32  C   UNL     1       7.898   9.771  -6.482  1.00  0.00     0.029 A 
ATOM     33  C   UNL     1       7.328   8.623  -7.008  1.00  0.00     0.049 A 
ATOM     34  H   UNL     1       6.497   6.971  -5.990  1.00  0.00     0.167 HD
ATOM     35  C   UNL     1       6.606   7.103  -8.838  1.00  0.00     0.074 A 
ATOM     36  C   UNL     1       6.454   6.747 -10.235  1.00  0.00     0.031 C 
ATOM     37  C   UNL     1       7.157   8.262  -8.398  1.00  0.00     0.034 A 
BRANCH  24  38
ATOM     38  C   UNL     1       7.261   8.848  -2.211  1.00  0.00     0.023 A 
ATOM     39  C   UNL     1       8.136   8.424  -1.196  1.00  0.00     0.031 A 
ATOM     40  C   UNL     1       6.616  10.087  -2.045  1.00  0.00     0.131 A 
ATOM     41  C   UNL     1       8.266   9.180  -0.020  1.00  0.00     0.055 A 
ATOM     42  C   UNL     1       6.820  10.878  -0.912  1.00  0.00     0.041 A 
ATOM     43  F   UNL     1       5.754  10.539  -2.969  1.00  0.00    -0.206 F 
ATOM     44  C   UNL     1       7.632  10.416   0.119  1.00  0.00     0.022 A 
BRANCH  41  45
ATOM     45  S   UNL     1       9.123   8.434   1.395  1.00  0.00     0.124 S 
ATOM     46  O   UNL     1       8.395   7.177   1.555  1.00  0.00    -0.237 OA
ATOM     47  O   UNL     1      10.493   8.322   0.910  1.00  0.00    -0.237 OA
ATOM     48  O   UNL     1       8.916   9.402   2.470  1.00  0.00    -0.744 OA
ENDBRANCH  41  45
ENDBRANCH  24  38
BRANCH  25  49
ATOM     49  C   UNL     1       4.591   2.958  -9.863  1.00  0.00     0.023 A 
ATOM     50  C   UNL     1       5.473   2.340 -10.761  1.00  0.00     0.031 A 
ATOM     51  C   UNL     1       3.211   2.741 -10.031  1.00  0.00     0.131 A 
ATOM     52  C   UNL     1       4.963   1.544 -11.799  1.00  0.00     0.055 A 
ATOM     53  C   UNL     1       2.711   1.918 -11.040  1.00  0.00     0.041 A 
ATOM     54  F   UNL     1       2.329   3.304  -9.188  1.00  0.00    -0.206 F 
ATOM     55  C   UNL     1       3.590   1.318 -11.935  1.00  0.00     0.022 A 
BRANCH  52  56
ATOM     56  S   UNL     1       6.121   0.825 -12.995  1.00  0.00     0.124 S 
ATOM     57  O   UNL     1       6.712   2.018 -13.591  1.00  0.00    -0.237 OA
ATOM     58  O   UNL     1       6.997   0.037 -12.134  1.00  0.00    -0.237 OA
ATOM     59  O   UNL     1       5.258   0.047 -13.880  1.00  0.00    -0.744 OA
ENDBRANCH  52  56
ENDBRANCH  25  49
BRANCH  37  60
ATOM     60  C   UNL     1       7.685   9.212  -9.443  1.00  0.00     0.023 A 
ATOM     61  C   UNL     1       6.830   9.948 -10.280  1.00  0.00     0.031 A 
ATOM     62  C   UNL     1       9.073   9.395  -9.582  1.00  0.00     0.131 A 
ATOM     63  C   UNL     1       7.374  10.813 -11.243  1.00  0.00     0.055 A 
ATOM     64  C   UNL     1       9.606  10.290 -10.509  1.00  0.00     0.041 A 
ATOM     65  F   UNL     1       9.932   8.713  -8.807  1.00  0.00    -0.206 F 
ATOM     66  C   UNL     1       8.756  11.000 -11.351  1.00  0.00     0.022 A 
BRANCH  63  67
ATOM     67  S   UNL     1       6.255  11.663 -12.391  1.00  0.00     0.124 S 
ATOM     68  O   UNL     1       5.655  10.544 -13.111  1.00  0.00    -0.237 OA
ATOM     69  O   UNL     1       5.370  12.389 -11.487  1.00  0.00    -0.237 OA
ATOM     70  O   UNL     1       7.151  12.502 -13.185  1.00  0.00    -0.744 OA
ENDBRANCH  63  67
ENDBRANCH  37  60
ENDBRANCH  11  12
ENDBRANCH   4   6
ENDBRANCH   1   2
BRANCH   1  71
ATOM     71  C   UNL     1       4.502  -0.526   2.530  1.00  0.00     0.042 C 
BRANCH  71  72
ATOM     72  C   UNL     1       3.847  -1.522   3.487  1.00  0.00     0.117 C 
BRANCH  72  73
ATOM     73  N   UNL     1       4.489  -2.823   3.474  1.00  0.00    -0.354 N 
ATOM     74  C   UNL     1       5.375  -3.438   4.296  1.00  0.00     0.245 C 
ATOM     75  H   UNL     1       4.224  -3.378   2.705  1.00  0.00     0.163 HD
ATOM     76  O   UNL     1       5.452  -4.663   4.119  1.00  0.00    -0.272 OA
BRANCH  74  77
ATOM     77  C   UNL     1       6.125  -2.763   5.498  1.00  0.00     0.119 C 
ATOM     78  C   UNL     1       6.465  -1.259   5.401  1.00  0.00     0.038 C 
ATOM     79  C   UNL     1       5.147  -3.040   6.680  1.00  0.00     0.038 C 
ATOM     80  C   UNL     1       6.754  -0.580   6.745  1.00  0.00     0.003 C 
ATOM     81  C   UNL     1       5.473  -2.319   7.982  1.00  0.00     0.003 C 
ATOM     82  C   UNL     1       5.639  -0.828   7.749  1.00  0.00     0.000 C 
BRANCH  77  83
ATOM     83  N   UNL     1       7.414  -3.475   5.789  1.00  0.00    -0.338 N 
ATOM     84  C   UNL     1       8.466  -3.812   4.966  1.00  0.00     0.253 C 
ATOM     85  H   UNL     1       7.526  -3.748   6.728  1.00  0.00     0.164 HD
ATOM     86  O   UNL     1       9.604  -3.869   5.429  1.00  0.00    -0.269 OA
BRANCH  84  87
ATOM     87  C   UNL     1       8.241  -4.364   3.620  1.00  0.00     0.061 A 
ATOM     88  C   UNL     1       8.162  -5.761   3.546  1.00  0.00     0.035 A 
ATOM     89  C   UNL     1       8.160  -3.607   2.458  1.00  0.00     0.072 A 
ATOM     90  C   UNL     1       7.928  -6.343   2.313  1.00  0.00     0.112 A 
ATOM     91  C   UNL     1       7.921  -4.290   1.272  1.00  0.00     0.132 A 
ATOM     92  Cl  UNL     1       8.353  -1.905   2.401  1.00  0.00    -0.082 Cl
ATOM     93  N   UNL     1       7.796  -5.637   1.171  1.00  0.00    -0.263 NA
ENDBRANCH  84  87
ENDBRANCH  77  83
ENDBRANCH  74  77
ENDBRANCH  72  73
ENDBRANCH  71  72
ENDBRANCH   1  71
TORSDOF 15
