REMARK SMILES Nc1ccc(-c2cc(Cl)cc3c2O[C@H](C(F)(F)F)C(C(=O)NCCCNC(=O)c2ccc(-c4c5nc(c(-c6cc(S(=O)(=O)[O-])ccc6F)c6ccc([nH]6)c(-c6cc(S(=O)(=O)[O-])ccc6F)c6nc(c(-c7cc(S(=O)(=O)[O-])ccc7F)c7ccc4[nH]7)C=C6)C=C5)cc2)=C3)cc1
REMARK SMILES IDX 24 1 23 2 22 3 20 4 21 5 19 7 6 8 7 9 12 10 8 11 11 12 13 13
REMARK SMILES IDX 9 14 10 15 92 16 14 17 5 18 2 19 3 20 94 21 4 22 93 23 1 24
REMARK SMILES IDX 15 27 16 28 17 29 18 30 25 31 26 32 27 33 28 35 29 36 30 37
REMARK SMILES IDX 91 38 31 39 90 40 32 41 33 42 34 43 84 44 35 45 89 46 83 47
REMARK SMILES IDX 85 48 36 49 88 50 82 51 81 52 37 54 69 55 49 56 68 57 50 58
REMARK SMILES IDX 53 59 67 60 86 61 51 62 52 63 66 65 87 66 54 67 38 68 39 69
REMARK SMILES IDX 47 70 40 71 46 72 48 73 45 74 41 75 42 76 43 77 44 78 70 79
REMARK SMILES IDX 71 80 79 81 72 82 78 83 80 84 77 85 73 86 74 87 75 88 76 89
REMARK SMILES IDX 55 90 56 91 64 92 57 93 63 94 65 95 62 96 58 97 59 98 60 99
REMARK SMILES IDX 61 100
REMARK H PARENT 22 6 1 25 1 26 26 34 85 53 53 64
REMARK Flexibility Score: inf
ROOT
ATOM      1  C   UNL     1      -3.644  -2.829   6.525  1.00  0.00     0.042 C 
ENDROOT
BRANCH   1   2
ATOM      2  C   UNL     1      -4.290  -3.633   5.407  1.00  0.00     0.118 C 
BRANCH   2   3
ATOM      3  N   UNL     1      -5.613  -3.139   5.059  1.00  0.00    -0.352 N 
ATOM      4  C   UNL     1      -6.165  -2.401   4.068  1.00  0.00     0.251 C 
ATOM      5  O   UNL     1      -7.388  -2.246   4.141  1.00  0.00    -0.270 OA
ATOM      6  H   UNL     1      -6.287  -3.414   5.722  1.00  0.00     0.163 HD
BRANCH   4   7
ATOM      7  C   UNL     1      -5.414  -1.791   2.932  1.00  0.00     0.067 C 
ATOM      8  C   UNL     1      -3.359   0.149  -0.187  1.00  0.00     0.026 A 
ATOM      9  C   UNL     1      -4.103   0.705  -1.238  1.00  0.00     0.033 A 
ATOM     10  C   UNL     1      -4.064  -0.417   0.893  1.00  0.00     0.135 A 
ATOM     11  C   UNL     1      -5.499   0.688  -1.202  1.00  0.00     0.042 A 
ATOM     12  C   UNL     1      -5.464  -0.443   0.927  1.00  0.00     0.019 A 
ATOM     13  O   UNL     1      -3.331  -0.898   1.948  1.00  0.00    -0.475 OA
ATOM     14  Cl  UNL     1      -6.390   1.373  -2.508  1.00  0.00    -0.084 Cl
ATOM     15  C   UNL     1      -6.183   0.119  -0.128  1.00  0.00     0.032 A 
ATOM     16  C   UNL     1      -6.137  -1.043   2.076  1.00  0.00     0.025 C 
ATOM     17  C   UNL     1      -3.944  -1.977   2.697  1.00  0.00     0.314 C 
BRANCH   8  18
ATOM     18  C   UNL     1      -1.888   0.135  -0.226  1.00  0.00    -0.014 A 
ATOM     19  C   UNL     1       0.942   0.079  -0.110  1.00  0.00     0.031 A 
ATOM     20  C   UNL     1       0.213  -1.105  -0.213  1.00  0.00     0.026 A 
ATOM     21  C   UNL     1       0.251   1.292  -0.146  1.00  0.00     0.026 A 
ATOM     22  C   UNL     1      -1.184  -1.079  -0.261  1.00  0.00     0.011 A 
ATOM     23  C   UNL     1      -1.148   1.323  -0.189  1.00  0.00     0.011 A 
BRANCH  19  24
ATOM     24  N   UNL     1       2.329   0.055  -0.115  1.00  0.00    -0.399 N 
ATOM     25  H   UNL     1       2.806  -0.806  -0.090  1.00  0.00     0.156 HD
ATOM     26  H   UNL     1       2.836   0.898  -0.144  1.00  0.00     0.156 HD
ENDBRANCH  19  24
ENDBRANCH   8  18
BRANCH  17  27
ATOM     27  C   UNL     1      -3.608  -3.325   2.029  1.00  0.00     0.429 C 
ATOM     28  F   UNL     1      -2.290  -3.614   2.171  1.00  0.00    -0.167 F 
ATOM     29  F   UNL     1      -4.291  -4.361   2.572  1.00  0.00    -0.167 F 
ATOM     30  F   UNL     1      -3.879  -3.338   0.704  1.00  0.00    -0.167 F 
ENDBRANCH  17  27
ENDBRANCH   4   7
ENDBRANCH   2   3
ENDBRANCH   1   2
BRANCH   1  31
ATOM     31  C   UNL     1      -4.107  -3.267   7.907  1.00  0.00     0.118 C 
BRANCH  31  32
ATOM     32  N   UNL     1      -3.677  -4.624   8.238  1.00  0.00    -0.352 N 
ATOM     33  C   UNL     1      -2.955  -5.092   9.311  1.00  0.00     0.251 C 
ATOM     34  H   UNL     1      -3.947  -5.313   7.589  1.00  0.00     0.163 HD
ATOM     35  O   UNL     1      -2.549  -6.252   9.304  1.00  0.00    -0.269 OA
BRANCH  33  36
ATOM     36  C   UNL     1      -2.644  -4.197  10.445  1.00  0.00     0.039 A 
ATOM     37  C   UNL     1      -3.595  -3.288  10.903  1.00  0.00     0.014 A 
ATOM     38  C   UNL     1      -1.382  -4.249  11.043  1.00  0.00     0.014 A 
ATOM     39  C   UNL     1      -3.218  -2.296  11.797  1.00  0.00     0.010 A 
ATOM     40  C   UNL     1      -1.044  -3.322  12.036  1.00  0.00     0.010 A 
ATOM     41  C   UNL     1      -1.938  -2.298  12.377  1.00  0.00    -0.014 A 
BRANCH  41  42
ATOM     42  C   UNL     1      -1.591  -1.213  13.334  1.00  0.00     0.031 A 
ATOM     43  C   UNL     1      -0.482  -0.239  13.038  1.00  0.00     0.074 A 
ATOM     44  C   UNL     1      -2.359  -1.052  14.431  1.00  0.00     0.049 A 
ATOM     45  N   UNL     1      -0.134   0.832  13.704  1.00  0.00    -0.248 NA
ATOM     46  C   UNL     1       0.351  -0.498  11.853  1.00  0.00     0.031 C 
ATOM     47  C   UNL     1      -3.451  -1.948  14.818  1.00  0.00     0.029 A 
ATOM     48  N   UNL     1      -2.386  -0.066  15.385  1.00  0.00    -0.354 N 
ATOM     49  C   UNL     1       0.965   1.361  13.036  1.00  0.00     0.074 A 
ATOM     50  C   UNL     1       1.250   0.474  11.930  1.00  0.00     0.031 C 
ATOM     51  C   UNL     1      -4.099  -1.423  15.865  1.00  0.00     0.029 A 
ATOM     52  C   UNL     1      -3.426  -0.196  16.279  1.00  0.00     0.049 A 
ATOM     53  H   UNL     1      -1.726   0.663  15.427  1.00  0.00     0.167 HD
ATOM     54  C   UNL     1       1.660   2.490  13.312  1.00  0.00     0.034 A 
ATOM     55  C   UNL     1      -3.804   0.584  17.313  1.00  0.00     0.034 A 
ATOM     56  C   UNL     1       1.343   3.376  14.404  1.00  0.00     0.049 A 
ATOM     57  C   UNL     1      -3.030   1.847  17.582  1.00  0.00     0.074 A 
ATOM     58  C   UNL     1       1.983   4.549  14.765  1.00  0.00     0.029 A 
ATOM     59  N   UNL     1       0.295   3.203  15.297  1.00  0.00    -0.354 N 
ATOM     60  N   UNL     1      -2.014   2.346  16.917  1.00  0.00    -0.248 NA
ATOM     61  C   UNL     1      -3.450   2.658  18.732  1.00  0.00     0.031 C 
ATOM     62  C   UNL     1       1.356   5.056  15.904  1.00  0.00     0.029 A 
ATOM     63  C   UNL     1       0.279   4.241  16.213  1.00  0.00     0.049 A 
ATOM     64  H   UNL     1      -0.342   2.452  15.281  1.00  0.00     0.167 HD
ATOM     65  C   UNL     1      -1.687   3.538  17.555  1.00  0.00     0.074 A 
ATOM     66  C   UNL     1      -2.632   3.700  18.640  1.00  0.00     0.031 C 
ATOM     67  C   UNL     1      -0.686   4.410  17.274  1.00  0.00     0.034 A 
BRANCH  54  68
ATOM     68  C   UNL     1       2.828   2.860  12.430  1.00  0.00     0.023 A 
ATOM     69  C   UNL     1       4.126   2.923  12.972  1.00  0.00     0.031 A 
ATOM     70  C   UNL     1       2.642   3.276  11.100  1.00  0.00     0.131 A 
ATOM     71  C   UNL     1       5.180   3.428  12.200  1.00  0.00     0.055 A 
ATOM     72  C   UNL     1       3.704   3.739  10.321  1.00  0.00     0.041 A 
ATOM     73  F   UNL     1       1.424   3.233  10.536  1.00  0.00    -0.206 F 
ATOM     74  C   UNL     1       4.978   3.829  10.876  1.00  0.00     0.022 A 
BRANCH  71  75
ATOM     75  S   UNL     1       6.839   3.644  12.901  1.00  0.00     0.124 S 
ATOM     76  O   UNL     1       7.651   2.816  12.012  1.00  0.00    -0.237 OA
ATOM     77  O   UNL     1       7.040   5.084  12.770  1.00  0.00    -0.237 OA
ATOM     78  O   UNL     1       6.711   3.146  14.266  1.00  0.00    -0.744 OA
ENDBRANCH  71  75
ENDBRANCH  54  68
BRANCH  55  79
ATOM     79  C   UNL     1      -5.009   0.203  18.108  1.00  0.00     0.023 A 
ATOM     80  C   UNL     1      -5.068  -1.030  18.782  1.00  0.00     0.031 A 
ATOM     81  C   UNL     1      -6.163   1.005  18.101  1.00  0.00     0.131 A 
ATOM     82  C   UNL     1      -6.275  -1.462  19.346  1.00  0.00     0.055 A 
ATOM     83  C   UNL     1      -7.341   0.607  18.736  1.00  0.00     0.041 A 
ATOM     84  F   UNL     1      -6.165   2.183  17.459  1.00  0.00    -0.206 F 
ATOM     85  C   UNL     1      -7.407  -0.644  19.344  1.00  0.00     0.022 A 
BRANCH  82  86
ATOM     86  S   UNL     1      -6.457  -3.164  19.950  1.00  0.00     0.124 S 
ATOM     87  O   UNL     1      -6.713  -2.956  21.372  1.00  0.00    -0.237 OA
ATOM     88  O   UNL     1      -7.595  -3.641  19.166  1.00  0.00    -0.237 OA
ATOM     89  O   UNL     1      -5.178  -3.784  19.620  1.00  0.00    -0.744 OA
ENDBRANCH  82  86
ENDBRANCH  55  79
BRANCH  67  90
ATOM     90  C   UNL     1      -0.545   5.647  18.127  1.00  0.00     0.023 A 
ATOM     91  C   UNL     1      -0.686   6.920  17.540  1.00  0.00     0.031 A 
ATOM     92  C   UNL     1      -0.120   5.573  19.464  1.00  0.00     0.131 A 
ATOM     93  C   UNL     1      -0.366   8.066  18.278  1.00  0.00     0.055 A 
ATOM     94  C   UNL     1       0.152   6.720  20.209  1.00  0.00     0.041 A 
ATOM     95  F   UNL     1       0.042   4.382  20.062  1.00  0.00    -0.206 F 
ATOM     96  C   UNL     1       0.045   7.973  19.611  1.00  0.00     0.022 A 
BRANCH  93  97
ATOM     97  S   UNL     1      -0.377   9.707  17.506  1.00  0.00     0.124 S 
ATOM     98  O   UNL     1      -1.414  10.393  18.274  1.00  0.00    -0.237 OA
ATOM     99  O   UNL     1       0.987  10.171  17.748  1.00  0.00    -0.237 OA
ATOM    100  O   UNL     1      -0.710   9.440  16.111  1.00  0.00    -0.744 OA
ENDBRANCH  93  97
ENDBRANCH  67  90
ENDBRANCH  41  42
ENDBRANCH  33  36
ENDBRANCH  31  32
ENDBRANCH   1  31
TORSDOF 16
