REMARK SMILES CN(C)C(=O)CNC(=O)NCCOCC(=O)NCCCNC(=O)c1ccc(-c2c3nc(c(-c4cc(S(=O)(=O)[O-])ccc4F)c4ccc([nH]4)c(-c4cc(S(=O)(=O)[O-])ccc4F)c4nc(c(-c5cc(S(=O)(=O)[O-])ccc5F)c5ccc2[nH]5)C=C4)C=C3)cc1
REMARK SMILES IDX 15 1 16 2 17 3 14 5 13 6 12 7 11 8 10 9 7 10 8 11 9 13 6 15
REMARK SMILES IDX 4 16 1 17 2 18 3 19 5 20 18 21 19 22 20 23 21 24 22 25 23 27
REMARK SMILES IDX 24 28 25 29 86 30 26 31 85 32 27 33 28 34 29 35 79 36 30 37
REMARK SMILES IDX 84 38 78 39 80 40 31 41 83 42 77 43 76 44 32 46 64 47 44 48
REMARK SMILES IDX 63 49 45 50 48 51 62 52 81 53 46 54 47 55 61 57 82 58 49 59
REMARK SMILES IDX 33 60 34 61 42 62 35 63 41 64 43 65 40 66 36 67 37 68 38 69
REMARK SMILES IDX 39 70 65 71 66 72 74 73 67 74 73 75 75 76 72 77 68 78 69 79
REMARK SMILES IDX 70 80 71 81 50 82 51 83 59 84 52 85 58 86 60 87 57 88 53 89
REMARK SMILES IDX 54 90 55 91 56 92
REMARK H PARENT 17 4 7 12 10 14 21 26 80 45 48 56
REMARK Flexibility Score: inf
ROOT
ATOM      1  C   UNL     1      -3.191   3.517   6.771  1.00  0.00     0.245 C 
ATOM      2  O   UNL     1      -2.072   4.026   6.740  1.00  0.00    -0.272 OA
ATOM      3  N   UNL     1      -3.742   3.174   7.971  1.00  0.00    -0.354 N 
ATOM      4  H   UNL     1      -3.187   3.336   8.767  1.00  0.00     0.163 HD
ENDROOT
BRANCH   1   5
ATOM      5  C   UNL     1      -3.994   3.255   5.496  1.00  0.00     0.260 C 
BRANCH   5   6
ATOM      6  O   UNL     1      -4.229   1.893   5.178  1.00  0.00    -0.370 OA
BRANCH   6   7
ATOM      7  C   UNL     1      -3.051   1.099   4.988  1.00  0.00     0.182 C 
BRANCH   7   8
ATOM      8  C   UNL     1      -2.325   1.419   3.678  1.00  0.00     0.146 C 
BRANCH   8   9
ATOM      9  N   UNL     1      -1.361   2.504   3.813  1.00  0.00    -0.336 N 
ATOM     10  N   UNL     1       0.825   1.614   3.888  1.00  0.00    -0.329 N 
ATOM     11  C   UNL     1      -0.043   2.619   3.959  1.00  0.00     0.315 C 
ATOM     12  H   UNL     1       1.748   1.913   4.054  1.00  0.00     0.165 HD
ATOM     13  O   UNL     1       0.417   3.753   4.105  1.00  0.00    -0.249 OA
ATOM     14  H   UNL     1      -1.801   3.385   3.791  1.00  0.00     0.165 HD
BRANCH  10  15
ATOM     15  C   UNL     1       0.754   0.193   3.626  1.00  0.00     0.218 C 
BRANCH  15  16
ATOM     16  C   UNL     1       1.167  -0.326   2.230  1.00  0.00     0.241 C 
ATOM     17  C   UNL     1       1.177  -0.321  -0.192  1.00  0.00     0.146 C 
ATOM     18  N   UNL     1       0.819   0.332   1.056  1.00  0.00    -0.347 N 
ATOM     19  C   UNL     1       0.041   1.552   0.957  1.00  0.00     0.146 C 
ATOM     20  O   UNL     1       1.712  -1.438   2.170  1.00  0.00    -0.273 OA
ENDBRANCH  15  16
ENDBRANCH  10  15
ENDBRANCH   8   9
ENDBRANCH   7   8
ENDBRANCH   6   7
ENDBRANCH   5   6
ENDBRANCH   1   5
BRANCH   3  21
ATOM     21  C   UNL     1      -5.052   2.599   8.209  1.00  0.00     0.117 C 
BRANCH  21  22
ATOM     22  C   UNL     1      -4.978   1.150   8.671  1.00  0.00     0.042 C 
BRANCH  22  23
ATOM     23  C   UNL     1      -4.247   0.957   9.996  1.00  0.00     0.118 C 
BRANCH  23  24
ATOM     24  N   UNL     1      -4.822   1.751  11.075  1.00  0.00    -0.352 N 
ATOM     25  C   UNL     1      -5.428   1.363  12.240  1.00  0.00     0.251 C 
ATOM     26  H   UNL     1      -4.767   2.725  10.944  1.00  0.00     0.163 HD
ATOM     27  O   UNL     1      -6.046   2.204  12.900  1.00  0.00    -0.269 OA
BRANCH  25  28
ATOM     28  C   UNL     1      -5.363  -0.039  12.700  1.00  0.00     0.039 A 
ATOM     29  C   UNL     1      -6.494  -0.613  13.286  1.00  0.00     0.014 A 
ATOM     30  C   UNL     1      -4.185  -0.783  12.586  1.00  0.00     0.014 A 
ATOM     31  C   UNL     1      -6.463  -1.947  13.697  1.00  0.00     0.010 A 
ATOM     32  C   UNL     1      -4.181  -2.135  12.917  1.00  0.00     0.010 A 
ATOM     33  C   UNL     1      -5.317  -2.731  13.482  1.00  0.00    -0.014 A 
BRANCH  33  34
ATOM     34  C   UNL     1      -5.292  -4.171  13.847  1.00  0.00     0.031 A 
ATOM     35  C   UNL     1      -4.330  -4.672  14.891  1.00  0.00     0.074 A 
ATOM     36  C   UNL     1      -6.095  -5.035  13.195  1.00  0.00     0.049 A 
ATOM     37  N   UNL     1      -4.120  -5.896  15.304  1.00  0.00    -0.248 NA
ATOM     38  C   UNL     1      -3.469  -3.666  15.531  1.00  0.00     0.031 C 
ATOM     39  C   UNL     1      -7.034  -4.675  12.129  1.00  0.00     0.029 A 
ATOM     40  N   UNL     1      -6.250  -6.392  13.326  1.00  0.00    -0.354 N 
ATOM     41  C   UNL     1      -3.095  -5.809  16.241  1.00  0.00     0.074 A 
ATOM     42  C   UNL     1      -2.683  -4.422  16.282  1.00  0.00     0.031 C 
ATOM     43  C   UNL     1      -7.685  -5.777  11.726  1.00  0.00     0.029 A 
ATOM     44  C   UNL     1      -7.183  -6.928  12.468  1.00  0.00     0.049 A 
ATOM     45  H   UNL     1      -5.741  -6.932  13.973  1.00  0.00     0.167 HD
ATOM     46  C   UNL     1      -2.564  -6.791  17.012  1.00  0.00     0.034 A 
ATOM     47  C   UNL     1      -7.582  -8.203  12.293  1.00  0.00     0.034 A 
ATOM     48  C   UNL     1      -2.998  -8.167  16.966  1.00  0.00     0.049 A 
ATOM     49  C   UNL     1      -6.972  -9.280  13.153  1.00  0.00     0.074 A 
ATOM     50  C   UNL     1      -2.575  -9.232  17.742  1.00  0.00     0.029 A 
ATOM     51  N   UNL     1      -3.951  -8.672  16.090  1.00  0.00    -0.354 N 
ATOM     52  N   UNL     1      -6.043  -9.173  14.076  1.00  0.00    -0.248 NA
ATOM     53  C   UNL     1      -7.473 -10.646  12.958  1.00  0.00     0.031 C 
ATOM     54  C   UNL     1      -3.218 -10.389  17.290  1.00  0.00     0.029 A 
ATOM     55  C   UNL     1      -4.104 -10.036  16.285  1.00  0.00     0.049 A 
ATOM     56  H   UNL     1      -4.445  -8.139  15.426  1.00  0.00     0.167 HD
ATOM     57  C   UNL     1      -5.874 -10.454  14.594  1.00  0.00     0.074 A 
ATOM     58  C   UNL     1      -6.805 -11.311  13.889  1.00  0.00     0.031 C 
ATOM     59  C   UNL     1      -5.030 -10.882  15.567  1.00  0.00     0.034 A 
BRANCH  46  60
ATOM     60  C   UNL     1      -1.442  -6.409  17.950  1.00  0.00     0.023 A 
ATOM     61  C   UNL     1      -1.630  -5.475  18.985  1.00  0.00     0.031 A 
ATOM     62  C   UNL     1      -0.158  -6.959  17.790  1.00  0.00     0.131 A 
ATOM     63  C   UNL     1      -0.538  -5.059  19.762  1.00  0.00     0.055 A 
ATOM     64  C   UNL     1       0.905  -6.606  18.624  1.00  0.00     0.041 A 
ATOM     65  F   UNL     1       0.090  -7.841  16.808  1.00  0.00    -0.206 F 
ATOM     66  C   UNL     1       0.723  -5.637  19.606  1.00  0.00     0.022 A 
BRANCH  63  67
ATOM     67  S   UNL     1      -0.757  -3.640  20.871  1.00  0.00     0.124 S 
ATOM     68  O   UNL     1      -1.179  -2.598  19.937  1.00  0.00    -0.237 OA
ATOM     69  O   UNL     1      -1.776  -4.118  21.798  1.00  0.00    -0.237 OA
ATOM     70  O   UNL     1       0.572  -3.448  21.449  1.00  0.00    -0.744 OA
ENDBRANCH  63  67
ENDBRANCH  46  60
BRANCH  47  71
ATOM     71  C   UNL     1      -8.609  -8.536  11.265  1.00  0.00     0.023 A 
ATOM     72  C   UNL     1      -9.864  -9.044  11.634  1.00  0.00     0.031 A 
ATOM     73  C   UNL     1      -8.338  -8.380   9.893  1.00  0.00     0.131 A 
ATOM     74  C   UNL     1     -10.786  -9.421  10.644  1.00  0.00     0.055 A 
ATOM     75  C   UNL     1      -9.278  -8.707   8.914  1.00  0.00     0.041 A 
ATOM     76  F   UNL     1      -7.156  -7.891   9.486  1.00  0.00    -0.206 F 
ATOM     77  C   UNL     1     -10.506  -9.243   9.288  1.00  0.00     0.022 A 
BRANCH  74  78
ATOM     78  S   UNL     1     -12.329 -10.224  11.155  1.00  0.00     0.124 S 
ATOM     79  O   UNL     1     -11.833 -11.386  11.884  1.00  0.00    -0.237 OA
ATOM     80  O   UNL     1     -12.960  -9.183  11.960  1.00  0.00    -0.237 OA
ATOM     81  O   UNL     1     -12.995 -10.519   9.888  1.00  0.00    -0.744 OA
ENDBRANCH  74  78
ENDBRANCH  47  71
BRANCH  59  82
ATOM     82  C   UNL     1      -5.114 -12.338  15.956  1.00  0.00     0.023 A 
ATOM     83  C   UNL     1      -4.743 -13.365  15.072  1.00  0.00     0.031 A 
ATOM     84  C   UNL     1      -5.586 -12.700  17.230  1.00  0.00     0.131 A 
ATOM     85  C   UNL     1      -4.902 -14.706  15.453  1.00  0.00     0.055 A 
ATOM     86  C   UNL     1      -5.683 -14.035  17.627  1.00  0.00     0.041 A 
ATOM     87  F   UNL     1      -5.958 -11.760  18.114  1.00  0.00    -0.206 F 
ATOM     88  C   UNL     1      -5.353 -15.047  16.730  1.00  0.00     0.022 A 
BRANCH  85  89
ATOM     89  S   UNL     1      -4.600 -16.004  14.221  1.00  0.00     0.124 S 
ATOM     90  O   UNL     1      -5.543 -15.646  13.166  1.00  0.00    -0.237 OA
ATOM     91  O   UNL     1      -3.188 -15.813  13.906  1.00  0.00    -0.237 OA
ATOM     92  O   UNL     1      -4.913 -17.238  14.940  1.00  0.00    -0.744 OA
ENDBRANCH  85  89
ENDBRANCH  59  82
ENDBRANCH  33  34
ENDBRANCH  25  28
ENDBRANCH  23  24
ENDBRANCH  22  23
ENDBRANCH  21  22
ENDBRANCH   3  21
TORSDOF 19
