REMARK SMILES CC(C)Cc1ccc([C@H](CF)C(=O)NCCCNC(=O)c2ccc(-c3c4nc(c(-c5cc(S(=O)(=O)[O-])ccc5F)c5ccc([nH]5)c(-c5cc(S(=O)(=O)[O-])ccc5F)c5nc(c(-c6cc(S(=O)(=O)[O-])ccc6F)c6ccc3[nH]6)C=C5)C=C4)cc2)cc1
REMARK SMILES IDX 16 1 15 2 14 3 12 4 13 5 9 7 8 8 5 9 6 10 85 11 7 12 84 13
REMARK SMILES IDX 4 14 2 15 1 16 3 17 10 18 11 19 17 20 18 21 19 22 20 24
REMARK SMILES IDX 21 25 22 26 83 27 23 28 82 29 24 30 25 31 26 32 76 33 27 34
REMARK SMILES IDX 81 35 75 36 77 37 28 38 80 39 74 40 73 41 29 43 61 44 41 45
REMARK SMILES IDX 60 46 42 47 45 48 59 49 78 50 43 51 44 52 58 54 79 55 46 56
REMARK SMILES IDX 30 57 31 58 39 59 32 60 38 61 40 62 37 63 33 64 34 65 35 66
REMARK SMILES IDX 36 67 62 68 63 69 71 70 64 71 70 72 72 73 69 74 65 75 66 76
REMARK SMILES IDX 67 77 68 78 47 79 48 80 56 81 49 82 55 83 57 84 54 85 50 86
REMARK SMILES IDX 51 87 52 88 53 89
REMARK H PARENT 14 6 18 23 77 42 45 53
REMARK Flexibility Score: inf
ROOT
ATOM      1  C   UNL     1      -5.655  -1.656   2.290  1.00  0.00     0.042 C 
ENDROOT
BRANCH   1   2
ATOM      2  C   UNL     1      -5.222  -3.052   2.704  1.00  0.00     0.117 C 
BRANCH   2   3
ATOM      3  N   UNL     1      -5.122  -3.992   1.602  1.00  0.00    -0.355 N 
ATOM      4  C   UNL     1      -4.119  -4.851   1.250  1.00  0.00     0.230 C 
ATOM      5  O   UNL     1      -4.391  -5.693   0.386  1.00  0.00    -0.274 OA
ATOM      6  H   UNL     1      -5.907  -4.014   1.009  1.00  0.00     0.163 HD
BRANCH   4   7
ATOM      7  C   UNL     1      -2.712  -4.802   1.861  1.00  0.00     0.139 C 
BRANCH   7   8
ATOM      8  C   UNL     1      -2.701  -5.134   3.348  1.00  0.00    -0.033 A 
ATOM      9  C   UNL     1      -3.012  -5.729   6.109  1.00  0.00    -0.048 A 
ATOM     10  C   UNL     1      -3.038  -6.747   5.143  1.00  0.00     0.004 A 
ATOM     11  C   UNL     1      -2.770  -4.431   5.671  1.00  0.00     0.004 A 
ATOM     12  C   UNL     1      -2.895  -6.453   3.779  1.00  0.00     0.005 A 
ATOM     13  C   UNL     1      -2.565  -4.145   4.325  1.00  0.00     0.005 A 
BRANCH   9  14
ATOM     14  C   UNL     1      -3.308  -6.057   7.558  1.00  0.00     0.038 C 
BRANCH  14  15
ATOM     15  C   UNL     1      -2.748  -5.099   8.642  1.00  0.00    -0.013 C 
ATOM     16  C   UNL     1      -3.593  -3.829   8.840  1.00  0.00     0.008 C 
ATOM     17  C   UNL     1      -2.667  -5.832   9.985  1.00  0.00     0.008 C 
ENDBRANCH  14  15
ENDBRANCH   9  14
ENDBRANCH   7   8
BRANCH   7  18
ATOM     18  C   UNL     1      -2.013  -3.506   1.459  1.00  0.00     0.232 C 
ATOM     19  F   UNL     1      -1.688  -3.560   0.137  1.00  0.00    -0.250 F 
ENDBRANCH   7  18
ENDBRANCH   4   7
ENDBRANCH   2   3
ENDBRANCH   1   2
BRANCH   1  20
ATOM     20  C   UNL     1      -7.108  -1.556   1.860  1.00  0.00     0.118 C 
BRANCH  20  21
ATOM     21  N   UNL     1      -8.040  -1.795   2.954  1.00  0.00    -0.352 N 
ATOM     22  C   UNL     1      -8.911  -0.944   3.599  1.00  0.00     0.251 C 
ATOM     23  H   UNL     1      -8.049  -2.720   3.289  1.00  0.00     0.163 HD
ATOM     24  O   UNL     1      -9.467  -1.326   4.622  1.00  0.00    -0.269 OA
BRANCH  22  25
ATOM     25  C   UNL     1      -9.146   0.429   3.091  1.00  0.00     0.039 A 
ATOM     26  C   UNL     1      -9.282   1.476   4.007  1.00  0.00     0.014 A 
ATOM     27  C   UNL     1      -9.241   0.692   1.724  1.00  0.00     0.014 A 
ATOM     28  C   UNL     1      -9.416   2.790   3.548  1.00  0.00     0.010 A 
ATOM     29  C   UNL     1      -9.266   2.007   1.268  1.00  0.00     0.010 A 
ATOM     30  C   UNL     1      -9.353   3.073   2.174  1.00  0.00    -0.014 A 
BRANCH  30  31
ATOM     31  C   UNL     1      -9.375   4.470   1.661  1.00  0.00     0.031 A 
ATOM     32  C   UNL     1     -10.470   4.914   0.728  1.00  0.00     0.074 A 
ATOM     33  C   UNL     1      -8.370   5.313   1.974  1.00  0.00     0.049 A 
ATOM     34  N   UNL     1     -10.607   6.049   0.092  1.00  0.00    -0.248 NA
ATOM     35  C   UNL     1     -11.536   3.939   0.448  1.00  0.00     0.031 C 
ATOM     36  C   UNL     1      -7.232   4.989   2.838  1.00  0.00     0.029 A 
ATOM     37  N   UNL     1      -8.134   6.612   1.595  1.00  0.00    -0.354 N 
ATOM     38  C   UNL     1     -11.762   5.920  -0.673  1.00  0.00     0.074 A 
ATOM     39  C   UNL     1     -12.248   4.572  -0.470  1.00  0.00     0.031 C 
ATOM     40  C   UNL     1      -6.437   6.065   2.944  1.00  0.00     0.029 A 
ATOM     41  C   UNL     1      -6.972   7.138   2.112  1.00  0.00     0.049 A 
ATOM     42  H   UNL     1      -8.740   7.119   1.009  1.00  0.00     0.167 HD
ATOM     43  C   UNL     1     -12.373   6.846  -1.453  1.00  0.00     0.034 A 
ATOM     44  C   UNL     1      -6.390   8.339   1.922  1.00  0.00     0.034 A 
ATOM     45  C   UNL     1     -11.879   8.190  -1.635  1.00  0.00     0.049 A 
ATOM     46  C   UNL     1      -7.067   9.339   1.018  1.00  0.00     0.074 A 
ATOM     47  C   UNL     1     -12.448   9.225  -2.357  1.00  0.00     0.029 A 
ATOM     48  N   UNL     1     -10.695   8.683  -1.101  1.00  0.00    -0.354 N 
ATOM     49  N   UNL     1      -8.187   9.217   0.343  1.00  0.00    -0.248 NA
ATOM     50  C   UNL     1      -6.407  10.641   0.859  1.00  0.00     0.031 C 
ATOM     51  C   UNL     1     -11.572  10.315  -2.325  1.00  0.00     0.029 A 
ATOM     52  C   UNL     1     -10.499   9.994  -1.509  1.00  0.00     0.049 A 
ATOM     53  H   UNL     1     -10.085   8.177  -0.518  1.00  0.00     0.167 HD
ATOM     54  C   UNL     1      -8.379  10.439  -0.297  1.00  0.00     0.074 A 
ATOM     55  C   UNL     1      -7.271  11.287   0.091  1.00  0.00     0.031 C 
ATOM     56  C   UNL     1      -9.382  10.827  -1.126  1.00  0.00     0.034 A 
BRANCH  43  57
ATOM     57  C   UNL     1     -13.625   6.425  -2.186  1.00  0.00     0.023 A 
ATOM     58  C   UNL     1     -14.784   6.019  -1.500  1.00  0.00     0.031 A 
ATOM     59  C   UNL     1     -13.657   6.411  -3.592  1.00  0.00     0.131 A 
ATOM     60  C   UNL     1     -15.894   5.547  -2.216  1.00  0.00     0.055 A 
ATOM     61  C   UNL     1     -14.796   6.021  -4.300  1.00  0.00     0.041 A 
ATOM     62  F   UNL     1     -12.576   6.765  -4.304  1.00  0.00    -0.206 F 
ATOM     63  C   UNL     1     -15.919   5.571  -3.612  1.00  0.00     0.022 A 
BRANCH  60  64
ATOM     64  S   UNL     1     -17.246   4.762  -1.297  1.00  0.00     0.124 S 
ATOM     65  O   UNL     1     -16.547   3.674  -0.617  1.00  0.00    -0.237 OA
ATOM     66  O   UNL     1     -17.721   5.846  -0.446  1.00  0.00    -0.237 OA
ATOM     67  O   UNL     1     -18.173   4.338  -2.345  1.00  0.00    -0.744 OA
ENDBRANCH  60  64
ENDBRANCH  43  57
BRANCH  44  68
ATOM     68  C   UNL     1      -5.089   8.665   2.578  1.00  0.00     0.023 A 
ATOM     69  C   UNL     1      -4.988   9.714   3.505  1.00  0.00     0.031 A 
ATOM     70  C   UNL     1      -3.914   7.965   2.248  1.00  0.00     0.131 A 
ATOM     71  C   UNL     1      -3.735  10.068   4.030  1.00  0.00     0.055 A 
ATOM     72  C   UNL     1      -2.680   8.281   2.819  1.00  0.00     0.041 A 
ATOM     73  F   UNL     1      -3.951   6.951   1.368  1.00  0.00    -0.206 F 
ATOM     74  C   UNL     1      -2.583   9.349   3.705  1.00  0.00     0.022 A 
BRANCH  71  75
ATOM     75  S   UNL     1      -3.617  11.550   5.069  1.00  0.00     0.124 S 
ATOM     76  O   UNL     1      -4.140  12.579   4.179  1.00  0.00    -0.237 OA
ATOM     77  O   UNL     1      -4.461  11.192   6.204  1.00  0.00    -0.237 OA
ATOM     78  O   UNL     1      -2.188  11.645   5.364  1.00  0.00    -0.744 OA
ENDBRANCH  71  75
ENDBRANCH  44  68
BRANCH  56  79
ATOM     79  C   UNL     1      -9.344  12.249  -1.632  1.00  0.00     0.023 A 
ATOM     80  C   UNL     1      -8.327  12.705  -2.488  1.00  0.00     0.031 A 
ATOM     81  C   UNL     1     -10.338  13.165  -1.240  1.00  0.00     0.131 A 
ATOM     82  C   UNL     1      -8.291  14.054  -2.875  1.00  0.00     0.055 A 
ATOM     83  C   UNL     1     -10.335  14.488  -1.684  1.00  0.00     0.041 A 
ATOM     84  F   UNL     1     -11.331  12.787  -0.420  1.00  0.00    -0.206 F 
ATOM     85  C   UNL     1      -9.300  14.943  -2.495  1.00  0.00     0.022 A 
BRANCH  82  86
ATOM     86  S   UNL     1      -6.851  14.656  -3.798  1.00  0.00     0.124 S 
ATOM     87  O   UNL     1      -5.755  14.341  -2.889  1.00  0.00    -0.237 OA
ATOM     88  O   UNL     1      -6.911  13.865  -5.023  1.00  0.00    -0.237 OA
ATOM     89  O   UNL     1      -7.125  16.082  -3.968  1.00  0.00    -0.744 OA
ENDBRANCH  82  86
ENDBRANCH  56  79
ENDBRANCH  30  31
ENDBRANCH  22  25
ENDBRANCH  20  21
ENDBRANCH   1  20
TORSDOF 17
