REMARK SMILES CCn1c(N2CCC[C@H](C(=O)NCCCNC(=O)c3ccc(-c4c5nc(c(-c6cc(S(=O)(=O)[O-])ccc6F)c6ccc([nH]6)c(-c6cc(S(=O)(=O)[O-])ccc6F)c6nc(c(-c7cc(S(=O)(=O)[O-])ccc7F)c7ccc4[nH]7)C=C6)C=C5)cc3)C2)nc2cc(C)ccc21
REMARK SMILES IDX 14 1 13 2 12 3 10 4 11 5 9 7 5 8 6 9 82 10 7 11 8 12 4 13
REMARK SMILES IDX 3 14 90 15 83 16 84 17 89 18 85 19 88 20 86 21 87 22 2 23
REMARK SMILES IDX 1 24 15 25 16 26 17 27 18 29 19 30 20 31 81 32 21 33 80 34
REMARK SMILES IDX 22 35 23 36 24 37 74 38 25 39 79 40 73 41 75 42 26 43 78 44
REMARK SMILES IDX 72 45 71 46 27 48 59 49 39 50 58 51 40 52 43 53 57 54 76 55
REMARK SMILES IDX 41 56 42 57 56 59 77 60 44 61 28 62 29 63 37 64 30 65 36 66
REMARK SMILES IDX 38 67 35 68 31 69 32 70 33 71 34 72 60 73 61 74 69 75 62 76
REMARK SMILES IDX 68 77 70 78 67 79 63 80 64 81 65 82 66 83 45 84 46 85 54 86
REMARK SMILES IDX 47 87 53 88 55 89 52 90 48 91 49 92 50 93 51 94
REMARK H PARENT 12 6 16 28 75 47 43 58
REMARK Flexibility Score: inf
ROOT
ATOM      1  C   UNL     1       0.701   7.136  -3.529  1.00  0.00     0.042 C 
ENDROOT
BRANCH   1   2
ATOM      2  C   UNL     1       1.441   6.162  -2.620  1.00  0.00     0.117 C 
BRANCH   2   3
ATOM      3  N   UNL     1       2.341   6.762  -1.661  1.00  0.00    -0.356 N 
ATOM      4  C   UNL     1       2.436   6.520  -0.325  1.00  0.00     0.224 C 
ATOM      5  O   UNL     1       3.525   6.791   0.202  1.00  0.00    -0.275 OA
ATOM      6  H   UNL     1       2.966   7.432  -2.021  1.00  0.00     0.163 HD
BRANCH   4   7
ATOM      7  C   UNL     1       1.297   5.985   0.559  1.00  0.00     0.098 C 
ATOM      8  N   UNL     1       0.085   4.005  -0.361  1.00  0.00    -0.341 N 
ATOM      9  C   UNL     1      -1.207   4.685  -0.418  1.00  0.00     0.119 C 
ATOM     10  C   UNL     1       1.102   4.474   0.570  1.00  0.00     0.133 C 
ATOM     11  C   UNL     1      -1.107   6.213  -0.356  1.00  0.00     0.022 C 
ATOM     12  C   UNL     1      -0.012   6.771   0.546  1.00  0.00     0.017 C 
BRANCH   8  13
ATOM     13  C   UNL     1       0.428   3.100  -1.316  1.00  0.00     0.206 A 
ATOM     14  N   UNL     1       0.694   1.767  -1.028  1.00  0.00    -0.310 N 
ATOM     15  C   UNL     1       1.245   1.198  -2.160  1.00  0.00     0.070 A 
ATOM     16  N   UNL     1       0.630   3.350  -2.585  1.00  0.00    -0.213 NA
ATOM     17  C   UNL     1       1.195   2.222  -3.105  1.00  0.00     0.091 A 
ATOM     18  C   UNL     1       1.776  -0.058  -2.490  1.00  0.00     0.029 A 
ATOM     19  C   UNL     1       1.711   2.020  -4.395  1.00  0.00     0.034 A 
ATOM     20  C   UNL     1       2.287  -0.243  -3.785  1.00  0.00     0.006 A 
ATOM     21  C   UNL     1       2.266   0.779  -4.736  1.00  0.00    -0.049 A 
ATOM     22  C   UNL     1       2.847   0.584  -6.106  1.00  0.00     0.044 C 
BRANCH  14  23
ATOM     23  C   UNL     1       0.338   1.166   0.242  1.00  0.00     0.122 C 
ATOM     24  C   UNL     1       0.753  -0.267   0.519  1.00  0.00     0.028 C 
ENDBRANCH  14  23
ENDBRANCH   8  13
ENDBRANCH   4   7
ENDBRANCH   2   3
ENDBRANCH   1   2
BRANCH   1  25
ATOM     25  C   UNL     1       1.325   7.327  -4.909  1.00  0.00     0.118 C 
BRANCH  25  26
ATOM     26  N   UNL     1       1.602   6.102  -5.638  1.00  0.00    -0.352 N 
ATOM     27  C   UNL     1       0.923   5.306  -6.520  1.00  0.00     0.251 C 
ATOM     28  H   UNL     1       2.505   5.758  -5.451  1.00  0.00     0.163 HD
ATOM     29  O   UNL     1       1.610   4.452  -7.091  1.00  0.00    -0.269 OA
BRANCH  27  30
ATOM     30  C   UNL     1      -0.540   5.350  -6.802  1.00  0.00     0.039 A 
ATOM     31  C   UNL     1      -1.456   6.215  -6.207  1.00  0.00     0.014 A 
ATOM     32  C   UNL     1      -1.027   4.381  -7.704  1.00  0.00     0.014 A 
ATOM     33  C   UNL     1      -2.824   6.067  -6.446  1.00  0.00     0.010 A 
ATOM     34  C   UNL     1      -2.390   4.242  -7.962  1.00  0.00     0.010 A 
ATOM     35  C   UNL     1      -3.296   5.065  -7.303  1.00  0.00    -0.014 A 
BRANCH  35  36
ATOM     36  C   UNL     1      -4.734   5.012  -7.572  1.00  0.00     0.031 A 
ATOM     37  C   UNL     1      -5.295   6.220  -8.242  1.00  0.00     0.074 A 
ATOM     38  C   UNL     1      -5.519   3.935  -7.367  1.00  0.00     0.049 A 
ATOM     39  N   UNL     1      -6.176   7.050  -7.786  1.00  0.00    -0.248 NA
ATOM     40  C   UNL     1      -4.719   6.611  -9.535  1.00  0.00     0.031 C 
ATOM     41  C   UNL     1      -5.105   2.574  -7.027  1.00  0.00     0.029 A 
ATOM     42  N   UNL     1      -6.870   3.816  -7.534  1.00  0.00    -0.354 N 
ATOM     43  C   UNL     1      -6.396   7.986  -8.799  1.00  0.00     0.074 A 
ATOM     44  C   UNL     1      -5.374   7.745  -9.787  1.00  0.00     0.031 C 
ATOM     45  C   UNL     1      -6.140   1.730  -7.241  1.00  0.00     0.029 A 
ATOM     46  C   UNL     1      -7.319   2.505  -7.599  1.00  0.00     0.049 A 
ATOM     47  H   UNL     1      -7.472   4.592  -7.601  1.00  0.00     0.167 HD
ATOM     48  C   UNL     1      -7.506   8.780  -8.823  1.00  0.00     0.034 A 
ATOM     49  C   UNL     1      -8.542   2.076  -8.002  1.00  0.00     0.034 A 
ATOM     50  C   UNL     1      -8.188   8.759  -7.557  1.00  0.00     0.049 A 
ATOM     51  C   UNL     1      -9.495   3.209  -7.929  1.00  0.00     0.074 A 
ATOM     52  C   UNL     1      -7.854   9.124  -6.269  1.00  0.00     0.029 A 
ATOM     53  N   UNL     1      -9.315   7.982  -7.449  1.00  0.00    -0.354 N 
ATOM     54  N   UNL     1      -9.953   3.715  -6.820  1.00  0.00    -0.248 NA
ATOM     55  C   UNL     1      -9.626   4.059  -9.103  1.00  0.00     0.031 C 
ATOM     56  C   UNL     1      -8.501   8.170  -5.437  1.00  0.00     0.029 A 
ATOM     57  C   UNL     1      -9.238   7.313  -6.257  1.00  0.00     0.049 A 
ATOM     58  H   UNL     1     -10.044   7.917  -8.108  1.00  0.00     0.167 HD
ATOM     59  C   UNL     1      -9.969   5.081  -7.051  1.00  0.00     0.074 A 
ATOM     60  C   UNL     1      -9.886   5.223  -8.503  1.00  0.00     0.031 C 
ATOM     61  C   UNL     1      -9.749   5.974  -6.041  1.00  0.00     0.034 A 
BRANCH  48  62
ATOM     62  C   UNL     1      -8.155   9.333 -10.073  1.00  0.00     0.023 A 
ATOM     63  C   UNL     1      -7.780   8.945 -11.371  1.00  0.00     0.031 A 
ATOM     64  C   UNL     1      -9.340  10.099  -9.986  1.00  0.00     0.131 A 
ATOM     65  C   UNL     1      -8.548   9.283 -12.494  1.00  0.00     0.055 A 
ATOM     66  C   UNL     1     -10.142  10.383 -11.098  1.00  0.00     0.041 A 
ATOM     67  F   UNL     1      -9.795  10.542  -8.803  1.00  0.00    -0.206 F 
ATOM     68  C   UNL     1      -9.750   9.968 -12.363  1.00  0.00     0.022 A 
BRANCH  65  69
ATOM     69  S   UNL     1      -7.998   8.803 -14.154  1.00  0.00     0.124 S 
ATOM     70  O   UNL     1      -9.089   7.940 -14.594  1.00  0.00    -0.237 OA
ATOM     71  O   UNL     1      -7.906  10.099 -14.822  1.00  0.00    -0.237 OA
ATOM     72  O   UNL     1      -6.720   8.140 -13.913  1.00  0.00    -0.744 OA
ENDBRANCH  65  69
ENDBRANCH  48  62
BRANCH  49  73
ATOM     73  C   UNL     1      -8.838   0.862  -8.799  1.00  0.00     0.023 A 
ATOM     74  C   UNL     1      -7.852   0.334  -9.652  1.00  0.00     0.031 A 
ATOM     75  C   UNL     1     -10.152   0.390  -8.965  1.00  0.00     0.131 A 
ATOM     76  C   UNL     1      -8.188  -0.585 -10.653  1.00  0.00     0.055 A 
ATOM     77  C   UNL     1     -10.485  -0.541  -9.957  1.00  0.00     0.041 A 
ATOM     78  F   UNL     1     -11.152   0.874  -8.211  1.00  0.00    -0.206 F 
ATOM     79  C   UNL     1      -9.502  -1.024 -10.817  1.00  0.00     0.022 A 
BRANCH  76  80
ATOM     80  S   UNL     1      -6.921  -1.162 -11.815  1.00  0.00     0.124 S 
ATOM     81  O   UNL     1      -7.189  -2.597 -11.882  1.00  0.00    -0.237 OA
ATOM     82  O   UNL     1      -7.252  -0.403 -13.016  1.00  0.00    -0.237 OA
ATOM     83  O   UNL     1      -5.667  -0.800 -11.160  1.00  0.00    -0.744 OA
ENDBRANCH  76  80
ENDBRANCH  49  73
BRANCH  61  84
ATOM     84  C   UNL     1      -9.748   5.495  -4.605  1.00  0.00     0.023 A 
ATOM     85  C   UNL     1     -10.426   6.293  -3.664  1.00  0.00     0.031 A 
ATOM     86  C   UNL     1      -8.928   4.464  -4.107  1.00  0.00     0.131 A 
ATOM     87  C   UNL     1     -10.235   6.090  -2.292  1.00  0.00     0.055 A 
ATOM     88  C   UNL     1      -8.807   4.212  -2.737  1.00  0.00     0.041 A 
ATOM     89  F   UNL     1      -8.146   3.732  -4.912  1.00  0.00    -0.206 F 
ATOM     90  C   UNL     1      -9.444   5.040  -1.821  1.00  0.00     0.022 A 
BRANCH  87  91
ATOM     91  S   UNL     1     -10.855   7.304  -1.097  1.00  0.00     0.124 S 
ATOM     92  O   UNL     1     -11.870   6.534  -0.378  1.00  0.00    -0.237 OA
ATOM     93  O   UNL     1      -9.652   7.622  -0.325  1.00  0.00    -0.237 OA
ATOM     94  O   UNL     1     -11.361   8.390  -1.921  1.00  0.00    -0.744 OA
ENDBRANCH  87  91
ENDBRANCH  61  84
ENDBRANCH  35  36
ENDBRANCH  27  30
ENDBRANCH  25  26
ENDBRANCH   1  25
TORSDOF 15
