REMARK SMILES Cc1cc([N+](=O)[O-])ccc1NC(=O)[C@@H]1[C@@H](C(=O)NCCCNC(=O)c2ccc(-c3c4nc(c(-c5cc(S(=O)(=O)[O-])ccc5F)c5ccc([nH]5)c(-c5cc(S(=O)(=O)[O-])ccc5F)c5nc(c(-c6cc(S(=O)(=O)[O-])ccc6F)c6ccc3[nH]6)C=C5)C=C4)cc2)[C@H]2C=C[C@@H]1C2
REMARK SMILES IDX 20 1 19 2 18 3 16 4 17 5 15 7 14 8 91 9 88 10 90 11 92 12
REMARK SMILES IDX 89 13 12 14 11 15 13 17 10 18 1 19 2 20 3 21 4 22 9 23 8 24
REMARK SMILES IDX 5 25 6 26 7 27 21 28 22 29 23 30 24 32 25 33 26 34 87 35
REMARK SMILES IDX 27 36 86 37 28 38 29 39 30 40 80 41 31 42 85 43 79 44 81 45
REMARK SMILES IDX 32 46 84 47 78 48 77 49 33 51 65 52 45 53 64 54 46 55 49 56
REMARK SMILES IDX 63 57 82 58 47 59 48 60 62 62 83 63 50 64 34 65 35 66 43 67
REMARK SMILES IDX 36 68 42 69 44 70 41 71 37 72 38 73 39 74 40 75 66 76 67 77
REMARK SMILES IDX 75 78 68 79 74 80 76 81 73 82 69 83 70 84 71 85 72 86 51 87
REMARK SMILES IDX 52 88 60 89 53 90 59 91 61 92 58 93 54 94 55 95 56 96 57 97
REMARK H PARENT 18 6 11 16 22 31 81 50 49 61
REMARK Flexibility Score: inf
ROOT
ATOM      1  C   UNL     1      -3.382   8.922   0.882  1.00  0.00     0.042 C 
ENDROOT
BRANCH   1   2
ATOM      2  C   UNL     1      -3.589   7.434   1.072  1.00  0.00     0.117 C 
BRANCH   2   3
ATOM      3  N   UNL     1      -3.424   6.681  -0.155  1.00  0.00    -0.356 N 
ATOM      4  C   UNL     1      -2.635   5.603  -0.415  1.00  0.00     0.224 C 
ATOM      5  O   UNL     1      -2.542   5.209  -1.581  1.00  0.00    -0.275 OA
ATOM      6  H   UNL     1      -3.963   6.997  -0.915  1.00  0.00     0.163 HD
BRANCH   4   7
ATOM      7  C   UNL     1      -1.803   4.970   0.699  1.00  0.00     0.098 C 
ATOM      8  C   UNL     1      -1.321   3.521   0.278  1.00  0.00     0.099 C 
ATOM      9  C   UNL     1      -1.738   2.662   1.504  1.00  0.00     0.025 C 
ATOM     10  C   UNL     1      -2.558   4.661   2.022  1.00  0.00     0.025 C 
ATOM     11  C   UNL     1      -3.243   2.544   1.460  1.00  0.00    -0.027 C 
ATOM     12  C   UNL     1      -1.605   3.651   2.656  1.00  0.00     0.017 C 
ATOM     13  C   UNL     1      -3.735   3.755   1.752  1.00  0.00    -0.027 C 
BRANCH   8  14
ATOM     14  C   UNL     1       0.160   3.395  -0.034  1.00  0.00     0.228 C 
ATOM     15  N   UNL     1       0.728   2.186  -0.361  1.00  0.00    -0.326 N 
ATOM     16  H   UNL     1       1.688   2.245  -0.568  1.00  0.00     0.169 HD
ATOM     17  O   UNL     1       0.926   4.360   0.050  1.00  0.00    -0.274 OA
BRANCH  15  18
ATOM     18  C   UNL     1       0.206   0.878  -0.457  1.00  0.00     0.044 A 
ATOM     19  C   UNL     1       2.519  -0.114   0.124  1.00  0.00     0.047 C 
ATOM     20  C   UNL     1       1.037  -0.218  -0.134  1.00  0.00    -0.021 A 
ATOM     21  C   UNL     1       0.472  -1.509  -0.041  1.00  0.00     0.091 A 
ATOM     22  C   UNL     1      -0.892  -1.709  -0.278  1.00  0.00     0.269 A 
ATOM     23  C   UNL     1      -1.124   0.623  -0.817  1.00  0.00     0.033 A 
ATOM     24  C   UNL     1      -1.688  -0.651  -0.701  1.00  0.00     0.088 A 
BRANCH  22  25
ATOM     25  N   UNL     1      -1.485  -3.034  -0.073  1.00  0.00     0.062 N 
ATOM     26  O   UNL     1      -0.713  -3.987   0.114  1.00  0.00    -0.258 OA
ATOM     27  O   UNL     1      -2.721  -3.124  -0.081  1.00  0.00    -0.258 OA
ENDBRANCH  22  25
ENDBRANCH  15  18
ENDBRANCH   8  14
ENDBRANCH   4   7
ENDBRANCH   2   3
ENDBRANCH   1   2
BRANCH   1  28
ATOM     28  C   UNL     1      -4.545   9.609   0.192  1.00  0.00     0.118 C 
BRANCH  28  29
ATOM     29  N   UNL     1      -5.472  10.240   1.136  1.00  0.00    -0.352 N 
ATOM     30  C   UNL     1      -6.365  11.279   0.918  1.00  0.00     0.251 C 
ATOM     31  H   UNL     1      -5.459   9.877   2.051  1.00  0.00     0.163 HD
ATOM     32  O   UNL     1      -7.112  11.688   1.788  1.00  0.00    -0.269 OA
BRANCH  30  33
ATOM     33  C   UNL     1      -6.476  11.803  -0.462  1.00  0.00     0.039 A 
ATOM     34  C   UNL     1      -7.678  11.570  -1.133  1.00  0.00     0.014 A 
ATOM     35  C   UNL     1      -5.326  12.168  -1.152  1.00  0.00     0.014 A 
ATOM     36  C   UNL     1      -7.658  11.432  -2.517  1.00  0.00     0.010 A 
ATOM     37  C   UNL     1      -5.279  11.907  -2.509  1.00  0.00     0.010 A 
ATOM     38  C   UNL     1      -6.429  11.477  -3.180  1.00  0.00    -0.014 A 
BRANCH  38  39
ATOM     39  C   UNL     1      -6.257  10.952  -4.532  1.00  0.00     0.031 A 
ATOM     40  C   UNL     1      -6.023  11.871  -5.662  1.00  0.00     0.074 A 
ATOM     41  C   UNL     1      -6.360   9.626  -4.782  1.00  0.00     0.049 A 
ATOM     42  N   UNL     1      -6.511  11.694  -6.844  1.00  0.00    -0.248 NA
ATOM     43  C   UNL     1      -5.241  13.095  -5.533  1.00  0.00     0.031 C 
ATOM     44  C   UNL     1      -6.098   8.943  -6.046  1.00  0.00     0.029 A 
ATOM     45  N   UNL     1      -6.970   8.659  -3.984  1.00  0.00    -0.354 N 
ATOM     46  C   UNL     1      -5.905  12.603  -7.676  1.00  0.00     0.074 A 
ATOM     47  C   UNL     1      -5.175  13.495  -6.805  1.00  0.00     0.031 C 
ATOM     48  C   UNL     1      -6.768   7.780  -6.056  1.00  0.00     0.029 A 
ATOM     49  C   UNL     1      -7.567   7.722  -4.846  1.00  0.00     0.049 A 
ATOM     50  H   UNL     1      -6.979   8.636  -3.000  1.00  0.00     0.167 HD
ATOM     51  C   UNL     1      -5.949  12.441  -9.027  1.00  0.00     0.034 A 
ATOM     52  C   UNL     1      -8.902   7.451  -4.781  1.00  0.00     0.034 A 
ATOM     53  C   UNL     1      -6.655  11.226  -9.412  1.00  0.00     0.049 A 
ATOM     54  C   UNL     1      -9.641   7.781  -6.061  1.00  0.00     0.074 A 
ATOM     55  C   UNL     1      -6.211   9.959  -9.753  1.00  0.00     0.029 A 
ATOM     56  N   UNL     1      -8.023  11.118  -9.190  1.00  0.00    -0.354 N 
ATOM     57  N   UNL     1      -9.133   8.482  -7.037  1.00  0.00    -0.248 NA
ATOM     58  C   UNL     1     -11.018   7.375  -6.332  1.00  0.00     0.031 C 
ATOM     59  C   UNL     1      -7.313   9.071  -9.668  1.00  0.00     0.029 A 
ATOM     60  C   UNL     1      -8.432   9.803  -9.314  1.00  0.00     0.049 A 
ATOM     61  H   UNL     1      -8.617  11.873  -8.975  1.00  0.00     0.167 HD
ATOM     62  C   UNL     1     -10.077   8.668  -8.016  1.00  0.00     0.074 A 
ATOM     63  C   UNL     1     -11.229   7.923  -7.541  1.00  0.00     0.031 C 
ATOM     64  C   UNL     1      -9.829   9.436  -9.121  1.00  0.00     0.034 A 
BRANCH  51  65
ATOM     65  C   UNL     1      -5.054  13.228  -9.945  1.00  0.00     0.023 A 
ATOM     66  C   UNL     1      -4.434  12.592 -11.037  1.00  0.00     0.031 A 
ATOM     67  C   UNL     1      -4.746  14.590  -9.766  1.00  0.00     0.131 A 
ATOM     68  C   UNL     1      -3.481  13.263 -11.823  1.00  0.00     0.055 A 
ATOM     69  C   UNL     1      -3.755  15.242 -10.510  1.00  0.00     0.041 A 
ATOM     70  F   UNL     1      -5.404  15.338  -8.866  1.00  0.00    -0.206 F 
ATOM     71  C   UNL     1      -3.105  14.573 -11.537  1.00  0.00     0.022 A 
BRANCH  68  72
ATOM     72  S   UNL     1      -2.743  12.396 -13.235  1.00  0.00     0.124 S 
ATOM     73  O   UNL     1      -2.136  11.229 -12.602  1.00  0.00    -0.237 OA
ATOM     74  O   UNL     1      -3.904  12.140 -14.080  1.00  0.00    -0.237 OA
ATOM     75  O   UNL     1      -1.793  13.370 -13.772  1.00  0.00    -0.744 OA
ENDBRANCH  68  72
ENDBRANCH  51  65
BRANCH  52  76
ATOM     76  C   UNL     1      -9.447   7.550  -3.395  1.00  0.00     0.023 A 
ATOM     77  C   UNL     1      -8.833   6.744  -2.408  1.00  0.00     0.031 A 
ATOM     78  C   UNL     1     -10.208   8.643  -2.965  1.00  0.00     0.131 A 
ATOM     79  C   UNL     1      -8.828   7.148  -1.065  1.00  0.00     0.055 A 
ATOM     80  C   UNL     1     -10.275   8.991  -1.608  1.00  0.00     0.041 A 
ATOM     81  F   UNL     1     -10.785   9.467  -3.851  1.00  0.00    -0.206 F 
ATOM     82  C   UNL     1      -9.544   8.273  -0.658  1.00  0.00     0.022 A 
BRANCH  79  83
ATOM     83  S   UNL     1      -7.628   6.373   0.065  1.00  0.00     0.124 S 
ATOM     84  O   UNL     1      -8.350   5.192   0.521  1.00  0.00    -0.237 OA
ATOM     85  O   UNL     1      -6.479   6.130  -0.806  1.00  0.00    -0.237 OA
ATOM     86  O   UNL     1      -7.386   7.397   1.080  1.00  0.00    -0.744 OA
ENDBRANCH  79  83
ENDBRANCH  52  76
BRANCH  64  87
ATOM     87  C   UNL     1     -10.844   9.851 -10.167  1.00  0.00     0.023 A 
ATOM     88  C   UNL     1     -12.229   9.833  -9.954  1.00  0.00     0.031 A 
ATOM     89  C   UNL     1     -10.425  10.363 -11.422  1.00  0.00     0.131 A 
ATOM     90  C   UNL     1     -13.127  10.222 -10.967  1.00  0.00     0.055 A 
ATOM     91  C   UNL     1     -11.315  10.827 -12.395  1.00  0.00     0.041 A 
ATOM     92  F   UNL     1      -9.128  10.441 -11.757  1.00  0.00    -0.206 F 
ATOM     93  C   UNL     1     -12.680  10.742 -12.178  1.00  0.00     0.022 A 
BRANCH  90  94
ATOM     94  S   UNL     1     -14.899   9.962 -10.690  1.00  0.00     0.124 S 
ATOM     95  O   UNL     1     -14.970   8.511 -10.542  1.00  0.00    -0.237 OA
ATOM     96  O   UNL     1     -15.145  10.736  -9.478  1.00  0.00    -0.237 OA
ATOM     97  O   UNL     1     -15.520  10.492 -11.902  1.00  0.00    -0.744 OA
ENDBRANCH  90  94
ENDBRANCH  64  87
ENDBRANCH  38  39
ENDBRANCH  30  33
ENDBRANCH  28  29
ENDBRANCH   1  28
TORSDOF 16
