REMARK SMILES O=C(NCCCNC(=O)C1(C/C=C/c2ccccc2)CCCCC1)c1ccc(-c2c3nc(c(-c4cc(S(=O)(=O)[O-])ccc4F)c4ccc([nH]4)c(-c4cc(S(=O)(=O)[O-])ccc4F)c4nc(c(-c5cc(S(=O)(=O)[O-])ccc5F)c5ccc2[nH]5)C=C4)C=C3)cc1
REMARK SMILES IDX 5 1 4 2 3 3 1 4 2 5 25 7 26 8 87 9 27 10 86 11 28 12 29 13
REMARK SMILES IDX 30 14 80 15 31 16 85 17 79 18 81 19 32 20 84 21 78 22 77 23
REMARK SMILES IDX 33 25 65 26 45 27 64 28 46 29 49 30 63 31 82 32 47 33 48 34
REMARK SMILES IDX 62 36 83 37 50 38 34 39 35 40 43 41 36 42 42 43 44 44 41 45
REMARK SMILES IDX 37 46 38 47 39 48 40 49 66 50 67 51 75 52 68 53 74 54 76 55
REMARK SMILES IDX 73 56 69 57 70 58 71 59 72 60 51 61 52 62 60 63 53 64 59 65
REMARK SMILES IDX 61 66 58 67 54 68 55 69 56 70 57 71 6 72 7 73 8 74 9 76
REMARK SMILES IDX 10 77 20 78 24 79 21 80 23 81 22 82 11 83 12 84 13 85 14 86
REMARK SMILES IDX 15 87 19 88 16 89 18 90 17 91
REMARK H PARENT 3 6 81 24 49 35 7 75
REMARK Flexibility Score: inf
ROOT
ATOM      1  C   UNL     1       4.391  -0.743   2.458  1.00  0.00     0.042 C 
ENDROOT
BRANCH   1   2
ATOM      2  C   UNL     1       4.315  -0.933   0.942  1.00  0.00     0.118 C 
BRANCH   2   3
ATOM      3  N   UNL     1       2.937  -0.984   0.479  1.00  0.00    -0.352 N 
ATOM      4  O   UNL     1       0.998  -0.142  -0.272  1.00  0.00    -0.269 OA
ATOM      5  C   UNL     1       2.224  -0.067  -0.251  1.00  0.00     0.251 C 
ATOM      6  H   UNL     1       2.441  -1.798   0.727  1.00  0.00     0.163 HD
BRANCH   5   7
ATOM      7  C   UNL     1       2.916   0.992  -1.018  1.00  0.00     0.039 A 
ATOM      8  C   UNL     1       4.057   0.705  -1.775  1.00  0.00     0.014 A 
ATOM      9  C   UNL     1       2.354   2.272  -1.058  1.00  0.00     0.014 A 
ATOM     10  C   UNL     1       4.681   1.714  -2.506  1.00  0.00     0.010 A 
ATOM     11  C   UNL     1       2.947   3.267  -1.838  1.00  0.00     0.010 A 
ATOM     12  C   UNL     1       4.121   2.998  -2.561  1.00  0.00    -0.014 A 
BRANCH  12  13
ATOM     13  C   UNL     1       4.731   4.050  -3.414  1.00  0.00     0.031 A 
ATOM     14  C   UNL     1       5.334   5.277  -2.794  1.00  0.00     0.074 A 
ATOM     15  C   UNL     1       4.698   3.912  -4.754  1.00  0.00     0.049 A 
ATOM     16  N   UNL     1       5.812   6.349  -3.372  1.00  0.00    -0.248 NA
ATOM     17  C   UNL     1       5.389   5.305  -1.327  1.00  0.00     0.031 C 
ATOM     18  C   UNL     1       4.136   2.762  -5.466  1.00  0.00     0.029 A 
ATOM     19  N   UNL     1       5.128   4.746  -5.754  1.00  0.00    -0.354 N 
ATOM     20  C   UNL     1       6.210   7.191  -2.339  1.00  0.00     0.074 A 
ATOM     21  C   UNL     1       5.878   6.515  -1.101  1.00  0.00     0.031 C 
ATOM     22  C   UNL     1       4.256   2.963  -6.787  1.00  0.00     0.029 A 
ATOM     23  C   UNL     1       4.843   4.280  -7.016  1.00  0.00     0.049 A 
ATOM     24  H   UNL     1       5.595   5.596  -5.585  1.00  0.00     0.167 HD
ATOM     25  C   UNL     1       6.800   8.411  -2.422  1.00  0.00     0.034 A 
ATOM     26  C   UNL     1       4.995   4.861  -8.222  1.00  0.00     0.034 A 
ATOM     27  C   UNL     1       7.108   9.067  -3.672  1.00  0.00     0.049 A 
ATOM     28  C   UNL     1       5.598   6.237  -8.295  1.00  0.00     0.074 A 
ATOM     29  C   UNL     1       7.733  10.285  -3.878  1.00  0.00     0.029 A 
ATOM     30  N   UNL     1       6.796   8.566  -4.932  1.00  0.00    -0.354 N 
ATOM     31  N   UNL     1       5.987   7.017  -7.313  1.00  0.00    -0.248 NA
ATOM     32  C   UNL     1       5.788   6.809  -9.633  1.00  0.00     0.031 C 
ATOM     33  C   UNL     1       7.734  10.552  -5.253  1.00  0.00     0.029 A 
ATOM     34  C   UNL     1       7.184   9.465  -5.914  1.00  0.00     0.049 A 
ATOM     35  H   UNL     1       6.362   7.699  -5.101  1.00  0.00     0.167 HD
ATOM     36  C   UNL     1       6.493   8.163  -7.917  1.00  0.00     0.074 A 
ATOM     37  C   UNL     1       6.359   7.971  -9.348  1.00  0.00     0.031 C 
ATOM     38  C   UNL     1       7.033   9.266  -7.338  1.00  0.00     0.034 A 
BRANCH  25  39
ATOM     39  C   UNL     1       7.091   9.127  -1.122  1.00  0.00     0.023 A 
ATOM     40  C   UNL     1       7.957   8.585  -0.155  1.00  0.00     0.031 A 
ATOM     41  C   UNL     1       6.444  10.338  -0.816  1.00  0.00     0.131 A 
ATOM     42  C   UNL     1       8.075   9.196   1.103  1.00  0.00     0.055 A 
ATOM     43  C   UNL     1       6.638  10.990   0.404  1.00  0.00     0.041 A 
ATOM     44  F   UNL     1       5.590  10.897  -1.687  1.00  0.00    -0.206 F 
ATOM     45  C   UNL     1       7.440  10.408   1.381  1.00  0.00     0.022 A 
BRANCH  42  46
ATOM     46  S   UNL     1       8.915   8.286   2.430  1.00  0.00     0.124 S 
ATOM     47  O   UNL     1       8.180   7.023   2.437  1.00  0.00    -0.237 OA
ATOM     48  O   UNL     1      10.289   8.222   1.946  1.00  0.00    -0.237 OA
ATOM     49  O   UNL     1       8.705   9.125   3.608  1.00  0.00    -0.744 OA
ENDBRANCH  42  46
ENDBRANCH  25  39
BRANCH  26  50
ATOM     50  C   UNL     1       4.520   4.152  -9.442  1.00  0.00     0.023 A 
ATOM     51  C   UNL     1       5.420   3.660 -10.399  1.00  0.00     0.031 A 
ATOM     52  C   UNL     1       3.146   3.930  -9.649  1.00  0.00     0.131 A 
ATOM     53  C   UNL     1       4.934   2.984 -11.529  1.00  0.00     0.055 A 
ATOM     54  C   UNL     1       2.671   3.220 -10.752  1.00  0.00     0.041 A 
ATOM     55  F   UNL     1       2.246   4.372  -8.756  1.00  0.00    -0.206 F 
ATOM     56  C   UNL     1       3.568   2.748 -11.704  1.00  0.00     0.022 A 
BRANCH  53  57
ATOM     57  S   UNL     1       6.115   2.441 -12.794  1.00  0.00     0.124 S 
ATOM     58  O   UNL     1       6.691   3.709 -13.226  1.00  0.00    -0.237 OA
ATOM     59  O   UNL     1       6.996   1.563 -12.031  1.00  0.00    -0.237 OA
ATOM     60  O   UNL     1       5.273   1.769 -13.781  1.00  0.00    -0.744 OA
ENDBRANCH  53  57
ENDBRANCH  26  50
BRANCH  38  61
ATOM     61  C   UNL     1       7.575  10.330  -8.259  1.00  0.00     0.023 A 
ATOM     62  C   UNL     1       6.733  11.147  -9.032  1.00  0.00     0.031 A 
ATOM     63  C   UNL     1       8.963  10.539  -8.342  1.00  0.00     0.131 A 
ATOM     64  C   UNL     1       7.291  12.116  -9.880  1.00  0.00     0.055 A 
ATOM     65  C   UNL     1       9.509  11.536  -9.150  1.00  0.00     0.041 A 
ATOM     66  F   UNL     1       9.811   9.783  -7.626  1.00  0.00    -0.206 F 
ATOM     67  C   UNL     1       8.672  12.327  -9.930  1.00  0.00     0.022 A 
BRANCH  64  68
ATOM     68  S   UNL     1       6.192  13.071 -10.963  1.00  0.00     0.124 S 
ATOM     69  O   UNL     1       5.611  12.027 -11.801  1.00  0.00    -0.237 OA
ATOM     70  O   UNL     1       5.284  13.703 -10.010  1.00  0.00    -0.237 OA
ATOM     71  O   UNL     1       7.099  13.987 -11.652  1.00  0.00    -0.744 OA
ENDBRANCH  64  68
ENDBRANCH  38  61
ENDBRANCH  12  13
ENDBRANCH   5   7
ENDBRANCH   2   3
ENDBRANCH   1   2
BRANCH   1  72
ATOM     72  C   UNL     1       3.877  -1.952   3.246  1.00  0.00     0.117 C 
BRANCH  72  73
ATOM     73  N   UNL     1       4.779  -3.077   3.099  1.00  0.00    -0.356 N 
ATOM     74  C   UNL     1       5.889  -3.474   3.770  1.00  0.00     0.226 C 
ATOM     75  H   UNL     1       4.535  -3.678   2.358  1.00  0.00     0.163 HD
ATOM     76  O   UNL     1       6.565  -4.303   3.151  1.00  0.00    -0.274 OA
BRANCH  74  77
ATOM     77  C   UNL     1       6.238  -3.042   5.225  1.00  0.00     0.053 C 
ATOM     78  C   UNL     1       6.303  -1.500   5.410  1.00  0.00     0.017 C 
ATOM     79  C   UNL     1       5.160  -3.641   6.163  1.00  0.00     0.017 C 
ATOM     80  C   UNL     1       6.389  -1.046   6.873  1.00  0.00     0.001 C 
ATOM     81  C   UNL     1       5.309  -3.204   7.619  1.00  0.00     0.001 C 
ATOM     82  C   UNL     1       5.310  -1.685   7.740  1.00  0.00     0.000 C 
BRANCH  77  83
ATOM     83  C   UNL     1       7.678  -3.580   5.571  1.00  0.00     0.044 C 
BRANCH  83  84
ATOM     84  C   UNL     1       7.879  -5.074   5.623  1.00  0.00    -0.025 C 
ATOM     85  C   UNL     1       8.738  -5.715   4.813  1.00  0.00     0.004 C 
BRANCH  85  86
ATOM     86  C   UNL     1       8.903  -7.169   4.786  1.00  0.00    -0.026 A 
ATOM     87  C   UNL     1      10.188  -7.717   4.716  1.00  0.00     0.008 A 
ATOM     88  C   UNL     1       7.794  -8.023   4.739  1.00  0.00     0.008 A 
ATOM     89  C   UNL     1      10.363  -9.100   4.631  1.00  0.00     0.001 A 
ATOM     90  C   UNL     1       7.968  -9.405   4.652  1.00  0.00     0.001 A 
ATOM     91  C   UNL     1       9.253  -9.943   4.601  1.00  0.00     0.000 A 
ENDBRANCH  85  86
ENDBRANCH  83  84
ENDBRANCH  77  83
ENDBRANCH  74  77
ENDBRANCH  72  73
ENDBRANCH   1  72
TORSDOF 16
