REMARK SMILES CC1(C)S[C@@H](c2cccc3c2sc2ccccc23)[NH2+][C@@H]1C(=O)NCCCNC(=O)c1ccc(-c2c3nc(c(-c4cc(S(=O)(=O)[O-])ccc4F)c4ccc([nH]4)c(-c4cc(S(=O)(=O)[O-])ccc4F)c4nc(c(-c5cc(S(=O)(=O)[O-])ccc5F)c5ccc2[nH]5)C=C4)C=C3)cc1
REMARK SMILES IDX 26 1 25 2 24 3 23 4 21 5 22 6 20 8 1 9 2 10 3 11 4 12 5 13
REMARK SMILES IDX 19 14 6 17 7 18 11 19 8 20 10 21 12 22 9 23 18 24 13 25
REMARK SMILES IDX 17 26 14 27 16 28 15 29 27 30 28 31 29 33 30 34 31 35 92 36
REMARK SMILES IDX 32 37 91 38 33 39 34 40 35 41 85 42 36 43 90 44 84 45 86 46
REMARK SMILES IDX 37 47 89 48 83 49 82 50 38 52 70 53 50 54 69 55 51 56 54 57
REMARK SMILES IDX 68 58 87 59 52 60 53 61 67 63 88 64 55 65 39 66 40 67 48 68
REMARK SMILES IDX 41 69 47 70 49 71 46 72 42 73 43 74 44 75 45 76 71 77 72 78
REMARK SMILES IDX 80 79 73 80 79 81 81 82 78 83 74 84 75 85 76 86 77 87 56 88
REMARK SMILES IDX 57 89 65 90 58 91 64 92 66 93 63 94 59 95 60 96 61 97 62 98
REMARK H PARENT 23 7 19 15 19 16 27 32 86 51 54 62
REMARK Flexibility Score: inf
ROOT
ATOM      1  C   UNL     1      -3.423   3.340  -4.038  1.00  0.00     0.118 C 
ENDROOT
BRANCH   1   2
ATOM      2  C   UNL     1      -3.170   3.351  -2.540  1.00  0.00     0.042 C 
BRANCH   2   3
ATOM      3  C   UNL     1      -2.741   2.010  -1.971  1.00  0.00     0.118 C 
BRANCH   3   4
ATOM      4  N   UNL     1      -1.489   1.542  -2.547  1.00  0.00    -0.351 N 
ATOM      5  C   UNL     1      -0.293   1.190  -2.002  1.00  0.00     0.279 C 
ATOM      6  O   UNL     1       0.599   0.947  -2.821  1.00  0.00    -0.268 OA
ATOM      7  H   UNL     1      -1.513   1.465  -3.528  1.00  0.00     0.163 HD
BRANCH   5   8
ATOM      8  C   UNL     1      -0.013   1.207  -0.471  1.00  0.00     0.289 C 
ATOM      9  C   UNL     1       1.597   0.604   1.415  1.00  0.00     0.030 C 
ATOM     10  C   UNL     1       1.015   0.161   0.057  1.00  0.00     0.077 C 
ATOM     11  C   UNL     1       2.183  -0.201  -0.861  1.00  0.00     0.030 C 
ATOM     12  S   UNL     1      -0.012  -1.329   0.372  1.00  0.00    -0.081 SA
ATOM     13  C   UNL     1      -1.579  -0.417   0.276  1.00  0.00     0.276 C 
ATOM     14  N   UNL     1      -1.243   1.008   0.337  1.00  0.00    -0.320 N 
ATOM     15  H   UNL     1      -1.075   1.286   1.303  1.00  0.00     0.348 HD
ATOM     16  H   UNL     1      -2.009   1.575  -0.027  1.00  0.00     0.348 HD
BRANCH  13  17
ATOM     17  C   UNL     1      -2.583  -0.786   1.353  1.00  0.00     0.038 A 
ATOM     18  C   UNL     1      -2.223  -0.691   2.719  1.00  0.00     0.012 A 
ATOM     19  C   UNL     1      -3.926  -1.179   1.073  1.00  0.00     0.046 A 
ATOM     20  C   UNL     1      -3.112  -0.981   3.739  1.00  0.00     0.001 A 
ATOM     21  C   UNL     1      -4.838  -1.497   2.087  1.00  0.00     0.001 A 
ATOM     22  S   UNL     1      -4.682  -1.331  -0.472  1.00  0.00    -0.135 S 
ATOM     23  C   UNL     1      -4.405  -1.389   3.433  1.00  0.00     0.010 A 
ATOM     24  C   UNL     1      -6.133  -1.903   1.568  1.00  0.00     0.000 A 
ATOM     25  C   UNL     1      -6.182  -1.834   0.178  1.00  0.00     0.036 A 
ATOM     26  C   UNL     1      -7.303  -2.331   2.250  1.00  0.00     0.010 A 
ATOM     27  C   UNL     1      -7.353  -2.155  -0.539  1.00  0.00     0.019 A 
ATOM     28  C   UNL     1      -8.463  -2.666   1.545  1.00  0.00     0.001 A 
ATOM     29  C   UNL     1      -8.487  -2.572   0.162  1.00  0.00     0.002 A 
ENDBRANCH  13  17
ENDBRANCH   5   8
ENDBRANCH   3   4
ENDBRANCH   2   3
ENDBRANCH   1   2
BRANCH   1  30
ATOM     30  N   UNL     1      -4.511   2.451  -4.422  1.00  0.00    -0.352 N 
ATOM     31  C   UNL     1      -5.731   2.742  -4.984  1.00  0.00     0.251 C 
ATOM     32  H   UNL     1      -4.348   1.495  -4.253  1.00  0.00     0.163 HD
ATOM     33  O   UNL     1      -6.589   1.864  -5.053  1.00  0.00    -0.269 OA
BRANCH  31  34
ATOM     34  C   UNL     1      -6.018   4.108  -5.473  1.00  0.00     0.039 A 
ATOM     35  C   UNL     1      -7.270   4.672  -5.217  1.00  0.00     0.014 A 
ATOM     36  C   UNL     1      -5.054   4.839  -6.172  1.00  0.00     0.014 A 
ATOM     37  C   UNL     1      -7.522   5.993  -5.593  1.00  0.00     0.010 A 
ATOM     38  C   UNL     1      -5.269   6.184  -6.448  1.00  0.00     0.010 A 
ATOM     39  C   UNL     1      -6.508   6.777  -6.168  1.00  0.00    -0.014 A 
BRANCH  39  40
ATOM     40  C   UNL     1      -6.727   8.211  -6.493  1.00  0.00     0.031 A 
ATOM     41  C   UNL     1      -6.606   8.689  -7.916  1.00  0.00     0.074 A 
ATOM     42  C   UNL     1      -6.978   9.091  -5.502  1.00  0.00     0.049 A 
ATOM     43  N   UNL     1      -6.689   9.905  -8.391  1.00  0.00    -0.248 NA
ATOM     44  C   UNL     1      -6.320   7.667  -8.934  1.00  0.00     0.031 C 
ATOM     45  C   UNL     1      -7.079   8.755  -4.080  1.00  0.00     0.029 A 
ATOM     46  N   UNL     1      -7.191  10.446  -5.536  1.00  0.00    -0.354 N 
ATOM     47  C   UNL     1      -6.459   9.795  -9.758  1.00  0.00     0.074 A 
ATOM     48  C   UNL     1      -6.157   8.405 -10.021  1.00  0.00     0.031 C 
ATOM     49  C   UNL     1      -7.373   9.865  -3.385  1.00  0.00     0.029 A 
ATOM     50  C   UNL     1      -7.426  11.002  -4.298  1.00  0.00     0.049 A 
ATOM     51  H   UNL     1      -7.178  10.972  -6.368  1.00  0.00     0.167 HD
ATOM     52  C   UNL     1      -6.522  10.758 -10.711  1.00  0.00     0.034 A 
ATOM     53  C   UNL     1      -7.646  12.282  -3.939  1.00  0.00     0.034 A 
ATOM     54  C   UNL     1      -6.832  12.139 -10.432  1.00  0.00     0.049 A 
ATOM     55  C   UNL     1      -7.668  13.343  -5.011  1.00  0.00     0.074 A 
ATOM     56  C   UNL     1      -6.965  13.189 -11.324  1.00  0.00     0.029 A 
ATOM     57  N   UNL     1      -7.048  12.667  -9.165  1.00  0.00    -0.354 N 
ATOM     58  N   UNL     1      -7.494  13.214  -6.306  1.00  0.00    -0.248 NA
ATOM     59  C   UNL     1      -7.927  14.720  -4.573  1.00  0.00     0.031 C 
ATOM     60  C   UNL     1      -7.184  14.361 -10.593  1.00  0.00     0.029 A 
ATOM     61  C   UNL     1      -7.279  14.032  -9.250  1.00  0.00     0.049 A 
ATOM     62  H   UNL     1      -7.039  12.148  -8.329  1.00  0.00     0.167 HD
ATOM     63  C   UNL     1      -7.658  14.489  -6.840  1.00  0.00     0.074 A 
ATOM     64  C   UNL     1      -7.961  15.367  -5.728  1.00  0.00     0.031 C 
ATOM     65  C   UNL     1      -7.570  14.899  -8.132  1.00  0.00     0.034 A 
BRANCH  52  66
ATOM     66  C   UNL     1      -6.228  10.348 -12.136  1.00  0.00     0.023 A 
ATOM     67  C   UNL     1      -7.020   9.401 -12.810  1.00  0.00     0.031 A 
ATOM     68  C   UNL     1      -5.127  10.890 -12.823  1.00  0.00     0.131 A 
ATOM     69  C   UNL     1      -6.656   8.968 -14.094  1.00  0.00     0.055 A 
ATOM     70  C   UNL     1      -4.822  10.520 -14.135  1.00  0.00     0.041 A 
ATOM     71  F   UNL     1      -4.319  11.780 -12.226  1.00  0.00    -0.206 F 
ATOM     72  C   UNL     1      -5.579   9.541 -14.772  1.00  0.00     0.022 A 
BRANCH  69  73
ATOM     73  S   UNL     1      -7.518   7.536 -14.800  1.00  0.00     0.124 S 
ATOM     74  O   UNL     1      -7.254   6.509 -13.795  1.00  0.00    -0.237 OA
ATOM     75  O   UNL     1      -8.895   8.007 -14.886  1.00  0.00    -0.237 OA
ATOM     76  O   UNL     1      -6.846   7.330 -16.082  1.00  0.00    -0.744 OA
ENDBRANCH  69  73
ENDBRANCH  52  66
BRANCH  53  77
ATOM     77  C   UNL     1      -7.856  12.643  -2.506  1.00  0.00     0.023 A 
ATOM     78  C   UNL     1      -9.069  13.200  -2.071  1.00  0.00     0.031 A 
ATOM     79  C   UNL     1      -6.830  12.481  -1.558  1.00  0.00     0.131 A 
ATOM     80  C   UNL     1      -9.208  13.625  -0.741  1.00  0.00     0.055 A 
ATOM     81  C   UNL     1      -6.995  12.849  -0.221  1.00  0.00     0.041 A 
ATOM     82  F   UNL     1      -5.649  11.952  -1.917  1.00  0.00    -0.206 F 
ATOM     83  C   UNL     1      -8.185  13.439   0.191  1.00  0.00     0.022 A 
BRANCH  80  84
ATOM     84  S   UNL     1     -10.715  14.518  -0.268  1.00  0.00     0.124 S 
ATOM     85  O   UNL     1     -10.692  15.647  -1.192  1.00  0.00    -0.237 OA
ATOM     86  O   UNL     1     -11.748  13.516  -0.504  1.00  0.00    -0.237 OA
ATOM     87  O   UNL     1     -10.484  14.854   1.135  1.00  0.00    -0.744 OA
ENDBRANCH  80  84
ENDBRANCH  53  77
BRANCH  65  88
ATOM     88  C   UNL     1      -7.856  16.355  -8.412  1.00  0.00     0.023 A 
ATOM     89  C   UNL     1      -7.031  17.382  -7.922  1.00  0.00     0.031 A 
ATOM     90  C   UNL     1      -8.982  16.719  -9.172  1.00  0.00     0.131 A 
ATOM     91  C   UNL     1      -7.379  18.723  -8.143  1.00  0.00     0.055 A 
ATOM     92  C   UNL     1      -9.284  18.053  -9.449  1.00  0.00     0.041 A 
ATOM     93  F   UNL     1      -9.809  15.781  -9.663  1.00  0.00    -0.206 F 
ATOM     94  C   UNL     1      -8.488  19.065  -8.920  1.00  0.00     0.022 A 
BRANCH  91  95
ATOM     95  S   UNL     1      -6.421  20.019  -7.309  1.00  0.00     0.124 S 
ATOM     96  O   UNL     1      -6.573  19.651  -5.905  1.00  0.00    -0.237 OA
ATOM     97  O   UNL     1      -5.089  19.836  -7.876  1.00  0.00    -0.237 OA
ATOM     98  O   UNL     1      -7.098  21.253  -7.704  1.00  0.00    -0.744 OA
ENDBRANCH  91  95
ENDBRANCH  65  88
ENDBRANCH  39  40
ENDBRANCH  31  34
ENDBRANCH   1  30
TORSDOF 14
