REMARK SMILES CS(=O)(=O)c1ccc(/C=C(/C(=O)NCCCNC(=O)c2ccc(-c3c4nc(c(-c5cc(S(=O)(=O)[O-])ccc5F)c5ccc([nH]5)c(-c5cc(S(=O)(=O)[O-])ccc5F)c5nc(c(-c6cc(S(=O)(=O)[O-])ccc6F)c6ccc3[nH]6)C=C5)C=C4)cc2)c2ccccc2)cc1
REMARK SMILES IDX 15 1 14 2 13 3 11 4 12 5 10 7 9 8 8 9 5 10 6 11 90 12 7 13
REMARK SMILES IDX 89 14 2 15 1 16 3 17 4 18 83 19 84 20 88 21 85 22 87 23
REMARK SMILES IDX 86 24 16 25 17 26 18 27 19 29 20 30 21 31 82 32 22 33 81 34
REMARK SMILES IDX 23 35 24 36 25 37 75 38 26 39 80 40 74 41 76 42 27 43 79 44
REMARK SMILES IDX 73 45 72 46 28 48 60 49 40 50 59 51 41 52 44 53 58 54 77 55
REMARK SMILES IDX 42 56 43 57 57 59 78 60 45 61 29 62 30 63 38 64 31 65 37 66
REMARK SMILES IDX 39 67 36 68 32 69 33 70 34 71 35 72 61 73 62 74 70 75 63 76
REMARK SMILES IDX 69 77 71 78 68 79 64 80 65 81 66 82 67 83 46 84 47 85 55 86
REMARK SMILES IDX 48 87 54 88 56 89 53 90 49 91 50 92 51 93 52 94
REMARK H PARENT 13 6 17 28 76 47 44 58
REMARK Flexibility Score: inf
ROOT
ATOM      1  C   UNL     1       1.070   9.218  -2.183  1.00  0.00     0.042 C 
ENDROOT
BRANCH   1   2
ATOM      2  C   UNL     1       1.509   8.572  -3.499  1.00  0.00     0.118 C 
BRANCH   2   3
ATOM      3  N   UNL     1       2.957   8.550  -3.607  1.00  0.00    -0.352 N 
ATOM      4  C   UNL     1       3.906   7.591  -3.447  1.00  0.00     0.251 C 
ATOM      5  O   UNL     1       5.073   7.953  -3.615  1.00  0.00    -0.269 OA
ATOM      6  H   UNL     1       3.335   9.426  -3.851  1.00  0.00     0.163 HD
BRANCH   4   7
ATOM      7  C   UNL     1       3.589   6.138  -3.170  1.00  0.00     0.047 C 
ATOM      8  C   UNL     1       2.551   5.773  -2.383  1.00  0.00     0.022 C 
BRANCH   8   9
ATOM      9  C   UNL     1       2.023   4.423  -2.080  1.00  0.00    -0.025 A 
ATOM     10  C   UNL     1       0.874   1.893  -1.685  1.00  0.00     0.067 A 
ATOM     11  C   UNL     1       2.261   2.039  -1.651  1.00  0.00     0.021 A 
ATOM     12  C   UNL     1       0.049   2.999  -1.878  1.00  0.00     0.021 A 
ATOM     13  C   UNL     1       2.825   3.308  -1.810  1.00  0.00     0.009 A 
ATOM     14  C   UNL     1       0.627   4.257  -2.076  1.00  0.00     0.009 A 
BRANCH  10  15
ATOM     15  S   UNL     1       0.176   0.271  -1.505  1.00  0.00     0.175 S 
ATOM     16  C   UNL     1       0.687  -0.236   0.115  1.00  0.00     0.163 C 
ATOM     17  O   UNL     1       0.825  -0.581  -2.478  1.00  0.00    -0.224 OA
ATOM     18  O   UNL     1      -1.272   0.409  -1.484  1.00  0.00    -0.224 OA
ENDBRANCH  10  15
ENDBRANCH   8   9
BRANCH   7  19
ATOM     19  C   UNL     1       4.576   5.138  -3.651  1.00  0.00    -0.013 A 
ATOM     20  C   UNL     1       5.853   5.113  -3.061  1.00  0.00     0.009 A 
ATOM     21  C   UNL     1       4.254   4.164  -4.605  1.00  0.00     0.009 A 
ATOM     22  C   UNL     1       6.776   4.123  -3.392  1.00  0.00     0.001 A 
ATOM     23  C   UNL     1       5.177   3.162  -4.925  1.00  0.00     0.001 A 
ATOM     24  C   UNL     1       6.433   3.139  -4.315  1.00  0.00     0.000 A 
ENDBRANCH   7  19
ENDBRANCH   4   7
ENDBRANCH   2   3
ENDBRANCH   1   2
BRANCH   1  25
ATOM     25  C   UNL     1       1.356  10.719  -2.106  1.00  0.00     0.118 C 
BRANCH  25  26
ATOM     26  N   UNL     1       0.534  11.481  -3.035  1.00  0.00    -0.352 N 
ATOM     27  C   UNL     1      -0.350  12.504  -2.799  1.00  0.00     0.251 C 
ATOM     28  H   UNL     1       0.628  11.222  -3.980  1.00  0.00     0.163 HD
ATOM     29  O   UNL     1      -1.113  12.848  -3.699  1.00  0.00    -0.269 OA
BRANCH  27  30
ATOM     30  C   UNL     1      -0.403  13.180  -1.482  1.00  0.00     0.039 A 
ATOM     31  C   UNL     1      -1.650  13.532  -0.958  1.00  0.00     0.014 A 
ATOM     32  C   UNL     1       0.763  13.520  -0.789  1.00  0.00     0.014 A 
ATOM     33  C   UNL     1      -1.732  14.177   0.281  1.00  0.00     0.010 A 
ATOM     34  C   UNL     1       0.678  14.107   0.473  1.00  0.00     0.010 A 
ATOM     35  C   UNL     1      -0.570  14.446   1.021  1.00  0.00    -0.014 A 
BRANCH  35  36
ATOM     36  C   UNL     1      -0.640  15.081   2.365  1.00  0.00     0.031 A 
ATOM     37  C   UNL     1      -0.037  16.442   2.591  1.00  0.00     0.074 A 
ATOM     38  C   UNL     1      -1.183  14.401   3.395  1.00  0.00     0.049 A 
ATOM     39  N   UNL     1       0.088  17.117   3.705  1.00  0.00    -0.248 NA
ATOM     40  C   UNL     1       0.526  17.119   1.413  1.00  0.00     0.031 C 
ATOM     41  C   UNL     1      -1.761  13.058   3.307  1.00  0.00     0.029 A 
ATOM     42  N   UNL     1      -1.321  14.733   4.720  1.00  0.00    -0.354 N 
ATOM     43  C   UNL     1       0.767  18.285   3.369  1.00  0.00     0.074 A 
ATOM     44  C   UNL     1       1.061  18.204   1.954  1.00  0.00     0.031 C 
ATOM     45  C   UNL     1      -2.196  12.686   4.522  1.00  0.00     0.029 A 
ATOM     46  C   UNL     1      -1.890  13.740   5.484  1.00  0.00     0.049 A 
ATOM     47  H   UNL     1      -1.039  15.601   5.089  1.00  0.00     0.167 HD
ATOM     48  C   UNL     1       1.101  19.331   4.166  1.00  0.00     0.034 A 
ATOM     49  C   UNL     1      -2.120  13.675   6.810  1.00  0.00     0.034 A 
ATOM     50  C   UNL     1       0.773  19.407   5.569  1.00  0.00     0.049 A 
ATOM     51  C   UNL     1      -1.750  14.856   7.672  1.00  0.00     0.074 A 
ATOM     52  C   UNL     1       0.990  20.455   6.448  1.00  0.00     0.029 A 
ATOM     53  N   UNL     1       0.168  18.394   6.303  1.00  0.00    -0.354 N 
ATOM     54  N   UNL     1      -1.168  15.981   7.324  1.00  0.00    -0.248 NA
ATOM     55  C   UNL     1      -2.079  14.765   9.100  1.00  0.00     0.031 C 
ATOM     56  C   UNL     1       0.579  20.051   7.723  1.00  0.00     0.029 A 
ATOM     57  C   UNL     1       0.035  18.780   7.628  1.00  0.00     0.049 A 
ATOM     58  H   UNL     1      -0.123  17.529   5.935  1.00  0.00     0.167 HD
ATOM     59  C   UNL     1      -1.092  16.743   8.487  1.00  0.00     0.074 A 
ATOM     60  C   UNL     1      -1.701  15.956   9.540  1.00  0.00     0.031 C 
ATOM     61  C   UNL     1      -0.569  17.982   8.669  1.00  0.00     0.034 A 
BRANCH  48  62
ATOM     62  C   UNL     1       1.887  20.462   3.547  1.00  0.00     0.023 A 
ATOM     63  C   UNL     1       1.353  21.269   2.528  1.00  0.00     0.031 A 
ATOM     64  C   UNL     1       3.196  20.736   3.985  1.00  0.00     0.131 A 
ATOM     65  C   UNL     1       2.144  22.266   1.936  1.00  0.00     0.055 A 
ATOM     66  C   UNL     1       3.951  21.779   3.445  1.00  0.00     0.041 A 
ATOM     67  F   UNL     1       3.766  19.988   4.942  1.00  0.00    -0.206 F 
ATOM     68  C   UNL     1       3.430  22.544   2.405  1.00  0.00     0.022 A 
BRANCH  65  69
ATOM     69  S   UNL     1       1.513  23.114   0.462  1.00  0.00     0.124 S 
ATOM     70  O   UNL     1       1.333  21.999  -0.465  1.00  0.00    -0.237 OA
ATOM     71  O   UNL     1       0.291  23.738   0.955  1.00  0.00    -0.237 OA
ATOM     72  O   UNL     1       2.589  24.039   0.111  1.00  0.00    -0.744 OA
ENDBRANCH  65  69
ENDBRANCH  48  62
BRANCH  49  73
ATOM     73  C   UNL     1      -2.711  12.446   7.417  1.00  0.00     0.023 A 
ATOM     74  C   UNL     1      -3.968  12.476   8.040  1.00  0.00     0.031 A 
ATOM     75  C   UNL     1      -2.000  11.233   7.426  1.00  0.00     0.131 A 
ATOM     76  C   UNL     1      -4.453  11.331   8.692  1.00  0.00     0.055 A 
ATOM     77  C   UNL     1      -2.511  10.081   8.027  1.00  0.00     0.041 A 
ATOM     78  F   UNL     1      -0.795  11.146   6.838  1.00  0.00    -0.206 F 
ATOM     79  C   UNL     1      -3.739  10.131   8.679  1.00  0.00     0.022 A 
BRANCH  76  80
ATOM     80  S   UNL     1      -5.992  11.461   9.644  1.00  0.00     0.124 S 
ATOM     81  O   UNL     1      -5.681  12.548  10.565  1.00  0.00    -0.237 OA
ATOM     82  O   UNL     1      -6.966  11.762   8.601  1.00  0.00    -0.237 OA
ATOM     83  O   UNL     1      -6.124  10.141  10.256  1.00  0.00    -0.744 OA
ENDBRANCH  76  80
ENDBRANCH  49  73
BRANCH  61  84
ATOM     84  C   UNL     1      -0.683  18.578  10.050  1.00  0.00     0.023 A 
ATOM     85  C   UNL     1       0.019  18.047  11.146  1.00  0.00     0.031 A 
ATOM     86  C   UNL     1      -1.516  19.690  10.272  1.00  0.00     0.131 A 
ATOM     87  C   UNL     1      -0.168  18.593  12.425  1.00  0.00     0.055 A 
ATOM     88  C   UNL     1      -1.651  20.266  11.536  1.00  0.00     0.041 A 
ATOM     89  F   UNL     1      -2.211  20.236   9.261  1.00  0.00    -0.206 F 
ATOM     90  C   UNL     1      -0.986  19.709  12.624  1.00  0.00     0.022 A 
BRANCH  87  91
ATOM     91  S   UNL     1       0.603  17.769  13.845  1.00  0.00     0.124 S 
ATOM     92  O   UNL     1       0.029  16.430  13.768  1.00  0.00    -0.237 OA
ATOM     93  O   UNL     1       2.025  17.873  13.533  1.00  0.00    -0.237 OA
ATOM     94  O   UNL     1       0.161  18.568  14.987  1.00  0.00    -0.744 OA
ENDBRANCH  87  91
ENDBRANCH  61  84
ENDBRANCH  35  36
ENDBRANCH  27  30
ENDBRANCH  25  26
ENDBRANCH   1  25
TORSDOF 16
