REMARK SMILES CC[C@@H]1SC[C@H](C(=O)NCCCNC(=O)c2ccc(-c3c4nc(c(-c5cc(S(=O)(=O)[O-])ccc5F)c5ccc([nH]5)c(-c5cc(S(=O)(=O)[O-])ccc5F)c5nc(c(-c6cc(S(=O)(=O)[O-])ccc6F)c6ccc3[nH]6)C=C5)C=C4)cc2)N1C(=O)[C@](C)([NH3+])C(F)(F)F
REMARK SMILES IDX 11 1 10 2 9 3 7 4 8 5 6 7 3 8 4 9 79 10 5 11 2 12 1 13 80 14
REMARK SMILES IDX 81 15 82 16 83 17 84 18 85 22 86 23 87 24 88 25 12 26 13 27
REMARK SMILES IDX 14 28 15 30 16 31 17 32 78 33 18 34 77 35 19 36 20 37 21 38
REMARK SMILES IDX 71 39 22 40 76 41 70 42 72 43 23 44 75 45 69 46 68 47 24 49
REMARK SMILES IDX 56 50 36 51 55 52 37 53 40 54 54 55 73 56 38 57 39 58 53 60
REMARK SMILES IDX 74 61 41 62 25 63 26 64 34 65 27 66 33 67 35 68 32 69 28 70
REMARK SMILES IDX 29 71 30 72 31 73 57 74 58 75 66 76 59 77 65 78 67 79 64 80
REMARK SMILES IDX 60 81 61 82 62 83 63 84 42 85 43 86 51 87 44 88 50 89 52 90
REMARK SMILES IDX 49 91 45 92 46 93 47 94 48 95
REMARK H PARENT 9 6 84 19 84 20 84 21 13 29 72 48 40 59
REMARK Flexibility Score: inf
ROOT
ATOM      1  C   UNL     1      -2.482  -2.959   4.872  1.00  0.00     0.042 C 
ENDROOT
BRANCH   1   2
ATOM      2  C   UNL     1      -3.208  -1.738   4.325  1.00  0.00     0.117 C 
BRANCH   2   3
ATOM      3  N   UNL     1      -2.980  -0.535   5.109  1.00  0.00    -0.354 N 
ATOM      4  C   UNL     1      -2.202   0.557   4.828  1.00  0.00     0.243 C 
ATOM      5  O   UNL     1      -2.205   1.495   5.628  1.00  0.00    -0.273 OA
ATOM      6  H   UNL     1      -3.455  -0.501   5.971  1.00  0.00     0.163 HD
BRANCH   4   7
ATOM      7  C   UNL     1      -1.438   0.625   3.487  1.00  0.00     0.185 C 
ATOM      8  C   UNL     1      -0.239   2.441   2.305  1.00  0.00     0.144 C 
ATOM      9  S   UNL     1      -1.548   1.880   1.161  1.00  0.00    -0.134 SA
ATOM     10  N   UNL     1      -0.323   1.617   3.514  1.00  0.00    -0.312 N 
ATOM     11  C   UNL     1      -2.452   0.966   2.406  1.00  0.00     0.107 C 
BRANCH   8  12
ATOM     12  C   UNL     1      -0.348   3.974   2.407  1.00  0.00     0.033 C 
ATOM     13  C   UNL     1      -1.131   4.542   3.577  1.00  0.00     0.007 C 
ENDBRANCH   8  12
BRANCH  10  14
ATOM     14  C   UNL     1       0.715   1.272   4.372  1.00  0.00     0.294 C 
ATOM     15  O   UNL     1       0.683   0.134   4.882  1.00  0.00    -0.267 OA
BRANCH  14  16
ATOM     16  C   UNL     1       1.938   2.151   4.775  1.00  0.00     0.267 C 
ATOM     17  C   UNL     1       2.334   3.376   3.973  1.00  0.00     0.100 C 
BRANCH  16  18
ATOM     18  N   UNL     1       3.151   1.244   4.670  1.00  0.00    -0.337 N 
ATOM     19  H   UNL     1       3.990   1.766   4.923  1.00  0.00     0.345 HD
ATOM     20  H   UNL     1       3.239   0.903   3.712  1.00  0.00     0.345 HD
ATOM     21  H   UNL     1       3.039   0.452   5.303  1.00  0.00     0.345 HD
ENDBRANCH  16  18
BRANCH  16  22
ATOM     22  C   UNL     1       1.613   2.614   6.227  1.00  0.00     0.453 C 
ATOM     23  F   UNL     1       2.623   3.374   6.729  1.00  0.00    -0.164 F 
ATOM     24  F   UNL     1       0.504   3.389   6.264  1.00  0.00    -0.164 F 
ATOM     25  F   UNL     1       1.437   1.588   7.085  1.00  0.00    -0.164 F 
ENDBRANCH  16  22
ENDBRANCH  14  16
ENDBRANCH  10  14
ENDBRANCH   4   7
ENDBRANCH   2   3
ENDBRANCH   1   2
BRANCH   1  26
ATOM     26  C   UNL     1      -3.003  -3.453   6.218  1.00  0.00     0.118 C 
BRANCH  26  27
ATOM     27  N   UNL     1      -4.390  -3.891   6.157  1.00  0.00    -0.352 N 
ATOM     28  C   UNL     1      -4.967  -5.090   6.498  1.00  0.00     0.251 C 
ATOM     29  H   UNL     1      -5.019  -3.216   5.814  1.00  0.00     0.163 HD
ATOM     30  O   UNL     1      -6.136  -5.289   6.176  1.00  0.00    -0.269 OA
BRANCH  28  31
ATOM     31  C   UNL     1      -4.207  -6.136   7.223  1.00  0.00     0.039 A 
ATOM     32  C   UNL     1      -4.474  -7.479   6.933  1.00  0.00     0.014 A 
ATOM     33  C   UNL     1      -3.284  -5.819   8.223  1.00  0.00     0.014 A 
ATOM     34  C   UNL     1      -3.792  -8.491   7.612  1.00  0.00     0.010 A 
ATOM     35  C   UNL     1      -2.542  -6.826   8.838  1.00  0.00     0.010 A 
ATOM     36  C   UNL     1      -2.803  -8.174   8.557  1.00  0.00    -0.014 A 
BRANCH  36  37
ATOM     37  C   UNL     1      -2.072  -9.244   9.287  1.00  0.00     0.031 A 
ATOM     38  C   UNL     1      -2.223  -9.377  10.781  1.00  0.00     0.074 A 
ATOM     39  C   UNL     1      -1.252 -10.074   8.613  1.00  0.00     0.049 A 
ATOM     40  N   UNL     1      -1.658 -10.229  11.599  1.00  0.00    -0.248 NA
ATOM     41  C   UNL     1      -3.100  -8.402  11.445  1.00  0.00     0.031 C 
ATOM     42  C   UNL     1      -0.984 -10.011   7.174  1.00  0.00     0.029 A 
ATOM     43  N   UNL     1      -0.492 -11.131   9.045  1.00  0.00    -0.354 N 
ATOM     44  C   UNL     1      -2.101  -9.884  12.873  1.00  0.00     0.074 A 
ATOM     45  C   UNL     1      -2.923  -8.703  12.722  1.00  0.00     0.031 C 
ATOM     46  C   UNL     1      -0.149 -11.008   6.839  1.00  0.00     0.029 A 
ATOM     47  C   UNL     1       0.208 -11.757   8.039  1.00  0.00     0.049 A 
ATOM     48  H   UNL     1      -0.451 -11.416   9.986  1.00  0.00     0.167 HD
ATOM     49  C   UNL     1      -1.867 -10.509  14.055  1.00  0.00     0.034 A 
ATOM     50  C   UNL     1       1.040 -12.817   8.080  1.00  0.00     0.034 A 
ATOM     51  C   UNL     1      -1.055 -11.695  14.185  1.00  0.00     0.049 A 
ATOM     52  C   UNL     1       1.272 -13.506   9.400  1.00  0.00     0.074 A 
ATOM     53  C   UNL     1      -0.780 -12.435  15.322  1.00  0.00     0.029 A 
ATOM     54  N   UNL     1      -0.383 -12.317  13.139  1.00  0.00    -0.354 N 
ATOM     55  N   UNL     1       0.804 -13.198  10.589  1.00  0.00    -0.248 NA
ATOM     56  C   UNL     1       2.125 -14.700   9.379  1.00  0.00     0.031 C 
ATOM     57  C   UNL     1       0.102 -13.465  14.975  1.00  0.00     0.029 A 
ATOM     58  C   UNL     1       0.318 -13.418  13.607  1.00  0.00     0.049 A 
ATOM     59  H   UNL     1      -0.401 -12.018  12.201  1.00  0.00     0.167 HD
ATOM     60  C   UNL     1       1.278 -14.185  11.449  1.00  0.00     0.074 A 
ATOM     61  C   UNL     1       2.049 -15.105  10.637  1.00  0.00     0.031 C 
ATOM     62  C   UNL     1       1.090 -14.323  12.787  1.00  0.00     0.034 A 
BRANCH  49  63
ATOM     63  C   UNL     1      -2.484  -9.901  15.294  1.00  0.00     0.023 A 
ATOM     64  C   UNL     1      -3.878  -9.784  15.445  1.00  0.00     0.031 A 
ATOM     65  C   UNL     1      -1.671  -9.394  16.323  1.00  0.00     0.131 A 
ATOM     66  C   UNL     1      -4.411  -9.103  16.550  1.00  0.00     0.055 A 
ATOM     67  C   UNL     1      -2.211  -8.794  17.463  1.00  0.00     0.041 A 
ATOM     68  F   UNL     1      -0.333  -9.456  16.230  1.00  0.00    -0.206 F 
ATOM     69  C   UNL     1      -3.588  -8.630  17.573  1.00  0.00     0.022 A 
BRANCH  66  70
ATOM     70  S   UNL     1      -6.182  -8.708  16.551  1.00  0.00     0.124 S 
ATOM     71  O   UNL     1      -6.306  -7.905  15.336  1.00  0.00    -0.237 OA
ATOM     72  O   UNL     1      -6.801 -10.027  16.512  1.00  0.00    -0.237 OA
ATOM     73  O   UNL     1      -6.367  -7.968  17.799  1.00  0.00    -0.744 OA
ENDBRANCH  66  70
ENDBRANCH  49  63
BRANCH  50  74
ATOM     74  C   UNL     1       1.702 -13.306   6.837  1.00  0.00     0.023 A 
ATOM     75  C   UNL     1       1.413 -14.576   6.313  1.00  0.00     0.031 A 
ATOM     76  C   UNL     1       2.668 -12.526   6.177  1.00  0.00     0.131 A 
ATOM     77  C   UNL     1       2.117 -15.050   5.196  1.00  0.00     0.055 A 
ATOM     78  C   UNL     1       3.329 -12.981   5.034  1.00  0.00     0.041 A 
ATOM     79  F   UNL     1       2.976 -11.300   6.630  1.00  0.00    -0.206 F 
ATOM     80  C   UNL     1       3.065 -14.257   4.546  1.00  0.00     0.022 A 
BRANCH  77  81
ATOM     81  S   UNL     1       1.836 -16.758   4.652  1.00  0.00     0.124 S 
ATOM     82  O   UNL     1       2.171 -17.512   5.854  1.00  0.00    -0.237 OA
ATOM     83  O   UNL     1       0.425 -16.730   4.284  1.00  0.00    -0.237 OA
ATOM     84  O   UNL     1       2.766 -16.916   3.535  1.00  0.00    -0.744 OA
ENDBRANCH  77  81
ENDBRANCH  50  74
BRANCH  62  85
ATOM     85  C   UNL     1       1.688 -15.549  13.437  1.00  0.00     0.023 A 
ATOM     86  C   UNL     1       3.077 -15.757  13.492  1.00  0.00     0.031 A 
ATOM     87  C   UNL     1       0.849 -16.543  13.972  1.00  0.00     0.131 A 
ATOM     88  C   UNL     1       3.583 -16.965  13.996  1.00  0.00     0.055 A 
ATOM     89  C   UNL     1       1.362 -17.712  14.536  1.00  0.00     0.041 A 
ATOM     90  F   UNL     1      -0.485 -16.399  13.946  1.00  0.00    -0.206 F 
ATOM     91  C   UNL     1       2.735 -17.937  14.533  1.00  0.00     0.022 A 
BRANCH  88  92
ATOM     92  S   UNL     1       5.357 -17.304  13.822  1.00  0.00     0.124 S 
ATOM     93  O   UNL     1       5.561 -17.131  12.388  1.00  0.00    -0.237 OA
ATOM     94  O   UNL     1       5.954 -16.285  14.679  1.00  0.00    -0.237 OA
ATOM     95  O   UNL     1       5.492 -18.677  14.306  1.00  0.00    -0.744 OA
ENDBRANCH  88  92
ENDBRANCH  62  85
ENDBRANCH  36  37
ENDBRANCH  28  31
ENDBRANCH  26  27
ENDBRANCH   1  26
TORSDOF 18
