REMARK SMILES N#CCNC(=O)Cn1ccc(C(=O)NCCCNC(=O)c2ccc(-c3c4nc(c(-c5cc(S(=O)(=O)[O-])ccc5F)c5ccc([nH]5)c(-c5cc(S(=O)(=O)[O-])ccc5F)c5nc(c(-c6cc(S(=O)(=O)[O-])ccc6F)c6ccc3[nH]6)C=C5)C=C4)cc2)c1
REMARK SMILES IDX 15 1 14 2 12 3 13 4 11 6 8 7 9 8 84 9 10 10 7 11 5 12 4 13
REMARK SMILES IDX 6 15 3 16 2 17 1 18 16 19 17 20 18 21 19 22 20 24 21 25
REMARK SMILES IDX 22 26 83 27 23 28 82 29 24 30 25 31 26 32 76 33 27 34 81 35
REMARK SMILES IDX 75 36 77 37 28 38 80 39 74 40 73 41 29 43 61 44 41 45 60 46
REMARK SMILES IDX 42 47 45 48 59 49 78 50 43 51 44 52 58 54 79 55 46 56 30 57
REMARK SMILES IDX 31 58 39 59 32 60 38 61 40 62 37 63 33 64 34 65 35 66 36 67
REMARK SMILES IDX 62 68 63 69 71 70 64 71 70 72 72 73 69 74 65 75 66 76 67 77
REMARK SMILES IDX 68 78 47 79 48 80 56 81 49 82 55 83 57 84 54 85 50 86 51 87
REMARK SMILES IDX 52 88 53 89
REMARK H PARENT 14 5 4 14 18 23 77 42 45 53
REMARK Flexibility Score: inf
ROOT
ATOM      1  C   UNL     1       2.647   1.933  -3.121  1.00  0.00     0.118 C 
ENDROOT
BRANCH   1   2
ATOM      2  N   UNL     1       1.821   1.170  -4.030  1.00  0.00    -0.352 N 
ATOM      3  C   UNL     1       1.731  -0.187  -4.251  1.00  0.00     0.252 C 
ATOM      4  O   UNL     1       0.823  -0.592  -4.965  1.00  0.00    -0.269 OA
ATOM      5  H   UNL     1       1.220   1.714  -4.588  1.00  0.00     0.163 HD
BRANCH   3   6
ATOM      6  C   UNL     1       2.651  -1.115  -3.593  1.00  0.00     0.057 A 
ATOM      7  N   UNL     1       4.326  -1.998  -2.410  1.00  0.00    -0.344 N 
ATOM      8  C   UNL     1       3.421  -3.006  -2.580  1.00  0.00     0.087 A 
ATOM      9  C   UNL     1       3.958  -0.922  -3.178  1.00  0.00     0.100 A 
ATOM     10  C   UNL     1       2.364  -2.485  -3.293  1.00  0.00     0.033 A 
BRANCH   7  11
ATOM     11  C   UNL     1       5.455  -2.020  -1.496  1.00  0.00     0.221 C 
BRANCH  11  12
ATOM     12  C   UNL     1       5.020  -2.140  -0.046  1.00  0.00     0.240 C 
ATOM     13  N   UNL     1       4.294  -1.159   0.566  1.00  0.00    -0.341 N 
ATOM     14  H   UNL     1       4.102  -1.320   1.518  1.00  0.00     0.164 HD
ATOM     15  O   UNL     1       5.366  -3.105   0.641  1.00  0.00    -0.273 OA
BRANCH  13  16
ATOM     16  C   UNL     1       3.757   0.090   0.037  1.00  0.00     0.236 C 
BRANCH  16  17
ATOM     17  C   UNL     1       2.237   0.090   0.037  1.00  0.00     0.084 C 
ATOM     18  N   UNL     1       0.976   0.090   0.037  1.00  0.00    -0.196 NA
ENDBRANCH  16  17
ENDBRANCH  13  16
ENDBRANCH  11  12
ENDBRANCH   7  11
ENDBRANCH   3   6
ENDBRANCH   1   2
BRANCH   1  19
ATOM     19  C   UNL     1       3.836   2.591  -3.819  1.00  0.00     0.042 C 
BRANCH  19  20
ATOM     20  C   UNL     1       3.453   3.939  -4.415  1.00  0.00     0.118 C 
BRANCH  20  21
ATOM     21  N   UNL     1       3.244   4.923  -3.360  1.00  0.00    -0.352 N 
ATOM     22  C   UNL     1       2.868   6.237  -3.459  1.00  0.00     0.251 C 
ATOM     23  H   UNL     1       3.395   4.596  -2.444  1.00  0.00     0.163 HD
ATOM     24  O   UNL     1       3.078   6.986  -2.509  1.00  0.00    -0.269 OA
BRANCH  22  25
ATOM     25  C   UNL     1       2.250   6.756  -4.693  1.00  0.00     0.039 A 
ATOM     26  C   UNL     1       2.635   8.026  -5.137  1.00  0.00     0.014 A 
ATOM     27  C   UNL     1       1.263   6.033  -5.374  1.00  0.00     0.014 A 
ATOM     28  C   UNL     1       2.080   8.540  -6.302  1.00  0.00     0.010 A 
ATOM     29  C   UNL     1       0.734   6.529  -6.558  1.00  0.00     0.010 A 
ATOM     30  C   UNL     1       1.152   7.778  -7.024  1.00  0.00    -0.014 A 
BRANCH  30  31
ATOM     31  C   UNL     1       0.754   8.247  -8.370  1.00  0.00     0.031 A 
ATOM     32  C   UNL     1       1.919   8.029  -9.380  1.00  0.00     0.074 A 
ATOM     33  C   UNL     1      -0.495   8.809  -8.471  1.00  0.00     0.049 A 
ATOM     34  N   UNL     1       2.327   8.759 -10.373  1.00  0.00    -0.248 NA
ATOM     35  C   UNL     1       2.849   6.876  -9.174  1.00  0.00     0.031 C 
ATOM     36  C   UNL     1      -1.493   8.894  -7.370  1.00  0.00     0.029 A 
ATOM     37  N   UNL     1      -1.193   9.422  -9.490  1.00  0.00    -0.354 N 
ATOM     38  C   UNL     1       3.369   8.058 -11.039  1.00  0.00     0.074 A 
ATOM     39  C   UNL     1       3.740   6.988 -10.164  1.00  0.00     0.031 C 
ATOM     40  C   UNL     1      -2.595   9.584  -7.750  1.00  0.00     0.029 A 
ATOM     41  C   UNL     1      -2.442  10.016  -9.124  1.00  0.00     0.049 A 
ATOM     42  H   UNL     1      -0.853   9.449 -10.413  1.00  0.00     0.167 HD
ATOM     43  C   UNL     1       3.746   8.317 -12.331  1.00  0.00     0.034 A 
ATOM     44  C   UNL     1      -3.249  10.849  -9.863  1.00  0.00     0.034 A 
ATOM     45  C   UNL     1       2.913   9.346 -12.854  1.00  0.00     0.049 A 
ATOM     46  C   UNL     1      -2.587  10.890 -11.176  1.00  0.00     0.074 A 
ATOM     47  C   UNL     1       2.844  10.692 -12.627  1.00  0.00     0.029 A 
ATOM     48  N   UNL     1       1.774   8.936 -13.507  1.00  0.00    -0.354 N 
ATOM     49  N   UNL     1      -2.594   9.932 -12.053  1.00  0.00    -0.248 NA
ATOM     50  C   UNL     1      -1.742  12.052 -11.486  1.00  0.00     0.031 C 
ATOM     51  C   UNL     1       1.456  10.931 -12.649  1.00  0.00     0.029 A 
ATOM     52  C   UNL     1       0.780   9.802 -13.137  1.00  0.00     0.049 A 
ATOM     53  H   UNL     1       1.689   8.170 -14.120  1.00  0.00     0.167 HD
ATOM     54  C   UNL     1      -1.534  10.261 -12.860  1.00  0.00     0.074 A 
ATOM     55  C   UNL     1      -1.306  11.679 -12.684  1.00  0.00     0.031 C 
ATOM     56  C   UNL     1      -0.590   9.331 -13.160  1.00  0.00     0.034 A 
BRANCH  43  57
ATOM     57  C   UNL     1       4.619   7.625 -13.357  1.00  0.00     0.023 A 
ATOM     58  C   UNL     1       4.900   8.366 -14.539  1.00  0.00     0.031 A 
ATOM     59  C   UNL     1       4.892   6.255 -13.412  1.00  0.00     0.131 A 
ATOM     60  C   UNL     1       5.257   7.741 -15.740  1.00  0.00     0.055 A 
ATOM     61  C   UNL     1       5.325   5.637 -14.601  1.00  0.00     0.041 A 
ATOM     62  F   UNL     1       4.674   5.454 -12.361  1.00  0.00    -0.206 F 
ATOM     63  C   UNL     1       5.467   6.370 -15.781  1.00  0.00     0.022 A 
BRANCH  60  64
ATOM     64  S   UNL     1       5.246   8.735 -17.264  1.00  0.00     0.124 S 
ATOM     65  O   UNL     1       3.887   9.264 -17.277  1.00  0.00    -0.237 OA
ATOM     66  O   UNL     1       6.306   9.705 -17.005  1.00  0.00    -0.237 OA
ATOM     67  O   UNL     1       5.544   7.758 -18.309  1.00  0.00    -0.744 OA
ENDBRANCH  60  64
ENDBRANCH  43  57
BRANCH  44  68
ATOM     68  C   UNL     1      -4.458  11.776  -9.698  1.00  0.00     0.023 A 
ATOM     69  C   UNL     1      -5.402  11.787  -8.653  1.00  0.00     0.031 A 
ATOM     70  C   UNL     1      -4.680  12.793 -10.686  1.00  0.00     0.131 A 
ATOM     71  C   UNL     1      -6.409  12.805  -8.600  1.00  0.00     0.055 A 
ATOM     72  C   UNL     1      -5.595  13.838 -10.576  1.00  0.00     0.041 A 
ATOM     73  F   UNL     1      -4.019  12.823 -11.850  1.00  0.00    -0.206 F 
ATOM     74  C   UNL     1      -6.461  13.860  -9.515  1.00  0.00     0.022 A 
BRANCH  71  75
ATOM     75  S   UNL     1      -7.720  12.802  -7.333  1.00  0.00     0.124 S 
ATOM     76  O   UNL     1      -8.717  11.922  -7.933  1.00  0.00    -0.237 OA
ATOM     77  O   UNL     1      -7.032  12.290  -6.154  1.00  0.00    -0.237 OA
ATOM     78  O   UNL     1      -8.112  14.210  -7.250  1.00  0.00    -0.744 OA
ENDBRANCH  71  75
ENDBRANCH  44  68
BRANCH  56  79
ATOM     79  C   UNL     1      -1.056   7.880 -13.076  1.00  0.00     0.023 A 
ATOM     80  C   UNL     1      -2.146   7.438 -13.849  1.00  0.00     0.031 A 
ATOM     81  C   UNL     1      -0.519   6.933 -12.185  1.00  0.00     0.131 A 
ATOM     82  C   UNL     1      -2.656   6.130 -13.706  1.00  0.00     0.055 A 
ATOM     83  C   UNL     1      -1.019   5.631 -12.040  1.00  0.00     0.041 A 
ATOM     84  F   UNL     1       0.513   7.240 -11.405  1.00  0.00    -0.206 F 
ATOM     85  C   UNL     1      -2.098   5.223 -12.804  1.00  0.00     0.022 A 
BRANCH  82  86
ATOM     86  S   UNL     1      -4.047   5.604 -14.743  1.00  0.00     0.124 S 
ATOM     87  O   UNL     1      -5.155   6.389 -14.213  1.00  0.00    -0.237 OA
ATOM     88  O   UNL     1      -3.591   5.961 -16.083  1.00  0.00    -0.237 OA
ATOM     89  O   UNL     1      -4.135   4.164 -14.493  1.00  0.00    -0.744 OA
ENDBRANCH  82  86
ENDBRANCH  56  79
ENDBRANCH  30  31
ENDBRANCH  22  25
ENDBRANCH  20  21
ENDBRANCH  19  20
ENDBRANCH   1  19
TORSDOF 17
