REMARK SMILES CCCC(=O)Nc1cccc(C(=O)N[C@@H](C(=O)NCCCNC(=O)c2ccc(-c3c4nc(c(-c5cc(S(=O)(=O)[O-])ccc5F)c5ccc([nH]5)c(-c5cc(S(=O)(=O)[O-])ccc5F)c5nc(c(-c6cc(S(=O)(=O)[O-])ccc6F)c6ccc3[nH]6)C=C5)C=C4)cc2)C2=C(C)N=N[C@@H]2C)c1
REMARK SMILES IDX 19 1 18 2 16 3 17 4 15 6 14 7 12 8 13 9 11 11 7 12 8 13
REMARK SMILES IDX 95 14 9 15 10 16 6 17 4 18 5 19 3 21 2 22 1 23 88 24 89 25
REMARK SMILES IDX 93 26 90 27 91 28 92 29 94 30 20 31 21 32 22 33 23 34 24 36
REMARK SMILES IDX 25 37 26 38 87 39 27 40 86 41 28 42 29 43 30 44 80 45 31 46
REMARK SMILES IDX 85 47 79 48 81 49 32 50 84 51 78 52 77 53 33 55 65 56 45 57
REMARK SMILES IDX 64 58 46 59 49 60 63 61 82 62 47 63 48 64 62 66 83 67 50 68
REMARK SMILES IDX 34 69 35 70 43 71 36 72 42 73 44 74 41 75 37 76 38 77 39 78
REMARK SMILES IDX 40 79 66 80 67 81 75 82 68 83 74 84 76 85 73 86 69 87 70 88
REMARK SMILES IDX 71 89 72 90 51 91 52 92 60 93 53 94 59 95 61 96 58 97 54 98
REMARK SMILES IDX 55 99 56 100 57 101
REMARK H PARENT 18 5 14 10 6 20 22 35 81 54 49 65
REMARK Flexibility Score: inf
ROOT
ATOM      1  C   UNL     1      -1.889   0.209   1.960  1.00  0.00     0.117 C 
ENDROOT
BRANCH   1   2
ATOM      2  N   UNL     1      -2.574   1.093   1.055  1.00  0.00    -0.354 N 
ATOM      3  C   UNL     1      -2.064   1.851   0.046  1.00  0.00     0.247 C 
ATOM      4  O   UNL     1      -2.888   2.478  -0.627  1.00  0.00    -0.272 OA
ATOM      5  H   UNL     1      -3.548   1.160   1.183  1.00  0.00     0.163 HD
BRANCH   3   6
ATOM      6  C   UNL     1      -0.540   1.781  -0.321  1.00  0.00     0.202 C 
BRANCH   6   7
ATOM      7  N   UNL     1       0.361   2.102   0.797  1.00  0.00    -0.337 N 
ATOM      8  C   UNL     1       1.252   1.472   1.633  1.00  0.00     0.252 C 
ATOM      9  O   UNL     1       1.691   2.180   2.546  1.00  0.00    -0.269 OA
ATOM     10  H   UNL     1       0.310   3.062   1.013  1.00  0.00     0.165 HD
BRANCH   8  11
ATOM     11  C   UNL     1       1.754   0.058   1.566  1.00  0.00     0.041 A 
ATOM     12  C   UNL     1       1.847  -2.215   0.681  1.00  0.00     0.041 A 
ATOM     13  C   UNL     1       2.844  -2.570   1.577  1.00  0.00     0.026 A 
ATOM     14  C   UNL     1       1.280  -0.934   0.712  1.00  0.00     0.040 A 
ATOM     15  C   UNL     1       3.338  -1.601   2.446  1.00  0.00     0.003 A 
ATOM     16  C   UNL     1       2.801  -0.304   2.436  1.00  0.00     0.014 A 
BRANCH  12  17
ATOM     17  N   UNL     1       1.349  -3.155  -0.227  1.00  0.00    -0.326 N 
ATOM     18  C   UNL     1       1.111  -2.908  -1.557  1.00  0.00     0.224 C 
ATOM     19  O   UNL     1       0.159  -3.429  -2.134  1.00  0.00    -0.275 OA
ATOM     20  H   UNL     1       1.154  -4.059   0.112  1.00  0.00     0.169 HD
BRANCH  18  21
ATOM     21  C   UNL     1       2.159  -2.088  -2.308  1.00  0.00     0.100 C 
BRANCH  21  22
ATOM     22  C   UNL     1       1.840  -0.613  -2.510  1.00  0.00     0.006 C 
ATOM     23  C   UNL     1       2.772   0.347  -1.770  1.00  0.00     0.004 C 
ENDBRANCH  21  22
ENDBRANCH  18  21
ENDBRANCH  12  17
ENDBRANCH   8  11
ENDBRANCH   6   7
BRANCH   6  24
ATOM     24  C   UNL     1      -0.303   2.703  -1.484  1.00  0.00     0.011 C 
ATOM     25  C   UNL     1      -0.273   4.038  -1.607  1.00  0.00     0.064 C 
ATOM     26  C   UNL     1      -0.241   2.202  -2.894  1.00  0.00     0.156 C 
ATOM     27  C   UNL     1      -0.429   5.099  -0.575  1.00  0.00     0.069 C 
ATOM     28  N   UNL     1      -0.191   4.445  -2.918  1.00  0.00    -0.160 NA
ATOM     29  N   UNL     1      -0.219   3.454  -3.692  1.00  0.00    -0.181 NA
ATOM     30  C   UNL     1      -1.403   1.331  -3.355  1.00  0.00     0.040 C 
ENDBRANCH   6  24
ENDBRANCH   3   6
ENDBRANCH   1   2
BRANCH   1  31
ATOM     31  C   UNL     1      -1.706   0.830   3.333  1.00  0.00     0.042 C 
BRANCH  31  32
ATOM     32  C   UNL     1      -2.990   0.789   4.141  1.00  0.00     0.118 C 
BRANCH  32  33
ATOM     33  N   UNL     1      -3.421  -0.578   4.404  1.00  0.00    -0.352 N 
ATOM     34  C   UNL     1      -3.886  -1.135   5.567  1.00  0.00     0.251 C 
ATOM     35  H   UNL     1      -3.372  -1.190   3.635  1.00  0.00     0.163 HD
ATOM     36  O   UNL     1      -4.010  -2.350   5.646  1.00  0.00    -0.269 OA
BRANCH  34  37
ATOM     37  C   UNL     1      -4.197  -0.259   6.713  1.00  0.00     0.039 A 
ATOM     38  C   UNL     1      -3.842  -0.682   7.994  1.00  0.00     0.014 A 
ATOM     39  C   UNL     1      -4.817   0.978   6.520  1.00  0.00     0.014 A 
ATOM     40  C   UNL     1      -4.071   0.163   9.076  1.00  0.00     0.010 A 
ATOM     41  C   UNL     1      -4.939   1.862   7.582  1.00  0.00     0.010 A 
ATOM     42  C   UNL     1      -4.590   1.454   8.875  1.00  0.00    -0.014 A 
BRANCH  42  43
ATOM     43  C   UNL     1      -4.797   2.371  10.020  1.00  0.00     0.031 A 
ATOM     44  C   UNL     1      -6.183   2.850  10.359  1.00  0.00     0.074 A 
ATOM     45  C   UNL     1      -3.731   2.785  10.730  1.00  0.00     0.049 A 
ATOM     46  N   UNL     1      -6.569   3.635  11.331  1.00  0.00    -0.248 NA
ATOM     47  C   UNL     1      -7.273   2.419   9.470  1.00  0.00     0.031 C 
ATOM     48  C   UNL     1      -2.337   2.435  10.442  1.00  0.00     0.029 A 
ATOM     49  N   UNL     1      -3.648   3.578  11.844  1.00  0.00    -0.354 N 
ATOM     50  C   UNL     1      -7.941   3.795  11.165  1.00  0.00     0.074 A 
ATOM     51  C   UNL     1      -8.302   3.096   9.952  1.00  0.00     0.031 C 
ATOM     52  C   UNL     1      -1.546   2.964  11.388  1.00  0.00     0.029 A 
ATOM     53  C   UNL     1      -2.367   3.727  12.322  1.00  0.00     0.049 A 
ATOM     54  H   UNL     1      -4.432   4.001  12.264  1.00  0.00     0.167 HD
ATOM     55  C   UNL     1      -8.822   4.436  11.971  1.00  0.00     0.034 A 
ATOM     56  C   UNL     1      -1.909   4.398  13.396  1.00  0.00     0.034 A 
ATOM     57  C   UNL     1      -8.437   5.118  13.181  1.00  0.00     0.049 A 
ATOM     58  C   UNL     1      -2.909   5.101  14.278  1.00  0.00     0.074 A 
ATOM     59  C   UNL     1      -9.242   5.764  14.102  1.00  0.00     0.029 A 
ATOM     60  N   UNL     1      -7.130   5.247  13.638  1.00  0.00    -0.354 N 
ATOM     61  N   UNL     1      -4.213   5.189  14.145  1.00  0.00    -0.248 NA
ATOM     62  C   UNL     1      -2.376   5.774  15.467  1.00  0.00     0.031 C 
ATOM     63  C   UNL     1      -8.418   6.345  15.073  1.00  0.00     0.029 A 
ATOM     64  C   UNL     1      -7.105   5.985  14.812  1.00  0.00     0.049 A 
ATOM     65  H   UNL     1      -6.337   4.869  13.193  1.00  0.00     0.167 HD
ATOM     66  C   UNL     1      -4.660   5.899  15.256  1.00  0.00     0.074 A 
ATOM     67  C   UNL     1      -3.486   6.190  16.056  1.00  0.00     0.031 C 
ATOM     68  C   UNL     1      -5.922   6.277  15.589  1.00  0.00     0.034 A 
BRANCH  55  69
ATOM     69  C   UNL     1     -10.274   4.441  11.549  1.00  0.00     0.023 A 
ATOM     70  C   UNL     1     -11.008   3.248  11.405  1.00  0.00     0.031 A 
ATOM     71  C   UNL     1     -10.927   5.649  11.251  1.00  0.00     0.131 A 
ATOM     72  C   UNL     1     -12.316   3.283  10.900  1.00  0.00     0.055 A 
ATOM     73  C   UNL     1     -12.260   5.684  10.835  1.00  0.00     0.041 A 
ATOM     74  F   UNL     1     -10.276   6.819  11.342  1.00  0.00    -0.206 F 
ATOM     75  C   UNL     1     -12.958   4.496  10.641  1.00  0.00     0.022 A 
BRANCH  72  76
ATOM     76  S   UNL     1     -13.110   1.718  10.440  1.00  0.00     0.124 S 
ATOM     77  O   UNL     1     -12.176   1.195   9.446  1.00  0.00    -0.237 OA
ATOM     78  O   UNL     1     -13.159   1.003  11.710  1.00  0.00    -0.237 OA
ATOM     79  O   UNL     1     -14.406   2.135   9.907  1.00  0.00    -0.744 OA
ENDBRANCH  72  76
ENDBRANCH  55  69
BRANCH  56  80
ATOM     80  C   UNL     1      -0.452   4.427  13.708  1.00  0.00     0.023 A 
ATOM     81  C   UNL     1       0.049   3.863  14.892  1.00  0.00     0.031 A 
ATOM     82  C   UNL     1       0.461   5.056  12.842  1.00  0.00     0.131 A 
ATOM     83  C   UNL     1       1.411   3.987  15.206  1.00  0.00     0.055 A 
ATOM     84  C   UNL     1       1.825   5.124  13.130  1.00  0.00     0.041 A 
ATOM     85  F   UNL     1       0.038   5.604  11.692  1.00  0.00    -0.206 F 
ATOM     86  C   UNL     1       2.305   4.602  14.327  1.00  0.00     0.022 A 
BRANCH  83  87
ATOM     87  S   UNL     1       1.984   3.417  16.831  1.00  0.00     0.124 S 
ATOM     88  O   UNL     1       1.141   4.194  17.732  1.00  0.00    -0.237 OA
ATOM     89  O   UNL     1       1.705   1.987  16.764  1.00  0.00    -0.237 OA
ATOM     90  O   UNL     1       3.401   3.774  16.836  1.00  0.00    -0.744 OA
ENDBRANCH  83  87
ENDBRANCH  56  80
BRANCH  68  91
ATOM     91  C   UNL     1      -6.090   7.003  16.903  1.00  0.00     0.023 A 
ATOM     92  C   UNL     1      -5.499   8.257  17.137  1.00  0.00     0.031 A 
ATOM     93  C   UNL     1      -6.816   6.410  17.951  1.00  0.00     0.131 A 
ATOM     94  C   UNL     1      -5.570   8.835  18.413  1.00  0.00     0.055 A 
ATOM     95  C   UNL     1      -6.951   7.028  19.194  1.00  0.00     0.041 A 
ATOM     96  F   UNL     1      -7.400   5.212  17.786  1.00  0.00    -0.206 F 
ATOM     97  C   UNL     1      -6.308   8.237  19.438  1.00  0.00     0.022 A 
BRANCH  94  98
ATOM     98  S   UNL     1      -4.562  10.304  18.756  1.00  0.00     0.124 S 
ATOM     99  O   UNL     1      -3.225   9.845  18.393  1.00  0.00    -0.237 OA
ATOM    100  O   UNL     1      -5.156  11.301  17.872  1.00  0.00    -0.237 OA
ATOM    101  O   UNL     1      -4.772  10.537  20.184  1.00  0.00    -0.744 OA
ENDBRANCH  94  98
ENDBRANCH  68  91
ENDBRANCH  42  43
ENDBRANCH  34  37
ENDBRANCH  32  33
ENDBRANCH  31  32
ENDBRANCH   1  31
TORSDOF 19
