REMARK SMILES O=C(NCCCNC(=O)C1CCN(S(=O)(=O)C2CC2)CC1)c1ccc(-c2c3nc(c(-c4cc(S(=O)(=O)[O-])ccc4F)c4ccc([nH]4)c(-c4cc(S(=O)(=O)[O-])ccc4F)c4nc(c(-c5cc(S(=O)(=O)[O-])ccc5F)c5ccc2[nH]5)C=C4)C=C3)cc1
REMARK SMILES IDX 4 1 3 2 1 3 2 4 22 6 23 7 84 8 24 9 83 10 25 11 26 12 27 13
REMARK SMILES IDX 77 14 28 15 82 16 76 17 78 18 29 19 81 20 75 21 74 22 30 24
REMARK SMILES IDX 62 25 42 26 61 27 43 28 46 29 60 30 79 31 44 32 45 33 59 35
REMARK SMILES IDX 80 36 47 37 31 38 32 39 40 40 33 41 39 42 41 43 38 44 34 45
REMARK SMILES IDX 35 46 36 47 37 48 63 49 64 50 72 51 65 52 71 53 73 54 70 55
REMARK SMILES IDX 66 56 67 57 68 58 69 59 48 60 49 61 57 62 50 63 56 64 58 65
REMARK SMILES IDX 55 66 51 67 52 68 53 69 54 70 5 71 6 72 7 73 8 74 9 76 10 77
REMARK SMILES IDX 11 78 21 79 12 80 20 81 13 82 14 83 15 84 16 85 17 86 18 87
REMARK SMILES IDX 19 88
REMARK H PARENT 3 5 78 23 46 34 7 75
REMARK Flexibility Score: inf
ROOT
ATOM      1  C   UNL     1       4.436  -1.429  -0.302  1.00  0.00     0.118 C 
ENDROOT
BRANCH   1   2
ATOM      2  N   UNL     1       3.018  -1.136  -0.472  1.00  0.00    -0.352 N 
ATOM      3  O   UNL     1       1.075  -0.033  -0.224  1.00  0.00    -0.269 OA
ATOM      4  C   UNL     1       2.301  -0.008  -0.152  1.00  0.00     0.251 C 
ATOM      5  H   UNL     1       2.491  -1.860  -0.881  1.00  0.00     0.163 HD
BRANCH   4   6
ATOM      6  C   UNL     1       2.994   1.220   0.295  1.00  0.00     0.039 A 
ATOM      7  C   UNL     1       4.147   1.667  -0.352  1.00  0.00     0.014 A 
ATOM      8  C   UNL     1       2.469   1.947   1.367  1.00  0.00     0.014 A 
ATOM      9  C   UNL     1       4.861   2.742   0.169  1.00  0.00     0.010 A 
ATOM     10  C   UNL     1       3.140   3.083   1.833  1.00  0.00     0.010 A 
ATOM     11  C   UNL     1       4.364   3.467   1.263  1.00  0.00    -0.014 A 
BRANCH  11  12
ATOM     12  C   UNL     1       5.129   4.636   1.775  1.00  0.00     0.031 A 
ATOM     13  C   UNL     1       5.705   4.635   3.165  1.00  0.00     0.074 A 
ATOM     14  C   UNL     1       5.332   5.691   0.962  1.00  0.00     0.049 A 
ATOM     15  N   UNL     1       6.417   5.555   3.767  1.00  0.00    -0.248 NA
ATOM     16  C   UNL     1       5.434   3.451   3.992  1.00  0.00     0.031 C 
ATOM     17  C   UNL     1       4.823   5.806  -0.407  1.00  0.00     0.029 A 
ATOM     18  N   UNL     1       6.032   6.854   1.153  1.00  0.00    -0.354 N 
ATOM     19  C   UNL     1       6.664   5.073   5.048  1.00  0.00     0.074 A 
ATOM     20  C   UNL     1       5.986   3.796   5.146  1.00  0.00     0.031 C 
ATOM     21  C   UNL     1       5.273   6.946  -0.949  1.00  0.00     0.029 A 
ATOM     22  C   UNL     1       6.040   7.678   0.053  1.00  0.00     0.049 A 
ATOM     23  H   UNL     1       6.485   7.078   1.998  1.00  0.00     0.167 HD
ATOM     24  C   UNL     1       7.396   5.637   6.043  1.00  0.00     0.034 A 
ATOM     25  C   UNL     1       6.589   8.895  -0.129  1.00  0.00     0.034 A 
ATOM     26  C   UNL     1       8.062   6.915   5.924  1.00  0.00     0.049 A 
ATOM     27  C   UNL     1       7.350   9.524   1.005  1.00  0.00     0.074 A 
ATOM     28  C   UNL     1       8.857   7.564   6.855  1.00  0.00     0.029 A 
ATOM     29  N   UNL     1       8.002   7.748   4.812  1.00  0.00    -0.354 N 
ATOM     30  N   UNL     1       7.593   9.046   2.204  1.00  0.00    -0.248 NA
ATOM     31  C   UNL     1       7.915  10.856   0.759  1.00  0.00     0.031 C 
ATOM     32  C   UNL     1       9.207   8.817   6.339  1.00  0.00     0.029 A 
ATOM     33  C   UNL     1       8.711   8.918   5.049  1.00  0.00     0.049 A 
ATOM     34  H   UNL     1       7.525   7.538   3.977  1.00  0.00     0.167 HD
ATOM     35  C   UNL     1       8.369  10.008   2.844  1.00  0.00     0.074 A 
ATOM     36  C   UNL     1       8.560  11.085   1.893  1.00  0.00     0.031 C 
ATOM     37  C   UNL     1       8.883   9.996   4.101  1.00  0.00     0.034 A 
BRANCH  24  38
ATOM     38  C   UNL     1       7.462   4.897   7.362  1.00  0.00     0.023 A 
ATOM     39  C   UNL     1       8.013   3.607   7.465  1.00  0.00     0.031 A 
ATOM     40  C   UNL     1       6.921   5.470   8.527  1.00  0.00     0.131 A 
ATOM     41  C   UNL     1       7.926   2.900   8.675  1.00  0.00     0.055 A 
ATOM     42  C   UNL     1       6.921   4.798   9.751  1.00  0.00     0.041 A 
ATOM     43  F   UNL     1       6.361   6.690   8.492  1.00  0.00    -0.206 F 
ATOM     44  C   UNL     1       7.407   3.496   9.826  1.00  0.00     0.022 A 
BRANCH  41  45
ATOM     45  S   UNL     1       8.332   1.131   8.674  1.00  0.00     0.124 S 
ATOM     46  O   UNL     1       7.450   0.623   7.625  1.00  0.00    -0.237 OA
ATOM     47  O   UNL     1       9.756   1.133   8.364  1.00  0.00    -0.237 OA
ATOM     48  O   UNL     1       7.987   0.698  10.027  1.00  0.00    -0.744 OA
ENDBRANCH  41  45
ENDBRANCH  24  38
BRANCH  25  49
ATOM     49  C   UNL     1       6.426   9.600  -1.431  1.00  0.00     0.023 A 
ATOM     50  C   UNL     1       7.533   9.874  -2.248  1.00  0.00     0.031 A 
ATOM     51  C   UNL     1       5.158  10.020  -1.872  1.00  0.00     0.131 A 
ATOM     52  C   UNL     1       7.356  10.580  -3.448  1.00  0.00     0.055 A 
ATOM     53  C   UNL     1       4.980  10.674  -3.092  1.00  0.00     0.041 A 
ATOM     54  F   UNL     1       4.065   9.777  -1.130  1.00  0.00    -0.206 F 
ATOM     55  C   UNL     1       6.086  10.967  -3.883  1.00  0.00     0.022 A 
BRANCH  52  56
ATOM     56  S   UNL     1       8.825  11.045  -4.405  1.00  0.00     0.124 S 
ATOM     57  O   UNL     1       9.556  11.866  -3.447  1.00  0.00    -0.237 OA
ATOM     58  O   UNL     1       9.409   9.744  -4.715  1.00  0.00    -0.237 OA
ATOM     59  O   UNL     1       8.270  11.764  -5.550  1.00  0.00    -0.744 OA
ENDBRANCH  52  56
ENDBRANCH  25  49
BRANCH  37  60
ATOM     60  C   UNL     1       9.750  11.169   4.495  1.00  0.00     0.023 A 
ATOM     61  C   UNL     1       9.235  12.473   4.610  1.00  0.00     0.031 A 
ATOM     62  C   UNL     1      11.124  10.980   4.731  1.00  0.00     0.131 A 
ATOM     63  C   UNL     1      10.098  13.544   4.886  1.00  0.00     0.055 A 
ATOM     64  C   UNL     1      11.966  12.040   5.071  1.00  0.00     0.041 A 
ATOM     65  F   UNL     1      11.674   9.759   4.630  1.00  0.00    -0.206 F 
ATOM     66  C   UNL     1      11.457  13.334   5.135  1.00  0.00     0.022 A 
BRANCH  63  67
ATOM     67  S   UNL     1       9.444  15.235   4.806  1.00  0.00     0.124 S 
ATOM     68  O   UNL     1       8.921  15.293   3.444  1.00  0.00    -0.237 OA
ATOM     69  O   UNL     1       8.447  15.234   5.872  1.00  0.00    -0.237 OA
ATOM     70  O   UNL     1      10.618  16.070   5.055  1.00  0.00    -0.744 OA
ENDBRANCH  63  67
ENDBRANCH  37  60
ENDBRANCH  11  12
ENDBRANCH   4   6
ENDBRANCH   1   2
BRANCH   1  71
ATOM     71  C   UNL     1       4.693  -2.625   0.614  1.00  0.00     0.042 C 
BRANCH  71  72
ATOM     72  C   UNL     1       4.112  -3.939   0.099  1.00  0.00     0.117 C 
BRANCH  72  73
ATOM     73  N   UNL     1       4.674  -4.293  -1.192  1.00  0.00    -0.356 N 
ATOM     74  C   UNL     1       5.726  -5.099  -1.496  1.00  0.00     0.223 C 
ATOM     75  H   UNL     1       4.225  -3.885  -1.968  1.00  0.00     0.163 HD
ATOM     76  O   UNL     1       6.164  -5.050  -2.644  1.00  0.00    -0.275 OA
BRANCH  74  77
ATOM     77  C   UNL     1       6.242  -6.097  -0.464  1.00  0.00     0.081 C 
ATOM     78  C   UNL     1       7.734  -6.388  -0.626  1.00  0.00     0.030 C 
ATOM     79  C   UNL     1       5.446  -7.399  -0.577  1.00  0.00     0.030 C 
ATOM     80  C   UNL     1       8.070  -7.231  -1.853  1.00  0.00     0.103 C 
ATOM     81  C   UNL     1       5.788  -8.167  -1.856  1.00  0.00     0.103 C 
ATOM     82  N   UNL     1       7.247  -8.487  -1.903  1.00  0.00    -0.202 NA
BRANCH  82  83
ATOM     83  S   UNL     1       7.718  -9.452  -3.265  1.00  0.00     0.216 S 
ATOM     84  O   UNL     1       6.961  -9.000  -4.414  1.00  0.00    -0.212 OA
ATOM     85  O   UNL     1       9.166  -9.467  -3.299  1.00  0.00    -0.212 OA
BRANCH  83  86
ATOM     86  C   UNL     1       7.294 -11.203  -3.045  1.00  0.00     0.124 C 
ATOM     87  C   UNL     1       6.617 -11.597  -1.767  1.00  0.00     0.022 C 
ATOM     88  C   UNL     1       5.826 -11.528  -3.049  1.00  0.00     0.022 C 
ENDBRANCH  83  86
ENDBRANCH  82  83
ENDBRANCH  74  77
ENDBRANCH  72  73
ENDBRANCH  71  72
ENDBRANCH   1  71
TORSDOF 15
