REMARK SMILES CC(C)(C[NH2+]Cc1ccc2c(c1)OCO2)C(=O)NCCCNC(=O)c1ccc(-c2c3nc(c(-c4cc(S(=O)(=O)[O-])ccc4F)c4ccc([nH]4)c(-c4cc(S(=O)(=O)[O-])ccc4F)c4nc(c(-c5cc(S(=O)(=O)[O-])ccc5F)c5ccc2[nH]5)C=C4)C=C3)cc1
REMARK SMILES IDX 19 1 18 2 16 3 17 4 2 6 1 7 3 8 4 9 5 10 6 13 7 14 8 15
REMARK SMILES IDX 12 16 9 17 11 18 10 19 13 20 15 21 14 22 20 23 21 24 22 25
REMARK SMILES IDX 23 26 24 28 25 29 26 30 87 31 27 32 86 33 28 34 29 35 30 36
REMARK SMILES IDX 80 37 31 38 85 39 79 40 81 41 32 42 84 43 78 44 77 45 33 47
REMARK SMILES IDX 65 48 45 49 64 50 46 51 49 52 63 53 82 54 47 55 48 56 62 58
REMARK SMILES IDX 83 59 50 60 34 61 35 62 43 63 36 64 42 65 44 66 41 67 37 68
REMARK SMILES IDX 38 69 39 70 40 71 66 72 67 73 75 74 68 75 74 76 76 77 73 78
REMARK SMILES IDX 69 79 70 80 71 81 72 82 51 83 52 84 60 85 53 86 59 87 61 88
REMARK SMILES IDX 58 89 54 90 55 91 56 92 57 93
REMARK H PARENT 18 5 5 11 5 12 22 27 81 46 49 57
REMARK Flexibility Score: inf
ROOT
ATOM      1  C   UNL     1       0.060   4.402   0.288  1.00  0.00     0.117 C 
ENDROOT
BRANCH   1   2
ATOM      2  N   UNL     1       0.900   3.545   1.103  1.00  0.00    -0.355 N 
ATOM      3  C   UNL     1       1.215   2.223   1.031  1.00  0.00     0.231 C 
ATOM      4  O   UNL     1       2.001   1.811   1.892  1.00  0.00    -0.274 OA
ATOM      5  H   UNL     1       1.327   4.011   1.857  1.00  0.00     0.163 HD
BRANCH   3   6
ATOM      6  C   UNL     1       0.691   1.296  -0.080  1.00  0.00     0.092 C 
ATOM      7  C   UNL     1       1.258  -0.129   0.150  1.00  0.00     0.027 C 
ATOM      8  C   UNL     1       1.246   1.750  -1.447  1.00  0.00     0.027 C 
BRANCH   6   9
ATOM      9  C   UNL     1      -0.856   1.222  -0.114  1.00  0.00     0.277 C 
BRANCH   9  10
ATOM     10  N   UNL     1      -1.469   0.741   1.133  1.00  0.00    -0.342 N 
ATOM     11  H   UNL     1      -1.178   1.355   1.894  1.00  0.00     0.346 HD
ATOM     12  H   UNL     1      -1.156  -0.220   1.273  1.00  0.00     0.346 HD
BRANCH  10  13
ATOM     13  C   UNL     1      -2.938   0.717   1.089  1.00  0.00     0.297 C 
BRANCH  13  14
ATOM     14  C   UNL     1      -3.475  -0.100  -0.064  1.00  0.00     0.010 A 
ATOM     15  C   UNL     1      -4.047   0.555  -1.181  1.00  0.00     0.013 A 
ATOM     16  C   UNL     1      -3.293  -1.493  -0.091  1.00  0.00     0.060 A 
ATOM     17  C   UNL     1      -4.393  -0.157  -2.332  1.00  0.00     0.051 A 
ATOM     18  C   UNL     1      -3.636  -2.165  -1.244  1.00  0.00     0.166 A 
ATOM     19  C   UNL     1      -4.162  -1.514  -2.336  1.00  0.00     0.165 A 
ATOM     20  O   UNL     1      -3.471  -3.497  -1.463  1.00  0.00    -0.454 OA
ATOM     21  O   UNL     1      -4.389  -2.354  -3.381  1.00  0.00    -0.454 OA
ATOM     22  C   UNL     1      -3.949  -3.607  -2.819  1.00  0.00     0.468 C 
ENDBRANCH  13  14
ENDBRANCH  10  13
ENDBRANCH   9  10
ENDBRANCH   6   9
ENDBRANCH   3   6
ENDBRANCH   1   2
BRANCH   1  23
ATOM     23  C   UNL     1      -1.216   4.825   1.004  1.00  0.00     0.042 C 
BRANCH  23  24
ATOM     24  C   UNL     1      -0.977   5.723   2.210  1.00  0.00     0.118 C 
BRANCH  24  25
ATOM     25  N   UNL     1      -0.318   6.973   1.851  1.00  0.00    -0.352 N 
ATOM     26  C   UNL     1      -0.766   8.268   1.922  1.00  0.00     0.251 C 
ATOM     27  H   UNL     1       0.597   6.872   1.501  1.00  0.00     0.163 HD
ATOM     28  O   UNL     1      -0.129   9.152   1.347  1.00  0.00    -0.269 OA
BRANCH  26  29
ATOM     29  C   UNL     1      -2.004   8.601   2.658  1.00  0.00     0.039 A 
ATOM     30  C   UNL     1      -2.864   9.570   2.135  1.00  0.00     0.014 A 
ATOM     31  C   UNL     1      -2.309   7.984   3.873  1.00  0.00     0.014 A 
ATOM     32  C   UNL     1      -4.059   9.866   2.795  1.00  0.00     0.010 A 
ATOM     33  C   UNL     1      -3.542   8.209   4.478  1.00  0.00     0.010 A 
ATOM     34  C   UNL     1      -4.428   9.158   3.950  1.00  0.00    -0.014 A 
BRANCH  34  35
ATOM     35  C   UNL     1      -5.732   9.400   4.622  1.00  0.00     0.031 A 
ATOM     36  C   UNL     1      -5.771   9.901   6.041  1.00  0.00     0.074 A 
ATOM     37  C   UNL     1      -6.878   9.105   3.977  1.00  0.00     0.049 A 
ATOM     38  N   UNL     1      -6.802  10.102   6.821  1.00  0.00    -0.248 NA
ATOM     39  C   UNL     1      -4.475  10.178   6.676  1.00  0.00     0.031 C 
ATOM     40  C   UNL     1      -6.966   8.569   2.616  1.00  0.00     0.029 A 
ATOM     41  N   UNL     1      -8.186   9.203   4.378  1.00  0.00    -0.354 N 
ATOM     42  C   UNL     1      -6.279  10.513   8.043  1.00  0.00     0.074 A 
ATOM     43  C   UNL     1      -4.838  10.463   7.917  1.00  0.00     0.031 C 
ATOM     44  C   UNL     1      -8.258   8.414   2.287  1.00  0.00     0.029 A 
ATOM     45  C   UNL     1      -9.089   8.786   3.427  1.00  0.00     0.049 A 
ATOM     46  H   UNL     1      -8.454   9.540   5.263  1.00  0.00     0.167 HD
ATOM     47  C   UNL     1      -6.940  10.916   9.157  1.00  0.00     0.034 A 
ATOM     48  C   UNL     1     -10.433   8.696   3.472  1.00  0.00     0.034 A 
ATOM     49  C   UNL     1      -8.379  10.964   9.258  1.00  0.00     0.049 A 
ATOM     50  C   UNL     1     -11.148   9.125   4.728  1.00  0.00     0.074 A 
ATOM     51  C   UNL     1      -9.155  11.415  10.312  1.00  0.00     0.029 A 
ATOM     52  N   UNL     1      -9.262  10.530   8.275  1.00  0.00    -0.354 N 
ATOM     53  N   UNL     1     -10.642   9.570   5.856  1.00  0.00    -0.248 NA
ATOM     54  C   UNL     1     -12.613   9.049   4.713  1.00  0.00     0.031 C 
ATOM     55  C   UNL     1     -10.498  11.178  10.001  1.00  0.00     0.029 A 
ATOM     56  C   UNL     1     -10.571  10.665   8.716  1.00  0.00     0.049 A 
ATOM     57  H   UNL     1      -8.997  10.179   7.395  1.00  0.00     0.167 HD
ATOM     58  C   UNL     1     -11.732   9.854   6.674  1.00  0.00     0.074 A 
ATOM     59  C   UNL     1     -12.919   9.545   5.903  1.00  0.00     0.031 C 
ATOM     60  C   UNL     1     -11.749  10.334   7.945  1.00  0.00     0.034 A 
BRANCH  47  61
ATOM     61  C   UNL     1      -6.105  11.303  10.358  1.00  0.00     0.023 A 
ATOM     62  C   UNL     1      -5.174  12.356  10.306  1.00  0.00     0.031 A 
ATOM     63  C   UNL     1      -6.207  10.580  11.560  1.00  0.00     0.131 A 
ATOM     64  C   UNL     1      -4.321  12.594  11.394  1.00  0.00     0.055 A 
ATOM     65  C   UNL     1      -5.420  10.884  12.673  1.00  0.00     0.041 A 
ATOM     66  F   UNL     1      -7.061   9.549  11.668  1.00  0.00    -0.206 F 
ATOM     67  C   UNL     1      -4.456  11.883  12.588  1.00  0.00     0.022 A 
BRANCH  64  68
ATOM     68  S   UNL     1      -2.919  13.722  11.162  1.00  0.00     0.124 S 
ATOM     69  O   UNL     1      -2.232  13.110  10.027  1.00  0.00    -0.237 OA
ATOM     70  O   UNL     1      -3.579  14.995  10.899  1.00  0.00    -0.237 OA
ATOM     71  O   UNL     1      -2.200  13.641  12.432  1.00  0.00    -0.744 OA
ENDBRANCH  64  68
ENDBRANCH  47  61
BRANCH  48  72
ATOM     72  C   UNL     1     -11.188   8.170   2.299  1.00  0.00     0.023 A 
ATOM     73  C   UNL     1     -12.072   8.988   1.578  1.00  0.00     0.031 A 
ATOM     74  C   UNL     1     -11.048   6.831   1.892  1.00  0.00     0.131 A 
ATOM     75  C   UNL     1     -12.810   8.450   0.511  1.00  0.00     0.055 A 
ATOM     76  C   UNL     1     -11.744   6.315   0.797  1.00  0.00     0.041 A 
ATOM     77  F   UNL     1     -10.211   6.007   2.543  1.00  0.00    -0.206 F 
ATOM     78  C   UNL     1     -12.640   7.124   0.107  1.00  0.00     0.022 A 
BRANCH  75  79
ATOM     79  S   UNL     1     -14.052   9.493  -0.300  1.00  0.00     0.124 S 
ATOM     80  O   UNL     1     -14.938   9.820   0.811  1.00  0.00    -0.237 OA
ATOM     81  O   UNL     1     -13.238  10.588  -0.817  1.00  0.00    -0.237 OA
ATOM     82  O   UNL     1     -14.624   8.612  -1.316  1.00  0.00    -0.744 OA
ENDBRANCH  75  79
ENDBRANCH  48  72
BRANCH  60  83
ATOM     83  C   UNL     1     -13.103  10.591   8.564  1.00  0.00     0.023 A 
ATOM     84  C   UNL     1     -14.005   9.548   8.839  1.00  0.00     0.031 A 
ATOM     85  C   UNL     1     -13.500  11.905   8.873  1.00  0.00     0.131 A 
ATOM     86  C   UNL     1     -15.279   9.842   9.348  1.00  0.00     0.055 A 
ATOM     87  C   UNL     1     -14.742  12.184   9.444  1.00  0.00     0.041 A 
ATOM     88  F   UNL     1     -12.683  12.942   8.627  1.00  0.00    -0.206 F 
ATOM     89  C   UNL     1     -15.646  11.151   9.671  1.00  0.00     0.022 A 
BRANCH  86  90
ATOM     90  S   UNL     1     -16.493   8.501   9.484  1.00  0.00     0.124 S 
ATOM     91  O   UNL     1     -16.567   8.019   8.109  1.00  0.00    -0.237 OA
ATOM     92  O   UNL     1     -15.859   7.601  10.442  1.00  0.00    -0.237 OA
ATOM     93  O   UNL     1     -17.696   9.175   9.970  1.00  0.00    -0.744 OA
ENDBRANCH  86  90
ENDBRANCH  60  83
ENDBRANCH  34  35
ENDBRANCH  26  29
ENDBRANCH  24  25
ENDBRANCH  23  24
ENDBRANCH   1  23
TORSDOF 17
