REMARK SMILES COc1ccc(C)cc1S(=O)(=O)N[C@@H](C)C(=O)NCCCNC(=O)c1ccc(-c2c3nc(c(-c4cc(S(=O)(=O)[O-])ccc4F)c4ccc([nH]4)c(-c4cc(S(=O)(=O)[O-])ccc4F)c4nc(c(-c5cc(S(=O)(=O)[O-])ccc5F)c5ccc2[nH]5)C=C4)C=C3)cc1
REMARK SMILES IDX 19 1 18 2 16 3 17 4 14 6 15 7 13 8 10 10 11 11 12 12 9 13
REMARK SMILES IDX 3 14 4 15 5 16 8 17 6 18 7 19 2 20 1 21 20 22 21 23 22 24
REMARK SMILES IDX 23 25 24 27 25 28 26 29 87 30 27 31 86 32 28 33 29 34 30 35
REMARK SMILES IDX 80 36 31 37 85 38 79 39 81 40 32 41 84 42 78 43 77 44 33 46
REMARK SMILES IDX 65 47 45 48 64 49 46 50 49 51 63 52 82 53 47 54 48 55 62 57
REMARK SMILES IDX 83 58 50 59 34 60 35 61 43 62 36 63 42 64 44 65 41 66 37 67
REMARK SMILES IDX 38 68 39 69 40 70 66 71 67 72 75 73 68 74 74 75 76 76 73 77
REMARK SMILES IDX 69 78 70 79 71 80 72 81 51 82 52 83 60 84 53 85 59 86 61 87
REMARK SMILES IDX 58 88 54 89 55 90 56 91 57 92
REMARK H PARENT 18 5 13 9 22 26 81 45 49 56
REMARK Flexibility Score: inf
ROOT
ATOM      1  C   UNL     1      -4.395   0.744   0.842  1.00  0.00     0.117 C 
ENDROOT
BRANCH   1   2
ATOM      2  N   UNL     1      -3.121   1.444   0.862  1.00  0.00    -0.355 N 
ATOM      3  C   UNL     1      -1.920   1.070   0.332  1.00  0.00     0.237 C 
ATOM      4  O   UNL     1      -0.951   1.823   0.469  1.00  0.00    -0.273 OA
ATOM      5  H   UNL     1      -3.126   2.313   1.325  1.00  0.00     0.163 HD
BRANCH   3   6
ATOM      6  C   UNL     1      -1.742  -0.306  -0.337  1.00  0.00     0.155 C 
ATOM      7  C   UNL     1      -2.548  -0.464  -1.613  1.00  0.00     0.036 C 
BRANCH   6   8
ATOM      8  N   UNL     1      -1.968  -1.307   0.720  1.00  0.00    -0.199 NA
ATOM      9  H   UNL     1      -1.355  -1.036   1.488  1.00  0.00     0.142 HD
BRANCH   8  10
ATOM     10  S   UNL     1      -1.756  -2.939   0.538  1.00  0.00     0.244 S 
ATOM     11  O   UNL     1      -2.609  -3.354  -0.568  1.00  0.00    -0.207 OA
ATOM     12  O   UNL     1      -1.932  -3.516   1.846  1.00  0.00    -0.207 OA
BRANCH  10  13
ATOM     13  C   UNL     1      -0.088  -3.307   0.051  1.00  0.00     0.124 A 
ATOM     14  C   UNL     1       1.019  -2.481   0.260  1.00  0.00     0.138 A 
ATOM     15  C   UNL     1       2.283  -2.942  -0.144  1.00  0.00     0.048 A 
ATOM     16  C   UNL     1       2.442  -4.189  -0.756  1.00  0.00     0.007 A 
ATOM     17  C   UNL     1       0.081  -4.566  -0.561  1.00  0.00     0.029 A 
ATOM     18  C   UNL     1       1.341  -5.015  -0.967  1.00  0.00    -0.050 A 
ATOM     19  C   UNL     1       1.490  -6.372  -1.585  1.00  0.00     0.044 C 
BRANCH  14  20
ATOM     20  O   UNL     1       0.888  -1.293   0.924  1.00  0.00    -0.495 OA
ATOM     21  C   UNL     1       1.695  -0.226   0.404  1.00  0.00     0.278 C 
ENDBRANCH  14  20
ENDBRANCH  10  13
ENDBRANCH   8  10
ENDBRANCH   6   8
ENDBRANCH   3   6
ENDBRANCH   1   2
BRANCH   1  22
ATOM     22  C   UNL     1      -4.842   0.282   2.213  1.00  0.00     0.042 C 
BRANCH  22  23
ATOM     23  C   UNL     1      -5.404   1.401   3.060  1.00  0.00     0.118 C 
BRANCH  23  24
ATOM     24  N   UNL     1      -6.764   1.799   2.713  1.00  0.00    -0.352 N 
ATOM     25  C   UNL     1      -7.673   2.577   3.411  1.00  0.00     0.251 C 
ATOM     26  H   UNL     1      -7.087   1.461   1.846  1.00  0.00     0.163 HD
ATOM     27  O   UNL     1      -8.840   2.648   3.036  1.00  0.00    -0.269 OA
BRANCH  25  28
ATOM     28  C   UNL     1      -7.198   3.479   4.491  1.00  0.00     0.039 A 
ATOM     29  C   UNL     1      -7.702   4.790   4.479  1.00  0.00     0.014 A 
ATOM     30  C   UNL     1      -6.030   3.192   5.174  1.00  0.00     0.014 A 
ATOM     31  C   UNL     1      -6.874   5.833   4.861  1.00  0.00     0.010 A 
ATOM     32  C   UNL     1      -5.130   4.206   5.320  1.00  0.00     0.010 A 
ATOM     33  C   UNL     1      -5.551   5.523   5.130  1.00  0.00    -0.014 A 
BRANCH  33  34
ATOM     34  C   UNL     1      -4.501   6.476   5.378  1.00  0.00     0.031 A 
ATOM     35  C   UNL     1      -4.162   6.707   6.788  1.00  0.00     0.074 A 
ATOM     36  C   UNL     1      -3.736   6.869   4.338  1.00  0.00     0.049 A 
ATOM     37  N   UNL     1      -3.436   7.676   7.199  1.00  0.00    -0.248 NA
ATOM     38  C   UNL     1      -4.665   5.869   7.878  1.00  0.00     0.031 C 
ATOM     39  C   UNL     1      -2.404   7.456   4.367  1.00  0.00     0.029 A 
ATOM     40  N   UNL     1      -4.140   6.999   3.009  1.00  0.00    -0.354 N 
ATOM     41  C   UNL     1      -3.101   7.408   8.507  1.00  0.00     0.074 A 
ATOM     42  C   UNL     1      -3.989   6.356   8.921  1.00  0.00     0.031 C 
ATOM     43  C   UNL     1      -2.200   8.123   3.217  1.00  0.00     0.029 A 
ATOM     44  C   UNL     1      -3.463   8.128   2.497  1.00  0.00     0.049 A 
ATOM     45  H   UNL     1      -4.771   6.419   2.524  1.00  0.00     0.167 HD
ATOM     46  C   UNL     1      -1.998   8.021   9.011  1.00  0.00     0.034 A 
ATOM     47  C   UNL     1      -4.182   9.250   2.178  1.00  0.00     0.034 A 
ATOM     48  C   UNL     1      -1.438   8.936   8.016  1.00  0.00     0.049 A 
ATOM     49  C   UNL     1      -3.881  10.434   3.086  1.00  0.00     0.074 A 
ATOM     50  C   UNL     1      -0.389   8.875   7.115  1.00  0.00     0.029 A 
ATOM     51  N   UNL     1      -2.212  10.005   7.627  1.00  0.00    -0.354 N 
ATOM     52  N   UNL     1      -3.151  10.361   4.168  1.00  0.00    -0.248 NA
ATOM     53  C   UNL     1      -4.404  11.783   2.877  1.00  0.00     0.031 C 
ATOM     54  C   UNL     1      -0.576   9.922   6.160  1.00  0.00     0.029 A 
ATOM     55  C   UNL     1      -1.715  10.626   6.508  1.00  0.00     0.049 A 
ATOM     56  H   UNL     1      -3.029  10.290   8.096  1.00  0.00     0.167 HD
ATOM     57  C   UNL     1      -3.122  11.573   4.805  1.00  0.00     0.074 A 
ATOM     58  C   UNL     1      -3.937  12.432   3.961  1.00  0.00     0.031 C 
ATOM     59  C   UNL     1      -2.456  11.763   5.986  1.00  0.00     0.034 A 
BRANCH  46  60
ATOM     60  C   UNL     1      -1.276   7.689  10.288  1.00  0.00     0.023 A 
ATOM     61  C   UNL     1       0.020   8.221  10.439  1.00  0.00     0.031 A 
ATOM     62  C   UNL     1      -1.722   6.883  11.351  1.00  0.00     0.131 A 
ATOM     63  C   UNL     1       0.828   7.906  11.539  1.00  0.00     0.055 A 
ATOM     64  C   UNL     1      -0.912   6.556  12.448  1.00  0.00     0.041 A 
ATOM     65  F   UNL     1      -2.963   6.393  11.414  1.00  0.00    -0.206 F 
ATOM     66  C   UNL     1       0.375   7.062  12.544  1.00  0.00     0.022 A 
BRANCH  63  67
ATOM     67  S   UNL     1       2.489   8.617  11.605  1.00  0.00     0.124 S 
ATOM     68  O   UNL     1       3.104   8.066  10.401  1.00  0.00    -0.237 OA
ATOM     69  O   UNL     1       2.212  10.048  11.594  1.00  0.00    -0.237 OA
ATOM     70  O   UNL     1       3.024   8.100  12.864  1.00  0.00    -0.744 OA
ENDBRANCH  63  67
ENDBRANCH  46  60
BRANCH  47  71
ATOM     71  C   UNL     1      -5.515   8.881   1.593  1.00  0.00     0.023 A 
ATOM     72  C   UNL     1      -5.493   8.126   0.395  1.00  0.00     0.031 A 
ATOM     73  C   UNL     1      -6.649   8.771   2.411  1.00  0.00     0.131 A 
ATOM     74  C   UNL     1      -6.466   7.140   0.164  1.00  0.00     0.055 A 
ATOM     75  C   UNL     1      -7.652   7.829   2.136  1.00  0.00     0.041 A 
ATOM     76  F   UNL     1      -6.726   9.446   3.567  1.00  0.00    -0.206 F 
ATOM     77  C   UNL     1      -7.533   6.967   1.046  1.00  0.00     0.022 A 
BRANCH  74  78
ATOM     78  S   UNL     1      -6.164   5.918  -1.151  1.00  0.00     0.124 S 
ATOM     79  O   UNL     1      -6.445   6.692  -2.356  1.00  0.00    -0.237 OA
ATOM     80  O   UNL     1      -4.764   5.561  -0.932  1.00  0.00    -0.237 OA
ATOM     81  O   UNL     1      -7.112   4.845  -0.860  1.00  0.00    -0.744 OA
ENDBRANCH  74  78
ENDBRANCH  47  71
BRANCH  59  82
ATOM     82  C   UNL     1      -2.468  13.043   6.787  1.00  0.00     0.023 A 
ATOM     83  C   UNL     1      -2.433  14.297   6.172  1.00  0.00     0.031 A 
ATOM     84  C   UNL     1      -2.443  13.050   8.208  1.00  0.00     0.131 A 
ATOM     85  C   UNL     1      -2.465  15.472   6.943  1.00  0.00     0.055 A 
ATOM     86  C   UNL     1      -2.362  14.217   8.968  1.00  0.00     0.041 A 
ATOM     87  F   UNL     1      -2.557  11.931   8.935  1.00  0.00    -0.206 F 
ATOM     88  C   UNL     1      -2.395  15.444   8.335  1.00  0.00     0.022 A 
BRANCH  85  89
ATOM     89  S   UNL     1      -2.715  17.044   6.087  1.00  0.00     0.124 S 
ATOM     90  O   UNL     1      -1.614  17.062   5.130  1.00  0.00    -0.237 OA
ATOM     91  O   UNL     1      -4.047  16.858   5.518  1.00  0.00    -0.237 OA
ATOM     92  O   UNL     1      -2.631  18.037   7.156  1.00  0.00    -0.744 OA
ENDBRANCH  85  89
ENDBRANCH  59  82
ENDBRANCH  33  34
ENDBRANCH  25  28
ENDBRANCH  23  24
ENDBRANCH  22  23
ENDBRANCH   1  22
TORSDOF 17
