REMARK SMILES O=C(NCCCNC(=O)[C@@H](CO)NC(=O)[C@H](Cc1c[nH]c2ccccc12)NC(=O)c1ccc(F)cc1)c1ccc(-c2c3nc(c(-c4cc(S(=O)(=O)[O-])ccc4F)c4ccc([nH]4)c(-c4cc(S(=O)(=O)[O-])ccc4F)c4nc(c(-c5cc(S(=O)(=O)[O-])ccc5F)c5ccc2[nH]5)C=C4)C=C3)cc1
REMARK SMILES IDX 5 1 4 2 3 3 1 4 2 5 37 7 38 8 99 9 39 10 98 11 40 12 41 13
REMARK SMILES IDX 42 14 92 15 43 16 97 17 91 18 93 19 44 20 96 21 90 22 89 23
REMARK SMILES IDX 45 25 77 26 57 27 76 28 58 29 61 30 75 31 94 32 59 33 60 34
REMARK SMILES IDX 74 36 95 37 62 38 46 39 47 40 55 41 48 42 54 43 56 44 53 45
REMARK SMILES IDX 49 46 50 47 51 48 52 49 78 50 79 51 87 52 80 53 86 54 88 55
REMARK SMILES IDX 85 56 81 57 82 58 83 59 84 60 63 61 64 62 72 63 65 64 71 65
REMARK SMILES IDX 73 66 70 67 66 68 67 69 68 70 69 71 6 72 7 73 8 74 9 76
REMARK SMILES IDX 10 77 13 78 14 79 15 81 16 82 27 83 28 84 29 86 30 87 31 88
REMARK SMILES IDX 36 89 32 90 35 91 33 92 34 93 17 94 18 95 19 96 26 97 20 98
REMARK SMILES IDX 21 99 25 100 22 102 24 103 23 104 11 105 12 106
REMARK H PARENT 3 6 93 24 61 35 7 75 13 80 27 85 20 101 12 107
REMARK Flexibility Score: inf
ROOT
ATOM      1  C   UNL     1       1.481   4.343  -1.865  1.00  0.00     0.042 C 
ENDROOT
BRANCH   1   2
ATOM      2  C   UNL     1       0.170   4.881  -1.378  1.00  0.00     0.118 C 
BRANCH   2   3
ATOM      3  N   UNL     1      -0.670   3.775  -0.926  1.00  0.00    -0.352 N 
ATOM      4  O   UNL     1      -1.180   2.160   0.570  1.00  0.00    -0.269 OA
ATOM      5  C   UNL     1      -0.834   3.316   0.362  1.00  0.00     0.251 C 
ATOM      6  H   UNL     1      -1.179   3.303  -1.624  1.00  0.00     0.163 HD
BRANCH   5   7
ATOM      7  C   UNL     1      -0.584   4.264   1.463  1.00  0.00     0.039 A 
ATOM      8  C   UNL     1      -0.844   5.609   1.222  1.00  0.00     0.014 A 
ATOM      9  C   UNL     1      -0.071   3.855   2.692  1.00  0.00     0.014 A 
ATOM     10  C   UNL     1      -0.324   6.560   2.061  1.00  0.00     0.010 A 
ATOM     11  C   UNL     1       0.191   4.823   3.666  1.00  0.00     0.010 A 
ATOM     12  C   UNL     1       0.071   6.184   3.347  1.00  0.00    -0.014 A 
BRANCH  12  13
ATOM     13  C   UNL     1       0.170   7.279   4.336  1.00  0.00     0.031 A 
ATOM     14  C   UNL     1       1.436   7.551   5.077  1.00  0.00     0.074 A 
ATOM     15  C   UNL     1      -0.908   8.085   4.463  1.00  0.00     0.049 A 
ATOM     16  N   UNL     1       1.683   8.514   5.923  1.00  0.00    -0.248 NA
ATOM     17  C   UNL     1       2.562   6.630   4.863  1.00  0.00     0.031 C 
ATOM     18  C   UNL     1      -2.188   7.894   3.762  1.00  0.00     0.029 A 
ATOM     19  N   UNL     1      -1.092   9.254   5.148  1.00  0.00    -0.354 N 
ATOM     20  C   UNL     1       2.978   8.301   6.370  1.00  0.00     0.074 A 
ATOM     21  C   UNL     1       3.459   7.102   5.717  1.00  0.00     0.031 C 
ATOM     22  C   UNL     1      -2.959   8.969   3.940  1.00  0.00     0.029 A 
ATOM     23  C   UNL     1      -2.309   9.846   4.898  1.00  0.00     0.049 A 
ATOM     24  H   UNL     1      -0.421   9.634   5.759  1.00  0.00     0.167 HD
ATOM     25  C   UNL     1       3.685   9.049   7.248  1.00  0.00     0.034 A 
ATOM     26  C   UNL     1      -2.873  10.952   5.414  1.00  0.00     0.034 A 
ATOM     27  C   UNL     1       3.166  10.240   7.873  1.00  0.00     0.049 A 
ATOM     28  C   UNL     1      -2.096  11.717   6.436  1.00  0.00     0.074 A 
ATOM     29  C   UNL     1       3.802  11.085   8.763  1.00  0.00     0.029 A 
ATOM     30  N   UNL     1       1.885  10.749   7.686  1.00  0.00    -0.354 N 
ATOM     31  N   UNL     1      -0.880  11.486   6.872  1.00  0.00    -0.248 NA
ATOM     32  C   UNL     1      -2.758  12.868   7.051  1.00  0.00     0.031 C 
ATOM     33  C   UNL     1       2.881  12.046   9.184  1.00  0.00     0.029 A 
ATOM     34  C   UNL     1       1.699  11.869   8.479  1.00  0.00     0.049 A 
ATOM     35  H   UNL     1       1.209  10.369   7.078  1.00  0.00     0.167 HD
ATOM     36  C   UNL     1      -0.622  12.475   7.807  1.00  0.00     0.074 A 
ATOM     37  C   UNL     1      -1.810  13.306   7.871  1.00  0.00     0.031 C 
ATOM     38  C   UNL     1       0.503  12.678   8.536  1.00  0.00     0.034 A 
BRANCH  25  39
ATOM     39  C   UNL     1       5.061   8.571   7.629  1.00  0.00     0.023 A 
ATOM     40  C   UNL     1       6.113   8.519   6.700  1.00  0.00     0.031 A 
ATOM     41  C   UNL     1       5.327   8.172   8.951  1.00  0.00     0.131 A 
ATOM     42  C   UNL     1       7.369   8.034   7.094  1.00  0.00     0.055 A 
ATOM     43  C   UNL     1       6.596   7.759   9.354  1.00  0.00     0.041 A 
ATOM     44  F   UNL     1       4.352   8.178   9.875  1.00  0.00    -0.206 F 
ATOM     45  C   UNL     1       7.625   7.679   8.421  1.00  0.00     0.022 A 
BRANCH  42  46
ATOM     46  S   UNL     1       8.635   7.778   5.822  1.00  0.00     0.124 S 
ATOM     47  O   UNL     1       7.986   6.800   4.952  1.00  0.00    -0.237 OA
ATOM     48  O   UNL     1       8.798   9.116   5.265  1.00  0.00    -0.237 OA
ATOM     49  O   UNL     1       9.780   7.271   6.575  1.00  0.00    -0.744 OA
ENDBRANCH  42  46
ENDBRANCH  25  39
BRANCH  26  50
ATOM     50  C   UNL     1      -4.249  11.329   4.994  1.00  0.00     0.023 A 
ATOM     51  C   UNL     1      -4.479  12.469   4.214  1.00  0.00     0.031 A 
ATOM     52  C   UNL     1      -5.343  10.489   5.284  1.00  0.00     0.131 A 
ATOM     53  C   UNL     1      -5.774  12.739   3.745  1.00  0.00     0.055 A 
ATOM     54  C   UNL     1      -6.619  10.738   4.779  1.00  0.00     0.041 A 
ATOM     55  F   UNL     1      -5.167   9.371   6.006  1.00  0.00    -0.206 F 
ATOM     56  C   UNL     1      -6.840  11.872   4.006  1.00  0.00     0.022 A 
BRANCH  53  57
ATOM     57  S   UNL     1      -6.051  14.248   2.780  1.00  0.00     0.124 S 
ATOM     58  O   UNL     1      -5.732  15.284   3.754  1.00  0.00    -0.237 OA
ATOM     59  O   UNL     1      -5.105  14.084   1.681  1.00  0.00    -0.237 OA
ATOM     60  O   UNL     1      -7.460  14.156   2.403  1.00  0.00    -0.744 OA
ENDBRANCH  53  57
ENDBRANCH  26  50
BRANCH  38  61
ATOM     61  C   UNL     1       0.531  13.875   9.445  1.00  0.00     0.023 A 
ATOM     62  C   UNL     1      -0.215  13.917  10.633  1.00  0.00     0.031 A 
ATOM     63  C   UNL     1       1.395  14.946   9.156  1.00  0.00     0.131 A 
ATOM     64  C   UNL     1      -0.085  15.017  11.491  1.00  0.00     0.055 A 
ATOM     65  C   UNL     1       1.558  16.012  10.037  1.00  0.00     0.041 A 
ATOM     66  F   UNL     1       2.127  14.947   8.030  1.00  0.00    -0.206 F 
ATOM     67  C   UNL     1       0.815  16.052  11.213  1.00  0.00     0.022 A 
BRANCH  64  68
ATOM     68  S   UNL     1      -1.119  15.089  12.978  1.00  0.00     0.124 S 
ATOM     69  O   UNL     1      -2.459  15.184  12.407  1.00  0.00    -0.237 OA
ATOM     70  O   UNL     1      -0.798  13.833  13.648  1.00  0.00    -0.237 OA
ATOM     71  O   UNL     1      -0.650  16.293  13.663  1.00  0.00    -0.744 OA
ENDBRANCH  64  68
ENDBRANCH  38  61
ENDBRANCH  12  13
ENDBRANCH   5   7
ENDBRANCH   2   3
ENDBRANCH   1   2
BRANCH   1  72
ATOM     72  C   UNL     1       1.285   3.651  -3.213  1.00  0.00     0.117 C 
BRANCH  72  73
ATOM     73  N   UNL     1       1.454   4.588  -4.347  1.00  0.00    -0.354 N 
ATOM     74  C   UNL     1       2.417   5.004  -5.244  1.00  0.00     0.244 C 
ATOM     75  H   UNL     1       0.610   5.066  -4.516  1.00  0.00     0.163 HD
ATOM     76  O   UNL     1       1.939   5.691  -6.165  1.00  0.00    -0.273 OA
BRANCH  74  77
ATOM     77  C   UNL     1       4.223   4.837  -5.134  1.00  0.00     0.197 C 
BRANCH  77  78
ATOM     78  N   UNL     1       4.551   5.791  -6.527  1.00  0.00    -0.340 N 
ATOM     79  C   UNL     1       5.194   5.701  -7.731  1.00  0.00     0.243 C 
ATOM     80  H   UNL     1       4.149   6.685  -6.425  1.00  0.00     0.164 HD
ATOM     81  O   UNL     1       5.471   6.761  -8.305  1.00  0.00    -0.273 OA
BRANCH  79  82
ATOM     82  C   UNL     1       5.636   4.347  -8.348  1.00  0.00     0.176 C 
BRANCH  82  83
ATOM     83  N   UNL     1       7.090   4.110  -8.494  1.00  0.00    -0.340 N 
ATOM     84  C   UNL     1       7.780   3.905  -9.662  1.00  0.00     0.251 C 
ATOM     85  H   UNL     1       7.618   4.099  -7.664  1.00  0.00     0.164 HD
ATOM     86  O   UNL     1       8.860   3.327  -9.681  1.00  0.00    -0.269 OA
BRANCH  84  87
ATOM     87  C   UNL     1       7.151   4.355 -10.915  1.00  0.00     0.040 A 
ATOM     88  C   UNL     1       6.745   5.690 -11.027  1.00  0.00     0.017 A 
ATOM     89  C   UNL     1       6.859   3.424 -11.915  1.00  0.00     0.017 A 
ATOM     90  C   UNL     1       5.952   6.076 -12.102  1.00  0.00     0.040 A 
ATOM     91  C   UNL     1       6.083   3.825 -13.003  1.00  0.00     0.040 A 
ATOM     92  C   UNL     1       5.620   5.139 -13.073  1.00  0.00     0.123 A 
ATOM     93  F   UNL     1       4.826   5.501 -14.089  1.00  0.00    -0.207 F 
ENDBRANCH  84  87
ENDBRANCH  82  83
BRANCH  82  94
ATOM     94  C   UNL     1       5.032   3.173  -7.631  1.00  0.00     0.072 C 
BRANCH  94  95
ATOM     95  C   UNL     1       5.054   3.445  -6.185  1.00  0.00    -0.020 A 
ATOM     96  C   UNL     1       3.704   3.017  -5.109  1.00  0.00     0.087 A 
ATOM     97  C   UNL     1       6.210   4.700  -5.189  1.00  0.00     0.003 A 
ATOM     98  N   UNL     1       4.008   3.894  -3.477  1.00  0.00    -0.361 N 
ATOM     99  C   UNL     1       5.514   4.937  -3.597  1.00  0.00     0.046 A 
ATOM    100  C   UNL     1       7.350   5.480  -5.436  1.00  0.00     0.010 A 
ATOM    101  H   UNL     1       3.443   3.808  -2.676  1.00  0.00     0.166 HD
ATOM    102  C   UNL     1       5.939   5.971  -2.773  1.00  0.00     0.026 A 
ATOM    103  C   UNL     1       7.712   6.447  -4.469  1.00  0.00     0.001 A 
ATOM    104  C   UNL     1       7.032   6.701  -3.247  1.00  0.00     0.002 A 
ENDBRANCH  94  95
ENDBRANCH  82  94
ENDBRANCH  79  82
ENDBRANCH  77  78
BRANCH  77 105
ATOM    105  C   UNL     1       5.468   3.099  -4.349  1.00  0.00     0.191 C 
BRANCH 105 106
ATOM    106  O   UNL     1       5.029   1.569  -4.185  1.00  0.00    -0.394 OA
ATOM    107  H   UNL     1       4.402   1.490  -3.449  1.00  0.00     0.210 HD
ENDBRANCH 105 106
ENDBRANCH  77 105
ENDBRANCH  74  77
ENDBRANCH  72  73
ENDBRANCH   1  72
TORSDOF 21
