REMARK SMILES O=C(NCCCNC(=O)c1ccc([C@H]2CCCN(C(=O)c3ccc4[nH]ccc4c3)C2)cc1)c1ccc(-c2c3nc(c(-c4cc(S(=O)(=O)[O-])ccc4F)c4ccc([nH]4)c(-c4cc(S(=O)(=O)[O-])ccc4F)c4nc(c(-c5cc(S(=O)(=O)[O-])ccc5F)c5ccc2[nH]5)C=C4)C=C3)cc1
REMARK SMILES IDX 5 1 4 2 3 3 1 4 2 5 33 7 34 8 95 9 35 10 94 11 36 12 37 13
REMARK SMILES IDX 38 14 88 15 39 16 93 17 87 18 89 19 40 20 92 21 86 22 85 23
REMARK SMILES IDX 41 25 73 26 53 27 72 28 54 29 57 30 71 31 90 32 55 33 56 34
REMARK SMILES IDX 70 36 91 37 58 38 42 39 43 40 51 41 44 42 50 43 52 44 49 45
REMARK SMILES IDX 45 46 46 47 47 48 48 49 74 50 75 51 83 52 76 53 82 54 84 55
REMARK SMILES IDX 81 56 77 57 78 58 79 59 80 60 59 61 60 62 68 63 61 64 67 65
REMARK SMILES IDX 69 66 66 67 62 68 63 69 64 70 65 71 6 72 7 73 8 74 9 76
REMARK SMILES IDX 10 77 11 78 32 79 12 80 31 81 13 82 14 83 15 84 30 85 16 86
REMARK SMILES IDX 18 87 17 88 19 89 20 90 21 91 22 92 29 93 23 94 28 95 24 96
REMARK SMILES IDX 27 97 25 98 26 99
REMARK H PARENT 3 6 89 24 57 35 7 75 25 100
REMARK Flexibility Score: inf
ROOT
ATOM      1  C   UNL     1      12.627  -1.514 -13.002  1.00  0.00     0.042 C 
ENDROOT
BRANCH   1   2
ATOM      2  C   UNL     1      13.957  -1.489 -13.731  1.00  0.00     0.118 C 
BRANCH   2   3
ATOM      3  N   UNL     1      14.719  -2.727 -13.583  1.00  0.00    -0.352 N 
ATOM      4  O   UNL     1      15.603  -4.715 -14.170  1.00  0.00    -0.269 OA
ATOM      5  C   UNL     1      15.089  -3.659 -14.526  1.00  0.00     0.251 C 
ATOM      6  H   UNL     1      15.013  -2.925 -12.665  1.00  0.00     0.163 HD
BRANCH   5   7
ATOM      7  C   UNL     1      14.844  -3.394 -15.961  1.00  0.00     0.039 A 
ATOM      8  C   UNL     1      15.056  -2.120 -16.480  1.00  0.00     0.014 A 
ATOM      9  C   UNL     1      14.383  -4.418 -16.794  1.00  0.00     0.014 A 
ATOM     10  C   UNL     1      14.602  -1.813 -17.752  1.00  0.00     0.010 A 
ATOM     11  C   UNL     1      14.064  -4.138 -18.129  1.00  0.00     0.010 A 
ATOM     12  C   UNL     1      14.134  -2.822 -18.610  1.00  0.00    -0.014 A 
BRANCH  12  13
ATOM     13  C   UNL     1      13.813  -2.450 -20.015  1.00  0.00     0.031 A 
ATOM     14  C   UNL     1      12.430  -2.615 -20.582  1.00  0.00     0.074 A 
ATOM     15  C   UNL     1      14.785  -1.871 -20.750  1.00  0.00     0.049 A 
ATOM     16  N   UNL     1      11.980  -2.264 -21.761  1.00  0.00    -0.248 NA
ATOM     17  C   UNL     1      11.425  -3.264 -19.727  1.00  0.00     0.031 C 
ATOM     18  C   UNL     1      16.170  -1.675 -20.302  1.00  0.00     0.029 A 
ATOM     19  N   UNL     1      14.762  -1.301 -21.995  1.00  0.00    -0.354 N 
ATOM     20  C   UNL     1      10.644  -2.649 -21.794  1.00  0.00     0.074 A 
ATOM     21  C   UNL     1      10.370  -3.303 -20.531  1.00  0.00     0.031 C 
ATOM     22  C   UNL     1      16.835  -0.963 -21.219  1.00  0.00     0.029 A 
ATOM     23  C   UNL     1      15.963  -0.737 -22.363  1.00  0.00     0.049 A 
ATOM     24  H   UNL     1      13.964  -1.295 -22.572  1.00  0.00     0.167 HD
ATOM     25  C   UNL     1       9.733  -2.461 -22.782  1.00  0.00     0.034 A 
ATOM     26  C   UNL     1      16.336  -0.128 -23.504  1.00  0.00     0.034 A 
ATOM     27  C   UNL     1      10.031  -1.813 -24.039  1.00  0.00     0.049 A 
ATOM     28  C   UNL     1      15.314   0.030 -24.595  1.00  0.00     0.074 A 
ATOM     29  C   UNL     1       9.185  -1.575 -25.110  1.00  0.00     0.029 A 
ATOM     30  N   UNL     1      11.273  -1.302 -24.401  1.00  0.00    -0.354 N 
ATOM     31  N   UNL     1      14.053  -0.338 -24.603  1.00  0.00    -0.248 NA
ATOM     32  C   UNL     1      15.761   0.691 -25.825  1.00  0.00     0.031 C 
ATOM     33  C   UNL     1       9.928  -0.984 -26.138  1.00  0.00     0.029 A 
ATOM     34  C   UNL     1      11.219  -0.774 -25.684  1.00  0.00     0.049 A 
ATOM     35  H   UNL     1      12.074  -1.313 -23.829  1.00  0.00     0.167 HD
ATOM     36  C   UNL     1      13.554   0.058 -25.839  1.00  0.00     0.074 A 
ATOM     37  C   UNL     1      14.639   0.732 -26.525  1.00  0.00     0.031 C 
ATOM     38  C   UNL     1      12.316  -0.127 -26.366  1.00  0.00     0.034 A 
BRANCH  25  39
ATOM     39  C   UNL     1       8.335  -2.993 -22.556  1.00  0.00     0.023 A 
ATOM     40  C   UNL     1       7.505  -2.484 -21.540  1.00  0.00     0.031 A 
ATOM     41  C   UNL     1       7.822  -4.021 -23.368  1.00  0.00     0.131 A 
ATOM     42  C   UNL     1       6.234  -3.040 -21.328  1.00  0.00     0.055 A 
ATOM     43  C   UNL     1       6.528  -4.518 -23.200  1.00  0.00     0.041 A 
ATOM     44  F   UNL     1       8.573  -4.562 -24.340  1.00  0.00    -0.206 F 
ATOM     45  C   UNL     1       5.729  -4.035 -22.168  1.00  0.00     0.022 A 
BRANCH  42  46
ATOM     46  S   UNL     1       5.296  -2.530 -19.861  1.00  0.00     0.124 S 
ATOM     47  O   UNL     1       6.209  -2.899 -18.781  1.00  0.00    -0.237 OA
ATOM     48  O   UNL     1       5.115  -1.100 -20.082  1.00  0.00    -0.237 OA
ATOM     49  O   UNL     1       4.076  -3.331 -19.936  1.00  0.00    -0.744 OA
ENDBRANCH  42  46
ENDBRANCH  25  39
BRANCH  26  50
ATOM     50  C   UNL     1      17.747   0.320 -23.691  1.00  0.00     0.023 A 
ATOM     51  C   UNL     1      18.062   1.666 -23.930  1.00  0.00     0.031 A 
ATOM     52  C   UNL     1      18.803  -0.611 -23.679  1.00  0.00     0.131 A 
ATOM     53  C   UNL     1      19.389   2.034 -24.201  1.00  0.00     0.055 A 
ATOM     54  C   UNL     1      20.129  -0.229 -23.876  1.00  0.00     0.041 A 
ATOM     55  F   UNL     1      18.560  -1.913 -23.456  1.00  0.00    -0.206 F 
ATOM     56  C   UNL     1      20.427   1.100 -24.157  1.00  0.00     0.022 A 
BRANCH  53  57
ATOM     57  S   UNL     1      19.726   3.736 -24.729  1.00  0.00     0.124 S 
ATOM     58  O   UNL     1      18.827   3.877 -25.869  1.00  0.00    -0.237 OA
ATOM     59  O   UNL     1      19.372   4.498 -23.535  1.00  0.00    -0.237 OA
ATOM     60  O   UNL     1      21.150   3.715 -25.055  1.00  0.00    -0.744 OA
ENDBRANCH  53  57
ENDBRANCH  26  50
BRANCH  38  61
ATOM     61  C   UNL     1      12.082   0.440 -27.745  1.00  0.00     0.023 A 
ATOM     62  C   UNL     1      12.786  -0.037 -28.866  1.00  0.00     0.031 A 
ATOM     63  C   UNL     1      11.188   1.508 -27.933  1.00  0.00     0.131 A 
ATOM     64  C   UNL     1      12.648   0.606 -30.104  1.00  0.00     0.055 A 
ATOM     65  C   UNL     1      10.998   2.096 -29.184  1.00  0.00     0.041 A 
ATOM     66  F   UNL     1      10.492   2.008 -26.899  1.00  0.00    -0.206 F 
ATOM     67  C   UNL     1      11.745   1.659 -30.275  1.00  0.00     0.022 A 
BRANCH  64  68
ATOM     68  S   UNL     1      13.764   0.137 -31.455  1.00  0.00     0.124 S 
ATOM     69  O   UNL     1      15.075   0.362 -30.856  1.00  0.00    -0.237 OA
ATOM     70  O   UNL     1      13.400  -1.257 -31.689  1.00  0.00    -0.237 OA
ATOM     71  O   UNL     1      13.406   1.059 -32.531  1.00  0.00    -0.744 OA
ENDBRANCH  64  68
ENDBRANCH  38  61
ENDBRANCH  12  13
ENDBRANCH   5   7
ENDBRANCH   2   3
ENDBRANCH   1   2
BRANCH   1  72
ATOM     72  C   UNL     1      12.765  -1.606 -11.493  1.00  0.00     0.118 C 
BRANCH  72  73
ATOM     73  N   UNL     1      13.453  -0.453 -10.921  1.00  0.00    -0.352 N 
ATOM     74  C   UNL     1      12.954   0.589 -10.174  1.00  0.00     0.251 C 
ATOM     75  H   UNL     1      14.421  -0.415 -11.097  1.00  0.00     0.163 HD
ATOM     76  O   UNL     1      13.645   1.565  -9.926  1.00  0.00    -0.269 OA
BRANCH  74  77
ATOM     77  C   UNL     1      11.562   0.522  -9.687  1.00  0.00     0.039 A 
ATOM     78  C   UNL     1      10.708   1.598  -9.911  1.00  0.00     0.014 A 
ATOM     79  C   UNL     1      11.101  -0.614  -9.026  1.00  0.00     0.014 A 
ATOM     80  C   UNL     1       9.354   1.477  -9.586  1.00  0.00     0.005 A 
ATOM     81  C   UNL     1       9.745  -0.746  -8.742  1.00  0.00     0.005 A 
ATOM     82  C   UNL     1       8.837   0.276  -9.065  1.00  0.00    -0.043 A 
BRANCH  82  83
ATOM     83  C   UNL     1       7.331   0.117  -8.864  1.00  0.00     0.039 C 
ATOM     84  C   UNL     1       6.546   0.500 -10.146  1.00  0.00     0.012 C 
ATOM     85  C   UNL     1       6.900  -1.303  -8.429  1.00  0.00     0.128 C 
ATOM     86  C   UNL     1       5.036   0.307  -9.981  1.00  0.00     0.022 C 
ATOM     87  N   UNL     1       5.454  -1.407  -8.293  1.00  0.00    -0.338 N 
ATOM     88  C   UNL     1       4.701  -1.103  -9.509  1.00  0.00     0.120 C 
BRANCH  87  89
ATOM     89  C   UNL     1       4.919  -1.681  -7.043  1.00  0.00     0.253 C 
ATOM     90  O   UNL     1       5.584  -1.865  -6.027  1.00  0.00    -0.269 OA
BRANCH  89  91
ATOM     91  C   UNL     1       3.457  -1.716  -6.900  1.00  0.00     0.040 A 
ATOM     92  C   UNL     1       2.824  -0.611  -6.330  1.00  0.00     0.016 A 
ATOM     93  C   UNL     1       2.749  -2.860  -7.291  1.00  0.00     0.024 A 
ATOM     94  C   UNL     1       1.438  -0.598  -6.171  1.00  0.00     0.027 A 
ATOM     95  C   UNL     1       1.354  -2.869  -7.113  1.00  0.00     0.000 A 
ATOM     96  C   UNL     1       0.732  -1.739  -6.575  1.00  0.00     0.045 A 
ATOM     97  C   UNL     1       0.335  -3.831  -7.355  1.00  0.00     0.028 A 
ATOM     98  N   UNL     1      -0.619  -2.002  -6.538  1.00  0.00    -0.361 N 
ATOM     99  C   UNL     1      -0.866  -3.274  -6.981  1.00  0.00     0.083 A 
ATOM    100  H   UNL     1      -1.308  -1.367  -6.236  1.00  0.00     0.166 HD
ENDBRANCH  89  91
ENDBRANCH  87  89
ENDBRANCH  82  83
ENDBRANCH  74  77
ENDBRANCH  72  73
ENDBRANCH   1  72
TORSDOF 16
