REMARK SMILES CC(=O)Nc1ccc(/C=C2/CCc3oc(C(=O)NCCCNC(=O)c4ccc(-c5c6nc(c(-c7cc(S(=O)(=O)[O-])ccc7F)c7ccc([nH]7)c(-c7cc(S(=O)(=O)[O-])ccc7F)c7nc(c(-c8cc(S(=O)(=O)[O-])ccc8F)c8ccc5[nH]8)C=C7)C=C6)cc4)c(C)c3C2=O)cc1
REMARK SMILES IDX 20 1 19 2 18 3 16 4 17 5 15 7 9 8 10 9 11 10 91 11 12 12
REMARK SMILES IDX 90 13 92 14 13 15 88 16 14 17 89 18 8 19 5 20 6 21 94 22
REMARK SMILES IDX 7 23 93 24 4 25 1 26 2 27 3 28 21 30 22 31 23 32 24 34 25 35
REMARK SMILES IDX 26 36 87 37 27 38 86 39 28 40 29 41 30 42 80 43 31 44 85 45
REMARK SMILES IDX 79 46 81 47 32 48 84 49 78 50 77 51 33 53 65 54 45 55 64 56
REMARK SMILES IDX 46 57 49 58 63 59 82 60 47 61 48 62 62 64 83 65 50 66 34 67
REMARK SMILES IDX 35 68 43 69 36 70 42 71 44 72 41 73 37 74 38 75 39 76 40 77
REMARK SMILES IDX 66 78 67 79 75 80 68 81 74 82 76 83 73 84 69 85 70 86 71 87
REMARK SMILES IDX 72 88 51 89 52 90 60 91 53 92 59 93 61 94 58 95 54 96 55 97
REMARK SMILES IDX 56 98 57 99
REMARK H PARENT 18 6 4 29 22 33 81 52 49 63
REMARK Flexibility Score: inf
ROOT
ATOM      1  C   UNL     1       1.645 -13.151   0.720  1.00  0.00     0.042 C 
ENDROOT
BRANCH   1   2
ATOM      2  C   UNL     1       0.582 -12.118   0.328  1.00  0.00     0.118 C 
BRANCH   2   3
ATOM      3  N   UNL     1      -0.346 -11.813   1.411  1.00  0.00    -0.349 N 
ATOM      4  C   UNL     1      -0.367 -10.784   2.328  1.00  0.00     0.287 C 
ATOM      5  O   UNL     1      -1.352 -10.732   3.067  1.00  0.00    -0.266 OA
ATOM      6  H   UNL     1      -1.087 -12.454   1.503  1.00  0.00     0.163 HD
BRANCH   4   7
ATOM      7  C   UNL     1       0.718  -9.816   2.395  1.00  0.00     0.195 A 
ATOM      8  C   UNL     1       3.962  -5.296   1.581  1.00  0.00     0.016 C 
ATOM      9  C   UNL     1       3.879  -6.531   2.117  1.00  0.00     0.001 C 
ATOM     10  C   UNL     1       4.726  -7.695   1.616  1.00  0.00     0.048 C 
ATOM     11  C   UNL     1       2.885  -6.930   3.174  1.00  0.00     0.192 C 
ATOM     12  C   UNL     1       3.850  -8.790   0.979  1.00  0.00     0.081 C 
ATOM     13  C   UNL     1       2.147  -8.108   2.775  1.00  0.00     0.067 A 
ATOM     14  O   UNL     1       2.736  -6.336   4.238  1.00  0.00    -0.289 OA
ATOM     15  C   UNL     1       2.631  -8.942   1.799  1.00  0.00     0.116 A 
ATOM     16  C   UNL     1       0.882  -8.652   3.157  1.00  0.00     0.012 A 
ATOM     17  O   UNL     1       1.816  -9.985   1.592  1.00  0.00    -0.455 OA
ATOM     18  C   UNL     1      -0.067  -8.037   4.126  1.00  0.00     0.049 C 
BRANCH   8  19
ATOM     19  C   UNL     1       3.152  -4.079   1.803  1.00  0.00    -0.025 A 
ATOM     20  C   UNL     1       1.645  -1.690   2.038  1.00  0.00     0.041 A 
ATOM     21  C   UNL     1       1.194  -2.870   2.615  1.00  0.00     0.027 A 
ATOM     22  C   UNL     1       2.867  -1.688   1.368  1.00  0.00     0.027 A 
ATOM     23  C   UNL     1       1.913  -4.057   2.450  1.00  0.00     0.010 A 
ATOM     24  C   UNL     1       3.617  -2.869   1.264  1.00  0.00     0.010 A 
BRANCH  20  25
ATOM     25  N   UNL     1       0.844  -0.554   2.204  1.00  0.00    -0.326 N 
ATOM     26  C   UNL     1       1.026   0.365  -0.090  1.00  0.00     0.114 C 
ATOM     27  C   UNL     1       0.612   0.487   1.352  1.00  0.00     0.221 C 
ATOM     28  O   UNL     1      -0.010   1.473   1.752  1.00  0.00    -0.275 OA
ATOM     29  H   UNL     1       0.377  -0.496   3.069  1.00  0.00     0.169 HD
ENDBRANCH  20  25
ENDBRANCH   8  19
ENDBRANCH   4   7
ENDBRANCH   2   3
ENDBRANCH   1   2
BRANCH   1  30
ATOM     30  C   UNL     1       1.089 -14.566   0.650  1.00  0.00     0.118 C 
BRANCH  30  31
ATOM     31  N   UNL     1       0.796 -14.997  -0.725  1.00  0.00    -0.352 N 
ATOM     32  C   UNL     1       0.301 -16.209  -1.180  1.00  0.00     0.251 C 
ATOM     33  H   UNL     1       0.979 -14.328  -1.424  1.00  0.00     0.163 HD
ATOM     34  O   UNL     1       0.422 -16.514  -2.362  1.00  0.00    -0.269 OA
BRANCH  32  35
ATOM     35  C   UNL     1      -0.363 -17.119  -0.227  1.00  0.00     0.039 A 
ATOM     36  C   UNL     1      -0.273 -18.511  -0.325  1.00  0.00     0.014 A 
ATOM     37  C   UNL     1      -1.075 -16.541   0.815  1.00  0.00     0.014 A 
ATOM     38  C   UNL     1      -0.845 -19.292   0.682  1.00  0.00     0.010 A 
ATOM     39  C   UNL     1      -1.412 -17.283   1.910  1.00  0.00     0.010 A 
ATOM     40  C   UNL     1      -1.399 -18.663   1.810  1.00  0.00    -0.014 A 
BRANCH  40  41
ATOM     41  C   UNL     1      -1.840 -19.403   2.991  1.00  0.00     0.031 A 
ATOM     42  C   UNL     1      -0.744 -20.218   3.571  1.00  0.00     0.074 A 
ATOM     43  C   UNL     1      -3.002 -19.136   3.638  1.00  0.00     0.049 A 
ATOM     44  N   UNL     1      -0.563 -21.492   3.460  1.00  0.00    -0.248 NA
ATOM     45  C   UNL     1       0.427 -19.508   4.126  1.00  0.00     0.031 C 
ATOM     46  C   UNL     1      -3.971 -18.076   3.314  1.00  0.00     0.029 A 
ATOM     47  N   UNL     1      -3.526 -19.661   4.784  1.00  0.00    -0.354 N 
ATOM     48  C   UNL     1       0.550 -21.760   4.251  1.00  0.00     0.074 A 
ATOM     49  C   UNL     1       1.270 -20.523   4.336  1.00  0.00     0.031 C 
ATOM     50  C   UNL     1      -4.813 -17.882   4.354  1.00  0.00     0.029 A 
ATOM     51  C   UNL     1      -4.576 -18.920   5.341  1.00  0.00     0.049 A 
ATOM     52  H   UNL     1      -3.192 -20.494   5.188  1.00  0.00     0.167 HD
ATOM     53  C   UNL     1       0.538 -22.831   5.095  1.00  0.00     0.034 A 
ATOM     54  C   UNL     1      -5.224 -19.141   6.519  1.00  0.00     0.034 A 
ATOM     55  C   UNL     1      -0.584 -23.688   4.778  1.00  0.00     0.049 A 
ATOM     56  C   UNL     1      -5.003 -20.566   6.856  1.00  0.00     0.074 A 
ATOM     57  C   UNL     1      -0.926 -24.568   3.776  1.00  0.00     0.029 A 
ATOM     58  N   UNL     1      -1.744 -23.331   5.422  1.00  0.00    -0.354 N 
ATOM     59  N   UNL     1      -5.453 -21.544   6.115  1.00  0.00    -0.248 NA
ATOM     60  C   UNL     1      -3.927 -20.925   7.772  1.00  0.00     0.031 C 
ATOM     61  C   UNL     1      -2.353 -24.595   3.741  1.00  0.00     0.029 A 
ATOM     62  C   UNL     1      -2.853 -23.790   4.764  1.00  0.00     0.049 A 
ATOM     63  H   UNL     1      -1.774 -22.809   6.256  1.00  0.00     0.167 HD
ATOM     64  C   UNL     1      -4.452 -22.494   6.154  1.00  0.00     0.074 A 
ATOM     65  C   UNL     1      -3.633 -22.144   7.310  1.00  0.00     0.031 C 
ATOM     66  C   UNL     1      -4.175 -23.265   5.062  1.00  0.00     0.034 A 
BRANCH  53  67
ATOM     67  C   UNL     1       1.145 -22.871   6.494  1.00  0.00     0.023 A 
ATOM     68  C   UNL     1       0.939 -24.051   7.242  1.00  0.00     0.031 A 
ATOM     69  C   UNL     1       1.639 -21.770   7.231  1.00  0.00     0.131 A 
ATOM     70  C   UNL     1       1.121 -24.074   8.637  1.00  0.00     0.055 A 
ATOM     71  C   UNL     1       1.859 -21.810   8.612  1.00  0.00     0.041 A 
ATOM     72  F   UNL     1       1.865 -20.568   6.693  1.00  0.00    -0.206 F 
ATOM     73  C   UNL     1       1.574 -22.956   9.329  1.00  0.00     0.022 A 
BRANCH  70  74
ATOM     74  S   UNL     1       0.619 -25.550   9.558  1.00  0.00     0.124 S 
ATOM     75  O   UNL     1      -0.778 -25.688   9.164  1.00  0.00    -0.237 OA
ATOM     76  O   UNL     1       1.541 -26.555   9.038  1.00  0.00    -0.237 OA
ATOM     77  O   UNL     1       0.839 -25.169  10.952  1.00  0.00    -0.744 OA
ENDBRANCH  70  74
ENDBRANCH  53  67
BRANCH  54  78
ATOM     78  C   UNL     1      -5.758 -18.142   7.494  1.00  0.00     0.023 A 
ATOM     79  C   UNL     1      -6.774 -18.420   8.441  1.00  0.00     0.031 A 
ATOM     80  C   UNL     1      -5.054 -16.930   7.667  1.00  0.00     0.131 A 
ATOM     81  C   UNL     1      -7.034 -17.512   9.502  1.00  0.00     0.055 A 
ATOM     82  C   UNL     1      -5.309 -16.044   8.719  1.00  0.00     0.041 A 
ATOM     83  F   UNL     1      -4.029 -16.608   6.862  1.00  0.00    -0.206 F 
ATOM     84  C   UNL     1      -6.294 -16.337   9.648  1.00  0.00     0.022 A 
BRANCH  81  85
ATOM     85  S   UNL     1      -8.309 -17.869  10.764  1.00  0.00     0.124 S 
ATOM     86  O   UNL     1      -9.532 -17.918   9.971  1.00  0.00    -0.237 OA
ATOM     87  O   UNL     1      -7.847 -19.133  11.326  1.00  0.00    -0.237 OA
ATOM     88  O   UNL     1      -8.219 -16.728  11.676  1.00  0.00    -0.744 OA
ENDBRANCH  81  85
ENDBRANCH  54  78
BRANCH  66  89
ATOM     89  C   UNL     1      -5.287 -23.525   4.077  1.00  0.00     0.023 A 
ATOM     90  C   UNL     1      -5.921 -22.564   3.261  1.00  0.00     0.031 A 
ATOM     91  C   UNL     1      -5.675 -24.870   3.934  1.00  0.00     0.131 A 
ATOM     92  C   UNL     1      -6.904 -22.977   2.336  1.00  0.00     0.055 A 
ATOM     93  C   UNL     1      -6.627 -25.275   3.005  1.00  0.00     0.041 A 
ATOM     94  F   UNL     1      -5.102 -25.825   4.684  1.00  0.00    -0.206 F 
ATOM     95  C   UNL     1      -7.248 -24.328   2.203  1.00  0.00     0.022 A 
BRANCH  92  96
ATOM     96  S   UNL     1      -7.780 -21.764   1.294  1.00  0.00     0.124 S 
ATOM     97  O   UNL     1      -8.204 -20.743   2.244  1.00  0.00    -0.237 OA
ATOM     98  O   UNL     1      -6.749 -21.362   0.341  1.00  0.00    -0.237 OA
ATOM     99  O   UNL     1      -8.874 -22.543   0.710  1.00  0.00    -0.744 OA
ENDBRANCH  92  96
ENDBRANCH  66  89
ENDBRANCH  40  41
ENDBRANCH  32  35
ENDBRANCH  30  31
ENDBRANCH   1  30
TORSDOF 15
