REMARK SMILES CC(C)(C)[C@](O)(c1ccc(C(=O)NCCCNC(=O)c2ccc(-c3c4nc(c(-c5cc(S(=O)(=O)[O-])ccc5F)c5ccc([nH]5)c(-c5cc(S(=O)(=O)[O-])ccc5F)c5nc(c(-c6cc(S(=O)(=O)[O-])ccc6F)c6ccc3[nH]6)C=C5)C=C4)cc2)cc1)c1ccc(C(F)(F)F)cc1
REMARK SMILES IDX 15 1 14 2 13 3 11 4 12 5 10 7 7 8 8 9 84 10 9 11 83 12 5 13
REMARK SMILES IDX 2 14 1 15 3 16 4 17 85 18 86 19 94 20 87 21 93 22 88 23
REMARK SMILES IDX 89 24 90 25 91 26 92 27 6 28 16 30 17 31 18 32 19 34 20 35
REMARK SMILES IDX 21 36 82 37 22 38 81 39 23 40 24 41 25 42 75 43 26 44 80 45
REMARK SMILES IDX 74 46 76 47 27 48 79 49 73 50 72 51 28 53 60 54 40 55 59 56
REMARK SMILES IDX 41 57 44 58 58 59 77 60 42 61 43 62 57 64 78 65 45 66 29 67
REMARK SMILES IDX 30 68 38 69 31 70 37 71 39 72 36 73 32 74 33 75 34 76 35 77
REMARK SMILES IDX 61 78 62 79 70 80 63 81 69 82 71 83 68 84 64 85 65 86 66 87
REMARK SMILES IDX 67 88 46 89 47 90 55 91 48 92 54 93 56 94 53 95 49 96 50 97
REMARK SMILES IDX 51 98 52 99
REMARK H PARENT 13 6 6 29 17 33 76 52 44 63
REMARK Flexibility Score: inf
ROOT
ATOM      1  C   UNL     1       7.094   1.992  -1.022  1.00  0.00     0.042 C 
ENDROOT
BRANCH   1   2
ATOM      2  C   UNL     1       6.958   0.996  -2.170  1.00  0.00     0.118 C 
BRANCH   2   3
ATOM      3  N   UNL     1       7.429  -0.329  -1.803  1.00  0.00    -0.352 N 
ATOM      4  C   UNL     1       6.717  -1.491  -1.637  1.00  0.00     0.251 C 
ATOM      5  O   UNL     1       7.301  -2.557  -1.480  1.00  0.00    -0.269 OA
ATOM      6  H   UNL     1       8.399  -0.404  -1.651  1.00  0.00     0.163 HD
BRANCH   4   7
ATOM      7  C   UNL     1       5.241  -1.473  -1.699  1.00  0.00     0.039 A 
ATOM      8  C   UNL     1       2.412  -1.518  -1.857  1.00  0.00    -0.011 A 
ATOM      9  C   UNL     1       3.208  -2.308  -2.713  1.00  0.00     0.008 A 
ATOM     10  C   UNL     1       3.088  -0.710  -0.915  1.00  0.00     0.008 A 
ATOM     11  C   UNL     1       4.604  -2.315  -2.609  1.00  0.00     0.014 A 
ATOM     12  C   UNL     1       4.485  -0.676  -0.843  1.00  0.00     0.014 A 
BRANCH   8  13
ATOM     13  C   UNL     1       0.850  -1.526  -1.945  1.00  0.00     0.119 C 
BRANCH  13  14
ATOM     14  C   UNL     1       0.337  -0.304  -2.877  1.00  0.00    -0.001 C 
ATOM     15  C   UNL     1      -1.123   0.105  -2.531  1.00  0.00     0.014 C 
ATOM     16  C   UNL     1       0.480  -0.595  -4.393  1.00  0.00     0.014 C 
ATOM     17  C   UNL     1       1.148   1.011  -2.664  1.00  0.00     0.014 C 
ENDBRANCH  13  14
BRANCH  13  18
ATOM     18  C   UNL     1       0.289  -2.950  -2.259  1.00  0.00    -0.011 A 
ATOM     19  C   UNL     1      -0.816  -3.199  -3.088  1.00  0.00     0.008 A 
ATOM     20  C   UNL     1       0.890  -4.093  -1.685  1.00  0.00     0.008 A 
ATOM     21  C   UNL     1      -1.184  -4.494  -3.472  1.00  0.00     0.013 A 
ATOM     22  C   UNL     1       0.539  -5.394  -2.074  1.00  0.00     0.013 A 
ATOM     23  C   UNL     1      -0.473  -5.604  -3.013  1.00  0.00     0.056 A 
BRANCH  23  24
ATOM     24  C   UNL     1      -0.812  -6.977  -3.532  1.00  0.00     0.416 C 
ATOM     25  F   UNL     1      -2.003  -7.440  -3.062  1.00  0.00    -0.166 F 
ATOM     26  F   UNL     1      -0.917  -7.004  -4.893  1.00  0.00    -0.166 F 
ATOM     27  F   UNL     1       0.113  -7.927  -3.219  1.00  0.00    -0.166 F 
ENDBRANCH  23  24
ENDBRANCH  13  18
BRANCH  13  28
ATOM     28  O   UNL     1       0.360  -1.316  -0.605  1.00  0.00    -0.380 OA
ATOM     29  H   UNL     1       0.660  -2.041  -0.034  1.00  0.00     0.212 HD
ENDBRANCH  13  28
ENDBRANCH   8  13
ENDBRANCH   4   7
ENDBRANCH   2   3
ENDBRANCH   1   2
BRANCH   1  30
ATOM     30  C   UNL     1       8.539   2.345  -0.677  1.00  0.00     0.118 C 
BRANCH  30  31
ATOM     31  N   UNL     1       9.188   3.098  -1.739  1.00  0.00    -0.352 N 
ATOM     32  C   UNL     1       9.812   4.319  -1.706  1.00  0.00     0.251 C 
ATOM     33  H   UNL     1       9.178   2.662  -2.621  1.00  0.00     0.163 HD
ATOM     34  O   UNL     1      10.085   4.869  -2.770  1.00  0.00    -0.269 OA
BRANCH  32  35
ATOM     35  C   UNL     1      10.148   4.980  -0.421  1.00  0.00     0.039 A 
ATOM     36  C   UNL     1      10.074   6.375  -0.351  1.00  0.00     0.014 A 
ATOM     37  C   UNL     1      10.601   4.256   0.685  1.00  0.00     0.014 A 
ATOM     38  C   UNL     1      10.428   7.036   0.828  1.00  0.00     0.010 A 
ATOM     39  C   UNL     1      10.880   4.910   1.886  1.00  0.00     0.010 A 
ATOM     40  C   UNL     1      10.820   6.309   1.963  1.00  0.00    -0.014 A 
BRANCH  40  41
ATOM     41  C   UNL     1      11.216   7.009   3.214  1.00  0.00     0.031 A 
ATOM     42  C   UNL     1      12.635   6.920   3.714  1.00  0.00     0.074 A 
ATOM     43  C   UNL     1      10.296   7.707   3.908  1.00  0.00     0.049 A 
ATOM     44  N   UNL     1      13.173   7.450   4.783  1.00  0.00    -0.248 NA
ATOM     45  C   UNL     1      13.563   6.099   2.921  1.00  0.00     0.031 C 
ATOM     46  C   UNL     1       8.882   7.829   3.548  1.00  0.00     0.029 A 
ATOM     47  N   UNL     1      10.410   8.447   5.057  1.00  0.00    -0.354 N 
ATOM     48  C   UNL     1      14.497   7.020   4.797  1.00  0.00     0.074 A 
ATOM     49  C   UNL     1      14.657   6.130   3.667  1.00  0.00     0.031 C 
ATOM     50  C   UNL     1       8.268   8.624   4.439  1.00  0.00     0.029 A 
ATOM     51  C   UNL     1       9.233   9.040   5.452  1.00  0.00     0.049 A 
ATOM     52  H   UNL     1      11.255   8.545   5.553  1.00  0.00     0.167 HD
ATOM     53  C   UNL     1      15.493   7.356   5.655  1.00  0.00     0.034 A 
ATOM     54  C   UNL     1       8.963   9.833   6.508  1.00  0.00     0.034 A 
ATOM     55  C   UNL     1      15.318   8.255   6.770  1.00  0.00     0.049 A 
ATOM     56  C   UNL     1      10.088  10.203   7.442  1.00  0.00     0.074 A 
ATOM     57  C   UNL     1      16.261   8.696   7.683  1.00  0.00     0.029 A 
ATOM     58  N   UNL     1      14.115   8.853   7.128  1.00  0.00    -0.354 N 
ATOM     59  N   UNL     1      11.346   9.826   7.413  1.00  0.00    -0.248 NA
ATOM     60  C   UNL     1       9.759  11.125   8.535  1.00  0.00     0.031 C 
ATOM     61  C   UNL     1      15.618   9.509   8.624  1.00  0.00     0.029 A 
ATOM     62  C   UNL     1      14.288   9.641   8.256  1.00  0.00     0.049 A 
ATOM     63  H   UNL     1      13.263   8.734   6.649  1.00  0.00     0.167 HD
ATOM     64  C   UNL     1      11.966  10.496   8.465  1.00  0.00     0.074 A 
ATOM     65  C   UNL     1      10.946  11.313   9.091  1.00  0.00     0.031 C 
ATOM     66  C   UNL     1      13.259  10.444   8.876  1.00  0.00     0.034 A 
BRANCH  53  67
ATOM     67  C   UNL     1      16.849   6.724   5.426  1.00  0.00     0.023 A 
ATOM     68  C   UNL     1      17.576   6.944   4.242  1.00  0.00     0.031 A 
ATOM     69  C   UNL     1      17.406   5.861   6.385  1.00  0.00     0.131 A 
ATOM     70  C   UNL     1      18.771   6.245   4.011  1.00  0.00     0.055 A 
ATOM     71  C   UNL     1      18.640   5.235   6.187  1.00  0.00     0.041 A 
ATOM     72  F   UNL     1      16.753   5.594   7.527  1.00  0.00    -0.206 F 
ATOM     73  C   UNL     1      19.321   5.412   4.986  1.00  0.00     0.022 A 
BRANCH  70  74
ATOM     74  S   UNL     1      19.512   6.320   2.357  1.00  0.00     0.124 S 
ATOM     75  O   UNL     1      18.432   5.794   1.526  1.00  0.00    -0.237 OA
ATOM     76  O   UNL     1      19.802   7.741   2.204  1.00  0.00    -0.237 OA
ATOM     77  O   UNL     1      20.683   5.452   2.466  1.00  0.00    -0.744 OA
ENDBRANCH  70  74
ENDBRANCH  53  67
BRANCH  54  78
ATOM     78  C   UNL     1       7.582  10.344   6.737  1.00  0.00     0.023 A 
ATOM     79  C   UNL     1       7.294  11.716   6.663  1.00  0.00     0.031 A 
ATOM     80  C   UNL     1       6.534   9.468   7.073  1.00  0.00     0.131 A 
ATOM     81  C   UNL     1       6.006  12.180   6.972  1.00  0.00     0.055 A 
ATOM     82  C   UNL     1       5.241   9.929   7.327  1.00  0.00     0.041 A 
ATOM     83  F   UNL     1       6.751   8.146   7.147  1.00  0.00    -0.206 F 
ATOM     84  C   UNL     1       4.974  11.294   7.292  1.00  0.00     0.022 A 
BRANCH  81  85
ATOM     85  S   UNL     1       5.718  13.970   7.030  1.00  0.00     0.124 S 
ATOM     86  O   UNL     1       6.693  14.396   8.027  1.00  0.00    -0.237 OA
ATOM     87  O   UNL     1       5.992  14.364   5.653  1.00  0.00    -0.237 OA
ATOM     88  O   UNL     1       4.319  14.075   7.439  1.00  0.00    -0.744 OA
ENDBRANCH  81  85
ENDBRANCH  54  78
BRANCH  66  89
ATOM     89  C   UNL     1      13.643  11.340  10.029  1.00  0.00     0.023 A 
ATOM     90  C   UNL     1      13.102  11.167  11.316  1.00  0.00     0.031 A 
ATOM     91  C   UNL     1      14.531  12.412   9.826  1.00  0.00     0.131 A 
ATOM     92  C   UNL     1      13.390  12.097  12.326  1.00  0.00     0.055 A 
ATOM     93  C   UNL     1      14.870  13.292  10.854  1.00  0.00     0.041 A 
ATOM     94  F   UNL     1      15.079  12.626   8.618  1.00  0.00    -0.206 F 
ATOM     95  C   UNL     1      14.283  13.149  12.108  1.00  0.00     0.022 A 
BRANCH  92  96
ATOM     96  S   UNL     1      12.479  11.989  13.891  1.00  0.00     0.124 S 
ATOM     97  O   UNL     1      11.092  12.020  13.439  1.00  0.00    -0.237 OA
ATOM     98  O   UNL     1      12.944  10.716  14.434  1.00  0.00    -0.237 OA
ATOM     99  O   UNL     1      12.918  13.173  14.626  1.00  0.00    -0.744 OA
ENDBRANCH  92  96
ENDBRANCH  66  89
ENDBRANCH  40  41
ENDBRANCH  32  35
ENDBRANCH  30  31
ENDBRANCH   1  30
TORSDOF 18
