REMARK SMILES NC(=O)[C@@H]1CCC[N@@H+]1[C@@H](C(=O)NCCCNC(=O)c1ccc(-c2c3nc(c(-c4cc(S(=O)(=O)[O-])ccc4F)c4ccc([nH]4)c(-c4cc(S(=O)(=O)[O-])ccc4F)c4nc(c(-c5cc(S(=O)(=O)[O-])ccc5F)c5ccc2[nH]5)C=C4)C=C3)cc1)c1c[nH]c2cc(OCc3ccccc3)ccc12
REMARK SMILES IDX 13 1 12 2 10 3 11 4 9 6 8 7 4 8 5 9 6 10 7 11 2 13 1 14 3 17
REMARK SMILES IDX 82 18 83 19 98 20 84 21 85 22 97 23 86 25 96 26 87 27 88 28
REMARK SMILES IDX 89 29 90 30 91 31 95 32 92 33 94 34 93 35 14 36 15 37 16 38
REMARK SMILES IDX 17 39 18 41 19 42 20 43 81 44 21 45 80 46 22 47 23 48 24 49
REMARK SMILES IDX 74 50 25 51 79 52 73 53 75 54 26 55 78 56 72 57 71 58 27 60
REMARK SMILES IDX 59 61 39 62 58 63 40 64 43 65 57 66 76 67 41 68 42 69 56 71
REMARK SMILES IDX 77 72 44 73 28 74 29 75 37 76 30 77 36 78 38 79 35 80 31 81
REMARK SMILES IDX 32 82 33 83 34 84 60 85 61 86 69 87 62 88 68 89 70 90 67 91
REMARK SMILES IDX 63 92 64 93 65 94 66 95 45 96 46 97 54 98 47 99 53 100
REMARK SMILES IDX 55 101 52 102 48 103 49 104 50 105 51 106
REMARK H PARENT 12 5 8 12 1 15 1 16 84 24 16 40 75 59 43 70
REMARK Flexibility Score: inf
ROOT
ATOM      1  C   UNL     1       1.035  -2.344   0.640  1.00  0.00     0.118 C 
ENDROOT
BRANCH   1   2
ATOM      2  N   UNL     1       2.025  -3.205   0.012  1.00  0.00    -0.351 N 
ATOM      3  C   UNL     1       3.041  -3.085  -0.888  1.00  0.00     0.283 C 
ATOM      4  O   UNL     1       3.557  -4.181  -1.127  1.00  0.00    -0.268 OA
ATOM      5  H   UNL     1       1.935  -4.134   0.324  1.00  0.00     0.163 HD
BRANCH   3   6
ATOM      6  C   UNL     1       3.549  -1.744  -1.500  1.00  0.00     0.308 C 
BRANCH   6   7
ATOM      7  N   UNL     1       2.812  -1.206  -2.723  1.00  0.00    -0.311 N 
ATOM      8  C   UNL     1       1.340  -1.022  -2.725  1.00  0.00     0.275 C 
ATOM      9  C   UNL     1       0.759  -2.397  -3.039  1.00  0.00     0.081 C 
ATOM     10  C   UNL     1       1.819  -3.052  -3.910  1.00  0.00     0.068 C 
ATOM     11  C   UNL     1       2.936  -2.031  -3.948  1.00  0.00     0.264 C 
ATOM     12  H   UNL     1       3.299  -0.310  -2.693  1.00  0.00     0.349 HD
BRANCH   8  13
ATOM     13  C   UNL     1       0.741  -0.094  -1.675  1.00  0.00     0.275 C 
ATOM     14  N   UNL     1       1.586   0.832  -1.138  1.00  0.00    -0.365 N 
ATOM     15  H   UNL     1       1.257   1.460  -0.454  1.00  0.00     0.159 HD
ATOM     16  H   UNL     1       2.524   0.872  -1.433  1.00  0.00     0.159 HD
ATOM     17  O   UNL     1      -0.452  -0.050  -1.391  1.00  0.00    -0.268 OA
ENDBRANCH   8  13
ENDBRANCH   6   7
BRANCH   6  18
ATOM     18  C   UNL     1       5.074  -1.754  -1.931  1.00  0.00     0.044 A 
ATOM     19  C   UNL     1       5.760  -0.609  -2.342  1.00  0.00     0.094 A 
ATOM     20  C   UNL     1       5.867  -2.825  -2.505  1.00  0.00     0.009 A 
ATOM     21  N   UNL     1       6.244  -0.938  -3.595  1.00  0.00    -0.361 N 
ATOM     22  C   UNL     1       6.237  -2.303  -3.745  1.00  0.00     0.050 A 
ATOM     23  C   UNL     1       6.044  -4.214  -2.317  1.00  0.00     0.015 A 
ATOM     24  H   UNL     1       6.546  -0.293  -4.275  1.00  0.00     0.166 HD
ATOM     25  C   UNL     1       6.352  -3.116  -4.878  1.00  0.00     0.073 A 
ATOM     26  C   UNL     1       6.316  -5.047  -3.417  1.00  0.00     0.047 A 
ATOM     27  C   UNL     1       6.342  -4.505  -4.694  1.00  0.00     0.121 A 
BRANCH  27  28
ATOM     28  O   UNL     1       6.155  -5.255  -5.826  1.00  0.00    -0.489 OA
BRANCH  28  29
ATOM     29  C   UNL     1       7.104  -6.295  -6.074  1.00  0.00     0.265 C 
BRANCH  29  30
ATOM     30  C   UNL     1       8.285  -5.810  -6.891  1.00  0.00    -0.011 A 
ATOM     31  C   UNL     1       9.331  -6.692  -7.187  1.00  0.00     0.007 A 
ATOM     32  C   UNL     1       8.367  -4.498  -7.379  1.00  0.00     0.007 A 
ATOM     33  C   UNL     1      10.449  -6.250  -7.901  1.00  0.00     0.000 A 
ATOM     34  C   UNL     1       9.492  -4.045  -8.062  1.00  0.00     0.000 A 
ATOM     35  C   UNL     1      10.538  -4.922  -8.319  1.00  0.00     0.000 A 
ENDBRANCH  29  30
ENDBRANCH  28  29
ENDBRANCH  27  28
ENDBRANCH   6  18
ENDBRANCH   3   6
ENDBRANCH   1   2
BRANCH   1  36
ATOM     36  C   UNL     1      -0.416  -2.617   0.199  1.00  0.00     0.042 C 
BRANCH  36  37
ATOM     37  C   UNL     1      -0.851  -4.084   0.146  1.00  0.00     0.118 C 
BRANCH  37  38
ATOM     38  N   UNL     1      -1.933  -4.340   1.078  1.00  0.00    -0.352 N 
ATOM     39  C   UNL     1      -3.175  -4.877   0.842  1.00  0.00     0.251 C 
ATOM     40  H   UNL     1      -1.750  -4.093   2.014  1.00  0.00     0.163 HD
ATOM     41  O   UNL     1      -4.051  -4.745   1.693  1.00  0.00    -0.269 OA
BRANCH  39  42
ATOM     42  C   UNL     1      -3.465  -5.612  -0.415  1.00  0.00     0.039 A 
ATOM     43  C   UNL     1      -4.722  -5.463  -1.014  1.00  0.00     0.014 A 
ATOM     44  C   UNL     1      -2.544  -6.514  -0.956  1.00  0.00     0.014 A 
ATOM     45  C   UNL     1      -5.048  -6.200  -2.160  1.00  0.00     0.010 A 
ATOM     46  C   UNL     1      -2.852  -7.210  -2.126  1.00  0.00     0.010 A 
ATOM     47  C   UNL     1      -4.113  -7.075  -2.731  1.00  0.00    -0.014 A 
BRANCH  47  48
ATOM     48  C   UNL     1      -4.435  -7.911  -3.921  1.00  0.00     0.031 A 
ATOM     49  C   UNL     1      -4.485  -9.411  -3.780  1.00  0.00     0.074 A 
ATOM     50  C   UNL     1      -4.601  -7.343  -5.131  1.00  0.00     0.049 A 
ATOM     51  N   UNL     1      -4.566 -10.332  -4.706  1.00  0.00    -0.248 NA
ATOM     52  C   UNL     1      -4.400  -9.940  -2.411  1.00  0.00     0.031 C 
ATOM     53  C   UNL     1      -4.584  -5.904  -5.398  1.00  0.00     0.029 A 
ATOM     54  N   UNL     1      -4.794  -7.908  -6.368  1.00  0.00    -0.354 N 
ATOM     55  C   UNL     1      -4.507 -11.550  -4.035  1.00  0.00     0.074 A 
ATOM     56  C   UNL     1      -4.345 -11.245  -2.629  1.00  0.00     0.031 C 
ATOM     57  C   UNL     1      -4.763  -5.701  -6.714  1.00  0.00     0.029 A 
ATOM     58  C   UNL     1      -4.851  -6.991  -7.392  1.00  0.00     0.049 A 
ATOM     59  H   UNL     1      -4.884  -8.879  -6.508  1.00  0.00     0.167 HD
ATOM     60  C   UNL     1      -4.590 -12.805  -4.545  1.00  0.00     0.034 A 
ATOM     61  C   UNL     1      -4.934  -7.170  -8.727  1.00  0.00     0.034 A 
ATOM     62  C   UNL     1      -4.776 -13.089  -5.948  1.00  0.00     0.049 A 
ATOM     63  C   UNL     1      -4.981  -8.575  -9.277  1.00  0.00     0.074 A 
ATOM     64  C   UNL     1      -4.929 -14.319  -6.566  1.00  0.00     0.029 A 
ATOM     65  N   UNL     1      -4.827 -12.132  -6.954  1.00  0.00    -0.354 N 
ATOM     66  N   UNL     1      -4.942  -9.718  -8.630  1.00  0.00    -0.248 NA
ATOM     67  C   UNL     1      -5.087  -8.715 -10.736  1.00  0.00     0.031 C 
ATOM     68  C   UNL     1      -5.003 -14.110  -7.947  1.00  0.00     0.029 A 
ATOM     69  C   UNL     1      -4.978 -12.746  -8.188  1.00  0.00     0.049 A 
ATOM     70  H   UNL     1      -4.766 -11.160  -6.811  1.00  0.00     0.167 HD
ATOM     71  C   UNL     1      -5.062 -10.708  -9.602  1.00  0.00     0.074 A 
ATOM     72  C   UNL     1      -5.173 -10.030 -10.876  1.00  0.00     0.031 C 
ATOM     73  C   UNL     1      -5.092 -12.057  -9.452  1.00  0.00     0.034 A 
BRANCH  60  74
ATOM     74  C   UNL     1      -4.438 -13.962  -3.584  1.00  0.00     0.023 A 
ATOM     75  C   UNL     1      -5.346 -14.181  -2.534  1.00  0.00     0.031 A 
ATOM     76  C   UNL     1      -3.349 -14.845  -3.705  1.00  0.00     0.131 A 
ATOM     77  C   UNL     1      -5.106 -15.203  -1.601  1.00  0.00     0.055 A 
ATOM     78  C   UNL     1      -3.163 -15.912  -2.824  1.00  0.00     0.041 A 
ATOM     79  F   UNL     1      -2.437 -14.678  -4.675  1.00  0.00    -0.206 F 
ATOM     80  C   UNL     1      -4.035 -16.086  -1.754  1.00  0.00     0.022 A 
BRANCH  77  81
ATOM     81  S   UNL     1      -6.128 -15.263  -0.104  1.00  0.00     0.124 S 
ATOM     82  O   UNL     1      -5.884 -13.944   0.474  1.00  0.00    -0.237 OA
ATOM     83  O   UNL     1      -7.463 -15.490  -0.641  1.00  0.00    -0.237 OA
ATOM     84  O   UNL     1      -5.561 -16.381   0.653  1.00  0.00    -0.744 OA
ENDBRANCH  77  81
ENDBRANCH  60  74
BRANCH  61  85
ATOM     85  C   UNL     1      -4.958  -5.997  -9.647  1.00  0.00     0.023 A 
ATOM     86  C   UNL     1      -6.087  -5.725 -10.436  1.00  0.00     0.031 A 
ATOM     87  C   UNL     1      -3.841  -5.154  -9.784  1.00  0.00     0.131 A 
ATOM     88  C   UNL     1      -6.060  -4.668 -11.358  1.00  0.00     0.055 A 
ATOM     89  C   UNL     1      -3.838  -4.070 -10.664  1.00  0.00     0.041 A 
ATOM     90  F   UNL     1      -2.735  -5.367  -9.052  1.00  0.00    -0.206 F 
ATOM     91  C   UNL     1      -4.948  -3.829 -11.467  1.00  0.00     0.022 A 
BRANCH  88  92
ATOM     92  S   UNL     1      -7.472  -4.454 -12.476  1.00  0.00     0.124 S 
ATOM     93  O   UNL     1      -7.504  -5.740 -13.163  1.00  0.00    -0.237 OA
ATOM     94  O   UNL     1      -8.562  -4.197 -11.541  1.00  0.00    -0.237 OA
ATOM     95  O   UNL     1      -7.082  -3.314 -13.303  1.00  0.00    -0.744 OA
ENDBRANCH  88  92
ENDBRANCH  61  85
BRANCH  73  96
ATOM     96  C   UNL     1      -5.326 -12.887 -10.690  1.00  0.00     0.023 A 
ATOM     97  C   UNL     1      -4.364 -13.000 -11.708  1.00  0.00     0.031 A 
ATOM     98  C   UNL     1      -6.534 -13.593 -10.838  1.00  0.00     0.131 A 
ATOM     99  C   UNL     1      -4.643 -13.770 -12.848  1.00  0.00     0.055 A 
ATOM    100  C   UNL     1      -6.784 -14.399 -11.948  1.00  0.00     0.041 A 
ATOM    101  F   UNL     1      -7.488 -13.519  -9.896  1.00  0.00    -0.206 F 
ATOM    102  C   UNL     1      -5.839 -14.484 -12.966  1.00  0.00     0.022 A 
BRANCH  99 103
ATOM    103  S   UNL     1      -3.446 -13.779 -14.212  1.00  0.00     0.124 S 
ATOM    104  O   UNL     1      -3.404 -12.370 -14.589  1.00  0.00    -0.237 OA
ATOM    105  O   UNL     1      -2.244 -14.303 -13.571  1.00  0.00    -0.237 OA
ATOM    106  O   UNL     1      -4.057 -14.667 -15.199  1.00  0.00    -0.744 OA
ENDBRANCH  99 103
ENDBRANCH  73  96
ENDBRANCH  47  48
ENDBRANCH  39  42
ENDBRANCH  37  38
ENDBRANCH  36  37
ENDBRANCH   1  36
TORSDOF 19
