REMARK SMILES CCc1ccc(-c2cc(Cl)cc3c2O[C@H](C(F)(F)F)C(C(=O)NCCCNC(=O)c2ccc(-c4c5nc(c(-c6cc(S(=O)(=O)[O-])ccc6F)c6ccc([nH]6)c(-c6cc(S(=O)(=O)[O-])ccc6F)c6nc(c(-c7cc(S(=O)(=O)[O-])ccc7F)c7ccc4[nH]7)C=C6)C=C5)cc2)=C3)cc1
REMARK SMILES IDX 25 1 24 2 23 3 21 4 22 5 20 7 7 8 8 9 13 10 9 11 12 12 14 13
REMARK SMILES IDX 10 14 11 15 93 16 15 17 6 18 3 19 4 20 95 21 5 22 94 23 2 24
REMARK SMILES IDX 1 25 16 26 17 27 18 28 19 29 26 30 27 31 28 32 29 34 30 35
REMARK SMILES IDX 31 36 92 37 32 38 91 39 33 40 34 41 35 42 85 43 36 44 90 45
REMARK SMILES IDX 84 46 86 47 37 48 89 49 83 50 82 51 38 53 70 54 50 55 69 56
REMARK SMILES IDX 51 57 54 58 68 59 87 60 52 61 53 62 67 64 88 65 55 66 39 67
REMARK SMILES IDX 40 68 48 69 41 70 47 71 49 72 46 73 42 74 43 75 44 76 45 77
REMARK SMILES IDX 71 78 72 79 80 80 73 81 79 82 81 83 78 84 74 85 75 86 76 87
REMARK SMILES IDX 77 88 56 89 57 90 65 91 58 92 64 93 66 94 63 95 59 96 60 97
REMARK SMILES IDX 61 98 62 99
REMARK H PARENT 23 6 27 33 86 52 54 63
REMARK Flexibility Score: inf
ROOT
ATOM      1  C   UNL     1       0.208   2.583  14.553  1.00  0.00     0.042 C 
ENDROOT
BRANCH   1   2
ATOM      2  C   UNL     1       0.804   3.374  13.387  1.00  0.00     0.118 C 
BRANCH   2   3
ATOM      3  N   UNL     1       1.745   2.551  12.655  1.00  0.00    -0.352 N 
ATOM      4  C   UNL     1       1.639   2.143  11.367  1.00  0.00     0.251 C 
ATOM      5  O   UNL     1       1.980   1.008  11.056  1.00  0.00    -0.270 OA
ATOM      6  H   UNL     1       2.547   2.257  13.146  1.00  0.00     0.163 HD
BRANCH   4   7
ATOM      7  C   UNL     1       1.248   3.175  10.364  1.00  0.00     0.067 C 
ATOM      8  C   UNL     1       1.706   1.000   6.955  1.00  0.00     0.026 A 
ATOM      9  C   UNL     1       2.952   0.324   7.066  1.00  0.00     0.033 A 
ATOM     10  C   UNL     1       1.476   2.031   7.885  1.00  0.00     0.135 A 
ATOM     11  C   UNL     1       3.965   0.743   7.925  1.00  0.00     0.042 A 
ATOM     12  C   UNL     1       2.562   2.516   8.659  1.00  0.00     0.019 A 
ATOM     13  O   UNL     1       0.221   2.571   8.135  1.00  0.00    -0.475 OA
ATOM     14  Cl  UNL     1       5.428  -0.154   8.021  1.00  0.00    -0.084 Cl
ATOM     15  C   UNL     1       3.804   1.888   8.675  1.00  0.00     0.032 A 
ATOM     16  C   UNL     1       2.293   3.601   9.628  1.00  0.00     0.025 C 
ATOM     17  C   UNL     1      -0.022   2.880   9.581  1.00  0.00     0.314 C 
BRANCH   8  18
ATOM     18  C   UNL     1       0.920   0.641   5.742  1.00  0.00    -0.015 A 
ATOM     19  C   UNL     1       0.530  -0.146   3.013  1.00  0.00    -0.048 A 
ATOM     20  C   UNL     1       0.571  -1.096   4.043  1.00  0.00     0.004 A 
ATOM     21  C   UNL     1       0.538   1.204   3.382  1.00  0.00     0.004 A 
ATOM     22  C   UNL     1       0.743  -0.710   5.381  1.00  0.00     0.009 A 
ATOM     23  C   UNL     1       0.729   1.592   4.725  1.00  0.00     0.009 A 
BRANCH  19  24
ATOM     24  C   UNL     1       0.444  -0.629   1.579  1.00  0.00     0.032 C 
ATOM     25  C   UNL     1       1.093   0.245   0.509  1.00  0.00     0.009 C 
ENDBRANCH  19  24
ENDBRANCH   8  18
BRANCH  17  26
ATOM     26  C   UNL     1      -0.978   4.083   9.767  1.00  0.00     0.429 C 
ATOM     27  F   UNL     1      -1.199   4.758   8.616  1.00  0.00    -0.167 F 
ATOM     28  F   UNL     1      -2.180   3.687  10.248  1.00  0.00    -0.167 F 
ATOM     29  F   UNL     1      -0.501   4.996  10.656  1.00  0.00    -0.167 F 
ENDBRANCH  17  26
ENDBRANCH   4   7
ENDBRANCH   2   3
ENDBRANCH   1   2
BRANCH   1  30
ATOM     30  C   UNL     1       1.230   2.092  15.576  1.00  0.00     0.118 C 
BRANCH  30  31
ATOM     31  N   UNL     1       1.973   3.173  16.200  1.00  0.00    -0.352 N 
ATOM     32  C   UNL     1       2.214   3.400  17.532  1.00  0.00     0.251 C 
ATOM     33  H   UNL     1       2.357   3.836  15.581  1.00  0.00     0.163 HD
ATOM     34  O   UNL     1       2.714   4.470  17.880  1.00  0.00    -0.269 OA
BRANCH  32  35
ATOM     35  C   UNL     1       1.851   2.378  18.537  1.00  0.00     0.039 A 
ATOM     36  C   UNL     1       1.267   2.788  19.737  1.00  0.00     0.014 A 
ATOM     37  C   UNL     1       2.090   1.020  18.304  1.00  0.00     0.014 A 
ATOM     38  C   UNL     1       0.889   1.833  20.684  1.00  0.00     0.010 A 
ATOM     39  C   UNL     1       1.621   0.067  19.202  1.00  0.00     0.010 A 
ATOM     40  C   UNL     1       1.041   0.462  20.416  1.00  0.00    -0.014 A 
BRANCH  40  41
ATOM     41  C   UNL     1       0.654  -0.561  21.424  1.00  0.00     0.031 A 
ATOM     42  C   UNL     1       1.701  -1.481  22.000  1.00  0.00     0.074 A 
ATOM     43  C   UNL     1      -0.635  -0.679  21.802  1.00  0.00     0.049 A 
ATOM     44  N   UNL     1       1.567  -2.445  22.875  1.00  0.00    -0.248 NA
ATOM     45  C   UNL     1       3.074  -1.317  21.499  1.00  0.00     0.031 C 
ATOM     46  C   UNL     1      -1.746   0.118  21.277  1.00  0.00     0.029 A 
ATOM     47  N   UNL     1      -1.229  -1.509  22.719  1.00  0.00    -0.354 N 
ATOM     48  C   UNL     1       2.833  -3.007  23.016  1.00  0.00     0.074 A 
ATOM     49  C   UNL     1       3.698  -2.332  22.075  1.00  0.00     0.031 C 
ATOM     50  C   UNL     1      -2.877  -0.230  21.912  1.00  0.00     0.029 A 
ATOM     51  C   UNL     1      -2.583  -1.303  22.857  1.00  0.00     0.049 A 
ATOM     52  H   UNL     1      -0.733  -2.188  23.231  1.00  0.00     0.167 HD
ATOM     53  C   UNL     1       3.246  -3.972  23.876  1.00  0.00     0.034 A 
ATOM     54  C   UNL     1      -3.484  -1.911  23.655  1.00  0.00     0.034 A 
ATOM     55  C   UNL     1       2.372  -4.623  24.821  1.00  0.00     0.049 A 
ATOM     56  C   UNL     1      -3.003  -2.985  24.599  1.00  0.00     0.074 A 
ATOM     57  C   UNL     1       2.686  -5.580  25.770  1.00  0.00     0.029 A 
ATOM     58  N   UNL     1       1.006  -4.387  24.934  1.00  0.00    -0.354 N 
ATOM     59  N   UNL     1      -1.790  -3.465  24.761  1.00  0.00    -0.248 NA
ATOM     60  C   UNL     1      -4.010  -3.582  25.482  1.00  0.00     0.031 C 
ATOM     61  C   UNL     1       1.502  -5.974  26.404  1.00  0.00     0.029 A 
ATOM     62  C   UNL     1       0.461  -5.199  25.917  1.00  0.00     0.049 A 
ATOM     63  H   UNL     1       0.500  -3.738  24.394  1.00  0.00     0.167 HD
ATOM     64  C   UNL     1      -1.886  -4.397  25.791  1.00  0.00     0.074 A 
ATOM     65  C   UNL     1      -3.268  -4.387  26.227  1.00  0.00     0.031 C 
ATOM     66  C   UNL     1      -0.923  -5.189  26.331  1.00  0.00     0.034 A 
BRANCH  53  67
ATOM     67  C   UNL     1       4.699  -4.386  23.811  1.00  0.00     0.023 A 
ATOM     68  C   UNL     1       5.741  -3.473  24.058  1.00  0.00     0.031 A 
ATOM     69  C   UNL     1       5.052  -5.700  23.458  1.00  0.00     0.131 A 
ATOM     70  C   UNL     1       7.076  -3.860  23.865  1.00  0.00     0.055 A 
ATOM     71  C   UNL     1       6.386  -6.104  23.358  1.00  0.00     0.041 A 
ATOM     72  F   UNL     1       4.107  -6.613  23.186  1.00  0.00    -0.206 F 
ATOM     73  C   UNL     1       7.407  -5.178  23.544  1.00  0.00     0.022 A 
BRANCH  70  74
ATOM     74  S   UNL     1       8.360  -2.578  23.878  1.00  0.00     0.124 S 
ATOM     75  O   UNL     1       7.905  -1.695  22.807  1.00  0.00    -0.237 OA
ATOM     76  O   UNL     1       8.259  -2.044  25.232  1.00  0.00    -0.237 OA
ATOM     77  O   UNL     1       9.586  -3.317  23.588  1.00  0.00    -0.744 OA
ENDBRANCH  70  74
ENDBRANCH  53  67
BRANCH  54  78
ATOM     78  C   UNL     1      -4.925  -1.522  23.611  1.00  0.00     0.023 A 
ATOM     79  C   UNL     1      -5.563  -0.972  24.734  1.00  0.00     0.031 A 
ATOM     80  C   UNL     1      -5.700  -1.747  22.459  1.00  0.00     0.131 A 
ATOM     81  C   UNL     1      -6.944  -0.718  24.702  1.00  0.00     0.055 A 
ATOM     82  C   UNL     1      -7.061  -1.436  22.412  1.00  0.00     0.041 A 
ATOM     83  F   UNL     1      -5.141  -2.267  21.355  1.00  0.00    -0.206 F 
ATOM     84  C   UNL     1      -7.694  -0.933  23.544  1.00  0.00     0.022 A 
BRANCH  81  85
ATOM     85  S   UNL     1      -7.768  -0.194  26.232  1.00  0.00     0.124 S 
ATOM     86  O   UNL     1      -7.442  -1.292  27.135  1.00  0.00    -0.237 OA
ATOM     87  O   UNL     1      -7.113   1.080  26.507  1.00  0.00    -0.237 OA
ATOM     88  O   UNL     1      -9.174  -0.099  25.845  1.00  0.00    -0.744 OA
ENDBRANCH  81  85
ENDBRANCH  54  78
BRANCH  66  89
ATOM     89  C   UNL     1      -1.334  -6.072  27.487  1.00  0.00     0.023 A 
ATOM     90  C   UNL     1      -2.297  -7.086  27.338  1.00  0.00     0.031 A 
ATOM     91  C   UNL     1      -0.789  -5.864  28.767  1.00  0.00     0.131 A 
ATOM     92  C   UNL     1      -2.751  -7.790  28.464  1.00  0.00     0.055 A 
ATOM     93  C   UNL     1      -1.185  -6.625  29.868  1.00  0.00     0.041 A 
ATOM     94  F   UNL     1       0.132  -4.910  28.972  1.00  0.00    -0.206 F 
ATOM     95  C   UNL     1      -2.188  -7.579  29.724  1.00  0.00     0.022 A 
BRANCH  92  96
ATOM     96  S   UNL     1      -4.194  -8.874  28.283  1.00  0.00     0.124 S 
ATOM     97  O   UNL     1      -5.185  -7.966  27.713  1.00  0.00    -0.237 OA
ATOM     98  O   UNL     1      -3.693  -9.912  27.389  1.00  0.00    -0.237 OA
ATOM     99  O   UNL     1      -4.467  -9.312  29.651  1.00  0.00    -0.744 OA
ENDBRANCH  92  96
ENDBRANCH  66  89
ENDBRANCH  40  41
ENDBRANCH  32  35
ENDBRANCH  30  31
ENDBRANCH   1  30
TORSDOF 16
