REMARK SMILES Cc1cccc(NC(=O)COc2ccc(N3C[C@@H](C(=O)NCCCNC(=O)c4ccc(-c5c6nc(c(-c7cc(S(=O)(=O)[O-])ccc7F)c7ccc([nH]7)c(-c7cc(S(=O)(=O)[O-])ccc7F)c7nc(c(-c8cc(S(=O)(=O)[O-])ccc8F)c8ccc5[nH]8)C=C7)C=C6)cc4)CC3=O)cc2)c1
REMARK SMILES IDX 22 1 21 2 19 3 20 4 18 6 16 7 17 8 92 9 91 10 93 11 15 12
REMARK SMILES IDX 12 13 13 14 95 15 14 16 94 17 11 18 10 19 8 20 7 21 9 23
REMARK SMILES IDX 6 24 1 25 2 26 3 27 96 28 4 29 5 30 23 31 24 32 25 33 26 34
REMARK SMILES IDX 27 36 28 37 29 38 90 39 30 40 89 41 31 42 32 43 33 44 83 45
REMARK SMILES IDX 34 46 88 47 82 48 84 49 35 50 87 51 81 52 80 53 36 55 68 56
REMARK SMILES IDX 48 57 67 58 49 59 52 60 66 61 85 62 50 63 51 64 65 66 86 67
REMARK SMILES IDX 53 68 37 69 38 70 46 71 39 72 45 73 47 74 44 75 40 76 41 77
REMARK SMILES IDX 42 78 43 79 69 80 70 81 78 82 71 83 77 84 79 85 76 86 72 87
REMARK SMILES IDX 73 88 74 89 75 90 54 91 55 92 63 93 56 94 62 95 64 96 61 97
REMARK SMILES IDX 57 98 58 99 59 100 60 101
REMARK H PARENT 21 5 7 22 25 35 84 54 52 65
REMARK Flexibility Score: inf
ROOT
ATOM      1  C   UNL     1      -6.975   5.043  -6.825  1.00  0.00     0.117 C 
ENDROOT
BRANCH   1   2
ATOM      2  N   UNL     1      -7.489   4.455  -8.055  1.00  0.00    -0.356 N 
ATOM      3  C   UNL     1      -7.088   3.416  -8.828  1.00  0.00     0.225 C 
ATOM      4  O   UNL     1      -7.747   3.151  -9.839  1.00  0.00    -0.275 OA
ATOM      5  H   UNL     1      -8.296   4.905  -8.396  1.00  0.00     0.163 HD
BRANCH   3   6
ATOM      6  C   UNL     1      -5.870   2.558  -8.527  1.00  0.00     0.107 C 
ATOM      7  N   UNL     1      -4.801   2.279  -6.439  1.00  0.00    -0.312 N 
ATOM      8  C   UNL     1      -5.933   1.814  -7.210  1.00  0.00     0.139 C 
ATOM      9  C   UNL     1      -3.988   3.152  -7.164  1.00  0.00     0.227 C 
ATOM     10  C   UNL     1      -4.541   3.282  -8.558  1.00  0.00     0.116 C 
ATOM     11  O   UNL     1      -2.946   3.690  -6.816  1.00  0.00    -0.274 OA
BRANCH   7  12
ATOM     12  C   UNL     1      -4.605   1.893  -5.088  1.00  0.00     0.044 A 
ATOM     13  C   UNL     1      -4.229   1.125  -2.399  1.00  0.00     0.120 A 
ATOM     14  C   UNL     1      -4.951   0.312  -3.269  1.00  0.00     0.048 A 
ATOM     15  C   UNL     1      -3.682   2.312  -2.869  1.00  0.00     0.048 A 
ATOM     16  C   UNL     1      -5.162   0.706  -4.595  1.00  0.00     0.030 A 
ATOM     17  C   UNL     1      -3.860   2.684  -4.207  1.00  0.00     0.030 A 
BRANCH  13  18
ATOM     18  O   UNL     1      -4.040   0.632  -1.141  1.00  0.00    -0.484 OA
BRANCH  18  19
ATOM     19  C   UNL     1      -4.240   1.548  -0.079  1.00  0.00     0.329 C 
BRANCH  19  20
ATOM     20  C   UNL     1      -3.121   2.512   0.315  1.00  0.00     0.262 C 
ATOM     21  N   UNL     1      -1.806   2.166   0.378  1.00  0.00    -0.323 N 
ATOM     22  H   UNL     1      -1.218   2.940   0.530  1.00  0.00     0.170 HD
ATOM     23  O   UNL     1      -3.393   3.687   0.596  1.00  0.00    -0.271 OA
BRANCH  21  24
ATOM     24  C   UNL     1      -1.096   0.960   0.278  1.00  0.00     0.041 A 
ATOM     25  C   UNL     1       2.608   0.087  -0.100  1.00  0.00     0.044 C 
ATOM     26  C   UNL     1       1.122  -0.053   0.044  1.00  0.00    -0.049 A 
ATOM     27  C   UNL     1       0.537  -1.321   0.072  1.00  0.00     0.003 A 
ATOM     28  C   UNL     1       0.298   1.076   0.151  1.00  0.00     0.029 A 
ATOM     29  C   UNL     1      -0.842  -1.449   0.221  1.00  0.00     0.002 A 
ATOM     30  C   UNL     1      -1.653  -0.314   0.336  1.00  0.00     0.026 A 
ENDBRANCH  21  24
ENDBRANCH  19  20
ENDBRANCH  18  19
ENDBRANCH  13  18
ENDBRANCH   7  12
ENDBRANCH   3   6
ENDBRANCH   1   2
BRANCH   1  31
ATOM     31  C   UNL     1      -6.120   6.283  -7.068  1.00  0.00     0.042 C 
BRANCH  31  32
ATOM     32  C   UNL     1      -6.918   7.496  -7.544  1.00  0.00     0.118 C 
BRANCH  32  33
ATOM     33  N   UNL     1      -7.025   8.553  -6.542  1.00  0.00    -0.352 N 
ATOM     34  C   UNL     1      -7.494   9.854  -6.681  1.00  0.00     0.251 C 
ATOM     35  H   UNL     1      -6.721   8.309  -5.637  1.00  0.00     0.163 HD
ATOM     36  O   UNL     1      -7.493  10.641  -5.763  1.00  0.00    -0.269 OA
BRANCH  34  37
ATOM     37  C   UNL     1      -8.135  10.222  -7.969  1.00  0.00     0.039 A 
ATOM     38  C   UNL     1      -9.477  10.617  -7.918  1.00  0.00     0.014 A 
ATOM     39  C   UNL     1      -7.520   9.946  -9.185  1.00  0.00     0.014 A 
ATOM     40  C   UNL     1     -10.264  10.498  -9.059  1.00  0.00     0.010 A 
ATOM     41  C   UNL     1      -8.318   9.742 -10.296  1.00  0.00     0.010 A 
ATOM     42  C   UNL     1      -9.700   9.951 -10.214  1.00  0.00    -0.014 A 
BRANCH  42  43
ATOM     43  C   UNL     1     -10.511   9.393 -11.292  1.00  0.00     0.031 A 
ATOM     44  C   UNL     1     -10.613  10.044 -12.609  1.00  0.00     0.074 A 
ATOM     45  C   UNL     1     -11.162   8.223 -11.108  1.00  0.00     0.049 A 
ATOM     46  N   UNL     1     -11.649   9.948 -13.375  1.00  0.00    -0.248 NA
ATOM     47  C   UNL     1      -9.553  10.876 -13.165  1.00  0.00     0.031 C 
ATOM     48  C   UNL     1     -11.814   7.401 -12.122  1.00  0.00     0.029 A 
ATOM     49  N   UNL     1     -11.577   7.676  -9.897  1.00  0.00    -0.354 N 
ATOM     50  C   UNL     1     -11.280  10.409 -14.613  1.00  0.00     0.074 A 
ATOM     51  C   UNL     1     -10.000  11.055 -14.411  1.00  0.00     0.031 C 
ATOM     52  C   UNL     1     -12.748   6.644 -11.528  1.00  0.00     0.029 A 
ATOM     53  C   UNL     1     -12.815   7.047 -10.136  1.00  0.00     0.049 A 
ATOM     54  H   UNL     1     -11.098   7.720  -9.038  1.00  0.00     0.167 HD
ATOM     55  C   UNL     1     -11.998  10.068 -15.719  1.00  0.00     0.034 A 
ATOM     56  C   UNL     1     -13.937   7.433  -9.460  1.00  0.00     0.034 A 
ATOM     57  C   UNL     1     -13.141   9.207 -15.420  1.00  0.00     0.049 A 
ATOM     58  C   UNL     1     -15.053   7.945 -10.352  1.00  0.00     0.074 A 
ATOM     59  C   UNL     1     -13.413   7.860 -15.599  1.00  0.00     0.029 A 
ATOM     60  N   UNL     1     -14.153   9.688 -14.605  1.00  0.00    -0.354 N 
ATOM     61  N   UNL     1     -14.983   8.027 -11.653  1.00  0.00    -0.248 NA
ATOM     62  C   UNL     1     -16.303   8.500  -9.836  1.00  0.00     0.031 C 
ATOM     63  C   UNL     1     -14.612   7.545 -14.896  1.00  0.00     0.029 A 
ATOM     64  C   UNL     1     -15.073   8.703 -14.300  1.00  0.00     0.049 A 
ATOM     65  H   UNL     1     -14.209  10.617 -14.284  1.00  0.00     0.167 HD
ATOM     66  C   UNL     1     -16.077   8.704 -12.134  1.00  0.00     0.074 A 
ATOM     67  C   UNL     1     -16.881   8.970 -10.955  1.00  0.00     0.031 C 
ATOM     68  C   UNL     1     -16.207   9.044 -13.452  1.00  0.00     0.034 A 
BRANCH  55  69
ATOM     69  C   UNL     1     -11.463  10.306 -17.106  1.00  0.00     0.023 A 
ATOM     70  C   UNL     1     -11.651   9.338 -18.108  1.00  0.00     0.031 A 
ATOM     71  C   UNL     1     -10.733  11.450 -17.482  1.00  0.00     0.131 A 
ATOM     72  C   UNL     1     -11.040   9.466 -19.367  1.00  0.00     0.055 A 
ATOM     73  C   UNL     1     -10.071  11.550 -18.712  1.00  0.00     0.041 A 
ATOM     74  F   UNL     1     -10.647  12.517 -16.672  1.00  0.00    -0.206 F 
ATOM     75  C   UNL     1     -10.209  10.544 -19.658  1.00  0.00     0.022 A 
BRANCH  72  76
ATOM     76  S   UNL     1     -11.354   8.197 -20.624  1.00  0.00     0.124 S 
ATOM     77  O   UNL     1     -10.925   6.976 -19.950  1.00  0.00    -0.237 OA
ATOM     78  O   UNL     1     -12.788   8.339 -20.850  1.00  0.00    -0.237 OA
ATOM     79  O   UNL     1     -10.509   8.612 -21.743  1.00  0.00    -0.744 OA
ENDBRANCH  72  76
ENDBRANCH  55  69
BRANCH  56  80
ATOM     80  C   UNL     1     -13.631   7.891  -8.069  1.00  0.00     0.023 A 
ATOM     81  C   UNL     1     -12.897   6.999  -7.255  1.00  0.00     0.031 A 
ATOM     82  C   UNL     1     -13.665   9.239  -7.692  1.00  0.00     0.131 A 
ATOM     83  C   UNL     1     -12.065   7.489  -6.239  1.00  0.00     0.055 A 
ATOM     84  C   UNL     1     -12.918   9.708  -6.603  1.00  0.00     0.041 A 
ATOM     85  F   UNL     1     -14.310  10.147  -8.439  1.00  0.00    -0.206 F 
ATOM     86  C   UNL     1     -12.074   8.842  -5.903  1.00  0.00     0.022 A 
BRANCH  83  87
ATOM     87  S   UNL     1     -10.751   6.396  -5.616  1.00  0.00     0.124 S 
ATOM     88  O   UNL     1     -11.444   5.635  -4.584  1.00  0.00    -0.237 OA
ATOM     89  O   UNL     1     -10.361   5.647  -6.812  1.00  0.00    -0.237 OA
ATOM     90  O   UNL     1      -9.721   7.315  -5.138  1.00  0.00    -0.744 OA
ENDBRANCH  83  87
ENDBRANCH  56  80
BRANCH  68  91
ATOM     91  C   UNL     1     -17.393   9.774 -14.047  1.00  0.00     0.023 A 
ATOM     92  C   UNL     1     -18.693   9.663 -13.527  1.00  0.00     0.031 A 
ATOM     93  C   UNL     1     -17.269  10.562 -15.218  1.00  0.00     0.131 A 
ATOM     94  C   UNL     1     -19.764  10.386 -14.086  1.00  0.00     0.055 A 
ATOM     95  C   UNL     1     -18.348  11.222 -15.814  1.00  0.00     0.041 A 
ATOM     96  F   UNL     1     -16.091  10.750 -15.829  1.00  0.00    -0.206 F 
ATOM     97  C   UNL     1     -19.604  11.154 -15.237  1.00  0.00     0.022 A 
BRANCH  94  98
ATOM     98  S   UNL     1     -21.367  10.350 -13.244  1.00  0.00     0.124 S 
ATOM     99  O   UNL     1     -21.650   8.921 -13.162  1.00  0.00    -0.237 OA
ATOM    100  O   UNL     1     -21.053  11.008 -11.979  1.00  0.00    -0.237 OA
ATOM    101  O   UNL     1     -22.244  11.107 -14.135  1.00  0.00    -0.744 OA
ENDBRANCH  94  98
ENDBRANCH  68  91
ENDBRANCH  42  43
ENDBRANCH  34  37
ENDBRANCH  32  33
ENDBRANCH  31  32
ENDBRANCH   1  31
TORSDOF 18
