REMARK SMILES C[C@@H]1CCC[C@@H](C)C1[N@H+]1CCO[C@H](CC(=O)NCCCNC(=O)c2ccc(-c3c4nc(c(-c5cc(S(=O)(=O)[O-])ccc5F)c5ccc([nH]5)c(-c5cc(S(=O)(=O)[O-])ccc5F)c5nc(c(-c6cc(S(=O)(=O)[O-])ccc6F)c6ccc3[nH]6)C=C5)C=C4)cc2)C1
REMARK SMILES IDX 19 1 18 2 17 3 15 4 16 5 14 7 13 8 9 9 10 10 87 11 11 13
REMARK SMILES IDX 12 14 8 15 1 16 2 17 3 18 4 19 6 20 5 21 7 22 20 23 21 24
REMARK SMILES IDX 22 25 23 27 24 28 25 29 86 30 26 31 85 32 27 33 28 34 29 35
REMARK SMILES IDX 79 36 30 37 84 38 78 39 80 40 31 41 83 42 77 43 76 44 32 46
REMARK SMILES IDX 64 47 44 48 63 49 45 50 48 51 62 52 81 53 46 54 47 55 61 57
REMARK SMILES IDX 82 58 49 59 33 60 34 61 42 62 35 63 41 64 43 65 40 66 36 67
REMARK SMILES IDX 37 68 38 69 39 70 65 71 66 72 74 73 67 74 73 75 75 76 72 77
REMARK SMILES IDX 68 78 69 79 70 80 71 81 50 82 51 83 59 84 52 85 58 86 60 87
REMARK SMILES IDX 57 88 53 89 54 90 55 91 56 92
REMARK H PARENT 17 6 9 12 21 26 80 45 48 56
REMARK Flexibility Score: inf
ROOT
ATOM      1  C   UNL     1      -0.123   1.579   3.345  1.00  0.00     0.042 C 
ENDROOT
BRANCH   1   2
ATOM      2  C   UNL     1       0.498   0.791   4.495  1.00  0.00     0.117 C 
BRANCH   2   3
ATOM      3  N   UNL     1      -0.505   0.101   5.285  1.00  0.00    -0.356 N 
ATOM      4  C   UNL     1      -0.788  -1.221   5.406  1.00  0.00     0.222 C 
ATOM      5  O   UNL     1      -1.746  -1.547   6.107  1.00  0.00    -0.275 OA
ATOM      6  H   UNL     1      -1.078   0.692   5.824  1.00  0.00     0.163 HD
BRANCH   4   7
ATOM      7  C   UNL     1       0.077  -2.263   4.747  1.00  0.00     0.138 C 
BRANCH   7   8
ATOM      8  C   UNL     1      -0.042  -2.420   3.231  1.00  0.00     0.182 C 
ATOM      9  N   UNL     1      -1.427  -2.206   1.124  1.00  0.00    -0.328 N 
ATOM     10  C   UNL     1      -1.081  -3.605   0.854  1.00  0.00     0.291 C 
ATOM     11  C   UNL     1      -1.384  -1.996   2.595  1.00  0.00     0.295 C 
ATOM     12  H   UNL     1      -2.373  -2.092   0.761  1.00  0.00     0.348 HD
ATOM     13  C   UNL     1       0.182  -4.118   1.569  1.00  0.00     0.222 C 
ATOM     14  O   UNL     1       0.189  -3.824   2.967  1.00  0.00    -0.366 OA
BRANCH   9  15
ATOM     15  C   UNL     1      -0.830  -1.118   0.308  1.00  0.00     0.189 C 
ATOM     16  C   UNL     1       1.259   0.199  -0.355  1.00  0.00     0.014 C 
ATOM     17  C   UNL     1       0.681  -1.203  -0.073  1.00  0.00     0.045 C 
ATOM     18  C   UNL     1       0.969  -2.127  -1.270  1.00  0.00     0.009 C 
ATOM     19  C   UNL     1       0.066  -1.886  -2.475  1.00  0.00     0.001 C 
ATOM     20  C   UNL     1      -1.661  -0.800  -0.978  1.00  0.00     0.045 C 
ATOM     21  C   UNL     1      -1.415  -1.792  -2.117  1.00  0.00     0.009 C 
ATOM     22  C   UNL     1      -3.157  -0.621  -0.704  1.00  0.00     0.014 C 
ENDBRANCH   9  15
ENDBRANCH   7   8
ENDBRANCH   4   7
ENDBRANCH   2   3
ENDBRANCH   1   2
BRANCH   1  23
ATOM     23  C   UNL     1      -1.193   2.588   3.749  1.00  0.00     0.118 C 
BRANCH  23  24
ATOM     24  N   UNL     1      -0.639   3.714   4.475  1.00  0.00    -0.352 N 
ATOM     25  C   UNL     1      -0.801   5.060   4.253  1.00  0.00     0.251 C 
ATOM     26  H   UNL     1      -0.063   3.480   5.238  1.00  0.00     0.163 HD
ATOM     27  O   UNL     1      -0.072   5.847   4.851  1.00  0.00    -0.269 OA
BRANCH  25  28
ATOM     28  C   UNL     1      -1.817   5.564   3.296  1.00  0.00     0.039 A 
ATOM     29  C   UNL     1      -1.502   6.683   2.519  1.00  0.00     0.014 A 
ATOM     30  C   UNL     1      -3.090   4.992   3.197  1.00  0.00     0.014 A 
ATOM     31  C   UNL     1      -2.445   7.210   1.632  1.00  0.00     0.010 A 
ATOM     32  C   UNL     1      -4.005   5.474   2.259  1.00  0.00     0.010 A 
ATOM     33  C   UNL     1      -3.702   6.603   1.482  1.00  0.00    -0.014 A 
BRANCH  33  34
ATOM     34  C   UNL     1      -4.720   7.175   0.558  1.00  0.00     0.031 A 
ATOM     35  C   UNL     1      -6.007   7.737   1.107  1.00  0.00     0.074 A 
ATOM     36  C   UNL     1      -4.501   7.170  -0.772  1.00  0.00     0.049 A 
ATOM     37  N   UNL     1      -7.027   8.250   0.468  1.00  0.00    -0.248 NA
ATOM     38  C   UNL     1      -6.178   7.686   2.566  1.00  0.00     0.031 C 
ATOM     39  C   UNL     1      -3.313   6.621  -1.429  1.00  0.00     0.029 A 
ATOM     40  N   UNL     1      -5.267   7.639  -1.810  1.00  0.00    -0.354 N 
ATOM     41  C   UNL     1      -7.965   8.572   1.444  1.00  0.00     0.074 A 
ATOM     42  C   UNL     1      -7.416   8.132   2.709  1.00  0.00     0.031 C 
ATOM     43  C   UNL     1      -3.419   6.808  -2.755  1.00  0.00     0.029 A 
ATOM     44  C   UNL     1      -4.695   7.454  -3.048  1.00  0.00     0.049 A 
ATOM     45  H   UNL     1      -6.143   8.068  -1.681  1.00  0.00     0.167 HD
ATOM     46  C   UNL     1      -9.161   9.200   1.305  1.00  0.00     0.034 A 
ATOM     47  C   UNL     1      -5.149   7.765  -4.279  1.00  0.00     0.034 A 
ATOM     48  C   UNL     1      -9.690   9.646   0.039  1.00  0.00     0.049 A 
ATOM     49  C   UNL     1      -6.480   8.461  -4.411  1.00  0.00     0.074 A 
ATOM     50  C   UNL     1     -10.868  10.327  -0.213  1.00  0.00     0.029 A 
ATOM     51  N   UNL     1      -9.075   9.453  -1.192  1.00  0.00    -0.354 N 
ATOM     52  N   UNL     1      -7.334   8.799  -3.473  1.00  0.00    -0.248 NA
ATOM     53  C   UNL     1      -6.899   8.834  -5.768  1.00  0.00     0.031 C 
ATOM     54  C   UNL     1     -10.995  10.492  -1.598  1.00  0.00     0.029 A 
ATOM     55  C   UNL     1      -9.859   9.982  -2.207  1.00  0.00     0.049 A 
ATOM     56  H   UNL     1      -8.208   9.006  -1.325  1.00  0.00     0.167 HD
ATOM     57  C   UNL     1      -8.375   9.454  -4.125  1.00  0.00     0.074 A 
ATOM     58  C   UNL     1      -8.032   9.477  -5.532  1.00  0.00     0.031 C 
ATOM     59  C   UNL     1      -9.510   9.992  -3.608  1.00  0.00     0.034 A 
BRANCH  46  60
ATOM     60  C   UNL     1      -9.980   9.415   2.558  1.00  0.00     0.023 A 
ATOM     61  C   UNL     1      -9.510  10.207   3.621  1.00  0.00     0.031 A 
ATOM     62  C   UNL     1     -11.232   8.792   2.709  1.00  0.00     0.131 A 
ATOM     63  C   UNL     1     -10.242  10.286   4.815  1.00  0.00     0.055 A 
ATOM     64  C   UNL     1     -11.997   8.945   3.868  1.00  0.00     0.041 A 
ATOM     65  F   UNL     1     -11.727   8.008   1.738  1.00  0.00    -0.206 F 
ATOM     66  C   UNL     1     -11.495   9.682   4.937  1.00  0.00     0.022 A 
BRANCH  63  67
ATOM     67  S   UNL     1      -9.462  11.059   6.259  1.00  0.00     0.124 S 
ATOM     68  O   UNL     1      -8.271  10.230   6.428  1.00  0.00    -0.237 OA
ATOM     69  O   UNL     1      -9.231  12.424   5.800  1.00  0.00    -0.237 OA
ATOM     70  O   UNL     1     -10.467  10.915   7.310  1.00  0.00    -0.744 OA
ENDBRANCH  63  67
ENDBRANCH  46  60
BRANCH  47  71
ATOM     71  C   UNL     1      -4.344   7.426  -5.487  1.00  0.00     0.023 A 
ATOM     72  C   UNL     1      -3.812   8.430  -6.311  1.00  0.00     0.031 A 
ATOM     73  C   UNL     1      -4.128   6.086  -5.857  1.00  0.00     0.131 A 
ATOM     74  C   UNL     1      -3.133   8.082  -7.490  1.00  0.00     0.055 A 
ATOM     75  C   UNL     1      -3.408   5.744  -7.003  1.00  0.00     0.041 A 
ATOM     76  F   UNL     1      -4.608   5.087  -5.100  1.00  0.00    -0.206 F 
ATOM     77  C   UNL     1      -2.917   6.746  -7.834  1.00  0.00     0.022 A 
BRANCH  74  78
ATOM     78  S   UNL     1      -2.605   9.406  -8.612  1.00  0.00     0.124 S 
ATOM     79  O   UNL     1      -3.870  10.069  -8.906  1.00  0.00    -0.237 OA
ATOM     80  O   UNL     1      -1.667  10.151  -7.779  1.00  0.00    -0.237 OA
ATOM     81  O   UNL     1      -2.003   8.683  -9.730  1.00  0.00    -0.744 OA
ENDBRANCH  74  78
ENDBRANCH  47  71
BRANCH  59  82
ATOM     82  C   UNL     1     -10.434  10.698  -4.572  1.00  0.00     0.023 A 
ATOM     83  C   UNL     1     -11.117  10.007  -5.587  1.00  0.00     0.031 A 
ATOM     84  C   UNL     1     -10.613  12.091  -4.484  1.00  0.00     0.131 A 
ATOM     85  C   UNL     1     -11.897  10.717  -6.513  1.00  0.00     0.055 A 
ATOM     86  C   UNL     1     -11.440  12.783  -5.369  1.00  0.00     0.041 A 
ATOM     87  F   UNL     1      -9.984  12.803  -3.535  1.00  0.00    -0.206 F 
ATOM     88  C   UNL     1     -12.075  12.098  -6.401  1.00  0.00     0.022 A 
BRANCH  85  89
ATOM     89  S   UNL     1     -12.590   9.825  -7.933  1.00  0.00     0.124 S 
ATOM     90  O   UNL     1     -11.396   9.249  -8.543  1.00  0.00    -0.237 OA
ATOM     91  O   UNL     1     -13.499   8.880  -7.293  1.00  0.00    -0.237 OA
ATOM     92  O   UNL     1     -13.240  10.876  -8.714  1.00  0.00    -0.744 OA
ENDBRANCH  85  89
ENDBRANCH  59  82
ENDBRANCH  33  34
ENDBRANCH  25  28
ENDBRANCH  23  24
ENDBRANCH   1  23
TORSDOF 15
