REMARK SMILES CCC(CC)NC(=O)NC[C@H]1CC[C@H](C(=O)NCCCNC(=O)c2ccc(-c3c4nc(c(-c5cc(S(=O)(=O)[O-])ccc5F)c5ccc([nH]5)c(-c5cc(S(=O)(=O)[O-])ccc5F)c5nc(c(-c6cc(S(=O)(=O)[O-])ccc6F)c6ccc3[nH]6)C=C5)C=C4)cc2)O1
REMARK SMILES IDX 18 1 17 2 15 3 16 4 14 6 11 7 12 8 87 9 13 10 10 11 9 12
REMARK SMILES IDX 6 13 7 14 8 16 3 18 2 19 1 20 4 21 5 22 19 23 20 24 21 25
REMARK SMILES IDX 22 26 23 28 24 29 25 30 86 31 26 32 85 33 27 34 28 35 29 36
REMARK SMILES IDX 79 37 30 38 84 39 78 40 80 41 31 42 83 43 77 44 76 45 32 47
REMARK SMILES IDX 64 48 44 49 63 50 45 51 48 52 62 53 81 54 46 55 47 56 61 58
REMARK SMILES IDX 82 59 49 60 33 61 34 62 42 63 35 64 41 65 43 66 40 67 36 68
REMARK SMILES IDX 37 69 38 70 39 71 65 72 66 73 74 74 67 75 73 76 75 77 72 78
REMARK SMILES IDX 68 79 69 80 70 81 71 82 50 83 51 84 59 85 52 86 58 87 60 88
REMARK SMILES IDX 57 89 53 90 54 91 55 92 56 93
REMARK H PARENT 17 5 6 15 9 17 21 27 80 46 48 57
REMARK Flexibility Score: inf
ROOT
ATOM      1  C   UNL     1       1.048   3.638  -1.646  1.00  0.00     0.117 C 
ENDROOT
BRANCH   1   2
ATOM      2  N   UNL     1       1.246   3.280  -3.032  1.00  0.00    -0.354 N 
ATOM      3  C   UNL     1       2.404   3.100  -3.727  1.00  0.00     0.249 C 
ATOM      4  O   UNL     1       2.304   2.759  -4.910  1.00  0.00    -0.272 OA
ATOM      5  H   UNL     1       0.421   3.148  -3.552  1.00  0.00     0.163 HD
BRANCH   3   6
ATOM      6  C   UNL     1       3.795   3.380  -3.105  1.00  0.00     0.207 C 
ATOM      7  C   UNL     1       4.483   3.766  -0.887  1.00  0.00     0.138 C 
ATOM      8  C   UNL     1       4.361   5.133  -1.544  1.00  0.00     0.037 C 
ATOM      9  O   UNL     1       4.107   2.777  -1.856  1.00  0.00    -0.363 OA
ATOM     10  C   UNL     1       4.107   4.862  -3.008  1.00  0.00     0.045 C 
BRANCH   7  11
ATOM     11  C   UNL     1       5.856   3.504  -0.231  1.00  0.00     0.149 C 
BRANCH  11  12
ATOM     12  N   UNL     1       6.305   2.126  -0.299  1.00  0.00    -0.336 N 
ATOM     13  N   UNL     1       7.787   2.025  -2.140  1.00  0.00    -0.335 N 
ATOM     14  C   UNL     1       7.184   1.480  -1.073  1.00  0.00     0.315 C 
ATOM     15  H   UNL     1       8.492   1.452  -2.519  1.00  0.00     0.165 HD
ATOM     16  O   UNL     1       7.472   0.317  -0.782  1.00  0.00    -0.249 OA
ATOM     17  H   UNL     1       5.870   1.543   0.364  1.00  0.00     0.165 HD
BRANCH  13  18
ATOM     18  C   UNL     1       7.622   3.282  -2.858  1.00  0.00     0.083 C 
BRANCH  18  19
ATOM     19  C   UNL     1       8.788   4.228  -2.531  1.00  0.00     0.021 C 
ATOM     20  C   UNL     1       8.527   5.664  -2.962  1.00  0.00     0.006 C 
ENDBRANCH  18  19
BRANCH  18  21
ATOM     21  C   UNL     1       7.383   3.027  -4.357  1.00  0.00     0.021 C 
ATOM     22  C   UNL     1       8.576   2.509  -5.141  1.00  0.00     0.006 C 
ENDBRANCH  18  21
ENDBRANCH  13  18
ENDBRANCH  11  12
ENDBRANCH   7  11
ENDBRANCH   3   6
ENDBRANCH   1   2
BRANCH   1  23
ATOM     23  C   UNL     1       0.749   5.122  -1.468  1.00  0.00     0.042 C 
BRANCH  23  24
ATOM     24  C   UNL     1      -0.716   5.469  -1.702  1.00  0.00     0.118 C 
BRANCH  24  25
ATOM     25  N   UNL     1      -1.574   4.891  -0.677  1.00  0.00    -0.352 N 
ATOM     26  C   UNL     1      -2.400   5.497   0.236  1.00  0.00     0.251 C 
ATOM     27  H   UNL     1      -1.560   3.907  -0.632  1.00  0.00     0.163 HD
ATOM     28  O   UNL     1      -2.828   4.837   1.179  1.00  0.00    -0.269 OA
BRANCH  26  29
ATOM     29  C   UNL     1      -2.761   6.925   0.100  1.00  0.00     0.039 A 
ATOM     30  C   UNL     1      -2.891   7.701   1.256  1.00  0.00     0.014 A 
ATOM     31  C   UNL     1      -3.016   7.493  -1.151  1.00  0.00     0.014 A 
ATOM     32  C   UNL     1      -3.220   9.054   1.152  1.00  0.00     0.010 A 
ATOM     33  C   UNL     1      -3.261   8.858  -1.259  1.00  0.00     0.010 A 
ATOM     34  C   UNL     1      -3.373   9.652  -0.109  1.00  0.00    -0.014 A 
BRANCH  34  35
ATOM     35  C   UNL     1      -3.660  11.104  -0.246  1.00  0.00     0.031 A 
ATOM     36  C   UNL     1      -4.949  11.561  -0.873  1.00  0.00     0.074 A 
ATOM     37  C   UNL     1      -2.729  12.002   0.133  1.00  0.00     0.049 A 
ATOM     38  N   UNL     1      -5.344  12.774  -1.163  1.00  0.00    -0.248 NA
ATOM     39  C   UNL     1      -5.907  10.511  -1.252  1.00  0.00     0.031 C 
ATOM     40  C   UNL     1      -1.426  11.672   0.716  1.00  0.00     0.029 A 
ATOM     41  N   UNL     1      -2.728  13.372   0.076  1.00  0.00    -0.354 N 
ATOM     42  C   UNL     1      -6.587  12.633  -1.773  1.00  0.00     0.074 A 
ATOM     43  C   UNL     1      -6.849  11.213  -1.864  1.00  0.00     0.031 C 
ATOM     44  C   UNL     1      -0.763  12.808   0.983  1.00  0.00     0.029 A 
ATOM     45  C   UNL     1      -1.568  13.944   0.546  1.00  0.00     0.049 A 
ATOM     46  H   UNL     1      -3.486  13.897  -0.270  1.00  0.00     0.167 HD
ATOM     47  C   UNL     1      -7.438  13.601  -2.197  1.00  0.00     0.034 A 
ATOM     48  C   UNL     1      -1.190  15.236   0.605  1.00  0.00     0.034 A 
ATOM     49  C   UNL     1      -7.163  15.012  -2.082  1.00  0.00     0.049 A 
ATOM     50  C   UNL     1      -2.146  16.293   0.113  1.00  0.00     0.074 A 
ATOM     51  C   UNL     1      -7.974  16.080  -2.424  1.00  0.00     0.029 A 
ATOM     52  N   UNL     1      -5.980  15.555  -1.593  1.00  0.00    -0.354 N 
ATOM     53  N   UNL     1      -3.339  16.145  -0.416  1.00  0.00    -0.248 NA
ATOM     54  C   UNL     1      -1.710  17.689   0.235  1.00  0.00     0.031 C 
ATOM     55  C   UNL     1      -7.259  17.263  -2.208  1.00  0.00     0.029 A 
ATOM     56  C   UNL     1      -6.030  16.940  -1.655  1.00  0.00     0.049 A 
ATOM     57  H   UNL     1      -5.218  15.033  -1.253  1.00  0.00     0.167 HD
ATOM     58  C   UNL     1      -3.807  17.433  -0.661  1.00  0.00     0.074 A 
ATOM     59  C   UNL     1      -2.774  18.342  -0.206  1.00  0.00     0.031 C 
ATOM     60  C   UNL     1      -4.984  17.831  -1.208  1.00  0.00     0.034 A 
BRANCH  47  61
ATOM     61  C   UNL     1      -8.730  13.158  -2.843  1.00  0.00     0.023 A 
ATOM     62  C   UNL     1      -9.693  12.413  -2.139  1.00  0.00     0.031 A 
ATOM     63  C   UNL     1      -8.995  13.464  -4.190  1.00  0.00     0.131 A 
ATOM     64  C   UNL     1     -10.833  11.933  -2.802  1.00  0.00     0.055 A 
ATOM     65  C   UNL     1     -10.172  13.055  -4.822  1.00  0.00     0.041 A 
ATOM     66  F   UNL     1      -8.106  14.154  -4.922  1.00  0.00    -0.206 F 
ATOM     67  C   UNL     1     -11.092  12.272  -4.132  1.00  0.00     0.022 A 
BRANCH  64  68
ATOM     68  S   UNL     1     -11.896  10.741  -1.944  1.00  0.00     0.124 S 
ATOM     69  O   UNL     1     -10.957   9.656  -1.666  1.00  0.00    -0.237 OA
ATOM     70  O   UNL     1     -12.354  11.502  -0.787  1.00  0.00    -0.237 OA
ATOM     71  O   UNL     1     -12.926  10.426  -2.932  1.00  0.00    -0.744 OA
ENDBRANCH  64  68
ENDBRANCH  47  61
BRANCH  48  72
ATOM     72  C   UNL     1       0.151  15.608   1.139  1.00  0.00     0.023 A 
ATOM     73  C   UNL     1       0.278  16.371   2.310  1.00  0.00     0.031 A 
ATOM     74  C   UNL     1       1.328  15.236   0.465  1.00  0.00     0.131 A 
ATOM     75  C   UNL     1       1.548  16.779   2.746  1.00  0.00     0.055 A 
ATOM     76  C   UNL     1       2.593  15.598   0.932  1.00  0.00     0.041 A 
ATOM     77  F   UNL     1       1.266  14.499  -0.656  1.00  0.00    -0.206 F 
ATOM     78  C   UNL     1       2.707  16.387   2.072  1.00  0.00     0.022 A 
BRANCH  75  79
ATOM     79  S   UNL     1       1.659  17.906   4.163  1.00  0.00     0.124 S 
ATOM     80  O   UNL     1       0.854  19.034   3.708  1.00  0.00    -0.237 OA
ATOM     81  O   UNL     1       1.086  17.099   5.235  1.00  0.00    -0.237 OA
ATOM     82  O   UNL     1       3.092  18.166   4.278  1.00  0.00    -0.744 OA
ENDBRANCH  75  79
ENDBRANCH  48  72
BRANCH  60  83
ATOM     83  C   UNL     1      -5.228  19.317  -1.299  1.00  0.00     0.023 A 
ATOM     84  C   UNL     1      -4.463  20.142  -2.143  1.00  0.00     0.031 A 
ATOM     85  C   UNL     1      -6.231  19.918  -0.518  1.00  0.00     0.131 A 
ATOM     86  C   UNL     1      -4.675  21.529  -2.143  1.00  0.00     0.055 A 
ATOM     87  C   UNL     1      -6.480  21.290  -0.570  1.00  0.00     0.041 A 
ATOM     88  F   UNL     1      -6.989  19.178   0.307  1.00  0.00    -0.206 F 
ATOM     89  C   UNL     1      -5.690  22.105  -1.375  1.00  0.00     0.022 A 
BRANCH  86  90
ATOM     90  S   UNL     1      -3.541  22.582  -3.088  1.00  0.00     0.124 S 
ATOM     91  O   UNL     1      -2.251  22.253  -2.489  1.00  0.00    -0.237 OA
ATOM     92  O   UNL     1      -3.746  22.114  -4.455  1.00  0.00    -0.237 OA
ATOM     93  O   UNL     1      -4.023  23.935  -2.818  1.00  0.00    -0.744 OA
ENDBRANCH  86  90
ENDBRANCH  60  83
ENDBRANCH  34  35
ENDBRANCH  26  29
ENDBRANCH  24  25
ENDBRANCH  23  24
ENDBRANCH   1  23
TORSDOF 18
