REMARK SMILES O=C(NCCCNC(=O)c1c(-c2ccc(Cl)cc2)noc1CO[C@@H]1CCCCO1)c1ccc(-c2c3nc(c(-c4cc(S(=O)(=O)[O-])ccc4F)c4ccc([nH]4)c(-c4cc(S(=O)(=O)[O-])ccc4F)c4nc(c(-c5cc(S(=O)(=O)[O-])ccc5F)c5ccc2[nH]5)C=C4)C=C3)cc1
REMARK SMILES IDX 5 1 4 2 3 3 1 4 2 5 30 7 31 8 92 9 32 10 91 11 33 12 34 13
REMARK SMILES IDX 35 14 85 15 36 16 90 17 84 18 86 19 37 20 89 21 83 22 82 23
REMARK SMILES IDX 38 25 70 26 50 27 69 28 51 29 54 30 68 31 87 32 52 33 53 34
REMARK SMILES IDX 67 36 88 37 55 38 39 39 40 40 48 41 41 42 47 43 49 44 46 45
REMARK SMILES IDX 42 46 43 47 44 48 45 49 71 50 72 51 80 52 73 53 79 54 81 55
REMARK SMILES IDX 78 56 74 57 75 58 76 59 77 60 56 61 57 62 65 63 58 64 64 65
REMARK SMILES IDX 66 66 63 67 59 68 60 69 61 70 62 71 6 72 7 73 8 74 9 76
REMARK SMILES IDX 10 77 11 78 21 79 19 80 20 81 12 82 13 83 18 84 14 85 17 86
REMARK SMILES IDX 15 87 16 88 22 89 23 90 24 91 25 92 29 93 26 94 28 95 27 96
REMARK H PARENT 3 6 86 24 54 35 7 75
REMARK Flexibility Score: inf
ROOT
ATOM      1  C   UNL     1       5.070   1.345  -2.095  1.00  0.00     0.042 C 
ENDROOT
BRANCH   1   2
ATOM      2  C   UNL     1       4.781   1.278  -0.598  1.00  0.00     0.118 C 
BRANCH   2   3
ATOM      3  N   UNL     1       3.368   1.084  -0.302  1.00  0.00    -0.352 N 
ATOM      4  O   UNL     1       1.455   0.013   0.153  1.00  0.00    -0.269 OA
ATOM      5  C   UNL     1       2.685  -0.007   0.176  1.00  0.00     0.251 C 
ATOM      6  H   UNL     1       2.805   1.873  -0.474  1.00  0.00     0.163 HD
BRANCH   5   7
ATOM      7  C   UNL     1       3.390  -1.200   0.700  1.00  0.00     0.039 A 
ATOM      8  C   UNL     1       4.517  -1.084   1.516  1.00  0.00     0.014 A 
ATOM      9  C   UNL     1       2.861  -2.469   0.431  1.00  0.00     0.014 A 
ATOM     10  C   UNL     1       5.186  -2.228   1.947  1.00  0.00     0.010 A 
ATOM     11  C   UNL     1       3.494  -3.617   0.922  1.00  0.00     0.010 A 
ATOM     12  C   UNL     1       4.682  -3.506   1.657  1.00  0.00    -0.014 A 
BRANCH  12  13
ATOM     13  C   UNL     1       5.410  -4.699   2.161  1.00  0.00     0.031 A 
ATOM     14  C   UNL     1       6.127  -5.626   1.219  1.00  0.00     0.074 A 
ATOM     15  C   UNL     1       5.479  -4.908   3.490  1.00  0.00     0.049 A 
ATOM     16  N   UNL     1       6.887  -6.656   1.496  1.00  0.00    -0.248 NA
ATOM     17  C   UNL     1       5.955  -5.375  -0.218  1.00  0.00     0.031 C 
ATOM     18  C   UNL     1       4.799  -4.104   4.509  1.00  0.00     0.029 A 
ATOM     19  N   UNL     1       6.189  -5.831   4.211  1.00  0.00    -0.354 N 
ATOM     20  C   UNL     1       7.256  -7.198   0.270  1.00  0.00     0.074 A 
ATOM     21  C   UNL     1       6.633  -6.382  -0.752  1.00  0.00     0.031 C 
ATOM     22  C   UNL     1       5.185  -4.522   5.725  1.00  0.00     0.029 A 
ATOM     23  C   UNL     1       6.118  -5.632   5.569  1.00  0.00     0.049 A 
ATOM     24  H   UNL     1       6.699  -6.565   3.798  1.00  0.00     0.167 HD
ATOM     25  C   UNL     1       8.037  -8.278   0.019  1.00  0.00     0.034 A 
ATOM     26  C   UNL     1       6.755  -6.255   6.576  1.00  0.00     0.034 A 
ATOM     27  C   UNL     1       8.677  -9.076   1.034  1.00  0.00     0.049 A 
ATOM     28  C   UNL     1       7.709  -7.370   6.271  1.00  0.00     0.074 A 
ATOM     29  C   UNL     1       9.476 -10.198   0.883  1.00  0.00     0.029 A 
ATOM     30  N   UNL     1       8.604  -8.824   2.397  1.00  0.00    -0.354 N 
ATOM     31  N   UNL     1       8.019  -7.890   5.109  1.00  0.00    -0.248 NA
ATOM     32  C   UNL     1       8.396  -7.979   7.416  1.00  0.00     0.031 C 
ATOM     33  C   UNL     1       9.870 -10.634   2.156  1.00  0.00     0.029 A 
ATOM     34  C   UNL     1       9.342  -9.766   3.097  1.00  0.00     0.049 A 
ATOM     35  H   UNL     1       8.101  -8.084   2.807  1.00  0.00     0.167 HD
ATOM     36  C   UNL     1       8.922  -8.908   5.385  1.00  0.00     0.074 A 
ATOM     37  C   UNL     1       9.130  -8.909   6.819  1.00  0.00     0.031 C 
ATOM     38  C   UNL     1       9.516  -9.773   4.526  1.00  0.00     0.034 A 
BRANCH  25  39
ATOM     39  C   UNL     1       8.186  -8.684  -1.422  1.00  0.00     0.023 A 
ATOM     40  C   UNL     1       8.962  -7.934  -2.321  1.00  0.00     0.031 A 
ATOM     41  C   UNL     1       7.499  -9.808  -1.910  1.00  0.00     0.131 A 
ATOM     42  C   UNL     1       8.987  -8.287  -3.679  1.00  0.00     0.055 A 
ATOM     43  C   UNL     1       7.573 -10.186  -3.251  1.00  0.00     0.041 A 
ATOM     44  F   UNL     1       6.726 -10.543  -1.094  1.00  0.00    -0.206 F 
ATOM     45  C   UNL     1       8.311  -9.417  -4.147  1.00  0.00     0.022 A 
BRANCH  42  46
ATOM     46  S   UNL     1       9.827  -7.184  -4.848  1.00  0.00     0.124 S 
ATOM     47  O   UNL     1       9.044  -5.958  -4.712  1.00  0.00    -0.237 OA
ATOM     48  O   UNL     1      11.185  -7.137  -4.319  1.00  0.00    -0.237 OA
ATOM     49  O   UNL     1       9.681  -7.870  -6.130  1.00  0.00    -0.744 OA
ENDBRANCH  42  46
ENDBRANCH  25  39
BRANCH  26  50
ATOM     50  C   UNL     1       6.516  -5.821   7.971  1.00  0.00     0.023 A 
ATOM     51  C   UNL     1       7.402  -4.939   8.606  1.00  0.00     0.031 A 
ATOM     52  C   UNL     1       5.386  -6.265   8.674  1.00  0.00     0.131 A 
ATOM     53  C   UNL     1       7.147  -4.530   9.921  1.00  0.00     0.055 A 
ATOM     54  C   UNL     1       5.134  -5.851   9.982  1.00  0.00     0.041 A 
ATOM     55  F   UNL     1       4.509  -7.096   8.091  1.00  0.00    -0.206 F 
ATOM     56  C   UNL     1       6.019  -4.981  10.614  1.00  0.00     0.022 A 
BRANCH  53  57
ATOM     57  S   UNL     1       8.314  -3.398  10.722  1.00  0.00     0.124 S 
ATOM     58  O   UNL     1       9.559  -4.155  10.665  1.00  0.00    -0.237 OA
ATOM     59  O   UNL     1       8.238  -2.224   9.859  1.00  0.00    -0.237 OA
ATOM     60  O   UNL     1       7.750  -3.224  12.059  1.00  0.00    -0.744 OA
ENDBRANCH  53  57
ENDBRANCH  26  50
BRANCH  38  61
ATOM     61  C   UNL     1      10.430 -10.795   5.135  1.00  0.00     0.023 A 
ATOM     62  C   UNL     1       9.912 -11.938   5.765  1.00  0.00     0.031 A 
ATOM     63  C   UNL     1      11.821 -10.611   5.113  1.00  0.00     0.131 A 
ATOM     64  C   UNL     1      10.784 -12.848   6.378  1.00  0.00     0.055 A 
ATOM     65  C   UNL     1      12.686 -11.530   5.708  1.00  0.00     0.041 A 
ATOM     66  F   UNL     1      12.356  -9.527   4.530  1.00  0.00    -0.206 F 
ATOM     67  C   UNL     1      12.169 -12.652   6.351  1.00  0.00     0.022 A 
BRANCH  64  68
ATOM     68  S   UNL     1      10.084 -14.265   7.267  1.00  0.00     0.124 S 
ATOM     69  O   UNL     1       9.184 -13.619   8.217  1.00  0.00    -0.237 OA
ATOM     70  O   UNL     1       9.445 -15.020   6.194  1.00  0.00    -0.237 OA
ATOM     71  O   UNL     1      11.254 -14.907   7.864  1.00  0.00    -0.744 OA
ENDBRANCH  64  68
ENDBRANCH  38  61
ENDBRANCH  12  13
ENDBRANCH   5   7
ENDBRANCH   2   3
ENDBRANCH   1   2
BRANCH   1  72
ATOM     72  C   UNL     1       4.351   2.468  -2.836  1.00  0.00     0.118 C 
BRANCH  72  73
ATOM     73  N   UNL     1       4.689   3.787  -2.322  1.00  0.00    -0.352 N 
ATOM     74  C   UNL     1       5.506   4.762  -2.836  1.00  0.00     0.257 C 
ATOM     75  H   UNL     1       4.261   4.018  -1.466  1.00  0.00     0.163 HD
ATOM     76  O   UNL     1       5.801   5.713  -2.114  1.00  0.00    -0.269 OA
BRANCH  74  77
ATOM     77  C   UNL     1       5.983   4.653  -4.190  1.00  0.00     0.113 A 
ATOM     78  C   UNL     1       7.307   4.830  -4.684  1.00  0.00     0.127 A 
ATOM     79  C   UNL     1       5.218   4.518  -5.331  1.00  0.00     0.175 A 
ATOM     80  N   UNL     1       7.335   4.719  -6.022  1.00  0.00    -0.079 NA
ATOM     81  O   UNL     1       6.030   4.514  -6.419  1.00  0.00    -0.357 OA
BRANCH  78  82
ATOM     82  C   UNL     1       8.527   5.106  -3.932  1.00  0.00     0.005 A 
ATOM     83  C   UNL     1       8.907   4.300  -2.851  1.00  0.00     0.012 A 
ATOM     84  C   UNL     1       9.331   6.199  -4.289  1.00  0.00     0.012 A 
ATOM     85  C   UNL     1      10.071   4.589  -2.131  1.00  0.00     0.021 A 
ATOM     86  C   UNL     1      10.490   6.491  -3.566  1.00  0.00     0.021 A 
ATOM     87  C   UNL     1      10.855   5.685  -2.489  1.00  0.00     0.041 A 
ATOM     88  Cl  UNL     1      12.281   6.048  -1.597  1.00  0.00    -0.084 Cl
ENDBRANCH  78  82
BRANCH  79  89
ATOM     89  C   UNL     1       3.764   4.418  -5.591  1.00  0.00     0.242 C 
BRANCH  89  90
ATOM     90  O   UNL     1       3.308   5.514  -6.384  1.00  0.00    -0.345 OA
BRANCH  90  91
ATOM     91  C   UNL     1       3.313   6.767  -5.700  1.00  0.00     0.250 C 
ATOM     92  C   UNL     1       2.183   7.638  -6.250  1.00  0.00     0.062 C 
ATOM     93  O   UNL     1       4.560   7.446  -5.835  1.00  0.00    -0.353 OA
ATOM     94  C   UNL     1       2.450   8.045  -7.696  1.00  0.00     0.008 C 
ATOM     95  C   UNL     1       4.890   7.732  -7.194  1.00  0.00     0.163 C 
ATOM     96  C   UNL     1       3.846   8.642  -7.830  1.00  0.00     0.029 C 
ENDBRANCH  90  91
ENDBRANCH  89  90
ENDBRANCH  79  89
ENDBRANCH  74  77
ENDBRANCH  72  73
ENDBRANCH   1  72
TORSDOF 17
