REMARK SMILES CC[NH2+]C(C)(C)C(=O)N[C@@](C)(C(=O)NCCCNC(=O)c1ccc(-c2c3nc(c(-c4cc(S(=O)(=O)[O-])ccc4F)c4ccc([nH]4)c(-c4cc(S(=O)(=O)[O-])ccc4F)c4nc(c(-c5cc(S(=O)(=O)[O-])ccc5F)c5ccc2[nH]5)C=C4)C=C3)cc1)C(F)(F)F
REMARK SMILES IDX 15 1 14 2 12 3 13 4 10 6 11 7 9 8 7 9 8 10 4 12 5 13 6 14
REMARK SMILES IDX 3 15 2 18 1 19 84 20 85 21 86 22 87 23 16 24 17 25 18 26
REMARK SMILES IDX 19 27 20 29 21 30 22 31 83 32 23 33 82 34 24 35 25 36 26 37
REMARK SMILES IDX 76 38 27 39 81 40 75 41 77 42 28 43 80 44 74 45 73 46 29 48
REMARK SMILES IDX 61 49 41 50 60 51 42 52 45 53 59 54 78 55 43 56 44 57 58 59
REMARK SMILES IDX 79 60 46 61 30 62 31 63 39 64 32 65 38 66 40 67 37 68 33 69
REMARK SMILES IDX 34 70 35 71 36 72 62 73 63 74 71 75 64 76 70 77 72 78 69 79
REMARK SMILES IDX 65 80 66 81 67 82 68 83 47 84 48 85 56 86 49 87 55 88 57 89
REMARK SMILES IDX 54 90 50 91 51 92 52 93 53 94
REMARK H PARENT 14 5 9 11 3 16 3 17 18 28 77 47 45 58
REMARK Flexibility Score: inf
ROOT
ATOM      1  C   UNL     1      -3.970   5.003   4.808  1.00  0.00     0.117 C 
ENDROOT
BRANCH   1   2
ATOM      2  N   UNL     1      -2.812   4.598   5.589  1.00  0.00    -0.354 N 
ATOM      3  C   UNL     1      -1.466   4.647   5.386  1.00  0.00     0.254 C 
ATOM      4  O   UNL     1      -0.790   4.185   6.311  1.00  0.00    -0.272 OA
ATOM      5  H   UNL     1      -3.055   4.201   6.457  1.00  0.00     0.163 HD
BRANCH   3   6
ATOM      6  C   UNL     1      -0.821   5.186   4.088  1.00  0.00     0.212 C 
ATOM      7  C   UNL     1      -1.313   6.609   3.738  1.00  0.00     0.056 C 
BRANCH   6   8
ATOM      8  N   UNL     1      -1.307   4.250   2.986  1.00  0.00    -0.329 N 
ATOM      9  C   UNL     1      -0.901   3.276   2.125  1.00  0.00     0.281 C 
ATOM     10  O   UNL     1      -1.841   2.708   1.554  1.00  0.00    -0.268 OA
ATOM     11  H   UNL     1      -2.269   4.409   2.846  1.00  0.00     0.165 HD
BRANCH   9  12
ATOM     12  C   UNL     1       0.580   2.920   1.842  1.00  0.00     0.169 C 
ATOM     13  C   UNL     1       1.208   2.329   3.109  1.00  0.00     0.090 C 
ATOM     14  C   UNL     1       1.253   4.218   1.345  1.00  0.00     0.090 C 
BRANCH  12  15
ATOM     15  N   UNL     1       0.793   2.006   0.680  1.00  0.00    -0.334 N 
ATOM     16  H   UNL     1       0.371   2.453  -0.134  1.00  0.00     0.347 HD
ATOM     17  H   UNL     1       1.805   1.876   0.653  1.00  0.00     0.347 HD
BRANCH  15  18
ATOM     18  C   UNL     1       0.265   0.647   0.747  1.00  0.00     0.257 C 
ATOM     19  C   UNL     1       0.791  -0.133  -0.457  1.00  0.00     0.071 C 
ENDBRANCH  15  18
ENDBRANCH  12  15
ENDBRANCH   9  12
ENDBRANCH   6   8
BRANCH   6  20
ATOM     20  C   UNL     1       0.681   5.406   4.462  1.00  0.00     0.420 C 
ATOM     21  F   UNL     1       1.375   4.310   4.802  1.00  0.00    -0.168 F 
ATOM     22  F   UNL     1       1.365   6.002   3.453  1.00  0.00    -0.168 F 
ATOM     23  F   UNL     1       0.793   6.274   5.507  1.00  0.00    -0.168 F 
ENDBRANCH   6  20
ENDBRANCH   3   6
ENDBRANCH   1   2
BRANCH   1  24
ATOM     24  C   UNL     1      -4.973   3.875   4.631  1.00  0.00     0.042 C 
BRANCH  24  25
ATOM     25  C   UNL     1      -5.581   3.367   5.929  1.00  0.00     0.118 C 
BRANCH  25  26
ATOM     26  N   UNL     1      -6.317   4.399   6.648  1.00  0.00    -0.352 N 
ATOM     27  C   UNL     1      -7.655   4.472   6.953  1.00  0.00     0.251 C 
ATOM     28  H   UNL     1      -5.774   5.159   6.961  1.00  0.00     0.163 HD
ATOM     29  O   UNL     1      -8.117   5.527   7.385  1.00  0.00    -0.269 OA
BRANCH  27  30
ATOM     30  C   UNL     1      -8.530   3.300   6.738  1.00  0.00     0.039 A 
ATOM     31  C   UNL     1      -9.801   3.489   6.190  1.00  0.00     0.014 A 
ATOM     32  C   UNL     1      -8.096   2.015   7.070  1.00  0.00     0.014 A 
ATOM     33  C   UNL     1     -10.603   2.380   5.907  1.00  0.00     0.010 A 
ATOM     34  C   UNL     1      -8.851   0.910   6.695  1.00  0.00     0.010 A 
ATOM     35  C   UNL     1     -10.118   1.079   6.117  1.00  0.00    -0.014 A 
BRANCH  35  36
ATOM     36  C   UNL     1     -10.923  -0.121   5.769  1.00  0.00     0.031 A 
ATOM     37  C   UNL     1     -11.312  -1.098   6.848  1.00  0.00     0.074 A 
ATOM     38  C   UNL     1     -11.241  -0.370   4.483  1.00  0.00     0.049 A 
ATOM     39  N   UNL     1     -11.910  -2.256   6.742  1.00  0.00    -0.248 NA
ATOM     40  C   UNL     1     -10.947  -0.736   8.226  1.00  0.00     0.031 C 
ATOM     41  C   UNL     1     -10.893   0.484   3.345  1.00  0.00     0.029 A 
ATOM     42  N   UNL     1     -11.920  -1.418   3.913  1.00  0.00    -0.354 N 
ATOM     43  C   UNL     1     -11.979  -2.767   8.034  1.00  0.00     0.074 A 
ATOM     44  C   UNL     1     -11.296  -1.824   8.893  1.00  0.00     0.031 C 
ATOM     45  C   UNL     1     -11.382  -0.060   2.220  1.00  0.00     0.029 A 
ATOM     46  C   UNL     1     -12.028  -1.329   2.543  1.00  0.00     0.049 A 
ATOM     47  H   UNL     1     -12.294  -2.164   4.434  1.00  0.00     0.167 HD
ATOM     48  C   UNL     1     -12.578  -3.903   8.467  1.00  0.00     0.034 A 
ATOM     49  C   UNL     1     -12.569  -2.180   1.649  1.00  0.00     0.034 A 
ATOM     50  C   UNL     1     -13.264  -4.826   7.596  1.00  0.00     0.049 A 
ATOM     51  C   UNL     1     -13.192  -3.460   2.148  1.00  0.00     0.074 A 
ATOM     52  C   UNL     1     -13.944  -5.983   7.932  1.00  0.00     0.029 A 
ATOM     53  N   UNL     1     -13.350  -4.703   6.215  1.00  0.00    -0.354 N 
ATOM     54  N   UNL     1     -13.285  -3.910   3.380  1.00  0.00    -0.248 NA
ATOM     55  C   UNL     1     -13.793  -4.343   1.140  1.00  0.00     0.031 C 
ATOM     56  C   UNL     1     -14.372  -6.599   6.752  1.00  0.00     0.029 A 
ATOM     57  C   UNL     1     -14.043  -5.780   5.683  1.00  0.00     0.049 A 
ATOM     58  H   UNL     1     -12.973  -3.960   5.690  1.00  0.00     0.167 HD
ATOM     59  C   UNL     1     -13.989  -5.108   3.294  1.00  0.00     0.074 A 
ATOM     60  C   UNL     1     -14.306  -5.304   1.894  1.00  0.00     0.031 C 
ATOM     61  C   UNL     1     -14.349  -5.965   4.284  1.00  0.00     0.034 A 
BRANCH  48  62
ATOM     62  C   UNL     1     -12.492  -4.215   9.943  1.00  0.00     0.023 A 
ATOM     63  C   UNL     1     -13.041  -3.358  10.914  1.00  0.00     0.031 A 
ATOM     64  C   UNL     1     -11.828  -5.371  10.391  1.00  0.00     0.131 A 
ATOM     65  C   UNL     1     -12.842  -3.623  12.277  1.00  0.00     0.055 A 
ATOM     66  C   UNL     1     -11.714  -5.677  11.749  1.00  0.00     0.041 A 
ATOM     67  F   UNL     1     -11.262  -6.217   9.515  1.00  0.00    -0.206 F 
ATOM     68  C   UNL     1     -12.208  -4.792  12.702  1.00  0.00     0.022 A 
BRANCH  65  69
ATOM     69  S   UNL     1     -13.283  -2.338  13.479  1.00  0.00     0.124 S 
ATOM     70  O   UNL     1     -12.465  -1.216  13.024  1.00  0.00    -0.237 OA
ATOM     71  O   UNL     1     -14.721  -2.202  13.283  1.00  0.00    -0.237 OA
ATOM     72  O   UNL     1     -12.879  -2.915  14.760  1.00  0.00    -0.744 OA
ENDBRANCH  65  69
ENDBRANCH  48  62
BRANCH  49  73
ATOM     73  C   UNL     1     -12.537  -1.868   0.190  1.00  0.00     0.023 A 
ATOM     74  C   UNL     1     -13.724  -1.687  -0.537  1.00  0.00     0.031 A 
ATOM     75  C   UNL     1     -11.320  -1.796  -0.511  1.00  0.00     0.131 A 
ATOM     76  C   UNL     1     -13.673  -1.496  -1.927  1.00  0.00     0.055 A 
ATOM     77  C   UNL     1     -11.271  -1.544  -1.883  1.00  0.00     0.041 A 
ATOM     78  F   UNL     1     -10.153  -1.960   0.134  1.00  0.00    -0.206 F 
ATOM     79  C   UNL     1     -12.454  -1.407  -2.603  1.00  0.00     0.022 A 
BRANCH  76  80
ATOM     80  S   UNL     1     -15.230  -1.466  -2.857  1.00  0.00     0.124 S 
ATOM     81  O   UNL     1     -15.805  -2.761  -2.513  1.00  0.00    -0.237 OA
ATOM     82  O   UNL     1     -15.896  -0.297  -2.294  1.00  0.00    -0.237 OA
ATOM     83  O   UNL     1     -14.794  -1.325  -4.245  1.00  0.00    -0.744 OA
ENDBRANCH  76  80
ENDBRANCH  49  73
BRANCH  61  84
ATOM     84  C   UNL     1     -15.182  -7.163   3.892  1.00  0.00     0.023 A 
ATOM     85  C   UNL     1     -14.678  -8.187   3.072  1.00  0.00     0.031 A 
ATOM     86  C   UNL     1     -16.507  -7.277   4.352  1.00  0.00     0.131 A 
ATOM     87  C   UNL     1     -15.511  -9.251   2.692  1.00  0.00     0.055 A 
ATOM     88  C   UNL     1     -17.308  -8.372   4.027  1.00  0.00     0.041 A 
ATOM     89  F   UNL     1     -17.043  -6.327   5.135  1.00  0.00    -0.206 F 
ATOM     90  C   UNL     1     -16.815  -9.361   3.181  1.00  0.00     0.022 A 
BRANCH  87  91
ATOM     91  S   UNL     1     -14.899 -10.444   1.470  1.00  0.00     0.124 S 
ATOM     92  O   UNL     1     -14.593  -9.582   0.332  1.00  0.00    -0.237 OA
ATOM     93  O   UNL     1     -13.750 -11.030   2.153  1.00  0.00    -0.237 OA
ATOM     94  O   UNL     1     -16.031 -11.348   1.275  1.00  0.00    -0.744 OA
ENDBRANCH  87  91
ENDBRANCH  61  84
ENDBRANCH  35  36
ENDBRANCH  27  30
ENDBRANCH  25  26
ENDBRANCH  24  25
ENDBRANCH   1  24
TORSDOF 18
