REMARK SMILES O=C(CCC(=O)Nc1scc2c1c(=O)oc1ccccc12)NCCCNC(=O)c1ccc(-c2c3nc(c(-c4cc(S(=O)(=O)[O-])ccc4F)c4ccc([nH]4)c(-c4cc(S(=O)(=O)[O-])ccc4F)c4nc(c(-c5cc(S(=O)(=O)[O-])ccc5F)c5ccc2[nH]5)C=C4)C=C3)cc1
REMARK SMILES IDX 24 1 23 2 22 3 1 4 2 5 3 7 4 8 5 9 6 10 7 11 8 13 9 14 12 15
REMARK SMILES IDX 10 16 11 17 13 18 21 19 14 20 15 21 16 22 20 23 17 24 19 25
REMARK SMILES IDX 18 26 25 27 26 28 27 29 28 31 29 32 30 33 91 34 31 35 90 36
REMARK SMILES IDX 32 37 33 38 34 39 84 40 35 41 89 42 83 43 85 44 36 45 88 46
REMARK SMILES IDX 82 47 81 48 37 50 69 51 49 52 68 53 50 54 53 55 67 56 86 57
REMARK SMILES IDX 51 58 52 59 66 61 87 62 54 63 38 64 39 65 47 66 40 67 46 68
REMARK SMILES IDX 48 69 45 70 41 71 42 72 43 73 44 74 70 75 71 76 79 77 72 78
REMARK SMILES IDX 78 79 80 80 77 81 73 82 74 83 75 84 76 85 55 86 56 87 64 88
REMARK SMILES IDX 57 89 63 90 65 91 62 92 58 93 59 94 60 95 61 96
REMARK H PARENT 22 6 7 12 26 30 85 49 53 60
REMARK Flexibility Score: inf
ROOT
ATOM      1  C   UNL     1       3.894   3.589   0.591  1.00  0.00     0.042 C 
ENDROOT
BRANCH   1   2
ATOM      2  C   UNL     1       3.772   2.189   0.021  1.00  0.00     0.117 C 
BRANCH   2   3
ATOM      3  N   UNL     1       4.651   1.172   0.576  1.00  0.00    -0.356 N 
ATOM      4  O   UNL     1       3.270  -0.034   2.007  1.00  0.00    -0.275 OA
ATOM      5  C   UNL     1       4.187   0.038   1.225  1.00  0.00     0.220 C 
ATOM      6  H   UNL     1       5.623   1.295   0.485  1.00  0.00     0.163 HD
BRANCH   5   7
ATOM      7  C   UNL     1       4.842  -1.225   0.717  1.00  0.00     0.110 C 
BRANCH   7   8
ATOM      8  C   UNL     1       4.073  -1.694  -0.519  1.00  0.00     0.110 C 
BRANCH   8   9
ATOM      9  C   UNL     1       4.215  -0.701  -1.640  1.00  0.00     0.225 C 
ATOM     10  O   UNL     1       5.349  -0.457  -2.073  1.00  0.00    -0.275 OA
ATOM     11  N   UNL     1       3.172  -0.088  -2.248  1.00  0.00    -0.317 N 
ATOM     12  H   UNL     1       3.450   0.355  -3.082  1.00  0.00     0.170 HD
BRANCH  11  13
ATOM     13  C   UNL     1       1.824   0.082  -2.013  1.00  0.00     0.110 A 
ATOM     14  S   UNL     1       1.117   0.591  -3.511  1.00  0.00    -0.125 S 
ATOM     15  C   UNL     1       0.862   0.060  -1.021  1.00  0.00     0.103 A 
ATOM     16  C   UNL     1      -0.461   0.653  -2.869  1.00  0.00     0.076 A 
ATOM     17  C   UNL     1      -0.468   0.281  -1.552  1.00  0.00     0.013 A 
ATOM     18  C   UNL     1       0.846   0.064   0.445  1.00  0.00     0.347 A 
ATOM     19  C   UNL     1      -1.595   0.284  -0.623  1.00  0.00     0.026 A 
ATOM     20  O   UNL     1       1.159   1.040   1.116  1.00  0.00    -0.246 OA
ATOM     21  O   UNL     1      -0.080  -0.849   0.937  1.00  0.00    -0.422 OA
ATOM     22  C   UNL     1      -1.333  -0.275   0.654  1.00  0.00     0.139 A 
ATOM     23  C   UNL     1      -2.822   0.895  -0.853  1.00  0.00     0.012 A 
ATOM     24  C   UNL     1      -2.267  -0.228   1.682  1.00  0.00     0.048 A 
ATOM     25  C   UNL     1      -3.765   0.946   0.181  1.00  0.00     0.001 A 
ATOM     26  C   UNL     1      -3.488   0.394   1.440  1.00  0.00     0.004 A 
ENDBRANCH  11  13
ENDBRANCH   8   9
ENDBRANCH   7   8
ENDBRANCH   5   7
ENDBRANCH   2   3
ENDBRANCH   1   2
BRANCH   1  27
ATOM     27  C   UNL     1       5.248   4.217   0.282  1.00  0.00     0.118 C 
BRANCH  27  28
ATOM     28  N   UNL     1       5.568   4.143  -1.134  1.00  0.00    -0.352 N 
ATOM     29  C   UNL     1       5.488   4.995  -2.193  1.00  0.00     0.251 C 
ATOM     30  H   UNL     1       5.931   3.264  -1.389  1.00  0.00     0.163 HD
ATOM     31  O   UNL     1       5.874   4.542  -3.275  1.00  0.00    -0.269 OA
BRANCH  29  32
ATOM     32  C   UNL     1       4.979   6.386  -2.140  1.00  0.00     0.039 A 
ATOM     33  C   UNL     1       4.114   6.893  -1.168  1.00  0.00     0.014 A 
ATOM     34  C   UNL     1       5.341   7.204  -3.228  1.00  0.00     0.014 A 
ATOM     35  C   UNL     1       3.589   8.176  -1.307  1.00  0.00     0.010 A 
ATOM     36  C   UNL     1       4.817   8.481  -3.370  1.00  0.00     0.010 A 
ATOM     37  C   UNL     1       3.908   8.950  -2.429  1.00  0.00    -0.014 A 
BRANCH  37  38
ATOM     38  C   UNL     1       3.286  10.265  -2.564  1.00  0.00     0.031 A 
ATOM     39  C   UNL     1       3.666  11.273  -1.534  1.00  0.00     0.074 A 
ATOM     40  C   UNL     1       2.503  10.601  -3.609  1.00  0.00     0.049 A 
ATOM     41  N   UNL     1       2.905  11.856  -0.665  1.00  0.00    -0.248 NA
ATOM     42  C   UNL     1       5.092  11.594  -1.385  1.00  0.00     0.031 C 
ATOM     43  C   UNL     1       2.279   9.861  -4.854  1.00  0.00     0.029 A 
ATOM     44  N   UNL     1       1.818  11.759  -3.815  1.00  0.00    -0.354 N 
ATOM     45  C   UNL     1       3.721  12.736   0.051  1.00  0.00     0.074 A 
ATOM     46  C   UNL     1       5.073  12.440  -0.354  1.00  0.00     0.031 C 
ATOM     47  C   UNL     1       1.722  10.689  -5.767  1.00  0.00     0.029 A 
ATOM     48  C   UNL     1       1.420  11.959  -5.128  1.00  0.00     0.049 A 
ATOM     49  H   UNL     1       1.622  12.399  -3.094  1.00  0.00     0.167 HD
ATOM     50  C   UNL     1       3.211  13.742   0.820  1.00  0.00     0.034 A 
ATOM     51  C   UNL     1       0.969  13.118  -5.670  1.00  0.00     0.034 A 
ATOM     52  C   UNL     1       1.801  13.569   1.035  1.00  0.00     0.049 A 
ATOM     53  C   UNL     1       0.515  14.000  -4.565  1.00  0.00     0.074 A 
ATOM     54  C   UNL     1       1.029  12.629   1.686  1.00  0.00     0.029 A 
ATOM     55  N   UNL     1       0.937  14.284   0.242  1.00  0.00    -0.354 N 
ATOM     56  N   UNL     1      -0.545  13.774  -3.841  1.00  0.00    -0.248 NA
ATOM     57  C   UNL     1       1.499  14.893  -3.970  1.00  0.00     0.031 C 
ATOM     58  C   UNL     1      -0.143  12.506   0.889  1.00  0.00     0.029 A 
ATOM     59  C   UNL     1      -0.044  13.417  -0.165  1.00  0.00     0.049 A 
ATOM     60  H   UNL     1       1.008  15.237   0.009  1.00  0.00     0.167 HD
ATOM     61  C   UNL     1      -0.157  14.100  -2.550  1.00  0.00     0.074 A 
ATOM     62  C   UNL     1       1.070  14.880  -2.706  1.00  0.00     0.031 C 
ATOM     63  C   UNL     1      -0.691  13.469  -1.461  1.00  0.00     0.034 A 
BRANCH  50  64
ATOM     64  C   UNL     1       3.915  15.036   1.158  1.00  0.00     0.023 A 
ATOM     65  C   UNL     1       5.094  15.456   0.519  1.00  0.00     0.031 A 
ATOM     66  C   UNL     1       3.286  15.999   1.979  1.00  0.00     0.131 A 
ATOM     67  C   UNL     1       5.598  16.754   0.686  1.00  0.00     0.055 A 
ATOM     68  C   UNL     1       3.754  17.314   2.097  1.00  0.00     0.041 A 
ATOM     69  F   UNL     1       2.158  15.711   2.648  1.00  0.00    -0.206 F 
ATOM     70  C   UNL     1       4.916  17.700   1.444  1.00  0.00     0.022 A 
BRANCH  67  71
ATOM     71  S   UNL     1       7.155  17.243  -0.105  1.00  0.00     0.124 S 
ATOM     72  O   UNL     1       6.713  18.300  -1.008  1.00  0.00    -0.237 OA
ATOM     73  O   UNL     1       7.947  17.680   1.042  1.00  0.00    -0.237 OA
ATOM     74  O   UNL     1       7.615  16.012  -0.740  1.00  0.00    -0.744 OA
ENDBRANCH  67  71
ENDBRANCH  50  64
BRANCH  51  75
ATOM     75  C   UNL     1       1.385  13.660  -6.986  1.00  0.00     0.023 A 
ATOM     76  C   UNL     1       2.631  13.288  -7.527  1.00  0.00     0.031 A 
ATOM     77  C   UNL     1       0.730  14.754  -7.574  1.00  0.00     0.131 A 
ATOM     78  C   UNL     1       3.206  14.017  -8.574  1.00  0.00     0.055 A 
ATOM     79  C   UNL     1       1.298  15.473  -8.635  1.00  0.00     0.041 A 
ATOM     80  F   UNL     1      -0.442  15.189  -7.087  1.00  0.00    -0.206 F 
ATOM     81  C   UNL     1       2.549  15.113  -9.132  1.00  0.00     0.022 A 
BRANCH  78  82
ATOM     82  S   UNL     1       4.867  13.594  -9.166  1.00  0.00     0.124 S 
ATOM     83  O   UNL     1       4.703  13.645 -10.617  1.00  0.00    -0.237 OA
ATOM     84  O   UNL     1       5.670  14.663  -8.584  1.00  0.00    -0.237 OA
ATOM     85  O   UNL     1       5.094  12.259  -8.620  1.00  0.00    -0.744 OA
ENDBRANCH  78  82
ENDBRANCH  51  75
BRANCH  63  86
ATOM     86  C   UNL     1      -1.866  12.532  -1.646  1.00  0.00     0.023 A 
ATOM     87  C   UNL     1      -2.933  12.646  -0.737  1.00  0.00     0.031 A 
ATOM     88  C   UNL     1      -1.850  11.401  -2.485  1.00  0.00     0.131 A 
ATOM     89  C   UNL     1      -3.899  11.636  -0.648  1.00  0.00     0.055 A 
ATOM     90  C   UNL     1      -2.858  10.432  -2.445  1.00  0.00     0.041 A 
ATOM     91  F   UNL     1      -0.820  11.144  -3.299  1.00  0.00    -0.206 F 
ATOM     92  C   UNL     1      -3.878  10.536  -1.509  1.00  0.00     0.022 A 
BRANCH  89  93
ATOM     93  S   UNL     1      -5.100  11.636   0.708  1.00  0.00     0.124 S 
ATOM     94  O   UNL     1      -6.365  11.799  -0.003  1.00  0.00    -0.237 OA
ATOM     95  O   UNL     1      -4.887  10.322   1.312  1.00  0.00    -0.237 OA
ATOM     96  O   UNL     1      -4.699  12.768   1.537  1.00  0.00    -0.744 OA
ENDBRANCH  89  93
ENDBRANCH  63  86
ENDBRANCH  37  38
ENDBRANCH  29  32
ENDBRANCH  27  28
ENDBRANCH   1  27
TORSDOF 16
