REMARK SMILES O=C(NCCCNC(=O)c1cccc(Nc2ccc([N+](=O)[O-])cc2)c1)c1ccc(-c2c3nc(c(-c4cc(S(=O)(=O)[O-])ccc4F)c4ccc([nH]4)c(-c4cc(S(=O)(=O)[O-])ccc4F)c4nc(c(-c5cc(S(=O)(=O)[O-])ccc5F)c5ccc2[nH]5)C=C4)C=C3)cc1
REMARK SMILES IDX 5 1 4 2 3 3 1 4 2 5 26 7 27 8 88 9 28 10 87 11 29 12 30 13
REMARK SMILES IDX 31 14 81 15 32 16 86 17 80 18 82 19 33 20 85 21 79 22 78 23
REMARK SMILES IDX 34 25 66 26 46 27 65 28 47 29 50 30 64 31 83 32 48 33 49 34
REMARK SMILES IDX 63 36 84 37 51 38 35 39 36 40 44 41 37 42 43 43 45 44 42 45
REMARK SMILES IDX 38 46 39 47 40 48 41 49 67 50 68 51 76 52 69 53 75 54 77 55
REMARK SMILES IDX 74 56 70 57 71 58 72 59 73 60 52 61 53 62 61 63 54 64 60 65
REMARK SMILES IDX 62 66 59 67 55 68 56 69 57 70 58 71 6 72 7 73 8 74 9 76
REMARK SMILES IDX 10 77 11 78 25 79 12 80 14 81 13 82 15 83 16 85 17 86 24 87
REMARK SMILES IDX 18 88 23 89 19 90 20 91 21 92 22 93
REMARK H PARENT 3 6 82 24 50 35 7 75 15 84
REMARK Flexibility Score: inf
ROOT
ATOM      1  C   UNL     1       4.938  -2.349  -0.699  1.00  0.00     0.042 C 
ENDROOT
BRANCH   1   2
ATOM      2  C   UNL     1       4.609  -0.883  -0.941  1.00  0.00     0.118 C 
BRANCH   2   3
ATOM      3  N   UNL     1       3.180  -0.594  -0.884  1.00  0.00    -0.352 N 
ATOM      4  O   UNL     1       1.227   0.146  -0.049  1.00  0.00    -0.269 OA
ATOM      5  C   UNL     1       2.455   0.157   0.012  1.00  0.00     0.251 C 
ATOM      6  H   UNL     1       2.648  -1.003  -1.605  1.00  0.00     0.163 HD
BRANCH   5   7
ATOM      7  C   UNL     1       3.139   0.947   1.060  1.00  0.00     0.039 A 
ATOM      8  C   UNL     1       4.298   1.666   0.772  1.00  0.00     0.014 A 
ATOM      9  C   UNL     1       2.612   0.971   2.355  1.00  0.00     0.014 A 
ATOM     10  C   UNL     1       5.037   2.227   1.806  1.00  0.00     0.010 A 
ATOM     11  C   UNL     1       3.300   1.638   3.376  1.00  0.00     0.010 A 
ATOM     12  C   UNL     1       4.548   2.227   3.122  1.00  0.00    -0.014 A 
BRANCH  12  13
ATOM     13  C   UNL     1       5.362   2.861   4.195  1.00  0.00     0.031 A 
ATOM     14  C   UNL     1       5.891   2.053   5.351  1.00  0.00     0.074 A 
ATOM     15  C   UNL     1       5.676   4.168   4.086  1.00  0.00     0.049 A 
ATOM     16  N   UNL     1       6.662   2.433   6.340  1.00  0.00    -0.248 NA
ATOM     17  C   UNL     1       5.493   0.640   5.416  1.00  0.00     0.031 C 
ATOM     18  C   UNL     1       5.215   5.057   3.016  1.00  0.00     0.029 A 
ATOM     19  N   UNL     1       6.481   4.969   4.855  1.00  0.00    -0.354 N 
ATOM     20  C   UNL     1       6.819   1.317   7.157  1.00  0.00     0.074 A 
ATOM     21  C   UNL     1       6.034   0.256   6.563  1.00  0.00     0.031 C 
ATOM     22  C   UNL     1       5.798   6.255   3.155  1.00  0.00     0.029 A 
ATOM     23  C   UNL     1       6.616   6.247   4.362  1.00  0.00     0.049 A 
ATOM     24  H   UNL     1       6.919   4.660   5.680  1.00  0.00     0.167 HD
ATOM     25  C   UNL     1       7.556   1.189   8.290  1.00  0.00     0.034 A 
ATOM     26  C   UNL     1       7.313   7.300   4.830  1.00  0.00     0.034 A 
ATOM     27  C   UNL     1       8.350   2.254   8.859  1.00  0.00     0.049 A 
ATOM     28  C   UNL     1       8.115   7.133   6.092  1.00  0.00     0.074 A 
ATOM     29  C   UNL     1       9.162   2.221   9.980  1.00  0.00     0.029 A 
ATOM     30  N   UNL     1       8.429   3.546   8.354  1.00  0.00    -0.354 N 
ATOM     31  N   UNL     1       8.264   6.065   6.841  1.00  0.00    -0.248 NA
ATOM     32  C   UNL     1       8.844   8.314   6.568  1.00  0.00     0.031 C 
ATOM     33  C   UNL     1       9.680   3.505  10.189  1.00  0.00     0.029 A 
ATOM     34  C   UNL     1       9.252   4.324   9.157  1.00  0.00     0.049 A 
ATOM     35  H   UNL     1       7.968   3.865   7.545  1.00  0.00     0.167 HD
ATOM     36  C   UNL     1       9.123   6.442   7.867  1.00  0.00     0.074 A 
ATOM     37  C   UNL     1       9.475   7.827   7.626  1.00  0.00     0.031 C 
ATOM     38  C   UNL     1       9.581   5.710   8.915  1.00  0.00     0.034 A 
BRANCH  25  39
ATOM     39  C   UNL     1       7.496  -0.137   9.014  1.00  0.00     0.023 A 
ATOM     40  C   UNL     1       7.974  -1.326   8.435  1.00  0.00     0.031 A 
ATOM     41  C   UNL     1       6.926  -0.216  10.298  1.00  0.00     0.131 A 
ATOM     42  C   UNL     1       7.806  -2.549   9.104  1.00  0.00     0.055 A 
ATOM     43  C   UNL     1       6.834  -1.425  10.992  1.00  0.00     0.041 A 
ATOM     44  F   UNL     1       6.434   0.880  10.896  1.00  0.00    -0.206 F 
ATOM     45  C   UNL     1       7.262  -2.603  10.389  1.00  0.00     0.022 A 
BRANCH  42  46
ATOM     46  S   UNL     1       8.178  -4.085   8.211  1.00  0.00     0.124 S 
ATOM     47  O   UNL     1       7.305  -3.968   7.044  1.00  0.00    -0.237 OA
ATOM     48  O   UNL     1       9.607  -3.962   7.953  1.00  0.00    -0.237 OA
ATOM     49  O   UNL     1       7.801  -5.132   9.158  1.00  0.00    -0.744 OA
ENDBRANCH  42  46
ENDBRANCH  25  39
BRANCH  26  50
ATOM     50  C   UNL     1       7.270   8.606   4.115  1.00  0.00     0.023 A 
ATOM     51  C   UNL     1       8.423   9.151   3.530  1.00  0.00     0.031 A 
ATOM     52  C   UNL     1       6.074   9.341   4.027  1.00  0.00     0.131 A 
ATOM     53  C   UNL     1       8.365  10.411   2.916  1.00  0.00     0.055 A 
ATOM     54  C   UNL     1       6.010  10.570   3.370  1.00  0.00     0.041 A 
ATOM     55  F   UNL     1       4.941   8.861   4.566  1.00  0.00    -0.206 F 
ATOM     56  C   UNL     1       7.164  11.117   2.820  1.00  0.00     0.022 A 
BRANCH  53  57
ATOM     57  S   UNL     1       9.905  11.151   2.307  1.00  0.00     0.124 S 
ATOM     58  O   UNL     1      10.717  11.188   3.517  1.00  0.00    -0.237 OA
ATOM     59  O   UNL     1      10.317  10.194   1.285  1.00  0.00    -0.237 OA
ATOM     60  O   UNL     1       9.478  12.454   1.800  1.00  0.00    -0.744 OA
ENDBRANCH  53  57
ENDBRANCH  26  50
BRANCH  38  61
ATOM     61  C   UNL     1      10.546   6.397   9.849  1.00  0.00     0.023 A 
ATOM     62  C   UNL     1      10.148   7.474  10.661  1.00  0.00     0.031 A 
ATOM     63  C   UNL     1      11.892   5.995   9.895  1.00  0.00     0.131 A 
ATOM     64  C   UNL     1      11.100   8.155  11.434  1.00  0.00     0.055 A 
ATOM     65  C   UNL     1      12.823   6.638  10.712  1.00  0.00     0.041 A 
ATOM     66  F   UNL     1      12.327   4.974   9.139  1.00  0.00    -0.206 F 
ATOM     67  C   UNL     1      12.432   7.735  11.475  1.00  0.00     0.022 A 
BRANCH  64  68
ATOM     68  S   UNL     1      10.597   9.668  12.300  1.00  0.00     0.124 S 
ATOM     69  O   UNL     1      10.086  10.489  11.207  1.00  0.00    -0.237 OA
ATOM     70  O   UNL     1       9.601   9.170  13.243  1.00  0.00    -0.237 OA
ATOM     71  O   UNL     1      11.839  10.145  12.905  1.00  0.00    -0.744 OA
ENDBRANCH  64  68
ENDBRANCH  38  61
ENDBRANCH  12  13
ENDBRANCH   5   7
ENDBRANCH   2   3
ENDBRANCH   1   2
BRANCH   1  72
ATOM     72  C   UNL     1       4.379  -3.298  -1.748  1.00  0.00     0.118 C 
BRANCH  72  73
ATOM     73  N   UNL     1       4.867  -2.999  -3.088  1.00  0.00    -0.352 N 
ATOM     74  C   UNL     1       5.740  -3.688  -3.889  1.00  0.00     0.251 C 
ATOM     75  H   UNL     1       4.513  -2.169  -3.482  1.00  0.00     0.163 HD
ATOM     76  O   UNL     1       6.176  -3.164  -4.910  1.00  0.00    -0.269 OA
BRANCH  74  77
ATOM     77  C   UNL     1       6.153  -5.064  -3.547  1.00  0.00     0.041 A 
ATOM     78  C   UNL     1       7.495  -5.419  -3.683  1.00  0.00     0.014 A 
ATOM     79  C   UNL     1       5.205  -6.024  -3.173  1.00  0.00     0.039 A 
ATOM     80  C   UNL     1       7.891  -6.720  -3.391  1.00  0.00     0.003 A 
ATOM     81  C   UNL     1       5.590  -7.330  -2.854  1.00  0.00     0.039 A 
ATOM     82  C   UNL     1       6.946  -7.662  -2.969  1.00  0.00     0.026 A 
BRANCH  81  83
ATOM     83  N   UNL     1       4.602  -8.234  -2.426  1.00  0.00    -0.356 N 
ATOM     84  H   UNL     1       3.680  -7.904  -2.523  1.00  0.00     0.167 HD
BRANCH  83  85
ATOM     85  C   UNL     1       4.702  -9.524  -1.883  1.00  0.00     0.039 A 
ATOM     86  C   UNL     1       3.833 -10.516  -2.359  1.00  0.00     0.033 A 
ATOM     87  C   UNL     1       5.692  -9.882  -0.960  1.00  0.00     0.033 A 
ATOM     88  C   UNL     1       3.972 -11.846  -1.957  1.00  0.00     0.088 A 
ATOM     89  C   UNL     1       5.838 -11.208  -0.539  1.00  0.00     0.088 A 
ATOM     90  C   UNL     1       4.987 -12.190  -1.057  1.00  0.00     0.269 A 
BRANCH  90  91
ATOM     91  N   UNL     1       5.174 -13.595  -0.681  1.00  0.00     0.062 N 
ATOM     92  O   UNL     1       4.395 -14.430  -1.165  1.00  0.00    -0.258 OA
ATOM     93  O   UNL     1       6.110 -13.871   0.083  1.00  0.00    -0.258 OA
ENDBRANCH  90  91
ENDBRANCH  83  85
ENDBRANCH  81  83
ENDBRANCH  74  77
ENDBRANCH  72  73
ENDBRANCH   1  72
TORSDOF 16
