REMARK SMILES O=C(NCCCNC(=O)[C@@H]1CCCCC[C@@H]1NS(=O)(=O)c1cccc(F)c1)c1ccc(-c2c3nc(c(-c4cc(S(=O)(=O)[O-])ccc4F)c4ccc([nH]4)c(-c4cc(S(=O)(=O)[O-])ccc4F)c4nc(c(-c5cc(S(=O)(=O)[O-])ccc5F)c5ccc2[nH]5)C=C4)C=C3)cc1
REMARK SMILES IDX 6 1 5 2 4 3 3 4 1 5 2 6 28 8 29 9 90 10 30 11 89 12 31 13
REMARK SMILES IDX 32 14 33 15 83 16 34 17 88 18 82 19 84 20 35 21 87 22 81 23
REMARK SMILES IDX 80 24 36 26 68 27 48 28 67 29 49 30 52 31 66 32 85 33 50 34
REMARK SMILES IDX 51 35 65 37 86 38 53 39 37 40 38 41 46 42 39 43 45 44 47 45
REMARK SMILES IDX 44 46 40 47 41 48 42 49 43 50 69 51 70 52 78 53 71 54 77 55
REMARK SMILES IDX 79 56 76 57 72 58 73 59 74 60 75 61 54 62 55 63 63 64 56 65
REMARK SMILES IDX 62 66 64 67 61 68 57 69 58 70 59 71 60 72 7 73 8 74 9 76
REMARK SMILES IDX 10 77 11 78 16 80 15 81 14 82 13 83 12 84 17 86 18 88 19 89
REMARK SMILES IDX 20 90 21 91 22 92 27 93 23 94 25 95 24 96 26 97
REMARK H PARENT 3 7 84 25 52 36 7 75 17 87
REMARK Flexibility Score: 90.00
ROOT
ATOM      1  C   UNL     1       3.684   0.288   3.832  1.00  0.00     0.117 C 
ENDROOT
BRANCH   1   2
ATOM      2  C   UNL     1       3.807   0.457   2.317  1.00  0.00     0.042 C 
BRANCH   2   3
ATOM      3  C   UNL     1       3.246  -0.697   1.484  1.00  0.00     0.118 C 
BRANCH   3   4
ATOM      4  N   UNL     1       1.930  -0.425   0.931  1.00  0.00    -0.352 N 
ATOM      5  O   UNL     1       0.339   0.339  -0.438  1.00  0.00    -0.269 OA
ATOM      6  C   UNL     1       1.535   0.096  -0.279  1.00  0.00     0.251 C 
ATOM      7  H   UNL     1       1.186  -0.656   1.533  1.00  0.00     0.163 HD
BRANCH   6   8
ATOM      8  C   UNL     1       2.481   0.398  -1.389  1.00  0.00     0.039 A 
ATOM      9  C   UNL     1       3.470  -0.490  -1.808  1.00  0.00     0.014 A 
ATOM     10  C   UNL     1       2.274   1.563  -2.139  1.00  0.00     0.014 A 
ATOM     11  C   UNL     1       4.301  -0.169  -2.897  1.00  0.00     0.010 A 
ATOM     12  C   UNL     1       3.059   1.846  -3.271  1.00  0.00     0.010 A 
ATOM     13  C   UNL     1       4.098   0.991  -3.667  1.00  0.00    -0.014 A 
BRANCH  13  14
ATOM     14  C   UNL     1       4.907   1.271  -4.904  1.00  0.00     0.031 A 
ATOM     15  C   UNL     1       5.646   2.582  -5.090  1.00  0.00     0.074 A 
ATOM     16  C   UNL     1       4.980   0.357  -5.899  1.00  0.00     0.049 A 
ATOM     17  N   UNL     1       6.250   3.048  -6.158  1.00  0.00    -0.248 NA
ATOM     18  C   UNL     1       5.714   3.486  -3.932  1.00  0.00     0.031 C 
ATOM     19  C   UNL     1       4.354  -0.967  -5.883  1.00  0.00     0.029 A 
ATOM     20  N   UNL     1       5.621   0.395  -7.118  1.00  0.00    -0.354 N 
ATOM     21  C   UNL     1       6.745   4.303  -5.813  1.00  0.00     0.074 A 
ATOM     22  C   UNL     1       6.354   4.534  -4.437  1.00  0.00     0.031 C 
ATOM     23  C   UNL     1       4.690  -1.631  -6.998  1.00  0.00     0.029 A 
ATOM     24  C   UNL     1       5.468  -0.753  -7.865  1.00  0.00     0.049 A 
ATOM     25  H   UNL     1       6.140   1.172  -7.428  1.00  0.00     0.167 HD
ATOM     26  C   UNL     1       7.460   5.179  -6.564  1.00  0.00     0.034 A 
ATOM     27  C   UNL     1       5.861  -1.067  -9.117  1.00  0.00     0.034 A 
ATOM     28  C   UNL     1       7.883   4.951  -7.926  1.00  0.00     0.049 A 
ATOM     29  C   UNL     1       6.581  -0.045  -9.957  1.00  0.00     0.074 A 
ATOM     30  C   UNL     1       8.611   5.795  -8.751  1.00  0.00     0.029 A 
ATOM     31  N   UNL     1       7.637   3.802  -8.661  1.00  0.00    -0.354 N 
ATOM     32  N   UNL     1       6.956   1.169  -9.635  1.00  0.00    -0.248 NA
ATOM     33  C   UNL     1       6.909  -0.431 -11.338  1.00  0.00     0.031 C 
ATOM     34  C   UNL     1       8.759   5.181  -9.998  1.00  0.00     0.029 A 
ATOM     35  C   UNL     1       8.183   3.925  -9.932  1.00  0.00     0.049 A 
ATOM     36  H   UNL     1       7.147   3.015  -8.332  1.00  0.00     0.167 HD
ATOM     37  C   UNL     1       7.581   1.682 -10.768  1.00  0.00     0.074 A 
ATOM     38  C   UNL     1       7.543   0.647 -11.777  1.00  0.00     0.031 C 
ATOM     39  C   UNL     1       8.138   2.904 -10.948  1.00  0.00     0.034 A 
BRANCH  26  40
ATOM     40  C   UNL     1       7.830   6.507  -5.948  1.00  0.00     0.023 A 
ATOM     41  C   UNL     1       8.819   6.609  -4.956  1.00  0.00     0.031 A 
ATOM     42  C   UNL     1       7.248   7.694  -6.430  1.00  0.00     0.131 A 
ATOM     43  C   UNL     1       9.183   7.872  -4.463  1.00  0.00     0.055 A 
ATOM     44  C   UNL     1       7.655   8.950  -5.977  1.00  0.00     0.041 A 
ATOM     45  F   UNL     1       6.294   7.650  -7.374  1.00  0.00    -0.206 F 
ATOM     46  C   UNL     1       8.627   9.044  -4.986  1.00  0.00     0.022 A 
BRANCH  43  47
ATOM     47  S   UNL     1      10.370   7.969  -3.096  1.00  0.00     0.124 S 
ATOM     48  O   UNL     1       9.621   7.337  -2.012  1.00  0.00    -0.237 OA
ATOM     49  O   UNL     1      11.509   7.216  -3.607  1.00  0.00    -0.237 OA
ATOM     50  O   UNL     1      10.594   9.404  -2.936  1.00  0.00    -0.744 OA
ENDBRANCH  43  47
ENDBRANCH  26  40
BRANCH  27  51
ATOM     51  C   UNL     1       5.537  -2.405  -9.691  1.00  0.00     0.023 A 
ATOM     52  C   UNL     1       6.556  -3.315 -10.011  1.00  0.00     0.031 A 
ATOM     53  C   UNL     1       4.208  -2.777  -9.960  1.00  0.00     0.131 A 
ATOM     54  C   UNL     1       6.232  -4.543 -10.607  1.00  0.00     0.055 A 
ATOM     55  C   UNL     1       3.887  -4.021 -10.504  1.00  0.00     0.041 A 
ATOM     56  F   UNL     1       3.198  -1.940  -9.676  1.00  0.00    -0.206 F 
ATOM     57  C   UNL     1       4.904  -4.909 -10.839  1.00  0.00     0.022 A 
BRANCH  54  58
ATOM     58  S   UNL     1       7.579  -5.639 -11.130  1.00  0.00     0.124 S 
ATOM     59  O   UNL     1       8.240  -4.830 -12.148  1.00  0.00    -0.237 OA
ATOM     60  O   UNL     1       8.315  -5.833  -9.885  1.00  0.00    -0.237 OA
ATOM     61  O   UNL     1       6.880  -6.822 -11.627  1.00  0.00    -0.744 OA
ENDBRANCH  54  58
ENDBRANCH  27  51
BRANCH  39  62
ATOM     62  C   UNL     1       8.795   3.182 -12.277  1.00  0.00     0.023 A 
ATOM     63  C   UNL     1       8.043   3.347 -13.452  1.00  0.00     0.031 A 
ATOM     64  C   UNL     1      10.194   3.295 -12.363  1.00  0.00     0.131 A 
ATOM     65  C   UNL     1       8.696   3.580 -14.673  1.00  0.00     0.055 A 
ATOM     66  C   UNL     1      10.836   3.572 -13.571  1.00  0.00     0.041 A 
ATOM     67  F   UNL     1      10.959   3.145 -11.270  1.00  0.00    -0.206 F 
ATOM     68  C   UNL     1      10.087   3.709 -14.736  1.00  0.00     0.022 A 
BRANCH  65  69
ATOM     69  S   UNL     1       7.708   3.669 -16.192  1.00  0.00     0.124 S 
ATOM     70  O   UNL     1       7.157   2.320 -16.273  1.00  0.00    -0.237 OA
ATOM     71  O   UNL     1       6.755   4.730 -15.886  1.00  0.00    -0.237 OA
ATOM     72  O   UNL     1       8.691   4.000 -17.222  1.00  0.00    -0.744 OA
ENDBRANCH  65  69
ENDBRANCH  39  62
ENDBRANCH  13  14
ENDBRANCH   6   8
ENDBRANCH   3   4
ENDBRANCH   2   3
ENDBRANCH   1   2
BRANCH   1  73
ATOM     73  N   UNL     1       4.336  -0.902   4.352  1.00  0.00    -0.356 N 
ATOM     74  C   UNL     1       5.039  -1.103   5.497  1.00  0.00     0.224 C 
ATOM     75  H   UNL     1       4.253  -1.698   3.778  1.00  0.00     0.163 HD
ATOM     76  O   UNL     1       4.867  -2.193   6.058  1.00  0.00    -0.275 OA
BRANCH  74  77
ATOM     77  C   UNL     1       5.925  -0.057   6.162  1.00  0.00     0.096 C 
BRANCH  77  78
ATOM     78  C   UNL     1       5.008   0.913   6.946  1.00  0.00     0.015 CG0
ATOM     79  G   UNL     1       5.553   2.286   7.321  1.00  0.00     0.000 G0
ENDBRANCH  77  78
BRANCH  77  80
ATOM     80  C   UNL     1       7.132   0.533   5.403  1.00  0.00     0.082 C 
BRANCH  80  81
ATOM     81  C   UNL     1       6.952   1.776   4.535  1.00  0.00     0.021 C 
BRANCH  81  82
ATOM     82  C   UNL     1       6.851   3.095   5.295  1.00  0.00     0.002 C 
BRANCH  82  83
ATOM     83  C   UNL     1       5.610   3.257   6.149  1.00  0.00     0.000 C 
BRANCH  83  84
ATOM     84  C   UNL     1       5.553   2.286   7.321  1.00  0.00     0.001 CG0
ATOM     85  G   UNL     1       5.008   0.913   6.946  1.00  0.00     0.000 G0
ENDBRANCH  83  84
ENDBRANCH  82  83
ENDBRANCH  81  82
ENDBRANCH  80  81
BRANCH  80  86
ATOM     86  N   UNL     1       8.124  -0.395   4.804  1.00  0.00    -0.207 NA
ATOM     87  H   UNL     1       8.537  -0.849   5.619  1.00  0.00     0.141 HD
BRANCH  86  88
ATOM     88  S   UNL     1       8.020  -1.634   3.693  1.00  0.00     0.240 S 
ATOM     89  O   UNL     1       9.374  -2.118   3.557  1.00  0.00    -0.207 OA
ATOM     90  O   UNL     1       6.954  -2.529   4.079  1.00  0.00    -0.207 OA
BRANCH  88  91
ATOM     91  C   UNL     1       7.590  -0.949   2.121  1.00  0.00     0.085 A 
ATOM     92  C   UNL     1       6.880  -1.746   1.214  1.00  0.00     0.022 A 
ATOM     93  C   UNL     1       7.967   0.342   1.767  1.00  0.00     0.061 A 
ATOM     94  C   UNL     1       6.516  -1.226  -0.029  1.00  0.00     0.004 A 
ATOM     95  C   UNL     1       7.516   0.876   0.569  1.00  0.00     0.124 A 
ATOM     96  C   UNL     1       6.797   0.105  -0.333  1.00  0.00     0.039 A 
ATOM     97  F   UNL     1       7.765   2.160   0.288  1.00  0.00    -0.207 F 
ENDBRANCH  88  91
ENDBRANCH  86  88
ENDBRANCH  80  86
ENDBRANCH  77  80
ENDBRANCH  74  77
ENDBRANCH   1  73
TORSDOF 16
