REMARK SMILES O=C(NCCCNC(=O)[C@H]1CCCN1S(=O)(=O)c1ccccc1Cl)c1ccc(-c2c3nc(c(-c4cc(S(=O)(=O)[O-])ccc4F)c4ccc([nH]4)c(-c4cc(S(=O)(=O)[O-])ccc4F)c4nc(c(-c5cc(S(=O)(=O)[O-])ccc5F)c5ccc2[nH]5)C=C4)C=C3)cc1
REMARK SMILES IDX 4 1 3 2 1 3 2 4 25 6 26 7 87 8 27 9 86 10 28 11 29 12 30 13
REMARK SMILES IDX 80 14 31 15 85 16 79 17 81 18 32 19 84 20 78 21 77 22 33 24
REMARK SMILES IDX 65 25 45 26 64 27 46 28 49 29 63 30 82 31 47 32 48 33 62 35
REMARK SMILES IDX 83 36 50 37 34 38 35 39 43 40 36 41 42 42 44 43 41 44 37 45
REMARK SMILES IDX 38 46 39 47 40 48 66 49 67 50 75 51 68 52 74 53 76 54 73 55
REMARK SMILES IDX 69 56 70 57 71 58 72 59 51 60 52 61 60 62 53 63 59 64 61 65
REMARK SMILES IDX 58 66 54 67 55 68 56 69 57 70 5 71 6 72 7 73 8 74 9 76 10 77
REMARK SMILES IDX 11 78 14 79 12 80 13 81 15 82 16 83 17 84 18 85 19 86 23 87
REMARK SMILES IDX 20 88 22 89 24 90 21 91
REMARK H PARENT 3 5 81 23 49 34 7 75
REMARK Flexibility Score: inf
ROOT
ATOM      1  C   UNL     1       9.031  -4.286   5.996  1.00  0.00     0.118 C 
ENDROOT
BRANCH   1   2
ATOM      2  N   UNL     1       9.550  -2.958   6.285  1.00  0.00    -0.352 N 
ATOM      3  O   UNL     1      10.208  -1.214   7.538  1.00  0.00    -0.269 OA
ATOM      4  C   UNL     1       9.995  -2.423   7.470  1.00  0.00     0.251 C 
ATOM      5  H   UNL     1       9.588  -2.348   5.513  1.00  0.00     0.163 HD
BRANCH   4   6
ATOM      6  C   UNL     1      10.212  -3.280   8.660  1.00  0.00     0.039 A 
ATOM      7  C   UNL     1      10.834  -4.526   8.550  1.00  0.00     0.014 A 
ATOM      8  C   UNL     1       9.839  -2.800   9.920  1.00  0.00     0.014 A 
ATOM      9  C   UNL     1      10.973  -5.337   9.674  1.00  0.00     0.010 A 
ATOM     10  C   UNL     1      10.050  -3.584  11.060  1.00  0.00     0.010 A 
ATOM     11  C   UNL     1      10.601  -4.869  10.944  1.00  0.00    -0.014 A 
BRANCH  11  12
ATOM     12  C   UNL     1      10.860  -5.714  12.140  1.00  0.00     0.031 A 
ATOM     13  C   UNL     1       9.729  -6.263  12.965  1.00  0.00     0.074 A 
ATOM     14  C   UNL     1      12.136  -6.001  12.467  1.00  0.00     0.049 A 
ATOM     15  N   UNL     1       9.776  -7.021  14.031  1.00  0.00    -0.248 NA
ATOM     16  C   UNL     1       8.367  -5.905  12.544  1.00  0.00     0.031 C 
ATOM     17  C   UNL     1      13.316  -5.514  11.747  1.00  0.00     0.029 A 
ATOM     18  N   UNL     1      12.659  -6.776  13.470  1.00  0.00    -0.354 N 
ATOM     19  C   UNL     1       8.456  -7.225  14.417  1.00  0.00     0.074 A 
ATOM     20  C   UNL     1       7.633  -6.477  13.488  1.00  0.00     0.031 C 
ATOM     21  C   UNL     1      14.419  -6.035  12.306  1.00  0.00     0.029 A 
ATOM     22  C   UNL     1      14.033  -6.838  13.460  1.00  0.00     0.049 A 
ATOM     23  H   UNL     1      12.103  -7.244  14.135  1.00  0.00     0.167 HD
ATOM     24  C   UNL     1       7.977  -7.972  15.445  1.00  0.00     0.034 A 
ATOM     25  C   UNL     1      14.891  -7.454  14.295  1.00  0.00     0.034 A 
ATOM     26  C   UNL     1       8.814  -8.709  16.363  1.00  0.00     0.049 A 
ATOM     27  C   UNL     1      14.336  -8.244  15.449  1.00  0.00     0.074 A 
ATOM     28  C   UNL     1       8.432  -9.523  17.417  1.00  0.00     0.029 A 
ATOM     29  N   UNL     1      10.204  -8.716  16.345  1.00  0.00    -0.354 N 
ATOM     30  N   UNL     1      13.083  -8.442  15.786  1.00  0.00    -0.248 NA
ATOM     31  C   UNL     1      15.311  -8.895  16.332  1.00  0.00     0.031 C 
ATOM     32  C   UNL     1       9.587  -9.966  18.073  1.00  0.00     0.029 A 
ATOM     33  C   UNL     1      10.693  -9.491  17.387  1.00  0.00     0.049 A 
ATOM     34  H   UNL     1      10.761  -8.240  15.688  1.00  0.00     0.167 HD
ATOM     35  C   UNL     1      13.119  -9.255  16.914  1.00  0.00     0.074 A 
ATOM     36  C   UNL     1      14.517  -9.527  17.184  1.00  0.00     0.031 C 
ATOM     37  C   UNL     1      12.090  -9.733  17.659  1.00  0.00     0.034 A 
BRANCH  24  38
ATOM     38  C   UNL     1       6.481  -7.990  15.653  1.00  0.00     0.023 A 
ATOM     39  C   UNL     1       5.606  -8.543  14.700  1.00  0.00     0.031 A 
ATOM     40  C   UNL     1       5.918  -7.430  16.814  1.00  0.00     0.131 A 
ATOM     41  C   UNL     1       4.218  -8.462  14.892  1.00  0.00     0.055 A 
ATOM     42  C   UNL     1       4.538  -7.420  17.034  1.00  0.00     0.041 A 
ATOM     43  F   UNL     1       6.699  -6.871  17.751  1.00  0.00    -0.206 F 
ATOM     44  C   UNL     1       3.679  -7.926  16.063  1.00  0.00     0.022 A 
BRANCH  41  45
ATOM     45  S   UNL     1       3.125  -8.945  13.527  1.00  0.00     0.124 S 
ATOM     46  O   UNL     1       3.579  -8.060  12.456  1.00  0.00    -0.237 OA
ATOM     47  O   UNL     1       3.434 -10.360  13.360  1.00  0.00    -0.237 OA
ATOM     48  O   UNL     1       1.787  -8.654  14.039  1.00  0.00    -0.744 OA
ENDBRANCH  41  45
ENDBRANCH  24  38
BRANCH  25  49
ATOM     49  C   UNL     1      16.361  -7.319  14.092  1.00  0.00     0.023 A 
ATOM     50  C   UNL     1      17.155  -8.430  13.769  1.00  0.00     0.031 A 
ATOM     51  C   UNL     1      16.996  -6.072  14.238  1.00  0.00     0.131 A 
ATOM     52  C   UNL     1      18.544  -8.279  13.637  1.00  0.00     0.055 A 
ATOM     53  C   UNL     1      18.370  -5.918  14.055  1.00  0.00     0.041 A 
ATOM     54  F   UNL     1      16.280  -4.977  14.541  1.00  0.00    -0.206 F 
ATOM     55  C   UNL     1      19.155  -7.029  13.763  1.00  0.00     0.022 A 
BRANCH  52  56
ATOM     56  S   UNL     1      19.557  -9.759  13.365  1.00  0.00     0.124 S 
ATOM     57  O   UNL     1      19.217 -10.570  14.528  1.00  0.00    -0.237 OA
ATOM     58  O   UNL     1      19.055 -10.236  12.081  1.00  0.00    -0.237 OA
ATOM     59  O   UNL     1      20.922  -9.238  13.344  1.00  0.00    -0.744 OA
ENDBRANCH  52  56
ENDBRANCH  25  49
BRANCH  37  60
ATOM     60  C   UNL     1      12.455 -10.625  18.820  1.00  0.00     0.023 A 
ATOM     61  C   UNL     1      13.134 -10.127  19.946  1.00  0.00     0.031 A 
ATOM     62  C   UNL     1      12.146 -11.996  18.784  1.00  0.00     0.131 A 
ATOM     63  C   UNL     1      13.534 -11.005  20.964  1.00  0.00     0.055 A 
ATOM     64  C   UNL     1      12.496 -12.854  19.827  1.00  0.00     0.041 A 
ATOM     65  F   UNL     1      11.501 -12.523  17.731  1.00  0.00    -0.206 F 
ATOM     66  C   UNL     1      13.206 -12.363  20.919  1.00  0.00     0.022 A 
BRANCH  63  67
ATOM     67  S   UNL     1      14.572 -10.366  22.307  1.00  0.00     0.124 S 
ATOM     68  O   UNL     1      15.735  -9.867  21.581  1.00  0.00    -0.237 OA
ATOM     69  O   UNL     1      13.713  -9.352  22.911  1.00  0.00    -0.237 OA
ATOM     70  O   UNL     1      14.819 -11.542  23.139  1.00  0.00    -0.744 OA
ENDBRANCH  63  67
ENDBRANCH  37  60
ENDBRANCH  11  12
ENDBRANCH   4   6
ENDBRANCH   1   2
BRANCH   1  71
ATOM     71  C   UNL     1       7.572  -4.263   5.544  1.00  0.00     0.042 C 
BRANCH  71  72
ATOM     72  C   UNL     1       7.348  -3.664   4.158  1.00  0.00     0.117 C 
BRANCH  72  73
ATOM     73  N   UNL     1       8.003  -4.432   3.114  1.00  0.00    -0.355 N 
ATOM     74  C   UNL     1       7.574  -5.371   2.234  1.00  0.00     0.238 C 
ATOM     75  H   UNL     1       8.961  -4.227   3.026  1.00  0.00     0.163 HD
ATOM     76  O   UNL     1       8.453  -5.834   1.492  1.00  0.00    -0.273 OA
BRANCH  74  77
ATOM     77  C   UNL     1       6.141  -5.882   2.095  1.00  0.00     0.162 C 
ATOM     78  C   UNL     1       6.063  -7.359   2.477  1.00  0.00     0.032 C 
ATOM     79  N   UNL     1       5.037  -5.240   2.859  1.00  0.00    -0.185 NA
ATOM     80  C   UNL     1       5.711  -7.311   3.946  1.00  0.00     0.019 C 
ATOM     81  C   UNL     1       4.775  -6.116   4.064  1.00  0.00     0.103 C 
BRANCH  79  82
ATOM     82  S   UNL     1       3.578  -4.949   1.991  1.00  0.00     0.245 S 
ATOM     83  O   UNL     1       3.134  -6.204   1.428  1.00  0.00    -0.207 OA
ATOM     84  O   UNL     1       2.703  -4.233   2.903  1.00  0.00    -0.207 OA
BRANCH  82  85
ATOM     85  C   UNL     1       3.987  -3.814   0.685  1.00  0.00     0.101 A 
ATOM     86  C   UNL     1       3.830  -2.443   0.965  1.00  0.00     0.023 A 
ATOM     87  C   UNL     1       4.297  -4.212  -0.620  1.00  0.00     0.061 A 
ATOM     88  C   UNL     1       4.011  -1.484  -0.033  1.00  0.00     0.002 A 
ATOM     89  C   UNL     1       4.509  -3.236  -1.606  1.00  0.00     0.022 A 
ATOM     90  Cl  UNL     1       4.440  -5.844  -1.170  1.00  0.00    -0.083 Cl
ATOM     91  C   UNL     1       4.363  -1.880  -1.317  1.00  0.00     0.002 A 
ENDBRANCH  82  85
ENDBRANCH  79  82
ENDBRANCH  74  77
ENDBRANCH  72  73
ENDBRANCH  71  72
ENDBRANCH   1  71
TORSDOF 15
