REMARK SMILES C#CCN(CC(=O)NCCCNC(=O)c1ccc(-c2c3nc(c(-c4cc(S(=O)(=O)[O-])ccc4F)c4ccc([nH]4)c(-c4cc(S(=O)(=O)[O-])ccc4F)c4nc(c(-c5cc(S(=O)(=O)[O-])ccc5F)c5ccc2[nH]5)C=C4)C=C3)cc1)C(=O)c1c[nH]c(=O)[nH]1
REMARK SMILES IDX 10 1 9 2 8 3 6 4 7 5 5 7 4 8 3 9 2 10 1 11 78 12 79 13 80 14
REMARK SMILES IDX 81 15 85 16 82 17 83 18 84 21 11 22 12 23 13 24 14 26 15 27
REMARK SMILES IDX 16 28 77 29 17 30 76 31 18 32 19 33 20 34 70 35 21 36 75 37
REMARK SMILES IDX 69 38 71 39 22 40 74 41 68 42 67 43 23 45 55 46 35 47 54 48
REMARK SMILES IDX 36 49 39 50 53 51 72 52 37 53 38 54 52 56 73 57 40 58 24 59
REMARK SMILES IDX 25 60 33 61 26 62 32 63 34 64 31 65 27 66 28 67 29 68 30 69
REMARK SMILES IDX 56 70 57 71 65 72 58 73 64 74 66 75 63 76 59 77 60 78 61 79
REMARK SMILES IDX 62 80 41 81 42 82 50 83 43 84 49 85 51 86 48 87 44 88 45 89
REMARK SMILES IDX 46 90 47 91
REMARK H PARENT 8 6 85 19 82 20 12 25 71 44 39 55
REMARK Flexibility Score: inf
ROOT
ATOM      1  C   UNL     1      -5.023  -1.268   0.843  1.00  0.00     0.042 C 
ENDROOT
BRANCH   1   2
ATOM      2  C   UNL     1      -5.220  -0.140  -0.164  1.00  0.00     0.117 C 
BRANCH   2   3
ATOM      3  N   UNL     1      -5.483   1.148   0.442  1.00  0.00    -0.354 N 
ATOM      4  C   UNL     1      -4.673   2.236   0.564  1.00  0.00     0.239 C 
ATOM      5  O   UNL     1      -5.221   3.321   0.782  1.00  0.00    -0.273 OA
ATOM      6  H   UNL     1      -6.384   1.254   0.823  1.00  0.00     0.163 HD
BRANCH   4   7
ATOM      7  C   UNL     1      -3.153   2.171   0.333  1.00  0.00     0.220 C 
BRANCH   7   8
ATOM      8  N   UNL     1      -2.458   1.010   0.894  1.00  0.00    -0.317 N 
BRANCH   8   9
ATOM      9  C   UNL     1      -1.909   0.029  -0.044  1.00  0.00     0.210 C 
BRANCH   9  10
ATOM     10  C   UNL     1      -0.389   0.029  -0.044  1.00  0.00    -0.085 C 
ATOM     11  C   UNL     1       0.915   0.029  -0.044  1.00  0.00     0.006 C 
ENDBRANCH   9  10
ENDBRANCH   8   9
BRANCH   8  12
ATOM     12  C   UNL     1      -2.180   0.835   2.246  1.00  0.00     0.273 C 
ATOM     13  O   UNL     1      -1.555  -0.136   2.674  1.00  0.00    -0.267 OA
BRANCH  12  14
ATOM     14  C   UNL     1      -2.579   1.880   3.228  1.00  0.00     0.125 A 
ATOM     15  C   UNL     1      -3.792   2.336   3.572  1.00  0.00     0.119 A 
ATOM     16  N   UNL     1      -1.654   2.444   4.082  1.00  0.00    -0.302 N 
ATOM     17  N   UNL     1      -3.652   3.228   4.607  1.00  0.00    -0.312 N 
ATOM     18  C   UNL     1      -2.302   3.310   4.965  1.00  0.00     0.323 A 
ATOM     19  H   UNL     1      -0.686   2.265   4.071  1.00  0.00     0.172 HD
ATOM     20  H   UNL     1      -4.386   3.730   5.031  1.00  0.00     0.171 HD
ATOM     21  O   UNL     1      -1.810   3.981   5.854  1.00  0.00    -0.248 OA
ENDBRANCH  12  14
ENDBRANCH   8  12
ENDBRANCH   7   8
ENDBRANCH   4   7
ENDBRANCH   2   3
ENDBRANCH   1   2
BRANCH   1  22
ATOM     22  C   UNL     1      -6.275  -1.649   1.625  1.00  0.00     0.118 C 
BRANCH  22  23
ATOM     23  N   UNL     1      -7.372  -2.044   0.757  1.00  0.00    -0.352 N 
ATOM     24  C   UNL     1      -8.061  -3.226   0.659  1.00  0.00     0.251 C 
ATOM     25  H   UNL     1      -7.672  -1.344   0.133  1.00  0.00     0.163 HD
ATOM     26  O   UNL     1      -8.782  -3.399  -0.321  1.00  0.00    -0.269 OA
BRANCH  24  27
ATOM     27  C   UNL     1      -7.947  -4.278   1.695  1.00  0.00     0.039 A 
ATOM     28  C   UNL     1      -8.039  -5.616   1.301  1.00  0.00     0.014 A 
ATOM     29  C   UNL     1      -7.822  -3.966   3.052  1.00  0.00     0.014 A 
ATOM     30  C   UNL     1      -7.966  -6.632   2.256  1.00  0.00     0.010 A 
ATOM     31  C   UNL     1      -7.657  -4.981   3.993  1.00  0.00     0.010 A 
ATOM     32  C   UNL     1      -7.745  -6.326   3.609  1.00  0.00    -0.014 A 
BRANCH  32  33
ATOM     33  C   UNL     1      -7.628  -7.404   4.627  1.00  0.00     0.031 A 
ATOM     34  C   UNL     1      -8.630  -7.506   5.747  1.00  0.00     0.074 A 
ATOM     35  C   UNL     1      -6.602  -8.275   4.558  1.00  0.00     0.049 A 
ATOM     36  N   UNL     1      -8.681  -8.359   6.738  1.00  0.00    -0.248 NA
ATOM     37  C   UNL     1      -9.701  -6.498   5.770  1.00  0.00     0.031 C 
ATOM     38  C   UNL     1      -5.548  -8.255   3.541  1.00  0.00     0.029 A 
ATOM     39  N   UNL     1      -6.274  -9.345   5.352  1.00  0.00    -0.354 N 
ATOM     40  C   UNL     1      -9.781  -7.989   7.505  1.00  0.00     0.074 A 
ATOM     41  C   UNL     1     -10.322  -6.789   6.902  1.00  0.00     0.031 C 
ATOM     42  C   UNL     1      -4.718  -9.289   3.748  1.00  0.00     0.029 A 
ATOM     43  C   UNL     1      -5.144 -10.014   4.941  1.00  0.00     0.049 A 
ATOM     44  H   UNL     1      -6.799  -9.610   6.141  1.00  0.00     0.167 HD
ATOM     45  C   UNL     1     -10.307  -8.606   8.592  1.00  0.00     0.034 A 
ATOM     46  C   UNL     1      -4.516 -11.083   5.469  1.00  0.00     0.034 A 
ATOM     47  C   UNL     1      -9.752  -9.803   9.178  1.00  0.00     0.049 A 
ATOM     48  C   UNL     1      -5.093 -11.727   6.704  1.00  0.00     0.074 A 
ATOM     49  C   UNL     1     -10.225 -10.535  10.254  1.00  0.00     0.029 A 
ATOM     50  N   UNL     1      -8.593 -10.438   8.748  1.00  0.00    -0.354 N 
ATOM     51  N   UNL     1      -6.162 -11.392   7.389  1.00  0.00    -0.248 NA
ATOM     52  C   UNL     1      -4.385 -12.901   7.229  1.00  0.00     0.031 C 
ATOM     53  C   UNL     1      -9.312 -11.560  10.523  1.00  0.00     0.029 A 
ATOM     54  C   UNL     1      -8.319 -11.531   9.557  1.00  0.00     0.049 A 
ATOM     55  H   UNL     1      -8.046 -10.154   7.980  1.00  0.00     0.167 HD
ATOM     56  C   UNL     1      -6.276 -12.340   8.403  1.00  0.00     0.074 A 
ATOM     57  C   UNL     1      -5.173 -13.264   8.230  1.00  0.00     0.031 C 
ATOM     58  C   UNL     1      -7.211 -12.442   9.382  1.00  0.00     0.034 A 
BRANCH  45  59
ATOM     59  C   UNL     1     -11.526  -7.977   9.229  1.00  0.00     0.023 A 
ATOM     60  C   UNL     1     -12.731  -7.818   8.521  1.00  0.00     0.031 A 
ATOM     61  C   UNL     1     -11.477  -7.502  10.552  1.00  0.00     0.131 A 
ATOM     62  C   UNL     1     -13.803  -7.127   9.106  1.00  0.00     0.055 A 
ATOM     63  C   UNL     1     -12.580  -6.898  11.161  1.00  0.00     0.041 A 
ATOM     64  F   UNL     1     -10.350  -7.602  11.274  1.00  0.00    -0.206 F 
ATOM     65  C   UNL     1     -13.747  -6.692  10.431  1.00  0.00     0.022 A 
BRANCH  62  66
ATOM     66  S   UNL     1     -15.206  -6.660   8.055  1.00  0.00     0.124 S 
ATOM     67  O   UNL     1     -14.546  -5.875   7.014  1.00  0.00    -0.237 OA
ATOM     68  O   UNL     1     -15.735  -7.954   7.640  1.00  0.00    -0.237 OA
ATOM     69  O   UNL     1     -16.066  -5.891   8.952  1.00  0.00    -0.744 OA
ENDBRANCH  62  66
ENDBRANCH  45  59
BRANCH  46  70
ATOM     70  C   UNL     1      -3.272 -11.615   4.839  1.00  0.00     0.023 A 
ATOM     71  C   UNL     1      -3.229 -12.911   4.302  1.00  0.00     0.031 A 
ATOM     72  C   UNL     1      -2.094 -10.848   4.801  1.00  0.00     0.131 A 
ATOM     73  C   UNL     1      -2.023 -13.420   3.795  1.00  0.00     0.055 A 
ATOM     74  C   UNL     1      -0.912 -11.336   4.239  1.00  0.00     0.041 A 
ATOM     75  F   UNL     1      -2.078  -9.601   5.298  1.00  0.00    -0.206 F 
ATOM     76  C   UNL     1      -0.869 -12.635   3.745  1.00  0.00     0.022 A 
BRANCH  73  77
ATOM     77  S   UNL     1      -1.960 -15.160   3.287  1.00  0.00     0.124 S 
ATOM     78  O   UNL     1      -2.353 -15.841   4.516  1.00  0.00    -0.237 OA
ATOM     79  O   UNL     1      -2.929 -15.193   2.197  1.00  0.00    -0.237 OA
ATOM     80  O   UNL     1      -0.568 -15.347   2.886  1.00  0.00    -0.744 OA
ENDBRANCH  73  77
ENDBRANCH  46  70
BRANCH  58  81
ATOM     81  C   UNL     1      -7.115 -13.633  10.307  1.00  0.00     0.023 A 
ATOM     82  C   UNL     1      -6.031 -13.811  11.185  1.00  0.00     0.031 A 
ATOM     83  C   UNL     1      -8.126 -14.611  10.301  1.00  0.00     0.131 A 
ATOM     84  C   UNL     1      -5.953 -14.970  11.973  1.00  0.00     0.055 A 
ATOM     85  C   UNL     1      -8.078 -15.726  11.140  1.00  0.00     0.041 A 
ATOM     86  F   UNL     1      -9.183 -14.498   9.480  1.00  0.00    -0.206 F 
ATOM     87  C   UNL     1      -6.979 -15.917  11.971  1.00  0.00     0.022 A 
BRANCH  84  88
ATOM     88  S   UNL     1      -4.438 -15.278  12.921  1.00  0.00     0.124 S 
ATOM     89  O   UNL     1      -3.419 -15.267  11.877  1.00  0.00    -0.237 OA
ATOM     90  O   UNL     1      -4.414 -14.150  13.847  1.00  0.00    -0.237 OA
ATOM     91  O   UNL     1      -4.678 -16.581  13.539  1.00  0.00    -0.744 OA
ENDBRANCH  84  88
ENDBRANCH  58  81
ENDBRANCH  32  33
ENDBRANCH  24  27
ENDBRANCH  22  23
ENDBRANCH   1  22
TORSDOF 18
