REMARK SMILES CSc1cccc(N2C[C@@H](C(=O)NCCCNC(=O)c3ccc(-c4c5nc(c(-c6cc(S(=O)(=O)[O-])ccc6F)c6ccc([nH]6)c(-c6cc(S(=O)(=O)[O-])ccc6F)c6nc(c(-c7cc(S(=O)(=O)[O-])ccc7F)c7ccc4[nH]7)C=C6)C=C5)cc3)CC2=O)c1
REMARK SMILES IDX 15 1 14 2 13 3 11 4 12 5 10 7 8 8 9 9 84 10 83 11 85 12 7 13
REMARK SMILES IDX 3 14 4 15 86 16 5 17 6 18 2 19 1 20 16 21 17 22 18 23 19 25
REMARK SMILES IDX 20 26 21 27 82 28 22 29 81 30 23 31 24 32 25 33 75 34 26 35
REMARK SMILES IDX 80 36 74 37 76 38 27 39 79 40 73 41 72 42 28 44 60 45 40 46
REMARK SMILES IDX 59 47 41 48 44 49 58 50 77 51 42 52 43 53 57 55 78 56 45 57
REMARK SMILES IDX 29 58 30 59 38 60 31 61 37 62 39 63 36 64 32 65 33 66 34 67
REMARK SMILES IDX 35 68 61 69 62 70 70 71 63 72 69 73 71 74 68 75 64 76 65 77
REMARK SMILES IDX 66 78 67 79 46 80 47 81 55 82 48 83 54 84 56 85 53 86 49 87
REMARK SMILES IDX 50 88 51 89 52 90
REMARK H PARENT 13 6 17 24 76 43 44 54
REMARK Flexibility Score: inf
ROOT
ATOM      1  C   UNL     1       1.903   3.764  -6.186  1.00  0.00     0.042 C 
ENDROOT
BRANCH   1   2
ATOM      2  C   UNL     1       1.506   2.365  -6.643  1.00  0.00     0.117 C 
BRANCH   2   3
ATOM      3  N   UNL     1       2.214   1.953  -7.845  1.00  0.00    -0.356 N 
ATOM      4  C   UNL     1       3.161   1.007  -8.060  1.00  0.00     0.225 C 
ATOM      5  O   UNL     1       3.566   0.862  -9.217  1.00  0.00    -0.275 OA
ATOM      6  H   UNL     1       1.958   2.455  -8.652  1.00  0.00     0.163 HD
BRANCH   4   7
ATOM      7  C   UNL     1       3.696   0.110  -6.964  1.00  0.00     0.107 C 
ATOM      8  N   UNL     1       2.818  -0.846  -4.995  1.00  0.00    -0.312 N 
ATOM      9  C   UNL     1       2.646  -0.842  -6.428  1.00  0.00     0.139 C 
ATOM     10  C   UNL     1       3.696   0.146  -4.563  1.00  0.00     0.227 C 
ATOM     11  C   UNL     1       4.292   0.828  -5.766  1.00  0.00     0.116 C 
ATOM     12  O   UNL     1       4.009   0.433  -3.415  1.00  0.00    -0.274 OA
BRANCH   8  13
ATOM     13  C   UNL     1       2.101  -1.728  -4.148  1.00  0.00     0.045 A 
ATOM     14  C   UNL     1       0.999  -2.202  -2.015  1.00  0.00     0.009 A 
ATOM     15  C   UNL     1       0.721  -3.497  -2.468  1.00  0.00     0.015 A 
ATOM     16  C   UNL     1       1.708  -1.335  -2.857  1.00  0.00     0.041 A 
ATOM     17  C   UNL     1       1.113  -3.907  -3.741  1.00  0.00     0.003 A 
ATOM     18  C   UNL     1       1.777  -3.018  -4.584  1.00  0.00     0.026 A 
BRANCH  14  19
ATOM     19  S   UNL     1       0.383  -1.785  -0.386  1.00  0.00    -0.130 SA
ATOM     20  C   UNL     1       1.002  -0.103  -0.114  1.00  0.00     0.091 C 
ENDBRANCH  14  19
ENDBRANCH   8  13
ENDBRANCH   4   7
ENDBRANCH   2   3
ENDBRANCH   1   2
BRANCH   1  21
ATOM     21  C   UNL     1       1.547   4.870  -7.173  1.00  0.00     0.118 C 
BRANCH  21  22
ATOM     22  N   UNL     1       0.112   5.007  -7.368  1.00  0.00    -0.352 N 
ATOM     23  C   UNL     1      -0.715   6.075  -7.119  1.00  0.00     0.251 C 
ATOM     24  H   UNL     1      -0.336   4.210  -7.734  1.00  0.00     0.163 HD
ATOM     25  O   UNL     1      -1.931   5.909  -7.157  1.00  0.00    -0.269 OA
BRANCH  23  26
ATOM     26  C   UNL     1      -0.152   7.404  -6.787  1.00  0.00     0.039 A 
ATOM     27  C   UNL     1      -0.780   8.180  -5.808  1.00  0.00     0.014 A 
ATOM     28  C   UNL     1       0.971   7.902  -7.452  1.00  0.00     0.014 A 
ATOM     29  C   UNL     1      -0.247   9.424  -5.459  1.00  0.00     0.010 A 
ATOM     30  C   UNL     1       1.553   9.098  -7.039  1.00  0.00     0.010 A 
ATOM     31  C   UNL     1       0.944   9.881  -6.047  1.00  0.00    -0.014 A 
BRANCH  31  32
ATOM     32  C   UNL     1       1.546  11.189  -5.670  1.00  0.00     0.031 A 
ATOM     33  C   UNL     1       1.695  12.270  -6.710  1.00  0.00     0.074 A 
ATOM     34  C   UNL     1       2.000  11.387  -4.417  1.00  0.00     0.049 A 
ATOM     35  N   UNL     1       2.278  13.438  -6.613  1.00  0.00    -0.248 NA
ATOM     36  C   UNL     1       1.143  11.987  -8.044  1.00  0.00     0.031 C 
ATOM     37  C   UNL     1       1.939  10.408  -3.329  1.00  0.00     0.029 A 
ATOM     38  N   UNL     1       2.612  12.475  -3.844  1.00  0.00    -0.354 N 
ATOM     39  C   UNL     1       2.169  14.022  -7.871  1.00  0.00     0.074 A 
ATOM     40  C   UNL     1       1.530  13.051  -8.731  1.00  0.00     0.031 C 
ATOM     41  C   UNL     1       2.467  10.947  -2.219  1.00  0.00     0.029 A 
ATOM     42  C   UNL     1       2.954  12.289  -2.523  1.00  0.00     0.049 A 
ATOM     43  H   UNL     1       2.789  13.312  -4.332  1.00  0.00     0.167 HD
ATOM     44  C   UNL     1       2.541  15.265  -8.266  1.00  0.00     0.034 A 
ATOM     45  C   UNL     1       3.604  13.099  -1.662  1.00  0.00     0.034 A 
ATOM     46  C   UNL     1       3.164  16.230  -7.394  1.00  0.00     0.049 A 
ATOM     47  C   UNL     1       4.042  14.464  -2.138  1.00  0.00     0.074 A 
ATOM     48  C   UNL     1       3.553  17.526  -7.682  1.00  0.00     0.029 A 
ATOM     49  N   UNL     1       3.490  16.005  -6.062  1.00  0.00    -0.354 N 
ATOM     50  N   UNL     1       3.900  15.011  -3.324  1.00  0.00    -0.248 NA
ATOM     51  C   UNL     1       4.714  15.325  -1.157  1.00  0.00     0.031 C 
ATOM     52  C   UNL     1       4.175  18.060  -6.550  1.00  0.00     0.029 A 
ATOM     53  C   UNL     1       4.096  17.131  -5.526  1.00  0.00     0.049 A 
ATOM     54  H   UNL     1       3.317  15.169  -5.572  1.00  0.00     0.167 HD
ATOM     55  C   UNL     1       4.426  16.296  -3.213  1.00  0.00     0.074 A 
ATOM     56  C   UNL     1       4.872  16.445  -1.844  1.00  0.00     0.031 C 
ATOM     57  C   UNL     1       4.529  17.268  -4.155  1.00  0.00     0.034 A 
BRANCH  44  58
ATOM     58  C   UNL     1       2.294  15.644  -9.707  1.00  0.00     0.023 A 
ATOM     59  C   UNL     1       0.993  15.718 -10.236  1.00  0.00     0.031 A 
ATOM     60  C   UNL     1       3.370  15.933 -10.564  1.00  0.00     0.131 A 
ATOM     61  C   UNL     1       0.805  16.007 -11.596  1.00  0.00     0.055 A 
ATOM     62  C   UNL     1       3.172  16.302 -11.896  1.00  0.00     0.041 A 
ATOM     63  F   UNL     1       4.635  15.856 -10.123  1.00  0.00    -0.206 F 
ATOM     64  C   UNL     1       1.884  16.329 -12.423  1.00  0.00     0.022 A 
BRANCH  61  65
ATOM     65  S   UNL     1      -0.857  15.830 -12.297  1.00  0.00     0.124 S 
ATOM     66  O   UNL     1      -1.133  14.418 -12.045  1.00  0.00    -0.237 OA
ATOM     67  O   UNL     1      -1.635  16.782 -11.513  1.00  0.00    -0.237 OA
ATOM     68  O   UNL     1      -0.675  16.181 -13.704  1.00  0.00    -0.744 OA
ENDBRANCH  61  65
ENDBRANCH  44  58
BRANCH  45  69
ATOM     69  C   UNL     1       3.904  12.651  -0.269  1.00  0.00     0.023 A 
ATOM     70  C   UNL     1       3.396  13.346   0.841  1.00  0.00     0.031 A 
ATOM     71  C   UNL     1       4.769  11.570  -0.024  1.00  0.00     0.131 A 
ATOM     72  C   UNL     1       3.813  13.001   2.136  1.00  0.00     0.055 A 
ATOM     73  C   UNL     1       5.126  11.185   1.270  1.00  0.00     0.041 A 
ATOM     74  F   UNL     1       5.285  10.867  -1.046  1.00  0.00    -0.206 F 
ATOM     75  C   UNL     1       4.662  11.916   2.359  1.00  0.00     0.022 A 
BRANCH  72  76
ATOM     76  S   UNL     1       3.334  14.077   3.516  1.00  0.00     0.124 S 
ATOM     77  O   UNL     1       3.837  15.371   3.070  1.00  0.00    -0.237 OA
ATOM     78  O   UNL     1       1.883  13.922   3.530  1.00  0.00    -0.237 OA
ATOM     79  O   UNL     1       4.033  13.495   4.659  1.00  0.00    -0.744 OA
ENDBRANCH  72  76
ENDBRANCH  45  69
BRANCH  57  80
ATOM     80  C   UNL     1       5.082  18.603  -3.715  1.00  0.00     0.023 A 
ATOM     81  C   UNL     1       6.410  18.753  -3.281  1.00  0.00     0.031 A 
ATOM     82  C   UNL     1       4.257  19.742  -3.724  1.00  0.00     0.131 A 
ATOM     83  C   UNL     1       6.856  20.000  -2.816  1.00  0.00     0.055 A 
ATOM     84  C   UNL     1       4.726  20.994  -3.325  1.00  0.00     0.041 A 
ATOM     85  F   UNL     1       2.978  19.658  -4.125  1.00  0.00    -0.206 F 
ATOM     86  C   UNL     1       6.028  21.125  -2.853  1.00  0.00     0.022 A 
BRANCH  83  87
ATOM     87  S   UNL     1       8.502  20.110  -2.061  1.00  0.00     0.124 S 
ATOM     88  O   UNL     1       8.406  19.134  -0.981  1.00  0.00    -0.237 OA
ATOM     89  O   UNL     1       9.378  19.748  -3.171  1.00  0.00    -0.237 OA
ATOM     90  O   UNL     1       8.590  21.504  -1.632  1.00  0.00    -0.744 OA
ENDBRANCH  83  87
ENDBRANCH  57  80
ENDBRANCH  31  32
ENDBRANCH  23  26
ENDBRANCH  21  22
ENDBRANCH   1  21
TORSDOF 15
