REMARK SMILES C[C@H](NC(=O)c1c(C(=O)NCCCNC(=O)c2ccc(-c3c4nc(c(-c5cc(S(=O)(=O)[O-])ccc5F)c5ccc([nH]5)c(-c5cc(S(=O)(=O)[O-])ccc5F)c5nc(c(-c6cc(S(=O)(=O)[O-])ccc6F)c6ccc3[nH]6)C=C5)C=C4)cc2)cnn1C)[C@]12C[C@H]3C[C@H](C[C@H](C3)C1)C2
REMARK SMILES IDX 12 1 11 2 10 3 8 4 9 5 7 7 6 8 82 9 80 10 81 11 83 12 4 13
REMARK SMILES IDX 3 14 5 16 2 17 1 18 84 19 85 20 92 21 93 22 86 23 90 24
REMARK SMILES IDX 88 25 87 26 91 27 89 28 13 29 14 30 15 31 16 33 17 34 18 35
REMARK SMILES IDX 79 36 19 37 78 38 20 39 21 40 22 41 72 42 23 43 77 44 71 45
REMARK SMILES IDX 73 46 24 47 76 48 70 49 69 50 25 52 57 53 37 54 56 55 38 56
REMARK SMILES IDX 41 57 55 58 74 59 39 60 40 61 54 63 75 64 42 65 26 66 27 67
REMARK SMILES IDX 35 68 28 69 34 70 36 71 33 72 29 73 30 74 31 75 32 76 58 77
REMARK SMILES IDX 59 78 67 79 60 80 66 81 68 82 65 83 61 84 62 85 63 86 64 87
REMARK SMILES IDX 43 88 44 89 52 90 45 91 51 92 53 93 50 94 46 95 47 96 48 97
REMARK SMILES IDX 49 98
REMARK H PARENT 10 6 3 15 14 32 73 51 41 62
REMARK Flexibility Score: inf
ROOT
ATOM      1  C   UNL     1       4.189   0.262  -0.279  1.00  0.00     0.042 C 
ENDROOT
BRANCH   1   2
ATOM      2  C   UNL     1       4.241   0.107  -1.797  1.00  0.00     0.118 C 
BRANCH   2   3
ATOM      3  N   UNL     1       4.318  -1.298  -2.143  1.00  0.00    -0.352 N 
ATOM      4  C   UNL     1       3.411  -2.215  -2.594  1.00  0.00     0.255 C 
ATOM      5  O   UNL     1       3.853  -3.355  -2.760  1.00  0.00    -0.269 OA
ATOM      6  H   UNL     1       5.221  -1.673  -2.027  1.00  0.00     0.163 HD
BRANCH   4   7
ATOM      7  C   UNL     1       2.046  -1.909  -2.992  1.00  0.00     0.090 A 
ATOM      8  C   UNL     1       1.073  -0.986  -2.609  1.00  0.00     0.138 A 
ATOM      9  N   UNL     1       0.061  -1.127  -3.536  1.00  0.00    -0.262 N 
ATOM     10  C   UNL     1       1.394  -2.670  -4.003  1.00  0.00     0.149 A 
ATOM     11  N   UNL     1       0.191  -2.205  -4.326  1.00  0.00    -0.180 NA
ATOM     12  C   UNL     1      -1.099  -0.285  -3.733  1.00  0.00     0.174 C 
BRANCH   8  13
ATOM     13  C   UNL     1       1.039   0.045  -1.617  1.00  0.00     0.270 C 
ATOM     14  N   UNL     1       0.865  -0.255  -0.297  1.00  0.00    -0.348 N 
ATOM     15  H   UNL     1       1.076   0.492   0.309  1.00  0.00     0.164 HD
ATOM     16  O   UNL     1       1.108   1.239  -1.920  1.00  0.00    -0.267 OA
BRANCH  14  17
ATOM     17  C   UNL     1       0.424  -1.475   0.402  1.00  0.00     0.085 C 
ATOM     18  C   UNL     1       1.207  -1.554   1.720  1.00  0.00     0.031 C 
BRANCH  17  19
ATOM     19  C   UNL     1      -1.147  -1.491   0.615  1.00  0.00    -0.009 C 
ATOM     20  C   UNL     1      -1.585  -2.302   1.873  1.00  0.00     0.012 C 
ATOM     21  C   UNL     1      -1.826  -2.167  -0.606  1.00  0.00     0.012 C 
ATOM     22  C   UNL     1      -1.738  -0.056   0.766  1.00  0.00     0.012 C 
ATOM     23  C   UNL     1      -3.118  -2.335   2.023  1.00  0.00    -0.010 C 
ATOM     24  C   UNL     1      -3.356  -2.193  -0.470  1.00  0.00    -0.010 C 
ATOM     25  C   UNL     1      -3.269  -0.089   0.907  1.00  0.00    -0.010 C 
ATOM     26  C   UNL     1      -3.647  -0.898   2.154  1.00  0.00     0.007 C 
ATOM     27  C   UNL     1      -3.738  -2.991   0.782  1.00  0.00     0.007 C 
ATOM     28  C   UNL     1      -3.875  -0.753  -0.339  1.00  0.00     0.007 C 
ENDBRANCH  17  19
ENDBRANCH  14  17
ENDBRANCH   8  13
ENDBRANCH   4   7
ENDBRANCH   2   3
ENDBRANCH   1   2
BRANCH   1  29
ATOM     29  C   UNL     1       5.571   0.214   0.373  1.00  0.00     0.118 C 
BRANCH  29  30
ATOM     30  N   UNL     1       6.230   1.509   0.310  1.00  0.00    -0.352 N 
ATOM     31  C   UNL     1       6.725   2.282   1.331  1.00  0.00     0.251 C 
ATOM     32  H   UNL     1       6.337   1.885  -0.594  1.00  0.00     0.163 HD
ATOM     33  O   UNL     1       7.010   3.458   1.108  1.00  0.00    -0.269 OA
BRANCH  31  34
ATOM     34  C   UNL     1       6.907   1.722   2.691  1.00  0.00     0.039 A 
ATOM     35  C   UNL     1       6.585   2.512   3.800  1.00  0.00     0.014 A 
ATOM     36  C   UNL     1       7.449   0.447   2.881  1.00  0.00     0.014 A 
ATOM     37  C   UNL     1       6.769   2.014   5.095  1.00  0.00     0.010 A 
ATOM     38  C   UNL     1       7.581  -0.068   4.170  1.00  0.00     0.010 A 
ATOM     39  C   UNL     1       7.254   0.713   5.291  1.00  0.00    -0.014 A 
BRANCH  39  40
ATOM     40  C   UNL     1       7.485   0.155   6.650  1.00  0.00     0.031 A 
ATOM     41  C   UNL     1       8.885  -0.193   7.079  1.00  0.00     0.074 A 
ATOM     42  C   UNL     1       6.445  -0.125   7.458  1.00  0.00     0.049 A 
ATOM     43  N   UNL     1       9.295  -0.877   8.116  1.00  0.00    -0.248 NA
ATOM     44  C   UNL     1       9.965   0.260   6.190  1.00  0.00     0.031 C 
ATOM     45  C   UNL     1       5.038   0.147   7.156  1.00  0.00     0.029 A 
ATOM     46  N   UNL     1       6.410  -0.723   8.693  1.00  0.00    -0.354 N 
ATOM     47  C   UNL     1      10.675  -0.989   7.975  1.00  0.00     0.074 A 
ATOM     48  C   UNL     1      11.022  -0.319   6.738  1.00  0.00     0.031 C 
ATOM     49  C   UNL     1       4.280  -0.279   8.180  1.00  0.00     0.029 A 
ATOM     50  C   UNL     1       5.139  -0.893   9.188  1.00  0.00     0.049 A 
ATOM     51  H   UNL     1       7.219  -1.004   9.178  1.00  0.00     0.167 HD
ATOM     52  C   UNL     1      11.567  -1.591   8.801  1.00  0.00     0.034 A 
ATOM     53  C   UNL     1       4.712  -1.496  10.315  1.00  0.00     0.034 A 
ATOM     54  C   UNL     1      11.210  -2.208  10.056  1.00  0.00     0.049 A 
ATOM     55  C   UNL     1       5.722  -2.115  11.244  1.00  0.00     0.074 A 
ATOM     56  C   UNL     1      12.035  -2.797  10.999  1.00  0.00     0.029 A 
ATOM     57  N   UNL     1       9.915  -2.304  10.550  1.00  0.00    -0.354 N 
ATOM     58  N   UNL     1       7.022  -2.220  11.097  1.00  0.00    -0.248 NA
ATOM     59  C   UNL     1       5.207  -2.693  12.493  1.00  0.00     0.031 C 
ATOM     60  C   UNL     1      11.237  -3.279  12.044  1.00  0.00     0.029 A 
ATOM     61  C   UNL     1       9.919  -2.947  11.777  1.00  0.00     0.049 A 
ATOM     62  H   UNL     1       9.111  -1.964  10.094  1.00  0.00     0.167 HD
ATOM     63  C   UNL     1       7.483  -2.852  12.247  1.00  0.00     0.074 A 
ATOM     64  C   UNL     1       6.323  -3.105  13.078  1.00  0.00     0.031 C 
ATOM     65  C   UNL     1       8.752  -3.187  12.589  1.00  0.00     0.034 A 
BRANCH  52  66
ATOM     66  C   UNL     1      13.004  -1.645   8.341  1.00  0.00     0.023 A 
ATOM     67  C   UNL     1      13.767  -0.480   8.155  1.00  0.00     0.031 A 
ATOM     68  C   UNL     1      13.597  -2.880   8.020  1.00  0.00     0.131 A 
ATOM     69  C   UNL     1      15.041  -0.564   7.572  1.00  0.00     0.055 A 
ATOM     70  C   UNL     1      14.899  -2.963   7.521  1.00  0.00     0.041 A 
ATOM     71  F   UNL     1      12.911  -4.025   8.159  1.00  0.00    -0.206 F 
ATOM     72  C   UNL     1      15.621  -1.799   7.275  1.00  0.00     0.022 A 
BRANCH  69  73
ATOM     73  S   UNL     1      15.854   0.972   7.053  1.00  0.00     0.124 S 
ATOM     74  O   UNL     1      14.883   1.512   6.105  1.00  0.00    -0.237 OA
ATOM     75  O   UNL     1      15.992   1.697   8.310  1.00  0.00    -0.237 OA
ATOM     76  O   UNL     1      17.107   0.512   6.456  1.00  0.00    -0.744 OA
ENDBRANCH  69  73
ENDBRANCH  52  66
BRANCH  53  77
ATOM     77  C   UNL     1       3.259  -1.559  10.625  1.00  0.00     0.023 A 
ATOM     78  C   UNL     1       2.714  -0.794  11.667  1.00  0.00     0.031 A 
ATOM     79  C   UNL     1       2.399  -2.395   9.893  1.00  0.00     0.131 A 
ATOM     80  C   UNL     1       1.350  -0.903  11.973  1.00  0.00     0.055 A 
ATOM     81  C   UNL     1       1.036  -2.476  10.179  1.00  0.00     0.041 A 
ATOM     82  F   UNL     1       2.874  -3.135   8.878  1.00  0.00    -0.206 F 
ATOM     83  C   UNL     1       0.505  -1.732  11.230  1.00  0.00     0.022 A 
BRANCH  80  84
ATOM     84  S   UNL     1       0.699   0.028  13.388  1.00  0.00     0.124 S 
ATOM     85  O   UNL     1       1.479  -0.522  14.491  1.00  0.00    -0.237 OA
ATOM     86  O   UNL     1       1.003   1.404  13.010  1.00  0.00    -0.237 OA
ATOM     87  O   UNL     1      -0.722  -0.314  13.395  1.00  0.00    -0.744 OA
ENDBRANCH  80  84
ENDBRANCH  53  77
BRANCH  65  88
ATOM     88  C   UNL     1       8.947  -3.805  13.947  1.00  0.00     0.023 A 
ATOM     89  C   UNL     1       8.571  -5.132  14.216  1.00  0.00     0.031 A 
ATOM     90  C   UNL     1       9.512  -3.045  14.986  1.00  0.00     0.131 A 
ATOM     91  C   UNL     1       8.730  -5.649  15.511  1.00  0.00     0.055 A 
ATOM     92  C   UNL     1       9.702  -3.577  16.261  1.00  0.00     0.041 A 
ATOM     93  F   UNL     1       9.885  -1.773  14.775  1.00  0.00    -0.206 F 
ATOM     94  C   UNL     1       9.303  -4.884  16.531  1.00  0.00     0.022 A 
BRANCH  91  95
ATOM     95  S   UNL     1       8.130  -7.326  15.861  1.00  0.00     0.124 S 
ATOM     96  O   UNL     1       6.700  -7.197  15.602  1.00  0.00    -0.237 OA
ATOM     97  O   UNL     1       8.881  -8.134  14.905  1.00  0.00    -0.237 OA
ATOM     98  O   UNL     1       8.490  -7.533  17.262  1.00  0.00    -0.744 OA
ENDBRANCH  91  95
ENDBRANCH  65  88
ENDBRANCH  39  40
ENDBRANCH  31  34
ENDBRANCH  29  30
ENDBRANCH   1  29
TORSDOF 16
