REMARK SMILES CCN1C(=O)/C(=C/N[C@H](CCSC)C(=O)NCCCNC(=O)c2ccc(-c3c4nc(c(-c5cc(S(=O)(=O)[O-])ccc5F)c5ccc([nH]5)c(-c5cc(S(=O)(=O)[O-])ccc5F)c5nc(c(-c6cc(S(=O)(=O)[O-])ccc6F)c6ccc3[nH]6)C=C5)C=C4)cc2)C(=O)NC1=S
REMARK SMILES IDX 18 1 17 2 16 3 14 4 15 5 9 7 8 8 7 10 3 11 4 12 89 13 5 14
REMARK SMILES IDX 6 15 88 16 90 17 86 18 87 20 2 21 1 22 10 23 11 24 12 25
REMARK SMILES IDX 13 26 19 27 20 28 21 29 22 31 23 32 24 33 85 34 25 35 84 36
REMARK SMILES IDX 26 37 27 38 28 39 78 40 29 41 83 42 77 43 79 44 30 45 82 46
REMARK SMILES IDX 76 47 75 48 31 50 63 51 43 52 62 53 44 54 47 55 61 56 80 57
REMARK SMILES IDX 45 58 46 59 60 61 81 62 48 63 32 64 33 65 41 66 34 67 40 68
REMARK SMILES IDX 42 69 39 70 35 71 36 72 37 73 38 74 64 75 65 76 73 77 66 78
REMARK SMILES IDX 72 79 74 80 71 81 67 82 68 83 69 84 70 85 49 86 50 87 58 88
REMARK SMILES IDX 51 89 57 90 59 91 56 92 52 93 53 94 54 95 55 96
REMARK H PARENT 16 6 8 9 88 19 20 30 79 49 47 60
REMARK Flexibility Score: inf
ROOT
ATOM      1  C   UNL     1       5.114  -6.637   5.173  1.00  0.00     0.042 C 
ENDROOT
BRANCH   1   2
ATOM      2  C   UNL     1       5.144  -7.500   3.922  1.00  0.00     0.117 C 
BRANCH   2   3
ATOM      3  N   UNL     1       3.988  -8.384   3.834  1.00  0.00    -0.354 N 
ATOM      4  C   UNL     1       2.990  -8.434   2.898  1.00  0.00     0.242 C 
ATOM      5  O   UNL     1       2.100  -9.276   3.035  1.00  0.00    -0.273 OA
ATOM      6  H   UNL     1       3.913  -9.046   4.559  1.00  0.00     0.163 HD
BRANCH   4   7
ATOM      7  C   UNL     1       2.994  -7.449   1.700  1.00  0.00     0.169 C 
BRANCH   7   8
ATOM      8  N   UNL     1       4.315  -7.534   1.051  1.00  0.00    -0.379 N 
ATOM      9  H   UNL     1       4.934  -8.194   1.438  1.00  0.00     0.160 HD
BRANCH   8  10
ATOM     10  C   UNL     1       4.803  -6.827  -0.010  1.00  0.00     0.098 C 
ATOM     11  N   UNL     1       6.345  -6.792  -3.200  1.00  0.00    -0.285 N 
ATOM     12  C   UNL     1       5.911  -6.194  -2.015  1.00  0.00     0.267 C 
ATOM     13  C   UNL     1       7.204  -7.883  -3.167  1.00  0.00     0.182 C 
ATOM     14  O   UNL     1       5.601  -5.007  -1.923  1.00  0.00    -0.268 OA
ATOM     15  C   UNL     1       5.794  -7.107  -0.866  1.00  0.00     0.121 C 
ATOM     16  N   UNL     1       7.309  -8.550  -1.966  1.00  0.00    -0.298 N 
ATOM     17  S   UNL     1       8.141  -8.497  -4.411  1.00  0.00    -0.040 S 
ATOM     18  C   UNL     1       6.609  -8.322  -0.808  1.00  0.00     0.264 C 
ATOM     19  H   UNL     1       7.968  -9.281  -1.935  1.00  0.00     0.172 HD
ATOM     20  O   UNL     1       6.653  -9.079   0.147  1.00  0.00    -0.269 OA
BRANCH  11  21
ATOM     21  C   UNL     1       5.970  -5.996  -4.384  1.00  0.00     0.125 C 
ATOM     22  C   UNL     1       5.736  -6.709  -5.705  1.00  0.00     0.028 C 
ENDBRANCH  11  21
ENDBRANCH   8  10
ENDBRANCH   7   8
BRANCH   7  23
ATOM     23  C   UNL     1       2.547  -6.075   2.220  1.00  0.00     0.046 C 
BRANCH  23  24
ATOM     24  C   UNL     1       2.266  -4.925   1.250  1.00  0.00     0.072 C 
BRANCH  24  25
ATOM     25  S   UNL     1       0.843  -5.130   0.124  1.00  0.00    -0.165 SA
ATOM     26  C   UNL     1       1.555  -6.130  -1.204  1.00  0.00     0.085 C 
ENDBRANCH  24  25
ENDBRANCH  23  24
ENDBRANCH   7  23
ENDBRANCH   4   7
ENDBRANCH   2   3
ENDBRANCH   1   2
BRANCH   1  27
ATOM     27  C   UNL     1       5.232  -7.433   6.463  1.00  0.00     0.118 C 
BRANCH  27  28
ATOM     28  N   UNL     1       6.510  -8.122   6.573  1.00  0.00    -0.352 N 
ATOM     29  C   UNL     1       7.533  -7.940   7.471  1.00  0.00     0.251 C 
ATOM     30  H   UNL     1       6.663  -8.826   5.902  1.00  0.00     0.163 HD
ATOM     31  O   UNL     1       8.620  -8.471   7.263  1.00  0.00    -0.269 OA
BRANCH  29  32
ATOM     32  C   UNL     1       7.330  -7.090   8.664  1.00  0.00     0.039 A 
ATOM     33  C   UNL     1       8.346  -6.216   9.059  1.00  0.00     0.014 A 
ATOM     34  C   UNL     1       6.143  -7.160   9.398  1.00  0.00     0.014 A 
ATOM     35  C   UNL     1       8.143  -5.364  10.147  1.00  0.00     0.010 A 
ATOM     36  C   UNL     1       5.907  -6.248  10.420  1.00  0.00     0.010 A 
ATOM     37  C   UNL     1       6.907  -5.347  10.813  1.00  0.00    -0.014 A 
BRANCH  37  38
ATOM     38  C   UNL     1       6.641  -4.424  11.946  1.00  0.00     0.031 A 
ATOM     39  C   UNL     1       6.332  -4.990  13.307  1.00  0.00     0.074 A 
ATOM     40  C   UNL     1       6.596  -3.094  11.736  1.00  0.00     0.049 A 
ATOM     41  N   UNL     1       5.934  -4.375  14.390  1.00  0.00    -0.248 NA
ATOM     42  C   UNL     1       6.453  -6.449  13.454  1.00  0.00     0.031 C 
ATOM     43  C   UNL     1       6.843  -2.430  10.453  1.00  0.00     0.029 A 
ATOM     44  N   UNL     1       6.311  -2.060  12.592  1.00  0.00    -0.354 N 
ATOM     45  C   UNL     1       5.733  -5.373  15.339  1.00  0.00     0.074 A 
ATOM     46  C   UNL     1       5.996  -6.635  14.682  1.00  0.00     0.031 C 
ATOM     47  C   UNL     1       6.716  -1.103  10.613  1.00  0.00     0.029 A 
ATOM     48  C   UNL     1       6.330  -0.822  11.992  1.00  0.00     0.049 A 
ATOM     49  H   UNL     1       6.111  -2.192  13.547  1.00  0.00     0.167 HD
ATOM     50  C   UNL     1       5.384  -5.246  16.643  1.00  0.00     0.034 A 
ATOM     51  C   UNL     1       6.050   0.398  12.493  1.00  0.00     0.034 A 
ATOM     52  C   UNL     1       5.151  -3.977  17.288  1.00  0.00     0.049 A 
ATOM     53  C   UNL     1       5.656   0.514  13.944  1.00  0.00     0.074 A 
ATOM     54  C   UNL     1       4.841  -3.727  18.613  1.00  0.00     0.029 A 
ATOM     55  N   UNL     1       5.206  -2.743  16.653  1.00  0.00    -0.354 N 
ATOM     56  N   UNL     1       5.502  -0.437  14.837  1.00  0.00    -0.248 NA
ATOM     57  C   UNL     1       5.409   1.867  14.458  1.00  0.00     0.031 C 
ATOM     58  C   UNL     1       4.652  -2.349  18.767  1.00  0.00     0.029 A 
ATOM     59  C   UNL     1       4.915  -1.731  17.554  1.00  0.00     0.049 A 
ATOM     60  H   UNL     1       5.420  -2.606  15.702  1.00  0.00     0.167 HD
ATOM     61  C   UNL     1       5.175   0.209  16.026  1.00  0.00     0.074 A 
ATOM     62  C   UNL     1       5.165   1.629  15.738  1.00  0.00     0.031 C 
ATOM     63  C   UNL     1       4.910  -0.320  17.247  1.00  0.00     0.034 A 
BRANCH  50  64
ATOM     64  C   UNL     1       5.214  -6.515  17.443  1.00  0.00     0.023 A 
ATOM     65  C   UNL     1       6.289  -7.391  17.674  1.00  0.00     0.031 A 
ATOM     66  C   UNL     1       3.955  -6.869  17.959  1.00  0.00     0.131 A 
ATOM     67  C   UNL     1       6.071  -8.611  18.331  1.00  0.00     0.055 A 
ATOM     68  C   UNL     1       3.762  -8.046  18.685  1.00  0.00     0.041 A 
ATOM     69  F   UNL     1       2.886  -6.083  17.754  1.00  0.00    -0.206 F 
ATOM     70  C   UNL     1       4.820  -8.933  18.862  1.00  0.00     0.022 A 
BRANCH  67  71
ATOM     71  S   UNL     1       7.412  -9.831  18.360  1.00  0.00     0.124 S 
ATOM     72  O   UNL     1       7.624 -10.069  16.934  1.00  0.00    -0.237 OA
ATOM     73  O   UNL     1       8.477  -9.114  19.053  1.00  0.00    -0.237 OA
ATOM     74  O   UNL     1       6.837 -10.956  19.094  1.00  0.00    -0.744 OA
ENDBRANCH  67  71
ENDBRANCH  50  64
BRANCH  51  75
ATOM     75  C   UNL     1       6.117   1.608  11.625  1.00  0.00     0.023 A 
ATOM     76  C   UNL     1       7.054   2.623  11.874  1.00  0.00     0.031 A 
ATOM     77  C   UNL     1       5.212   1.792  10.564  1.00  0.00     0.131 A 
ATOM     78  C   UNL     1       7.032   3.800  11.109  1.00  0.00     0.055 A 
ATOM     79  C   UNL     1       5.229   2.941   9.771  1.00  0.00     0.041 A 
ATOM     80  F   UNL     1       4.300   0.849  10.278  1.00  0.00    -0.206 F 
ATOM     81  C   UNL     1       6.134   3.960  10.052  1.00  0.00     0.022 A 
BRANCH  78  82
ATOM     82  S   UNL     1       8.137   5.160  11.578  1.00  0.00     0.124 S 
ATOM     83  O   UNL     1       7.748   5.394  12.964  1.00  0.00    -0.237 OA
ATOM     84  O   UNL     1       9.453   4.564  11.372  1.00  0.00    -0.237 OA
ATOM     85  O   UNL     1       7.782   6.224  10.641  1.00  0.00    -0.744 OA
ENDBRANCH  78  82
ENDBRANCH  51  75
BRANCH  63  86
ATOM     86  C   UNL     1       4.649   0.650  18.372  1.00  0.00     0.023 A 
ATOM     87  C   UNL     1       3.492   1.447  18.409  1.00  0.00     0.031 A 
ATOM     88  C   UNL     1       5.579   0.780  19.418  1.00  0.00     0.131 A 
ATOM     89  C   UNL     1       3.321   2.379  19.444  1.00  0.00     0.055 A 
ATOM     90  C   UNL     1       5.375   1.668  20.475  1.00  0.00     0.041 A 
ATOM     91  F   UNL     1       6.701   0.042  19.431  1.00  0.00    -0.206 F 
ATOM     92  C   UNL     1       4.247   2.483  20.485  1.00  0.00     0.022 A 
BRANCH  89  93
ATOM     93  S   UNL     1       1.908   3.514  19.369  1.00  0.00     0.124 S 
ATOM     94  O   UNL     1       2.136   4.199  18.100  1.00  0.00    -0.237 OA
ATOM     95  O   UNL     1       0.771   2.601  19.404  1.00  0.00    -0.237 OA
ATOM     96  O   UNL     1       2.072   4.345  20.560  1.00  0.00    -0.744 OA
ENDBRANCH  89  93
ENDBRANCH  63  86
ENDBRANCH  37  38
ENDBRANCH  29  32
ENDBRANCH  27  28
ENDBRANCH   1  27
TORSDOF 19
