REMARK SMILES CC(C)(C)c1cc(-n2cnc(C(=O)NCCCNC(=O)c3ccc(-c4c5nc(c(-c6cc(S(=O)(=O)[O-])ccc6F)c6ccc([nH]6)c(-c6cc(S(=O)(=O)[O-])ccc6F)c6nc(c(-c7cc(S(=O)(=O)[O-])ccc7F)c7ccc4[nH]7)C=C6)C=C5)cc3)c2)nc(Cl)n1
REMARK SMILES IDX 16 1 15 2 14 3 12 4 13 5 11 7 8 8 9 9 84 10 10 11 7 12 5 13
REMARK SMILES IDX 6 14 88 15 86 16 85 17 87 18 2 19 1 20 3 21 4 22 17 23 18 24
REMARK SMILES IDX 19 25 20 27 21 28 22 29 83 30 23 31 82 32 24 33 25 34 26 35
REMARK SMILES IDX 76 36 27 37 81 38 75 39 77 40 28 41 80 42 74 43 73 44 29 46
REMARK SMILES IDX 61 47 41 48 60 49 42 50 45 51 59 52 78 53 43 54 44 55 58 57
REMARK SMILES IDX 79 58 46 59 30 60 31 61 39 62 32 63 38 64 40 65 37 66 33 67
REMARK SMILES IDX 34 68 35 69 36 70 62 71 63 72 71 73 64 74 70 75 72 76 69 77
REMARK SMILES IDX 65 78 66 79 67 80 68 81 47 82 48 83 56 84 49 85 55 86 57 87
REMARK SMILES IDX 54 88 50 89 51 90 52 91 53 92
REMARK H PARENT 14 6 18 26 77 45 45 56
REMARK Flexibility Score: inf
ROOT
ATOM      1  C   UNL     1       6.181  -0.170   3.209  1.00  0.00     0.042 C 
ENDROOT
BRANCH   1   2
ATOM      2  C   UNL     1       5.194  -1.268   3.635  1.00  0.00     0.118 C 
BRANCH   2   3
ATOM      3  N   UNL     1       5.099  -1.417   5.079  1.00  0.00    -0.351 N 
ATOM      4  C   UNL     1       4.260  -0.852   6.023  1.00  0.00     0.271 C 
ATOM      5  O   UNL     1       4.340  -1.282   7.166  1.00  0.00    -0.267 OA
ATOM      6  H   UNL     1       5.760  -2.041   5.458  1.00  0.00     0.163 HD
BRANCH   4   7
ATOM      7  C   UNL     1       3.299   0.201   5.649  1.00  0.00     0.146 A 
ATOM      8  N   UNL     1       2.066   1.670   4.561  1.00  0.00    -0.290 N 
ATOM      9  C   UNL     1       1.646   1.604   5.857  1.00  0.00     0.206 A 
ATOM     10  C   UNL     1       3.191   0.895   4.468  1.00  0.00     0.128 A 
ATOM     11  N   UNL     1       2.321   0.685   6.520  1.00  0.00    -0.231 NA
BRANCH   8  12
ATOM     12  C   UNL     1       1.458   2.319   3.471  1.00  0.00     0.143 A 
ATOM     13  C   UNL     1       0.781   2.210   1.209  1.00  0.00     0.053 A 
ATOM     14  C   UNL     1       1.348   1.583   2.296  1.00  0.00     0.072 A 
ATOM     15  N   UNL     1       0.447   3.518   1.278  1.00  0.00    -0.222 NA
ATOM     16  C   UNL     1       0.614   4.131   2.464  1.00  0.00     0.224 A 
ATOM     17  N   UNL     1       1.053   3.589   3.603  1.00  0.00    -0.200 NA
ATOM     18  Cl  UNL     1       0.291   5.806   2.495  1.00  0.00    -0.041 Cl
BRANCH  13  19
ATOM     19  C   UNL     1       0.412   1.457  -0.074  1.00  0.00     0.004 C 
ATOM     20  C   UNL     1       0.930   0.002  -0.135  1.00  0.00     0.017 C 
ATOM     21  C   UNL     1       0.972   2.201  -1.299  1.00  0.00     0.017 C 
ATOM     22  C   UNL     1      -1.127   1.411  -0.156  1.00  0.00     0.017 C 
ENDBRANCH  13  19
ENDBRANCH   8  12
ENDBRANCH   4   7
ENDBRANCH   2   3
ENDBRANCH   1   2
BRANCH   1  23
ATOM     23  C   UNL     1       7.598  -0.706   3.086  1.00  0.00     0.118 C 
BRANCH  23  24
ATOM     24  N   UNL     1       7.750  -1.613   1.940  1.00  0.00    -0.352 N 
ATOM     25  C   UNL     1       8.864  -2.335   1.547  1.00  0.00     0.251 C 
ATOM     26  H   UNL     1       6.951  -1.722   1.375  1.00  0.00     0.163 HD
ATOM     27  O   UNL     1       8.955  -2.746   0.396  1.00  0.00    -0.269 OA
BRANCH  25  28
ATOM     28  C   UNL     1       9.924  -2.598   2.537  1.00  0.00     0.039 A 
ATOM     29  C   UNL     1      11.282  -2.593   2.206  1.00  0.00     0.014 A 
ATOM     30  C   UNL     1       9.518  -2.814   3.848  1.00  0.00     0.014 A 
ATOM     31  C   UNL     1      12.219  -2.730   3.232  1.00  0.00     0.010 A 
ATOM     32  C   UNL     1      10.425  -2.719   4.863  1.00  0.00     0.010 A 
ATOM     33  C   UNL     1      11.777  -2.774   4.565  1.00  0.00    -0.014 A 
BRANCH  33  34
ATOM     34  C   UNL     1      12.692  -2.719   5.701  1.00  0.00     0.031 A 
ATOM     35  C   UNL     1      13.572  -1.524   5.669  1.00  0.00     0.074 A 
ATOM     36  C   UNL     1      12.550  -3.507   6.794  1.00  0.00     0.049 A 
ATOM     37  N   UNL     1      14.827  -1.479   5.367  1.00  0.00    -0.248 NA
ATOM     38  C   UNL     1      12.940  -0.193   5.744  1.00  0.00     0.031 C 
ATOM     39  C   UNL     1      11.511  -4.512   7.059  1.00  0.00     0.029 A 
ATOM     40  N   UNL     1      13.244  -3.504   7.964  1.00  0.00    -0.354 N 
ATOM     41  C   UNL     1      15.200  -0.150   5.537  1.00  0.00     0.074 A 
ATOM     42  C   UNL     1      13.978   0.599   5.465  1.00  0.00     0.031 C 
ATOM     43  C   UNL     1      11.507  -4.839   8.371  1.00  0.00     0.029 A 
ATOM     44  C   UNL     1      12.644  -4.205   9.014  1.00  0.00     0.049 A 
ATOM     45  H   UNL     1      14.108  -3.042   8.063  1.00  0.00     0.167 HD
ATOM     46  C   UNL     1      16.420   0.162   6.059  1.00  0.00     0.034 A 
ATOM     47  C   UNL     1      13.044  -4.259  10.319  1.00  0.00     0.034 A 
ATOM     48  C   UNL     1      17.292  -1.001   6.024  1.00  0.00     0.049 A 
ATOM     49  C   UNL     1      14.476  -3.865  10.327  1.00  0.00     0.074 A 
ATOM     50  C   UNL     1      17.736  -1.849   5.025  1.00  0.00     0.029 A 
ATOM     51  N   UNL     1      17.495  -1.692   7.202  1.00  0.00    -0.354 N 
ATOM     52  N   UNL     1      15.407  -4.577   9.752  1.00  0.00    -0.248 NA
ATOM     53  C   UNL     1      14.789  -2.453  10.488  1.00  0.00     0.031 C 
ATOM     54  C   UNL     1      17.688  -3.154   5.603  1.00  0.00     0.029 A 
ATOM     55  C   UNL     1      17.332  -3.031   6.947  1.00  0.00     0.049 A 
ATOM     56  H   UNL     1      17.718  -1.293   8.074  1.00  0.00     0.167 HD
ATOM     57  C   UNL     1      16.200  -3.655   9.082  1.00  0.00     0.074 A 
ATOM     58  C   UNL     1      15.829  -2.358   9.651  1.00  0.00     0.031 C 
ATOM     59  C   UNL     1      16.851  -3.991   7.926  1.00  0.00     0.034 A 
BRANCH  46  60
ATOM     60  C   UNL     1      16.682   1.325   7.007  1.00  0.00     0.023 A 
ATOM     61  C   UNL     1      17.962   1.369   7.590  1.00  0.00     0.031 A 
ATOM     62  C   UNL     1      15.722   2.177   7.598  1.00  0.00     0.131 A 
ATOM     63  C   UNL     1      18.188   2.056   8.793  1.00  0.00     0.055 A 
ATOM     64  C   UNL     1      15.970   2.912   8.763  1.00  0.00     0.041 A 
ATOM     65  F   UNL     1      14.475   2.314   7.139  1.00  0.00    -0.206 F 
ATOM     66  C   UNL     1      17.195   2.817   9.396  1.00  0.00     0.022 A 
BRANCH  63  67
ATOM     67  S   UNL     1      19.747   1.748   9.657  1.00  0.00     0.124 S 
ATOM     68  O   UNL     1      19.738   0.291   9.745  1.00  0.00    -0.237 OA
ATOM     69  O   UNL     1      20.716   2.334   8.738  1.00  0.00    -0.237 OA
ATOM     70  O   UNL     1      19.576   2.455  10.923  1.00  0.00    -0.744 OA
ENDBRANCH  63  67
ENDBRANCH  46  60
BRANCH  47  71
ATOM     71  C   UNL     1      12.192  -4.302  11.549  1.00  0.00     0.023 A 
ATOM     72  C   UNL     1      12.642  -4.748  12.817  1.00  0.00     0.031 A 
ATOM     73  C   UNL     1      10.941  -3.645  11.528  1.00  0.00     0.131 A 
ATOM     74  C   UNL     1      11.852  -4.532  13.978  1.00  0.00     0.055 A 
ATOM     75  C   UNL     1      10.171  -3.430  12.675  1.00  0.00     0.041 A 
ATOM     76  F   UNL     1      10.461  -3.110  10.394  1.00  0.00    -0.206 F 
ATOM     77  C   UNL     1      10.627  -3.866  13.907  1.00  0.00     0.022 A 
BRANCH  74  78
ATOM     78  S   UNL     1      12.427  -5.061  15.633  1.00  0.00     0.124 S 
ATOM     79  O   UNL     1      12.507  -6.510  15.493  1.00  0.00    -0.237 OA
ATOM     80  O   UNL     1      13.693  -4.350  15.769  1.00  0.00    -0.237 OA
ATOM     81  O   UNL     1      11.368  -4.594  16.531  1.00  0.00    -0.744 OA
ENDBRANCH  74  78
ENDBRANCH  47  71
BRANCH  59  82
ATOM     82  C   UNL     1      16.924  -5.459   7.543  1.00  0.00     0.023 A 
ATOM     83  C   UNL     1      15.812  -6.303   7.309  1.00  0.00     0.031 A 
ATOM     84  C   UNL     1      18.203  -5.986   7.291  1.00  0.00     0.131 A 
ATOM     85  C   UNL     1      16.012  -7.624   6.852  1.00  0.00     0.055 A 
ATOM     86  C   UNL     1      18.394  -7.282   6.817  1.00  0.00     0.041 A 
ATOM     87  F   UNL     1      19.298  -5.228   7.467  1.00  0.00    -0.206 F 
ATOM     88  C   UNL     1      17.299  -8.109   6.602  1.00  0.00     0.022 A 
BRANCH  85  89
ATOM     89  S   UNL     1      14.600  -8.750   6.588  1.00  0.00     0.124 S 
ATOM     90  O   UNL     1      13.830  -8.627   7.820  1.00  0.00    -0.237 OA
ATOM     91  O   UNL     1      13.976  -8.203   5.387  1.00  0.00    -0.237 OA
ATOM     92  O   UNL     1      15.237 -10.056   6.397  1.00  0.00    -0.744 OA
ENDBRANCH  85  89
ENDBRANCH  59  82
ENDBRANCH  33  34
ENDBRANCH  25  28
ENDBRANCH  23  24
ENDBRANCH   1  23
TORSDOF 15
