REMARK SMILES C[C@H]1[C@H](C(=O)NCCCNC(=O)c2ccc(-c3c4nc(c(-c5cc(S(=O)(=O)[O-])ccc5F)c5ccc([nH]5)c(-c5cc(S(=O)(=O)[O-])ccc5F)c5nc(c(-c6cc(S(=O)(=O)[O-])ccc6F)c6ccc3[nH]6)C=C5)C=C4)cc2)CCN1C(=O)NCc1cnn(C)c1
REMARK SMILES IDX 8 1 7 2 6 3 4 4 5 5 3 7 1 8 2 9 78 10 76 11 77 12 79 13
REMARK SMILES IDX 80 14 81 15 82 17 83 18 84 19 88 20 85 21 86 22 87 23 9 24
REMARK SMILES IDX 10 25 11 26 12 28 13 29 14 30 75 31 15 32 74 33 16 34 17 35
REMARK SMILES IDX 18 36 68 37 19 38 73 39 67 40 69 41 20 42 72 43 66 44 65 45
REMARK SMILES IDX 21 47 53 48 33 49 52 50 34 51 37 52 51 53 70 54 35 55 36 56
REMARK SMILES IDX 50 58 71 59 38 60 22 61 23 62 31 63 24 64 30 65 32 66 29 67
REMARK SMILES IDX 25 68 26 69 27 70 28 71 54 72 55 73 63 74 56 75 62 76 64 77
REMARK SMILES IDX 61 78 57 79 58 80 59 81 60 82 39 83 40 84 48 85 41 86 47 87
REMARK SMILES IDX 49 88 46 89 42 90 43 91 44 92 45 93
REMARK H PARENT 6 6 81 16 10 27 69 46 37 57
REMARK Flexibility Score: inf
ROOT
ATOM      1  C   UNL     1      -0.392  -0.042   3.844  1.00  0.00     0.042 C 
ENDROOT
BRANCH   1   2
ATOM      2  C   UNL     1      -1.307   0.640   2.838  1.00  0.00     0.117 C 
BRANCH   2   3
ATOM      3  N   UNL     1      -0.768   1.900   2.350  1.00  0.00    -0.356 N 
ATOM      4  C   UNL     1      -0.279   2.272   1.141  1.00  0.00     0.225 C 
ATOM      5  O   UNL     1       0.116   3.438   1.029  1.00  0.00    -0.275 OA
ATOM      6  H   UNL     1      -0.755   2.617   3.024  1.00  0.00     0.163 HD
BRANCH   4   7
ATOM      7  C   UNL     1      -0.170   1.334  -0.050  1.00  0.00     0.102 C 
ATOM      8  C   UNL     1       1.900   0.262  -0.979  1.00  0.00     0.032 C 
ATOM      9  C   UNL     1       0.875   0.227   0.163  1.00  0.00     0.096 C 
ATOM     10  N   UNL     1       0.122  -1.022   0.137  1.00  0.00    -0.321 N 
ATOM     11  C   UNL     1      -1.468   0.650  -0.472  1.00  0.00     0.037 C 
ATOM     12  C   UNL     1      -1.136  -0.830  -0.567  1.00  0.00     0.122 C 
BRANCH  10  13
ATOM     13  C   UNL     1       0.396  -2.250   0.652  1.00  0.00     0.317 C 
ATOM     14  O   UNL     1      -0.420  -3.173   0.552  1.00  0.00    -0.249 OA
ATOM     15  N   UNL     1       1.526  -2.555   1.304  1.00  0.00    -0.334 N 
ATOM     16  H   UNL     1       1.462  -3.438   1.734  1.00  0.00     0.165 HD
BRANCH  15  17
ATOM     17  C   UNL     1       2.815  -1.946   1.552  1.00  0.00     0.157 C 
BRANCH  17  18
ATOM     18  C   UNL     1       3.046  -1.846   3.014  1.00  0.00     0.009 A 
ATOM     19  C   UNL     1       3.294  -0.669   3.757  1.00  0.00     0.140 A 
ATOM     20  C   UNL     1       3.114  -2.851   3.961  1.00  0.00     0.113 A 
ATOM     21  N   UNL     1       3.457  -0.901   5.059  1.00  0.00    -0.181 NA
ATOM     22  N   UNL     1       3.374  -2.242   5.156  1.00  0.00    -0.275 N 
ATOM     23  C   UNL     1       3.550  -2.879   6.440  1.00  0.00     0.173 C 
ENDBRANCH  17  18
ENDBRANCH  15  17
ENDBRANCH  10  13
ENDBRANCH   4   7
ENDBRANCH   2   3
ENDBRANCH   1   2
BRANCH   1  24
ATOM     24  C   UNL     1      -0.193   0.720   5.150  1.00  0.00     0.118 C 
BRANCH  24  25
ATOM     25  N   UNL     1      -1.434   0.881   5.895  1.00  0.00    -0.352 N 
ATOM     26  C   UNL     1      -1.779   0.461   7.154  1.00  0.00     0.251 C 
ATOM     27  H   UNL     1      -2.140   1.373   5.417  1.00  0.00     0.163 HD
ATOM     28  O   UNL     1      -2.963   0.532   7.494  1.00  0.00    -0.269 OA
BRANCH  26  29
ATOM     29  C   UNL     1      -0.773  -0.086   8.093  1.00  0.00     0.039 A 
ATOM     30  C   UNL     1      -1.147  -1.139   8.936  1.00  0.00     0.014 A 
ATOM     31  C   UNL     1       0.510   0.458   8.197  1.00  0.00     0.014 A 
ATOM     32  C   UNL     1      -0.224  -1.677   9.836  1.00  0.00     0.010 A 
ATOM     33  C   UNL     1       1.452  -0.130   9.041  1.00  0.00     0.010 A 
ATOM     34  C   UNL     1       1.095  -1.199   9.875  1.00  0.00    -0.014 A 
BRANCH  34  35
ATOM     35  C   UNL     1       2.109  -1.806  10.779  1.00  0.00     0.031 A 
ATOM     36  C   UNL     1       2.726  -0.992  11.885  1.00  0.00     0.074 A 
ATOM     37  C   UNL     1       2.518  -3.072  10.563  1.00  0.00     0.049 A 
ATOM     38  N   UNL     1       3.665  -1.327  12.734  1.00  0.00    -0.248 NA
ATOM     39  C   UNL     1       2.235   0.384  12.044  1.00  0.00     0.031 C 
ATOM     40  C   UNL     1       2.015  -3.956   9.510  1.00  0.00     0.029 A 
ATOM     41  N   UNL     1       3.464  -3.830  11.206  1.00  0.00    -0.354 N 
ATOM     42  C   UNL     1       3.875  -0.205  13.530  1.00  0.00     0.074 A 
ATOM     43  C   UNL     1       3.015   0.839  13.012  1.00  0.00     0.031 C 
ATOM     44  C   UNL     1       2.663  -5.130   9.572  1.00  0.00     0.029 A 
ATOM     45  C   UNL     1       3.642  -5.076  10.652  1.00  0.00     0.049 A 
ATOM     46  H   UNL     1       3.967  -3.512  11.990  1.00  0.00     0.167 HD
ATOM     47  C   UNL     1       4.684  -0.067  14.611  1.00  0.00     0.034 A 
ATOM     48  C   UNL     1       4.500  -6.064  10.971  1.00  0.00     0.034 A 
ATOM     49  C   UNL     1       5.539  -1.117  15.114  1.00  0.00     0.049 A 
ATOM     50  C   UNL     1       5.417  -5.881  12.152  1.00  0.00     0.074 A 
ATOM     51  C   UNL     1       6.362  -1.102  16.227  1.00  0.00     0.029 A 
ATOM     52  N   UNL     1       5.689  -2.369  14.530  1.00  0.00    -0.354 N 
ATOM     53  N   UNL     1       5.559  -4.834  12.932  1.00  0.00    -0.248 NA
ATOM     54  C   UNL     1       6.266  -7.022  12.512  1.00  0.00     0.031 C 
ATOM     55  C   UNL     1       7.057  -2.317  16.278  1.00  0.00     0.029 A 
ATOM     56  C   UNL     1       6.613  -3.122  15.241  1.00  0.00     0.049 A 
ATOM     57  H   UNL     1       5.209  -2.678  13.728  1.00  0.00     0.167 HD
ATOM     58  C   UNL     1       6.494  -5.204  13.895  1.00  0.00     0.074 A 
ATOM     59  C   UNL     1       6.865  -6.575  13.605  1.00  0.00     0.031 C 
ATOM     60  C   UNL     1       6.994  -4.480  14.929  1.00  0.00     0.034 A 
BRANCH  47  61
ATOM     61  C   UNL     1       4.691   1.277  15.304  1.00  0.00     0.023 A 
ATOM     62  C   UNL     1       3.533   1.799  15.907  1.00  0.00     0.031 A 
ATOM     63  C   UNL     1       5.858   2.061  15.338  1.00  0.00     0.131 A 
ATOM     64  C   UNL     1       3.543   3.095  16.445  1.00  0.00     0.055 A 
ATOM     65  C   UNL     1       5.884   3.317  15.949  1.00  0.00     0.041 A 
ATOM     66  F   UNL     1       6.991   1.626  14.765  1.00  0.00    -0.206 F 
ATOM     67  C   UNL     1       4.718   3.849  16.492  1.00  0.00     0.022 A 
BRANCH  64  68
ATOM     68  S   UNL     1       1.966   3.838  16.946  1.00  0.00     0.124 S 
ATOM     69  O   UNL     1       1.206   3.787  15.699  1.00  0.00    -0.237 OA
ATOM     70  O   UNL     1       1.518   2.941  18.005  1.00  0.00    -0.237 OA
ATOM     71  O   UNL     1       2.342   5.181  17.383  1.00  0.00    -0.744 OA
ENDBRANCH  64  68
ENDBRANCH  47  61
BRANCH  48  72
ATOM     72  C   UNL     1       4.536  -7.313  10.160  1.00  0.00     0.023 A 
ATOM     73  C   UNL     1       4.142  -8.544  10.706  1.00  0.00     0.031 A 
ATOM     74  C   UNL     1       4.990  -7.294   8.829  1.00  0.00     0.131 A 
ATOM     75  C   UNL     1       4.253  -9.715   9.941  1.00  0.00     0.055 A 
ATOM     76  C   UNL     1       5.056  -8.455   8.057  1.00  0.00     0.041 A 
ATOM     77  F   UNL     1       5.358  -6.138   8.253  1.00  0.00    -0.206 F 
ATOM     78  C   UNL     1       4.697  -9.677   8.617  1.00  0.00     0.022 A 
BRANCH  75  79
ATOM     79  S   UNL     1       3.869 -11.304  10.726  1.00  0.00     0.124 S 
ATOM     80  O   UNL     1       4.801 -11.314  11.847  1.00  0.00    -0.237 OA
ATOM     81  O   UNL     1       2.459 -11.139  11.064  1.00  0.00    -0.237 OA
ATOM     82  O   UNL     1       4.145 -12.278   9.673  1.00  0.00    -0.744 OA
ENDBRANCH  75  79
ENDBRANCH  48  72
BRANCH  60  83
ATOM     83  C   UNL     1       7.974  -5.181  15.839  1.00  0.00     0.023 A 
ATOM     84  C   UNL     1       9.238  -5.595  15.383  1.00  0.00     0.031 A 
ATOM     85  C   UNL     1       7.625  -5.469  17.170  1.00  0.00     0.131 A 
ATOM     86  C   UNL     1      10.079  -6.334  16.229  1.00  0.00     0.055 A 
ATOM     87  C   UNL     1       8.493  -6.148  18.027  1.00  0.00     0.041 A 
ATOM     88  F   UNL     1       6.431  -5.100  17.659  1.00  0.00    -0.206 F 
ATOM     89  C   UNL     1       9.722  -6.599  17.553  1.00  0.00     0.022 A 
BRANCH  86  90
ATOM     90  S   UNL     1      11.601  -7.042  15.539  1.00  0.00     0.124 S 
ATOM     91  O   UNL     1      11.087  -7.852  14.439  1.00  0.00    -0.237 OA
ATOM     92  O   UNL     1      12.353  -5.852  15.158  1.00  0.00    -0.237 OA
ATOM     93  O   UNL     1      12.163  -7.800  16.656  1.00  0.00    -0.744 OA
ENDBRANCH  86  90
ENDBRANCH  60  83
ENDBRANCH  34  35
ENDBRANCH  26  29
ENDBRANCH  24  25
ENDBRANCH   1  24
TORSDOF 16
