REMARK SMILES CCc1cc(OC(F)(F)F)cc2c1O[C@H](C(F)(F)F)C(C(=O)NCCCNC(=O)c1ccc(-c3c4nc(c(-c5cc(S(=O)(=O)[O-])ccc5F)c5ccc([nH]5)c(-c5cc(S(=O)(=O)[O-])ccc5F)c5nc(c(-c6cc(S(=O)(=O)[O-])ccc6F)c6ccc3[nH]6)C=C5)C=C4)cc1)=C2
REMARK SMILES IDX 25 1 24 2 23 3 21 4 22 5 20 7 3 8 4 9 13 10 5 11 12 12 14 13
REMARK SMILES IDX 11 14 93 15 15 16 2 17 1 18 6 19 7 20 8 21 9 22 10 23 16 24
REMARK SMILES IDX 17 25 18 26 19 27 26 28 27 29 28 30 29 32 30 33 31 34 92 35
REMARK SMILES IDX 32 36 91 37 33 38 34 39 35 40 85 41 36 42 90 43 84 44 86 45
REMARK SMILES IDX 37 46 89 47 83 48 82 49 38 51 70 52 50 53 69 54 51 55 54 56
REMARK SMILES IDX 68 57 87 58 52 59 53 60 67 62 88 63 55 64 39 65 40 66 48 67
REMARK SMILES IDX 41 68 47 69 49 70 46 71 42 72 43 73 44 74 45 75 71 76 72 77
REMARK SMILES IDX 80 78 73 79 79 80 81 81 78 82 74 83 75 84 76 85 77 86 56 87
REMARK SMILES IDX 57 88 65 89 58 90 64 91 66 92 63 93 59 94 60 95 61 96 62 97
REMARK H PARENT 23 6 27 31 86 50 54 61
REMARK Flexibility Score: inf
ROOT
ATOM      1  C   UNL     1       1.235   8.508  -4.313  1.00  0.00     0.042 C 
ENDROOT
BRANCH   1   2
ATOM      2  C   UNL     1       1.788   8.378  -2.894  1.00  0.00     0.118 C 
BRANCH   2   3
ATOM      3  N   UNL     1       0.730   8.461  -1.904  1.00  0.00    -0.352 N 
ATOM      4  C   UNL     1       0.003   7.525  -1.247  1.00  0.00     0.251 C 
ATOM      5  O   UNL     1      -0.768   7.923  -0.372  1.00  0.00    -0.270 OA
ATOM      6  H   UNL     1       0.493   9.385  -1.660  1.00  0.00     0.163 HD
BRANCH   4   7
ATOM      7  C   UNL     1       0.170   6.056  -1.448  1.00  0.00     0.067 C 
ATOM      8  C   UNL     1       0.942   1.926  -1.183  1.00  0.00    -0.002 A 
ATOM      9  C   UNL     1       1.455   1.268  -2.317  1.00  0.00     0.054 A 
ATOM     10  C   UNL     1       0.686   3.307  -1.269  1.00  0.00     0.131 A 
ATOM     11  C   UNL     1       1.711   1.964  -3.502  1.00  0.00     0.130 A 
ATOM     12  C   UNL     1       0.916   4.006  -2.458  1.00  0.00     0.021 A 
ATOM     13  O   UNL     1       0.268   3.945  -0.127  1.00  0.00    -0.475 OA
ATOM     14  C   UNL     1       1.430   3.330  -3.567  1.00  0.00     0.058 A 
ATOM     15  C   UNL     1       0.709   5.448  -2.512  1.00  0.00     0.025 C 
ATOM     16  C   UNL     1      -0.393   5.229  -0.305  1.00  0.00     0.314 C 
BRANCH   8  17
ATOM     17  C   UNL     1       0.619   1.201   0.109  1.00  0.00     0.036 C 
ATOM     18  C   UNL     1       1.009  -0.269   0.201  1.00  0.00     0.009 C 
ENDBRANCH   8  17
BRANCH  11  19
ATOM     19  O   UNL     1       2.234   1.448  -4.654  1.00  0.00    -0.406 OA
BRANCH  19  20
ATOM     20  C   UNL     1       2.564   0.071  -4.680  1.00  0.00     0.573 C 
ATOM     21  F   UNL     1       3.493  -0.226  -3.745  1.00  0.00    -0.132 F 
ATOM     22  F   UNL     1       1.470  -0.696  -4.486  1.00  0.00    -0.132 F 
ATOM     23  F   UNL     1       3.081  -0.230  -5.891  1.00  0.00    -0.132 F 
ENDBRANCH  19  20
ENDBRANCH  11  19
BRANCH  16  24
ATOM     24  C   UNL     1      -1.920   5.020  -0.401  1.00  0.00     0.429 C 
ATOM     25  F   UNL     1      -2.237   3.980  -1.212  1.00  0.00    -0.167 F 
ATOM     26  F   UNL     1      -2.440   4.736   0.821  1.00  0.00    -0.167 F 
ATOM     27  F   UNL     1      -2.589   6.093  -0.875  1.00  0.00    -0.167 F 
ENDBRANCH  16  24
ENDBRANCH   4   7
ENDBRANCH   2   3
ENDBRANCH   1   2
BRANCH   1  28
ATOM     28  C   UNL     1       0.904   9.948  -4.697  1.00  0.00     0.118 C 
BRANCH  28  29
ATOM     29  N   UNL     1       2.108  10.756  -4.835  1.00  0.00    -0.352 N 
ATOM     30  C   UNL     1       2.590  11.444  -5.920  1.00  0.00     0.251 C 
ATOM     31  H   UNL     1       2.662  10.818  -4.023  1.00  0.00     0.163 HD
ATOM     32  O   UNL     1       3.752  11.840  -5.904  1.00  0.00    -0.269 OA
BRANCH  30  33
ATOM     33  C   UNL     1       1.730  11.696  -7.098  1.00  0.00     0.039 A 
ATOM     34  C   UNL     1       2.295  11.618  -8.375  1.00  0.00     0.014 A 
ATOM     35  C   UNL     1       0.388  12.057  -6.950  1.00  0.00     0.014 A 
ATOM     36  C   UNL     1       1.502  11.850  -9.501  1.00  0.00     0.010 A 
ATOM     37  C   UNL     1      -0.417  12.219  -8.075  1.00  0.00     0.010 A 
ATOM     38  C   UNL     1       0.132  12.124  -9.362  1.00  0.00    -0.014 A 
BRANCH  38  39
ATOM     39  C   UNL     1      -0.741  12.320 -10.548  1.00  0.00     0.031 A 
ATOM     40  C   UNL     1      -1.401  13.650 -10.789  1.00  0.00     0.074 A 
ATOM     41  C   UNL     1      -0.991  11.280 -11.368  1.00  0.00     0.049 A 
ATOM     42  N   UNL     1      -2.259  13.996 -11.714  1.00  0.00    -0.248 NA
ATOM     43  C   UNL     1      -1.071  14.726  -9.842  1.00  0.00     0.031 C 
ATOM     44  C   UNL     1      -0.432   9.935 -11.219  1.00  0.00     0.029 A 
ATOM     45  N   UNL     1      -1.784  11.187 -12.483  1.00  0.00    -0.354 N 
ATOM     46  C   UNL     1      -2.587  15.322 -11.451  1.00  0.00     0.074 A 
ATOM     47  C   UNL     1      -1.879  15.695 -10.245  1.00  0.00     0.031 C 
ATOM     48  C   UNL     1      -0.877   9.161 -12.222  1.00  0.00     0.029 A 
ATOM     49  C   UNL     1      -1.791   9.935 -13.054  1.00  0.00     0.049 A 
ATOM     50  H   UNL     1      -2.300  11.945 -12.842  1.00  0.00     0.167 HD
ATOM     51  C   UNL     1      -3.389  16.155 -12.162  1.00  0.00     0.034 A 
ATOM     52  C   UNL     1      -2.467   9.463 -14.120  1.00  0.00     0.034 A 
ATOM     53  C   UNL     1      -4.078  15.765 -13.369  1.00  0.00     0.049 A 
ATOM     54  C   UNL     1      -3.383  10.396 -14.871  1.00  0.00     0.074 A 
ATOM     55  C   UNL     1      -4.863  16.540 -14.205  1.00  0.00     0.029 A 
ATOM     56  N   UNL     1      -4.075  14.483 -13.908  1.00  0.00    -0.354 N 
ATOM     57  N   UNL     1      -3.643  11.662 -14.642  1.00  0.00    -0.248 NA
ATOM     58  C   UNL     1      -4.091   9.834 -16.028  1.00  0.00     0.031 C 
ATOM     59  C   UNL     1      -5.391  15.715 -15.204  1.00  0.00     0.029 A 
ATOM     60  C   UNL     1      -4.874  14.439 -15.041  1.00  0.00     0.049 A 
ATOM     61  H   UNL     1      -3.578  13.718 -13.539  1.00  0.00     0.167 HD
ATOM     62  C   UNL     1      -4.519  12.057 -15.648  1.00  0.00     0.074 A 
ATOM     63  C   UNL     1      -4.733  10.897 -16.490  1.00  0.00     0.031 C 
ATOM     64  C   UNL     1      -5.089  13.271 -15.863  1.00  0.00     0.034 A 
BRANCH  51  65
ATOM     65  C   UNL     1      -3.585  17.555 -11.626  1.00  0.00     0.023 A 
ATOM     66  C   UNL     1      -2.509  18.448 -11.476  1.00  0.00     0.031 A 
ATOM     67  C   UNL     1      -4.859  17.991 -11.219  1.00  0.00     0.131 A 
ATOM     68  C   UNL     1      -2.708  19.689 -10.852  1.00  0.00     0.055 A 
ATOM     69  C   UNL     1      -5.066  19.263 -10.681  1.00  0.00     0.041 A 
ATOM     70  F   UNL     1      -5.923  17.179 -11.317  1.00  0.00    -0.206 F 
ATOM     71  C   UNL     1      -3.984  20.114 -10.476  1.00  0.00     0.022 A 
BRANCH  68  72
ATOM     72  S   UNL     1      -1.252  20.666 -10.387  1.00  0.00     0.124 S 
ATOM     73  O   UNL     1      -0.525  19.725  -9.537  1.00  0.00    -0.237 OA
ATOM     74  O   UNL     1      -0.644  20.961 -11.679  1.00  0.00    -0.237 OA
ATOM     75  O   UNL     1      -1.819  21.816  -9.685  1.00  0.00    -0.744 OA
ENDBRANCH  68  72
ENDBRANCH  51  65
BRANCH  52  76
ATOM     76  C   UNL     1      -2.309   8.044 -14.546  1.00  0.00     0.023 A 
ATOM     77  C   UNL     1      -1.737   7.727 -15.788  1.00  0.00     0.031 A 
ATOM     78  C   UNL     1      -2.759   6.985 -13.737  1.00  0.00     0.131 A 
ATOM     79  C   UNL     1      -1.669   6.390 -16.207  1.00  0.00     0.055 A 
ATOM     80  C   UNL     1      -2.641   5.652 -14.136  1.00  0.00     0.041 A 
ATOM     81  F   UNL     1      -3.308   7.232 -12.537  1.00  0.00    -0.206 F 
ATOM     82  C   UNL     1      -2.104   5.349 -15.383  1.00  0.00     0.022 A 
BRANCH  79  83
ATOM     83  S   UNL     1      -1.070   6.035 -17.882  1.00  0.00     0.124 S 
ATOM     84  O   UNL     1      -2.015   6.788 -18.700  1.00  0.00    -0.237 OA
ATOM     85  O   UNL     1       0.292   6.555 -17.832  1.00  0.00    -0.237 OA
ATOM     86  O   UNL     1      -1.178   4.582 -17.980  1.00  0.00    -0.744 OA
ENDBRANCH  79  83
ENDBRANCH  52  76
BRANCH  64  87
ATOM     87  C   UNL     1      -5.963  13.408 -17.087  1.00  0.00     0.023 A 
ATOM     88  C   UNL     1      -7.187  12.728 -17.205  1.00  0.00     0.031 A 
ATOM     89  C   UNL     1      -5.553  14.223 -18.157  1.00  0.00     0.131 A 
ATOM     90  C   UNL     1      -7.932  12.831 -18.389  1.00  0.00     0.055 A 
ATOM     91  C   UNL     1      -6.328  14.370 -19.308  1.00  0.00     0.041 A 
ATOM     92  F   UNL     1      -4.390  14.893 -18.100  1.00  0.00    -0.206 F 
ATOM     93  C   UNL     1      -7.519  13.662 -19.434  1.00  0.00     0.022 A 
BRANCH  90  94
ATOM     94  S   UNL     1      -9.406  11.792 -18.585  1.00  0.00     0.124 S 
ATOM     95  O   UNL     1      -8.851  10.449 -18.449  1.00  0.00    -0.237 OA
ATOM     96  O   UNL     1     -10.255  12.245 -17.488  1.00  0.00    -0.237 OA
ATOM     97  O   UNL     1      -9.890  12.131 -19.922  1.00  0.00    -0.744 OA
ENDBRANCH  90  94
ENDBRANCH  64  87
ENDBRANCH  38  39
ENDBRANCH  30  33
ENDBRANCH  28  29
ENDBRANCH   1  28
TORSDOF 17
