REMARK SMILES O=C(C[C@@H]1C[N@@H+](CCSc2ccccc2F)CCO1)NCCCNC(=O)c1ccc(-c2c3nc(c(-c4cc(S(=O)(=O)[O-])ccc4F)c4ccc([nH]4)c(-c4cc(S(=O)(=O)[O-])ccc4F)c4nc(c(-c5cc(S(=O)(=O)[O-])ccc5F)c5ccc2[nH]5)C=C4)C=C3)cc1
REMARK SMILES IDX 21 1 20 2 1 3 2 4 3 6 4 7 5 8 19 9 6 10 18 11 17 12 7 14
REMARK SMILES IDX 8 15 9 16 10 17 11 18 15 19 12 20 14 21 16 22 13 23 22 24
REMARK SMILES IDX 23 25 24 26 25 27 26 29 27 30 28 31 89 32 29 33 88 34 30 35
REMARK SMILES IDX 31 36 32 37 82 38 33 39 87 40 81 41 83 42 34 43 86 44 80 45
REMARK SMILES IDX 79 46 35 48 67 49 47 50 66 51 48 52 51 53 65 54 84 55 49 56
REMARK SMILES IDX 50 57 64 59 85 60 52 61 36 62 37 63 45 64 38 65 44 66 46 67
REMARK SMILES IDX 43 68 39 69 40 70 41 71 42 72 68 73 69 74 77 75 70 76 76 77
REMARK SMILES IDX 78 78 75 79 71 80 72 81 73 82 74 83 53 84 54 85 62 86 55 87
REMARK SMILES IDX 61 88 63 89 60 90 56 91 57 92 58 93 59 94
REMARK H PARENT 20 5 6 13 24 28 83 47 51 58
REMARK Flexibility Score: inf
ROOT
ATOM      1  C   UNL     1       2.002   2.036   0.620  1.00  0.00     0.117 C 
ENDROOT
BRANCH   1   2
ATOM      2  N   UNL     1       2.379   0.635   0.683  1.00  0.00    -0.356 N 
ATOM      3  O   UNL     1       0.288  -0.313   0.458  1.00  0.00    -0.275 OA
ATOM      4  C   UNL     1       1.510  -0.422   0.453  1.00  0.00     0.222 C 
ATOM      5  H   UNL     1       3.314   0.421   0.903  1.00  0.00     0.163 HD
BRANCH   4   6
ATOM      6  C   UNL     1       2.198  -1.756   0.115  1.00  0.00     0.138 C 
BRANCH   6   7
ATOM      7  C   UNL     1       3.131  -1.488  -1.066  1.00  0.00     0.182 C 
ATOM      8  C   UNL     1       3.708  -2.691  -1.863  1.00  0.00     0.295 C 
ATOM      9  O   UNL     1       4.197  -0.782  -0.402  1.00  0.00    -0.366 OA
ATOM     10  N   UNL     1       4.886  -2.354  -2.721  1.00  0.00    -0.330 N 
ATOM     11  C   UNL     1       5.162  -0.366  -1.337  1.00  0.00     0.222 C 
ATOM     12  C   UNL     1       5.837  -1.610  -1.906  1.00  0.00     0.291 C 
ATOM     13  H   UNL     1       5.241  -3.260  -3.025  1.00  0.00     0.348 HD
BRANCH  10  14
ATOM     14  C   UNL     1       4.675  -1.729  -4.047  1.00  0.00     0.273 C 
BRANCH  14  15
ATOM     15  C   UNL     1       5.115  -0.256  -4.480  1.00  0.00     0.136 C 
BRANCH  15  16
ATOM     16  S   UNL     1       6.901   0.383  -4.509  1.00  0.00    -0.117 SA
BRANCH  16  17
ATOM     17  C   UNL     1       7.244   1.211  -2.930  1.00  0.00     0.043 A 
ATOM     18  C   UNL     1       6.706   2.459  -2.581  1.00  0.00     0.018 A 
ATOM     19  C   UNL     1       8.112   0.606  -1.995  1.00  0.00     0.136 A 
ATOM     20  C   UNL     1       6.929   3.004  -1.297  1.00  0.00     0.001 A 
ATOM     21  C   UNL     1       8.277   1.107  -0.698  1.00  0.00     0.040 A 
ATOM     22  F   UNL     1       8.718  -0.556  -2.284  1.00  0.00    -0.206 F 
ATOM     23  C   UNL     1       7.669   2.305  -0.340  1.00  0.00     0.003 A 
ENDBRANCH  16  17
ENDBRANCH  15  16
ENDBRANCH  14  15
ENDBRANCH  10  14
ENDBRANCH   6   7
ENDBRANCH   4   6
ENDBRANCH   1   2
BRANCH   1  24
ATOM     24  C   UNL     1       2.370   2.839   1.866  1.00  0.00     0.042 C 
BRANCH  24  25
ATOM     25  C   UNL     1       3.855   3.177   2.034  1.00  0.00     0.118 C 
BRANCH  25  26
ATOM     26  N   UNL     1       4.325   4.228   1.139  1.00  0.00    -0.352 N 
ATOM     27  C   UNL     1       5.000   5.406   1.392  1.00  0.00     0.251 C 
ATOM     28  H   UNL     1       4.127   4.070   0.188  1.00  0.00     0.163 HD
ATOM     29  O   UNL     1       5.215   6.164   0.454  1.00  0.00    -0.269 OA
BRANCH  27  30
ATOM     30  C   UNL     1       5.451   5.783   2.761  1.00  0.00     0.039 A 
ATOM     31  C   UNL     1       5.363   7.126   3.149  1.00  0.00     0.014 A 
ATOM     32  C   UNL     1       6.005   4.857   3.647  1.00  0.00     0.014 A 
ATOM     33  C   UNL     1       5.756   7.520   4.436  1.00  0.00     0.010 A 
ATOM     34  C   UNL     1       6.331   5.238   4.954  1.00  0.00     0.010 A 
ATOM     35  C   UNL     1       6.207   6.573   5.369  1.00  0.00    -0.014 A 
BRANCH  35  36
ATOM     36  C   UNL     1       6.539   6.965   6.771  1.00  0.00     0.031 A 
ATOM     37  C   UNL     1       7.941   6.807   7.303  1.00  0.00     0.074 A 
ATOM     38  C   UNL     1       5.570   7.433   7.585  1.00  0.00     0.049 A 
ATOM     39  N   UNL     1       8.399   7.045   8.507  1.00  0.00    -0.248 NA
ATOM     40  C   UNL     1       8.957   6.298   6.369  1.00  0.00     0.031 C 
ATOM     41  C   UNL     1       4.167   7.615   7.207  1.00  0.00     0.029 A 
ATOM     42  N   UNL     1       5.612   7.846   8.897  1.00  0.00    -0.354 N 
ATOM     43  C   UNL     1       9.749   6.713   8.476  1.00  0.00     0.074 A 
ATOM     44  C   UNL     1      10.025   6.205   7.149  1.00  0.00     0.031 C 
ATOM     45  C   UNL     1       3.494   8.137   8.245  1.00  0.00     0.029 A 
ATOM     46  C   UNL     1       4.398   8.281   9.382  1.00  0.00     0.049 A 
ATOM     47  H   UNL     1       6.433   7.831   9.439  1.00  0.00     0.167 HD
ATOM     48  C   UNL     1      10.679   6.841   9.454  1.00  0.00     0.034 A 
ATOM     49  C   UNL     1       4.044   8.735  10.602  1.00  0.00     0.034 A 
ATOM     50  C   UNL     1      10.406   7.370  10.767  1.00  0.00     0.049 A 
ATOM     51  C   UNL     1       5.084   8.822  11.688  1.00  0.00     0.074 A 
ATOM     52  C   UNL     1      11.297   7.589  11.804  1.00  0.00     0.029 A 
ATOM     53  N   UNL     1       9.156   7.756  11.227  1.00  0.00    -0.354 N 
ATOM     54  N   UNL     1       6.359   8.520  11.630  1.00  0.00    -0.248 NA
ATOM     55  C   UNL     1       4.640   9.303  13.005  1.00  0.00     0.031 C 
ATOM     56  C   UNL     1      10.576   8.040  12.912  1.00  0.00     0.029 A 
ATOM     57  C   UNL     1       9.247   8.176  12.545  1.00  0.00     0.049 A 
ATOM     58  H   UNL     1       8.327   7.736  10.697  1.00  0.00     0.167 HD
ATOM     59  C   UNL     1       6.873   8.794  12.894  1.00  0.00     0.074 A 
ATOM     60  C   UNL     1       5.774   9.288  13.695  1.00  0.00     0.031 C 
ATOM     61  C   UNL     1       8.145   8.654  13.342  1.00  0.00     0.034 A 
BRANCH  48  62
ATOM     62  C   UNL     1      12.088   6.397   9.153  1.00  0.00     0.023 A 
ATOM     63  C   UNL     1      12.892   7.085   8.229  1.00  0.00     0.031 A 
ATOM     64  C   UNL     1      12.650   5.304   9.835  1.00  0.00     0.131 A 
ATOM     65  C   UNL     1      14.203   6.650   7.984  1.00  0.00     0.055 A 
ATOM     66  C   UNL     1      13.976   4.915   9.635  1.00  0.00     0.041 A 
ATOM     67  F   UNL     1      11.922   4.603  10.719  1.00  0.00    -0.206 F 
ATOM     68  C   UNL     1      14.758   5.586   8.699  1.00  0.00     0.022 A 
BRANCH  65  69
ATOM     69  S   UNL     1      15.150   7.449   6.662  1.00  0.00     0.124 S 
ATOM     70  O   UNL     1      14.358   7.104   5.484  1.00  0.00    -0.237 OA
ATOM     71  O   UNL     1      15.127   8.852   7.058  1.00  0.00    -0.237 OA
ATOM     72  O   UNL     1      16.458   6.801   6.737  1.00  0.00    -0.744 OA
ENDBRANCH  65  69
ENDBRANCH  48  62
BRANCH  49  73
ATOM     73  C   UNL     1       2.631   9.133  10.865  1.00  0.00     0.023 A 
ATOM     74  C   UNL     1       2.287  10.475  11.090  1.00  0.00     0.031 A 
ATOM     75  C   UNL     1       1.603   8.173  10.883  1.00  0.00     0.131 A 
ATOM     76  C   UNL     1       0.948  10.819  11.338  1.00  0.00     0.055 A 
ATOM     77  C   UNL     1       0.268   8.526  11.091  1.00  0.00     0.041 A 
ATOM     78  F   UNL     1       1.881   6.877  10.669  1.00  0.00    -0.206 F 
ATOM     79  C   UNL     1      -0.065   9.857  11.325  1.00  0.00     0.022 A 
BRANCH  76  80
ATOM     80  S   UNL     1       0.546  12.550  11.707  1.00  0.00     0.124 S 
ATOM     81  O   UNL     1       1.258  12.758  12.963  1.00  0.00    -0.237 OA
ATOM     82  O   UNL     1       1.083  13.243  10.540  1.00  0.00    -0.237 OA
ATOM     83  O   UNL     1      -0.912  12.546  11.808  1.00  0.00    -0.744 OA
ENDBRANCH  76  80
ENDBRANCH  49  73
BRANCH  61  84
ATOM     84  C   UNL     1       8.442   9.057  14.762  1.00  0.00     0.023 A 
ATOM     85  C   UNL     1       8.024   8.273  15.850  1.00  0.00     0.031 A 
ATOM     86  C   UNL     1       9.232  10.191  15.023  1.00  0.00     0.131 A 
ATOM     87  C   UNL     1       8.392   8.639  17.153  1.00  0.00     0.055 A 
ATOM     88  C   UNL     1       9.631  10.526  16.317  1.00  0.00     0.041 A 
ATOM     89  F   UNL     1       9.661  10.969  14.015  1.00  0.00    -0.206 F 
ATOM     90  C   UNL     1       9.210   9.748  17.391  1.00  0.00     0.022 A 
BRANCH  87  91
ATOM     91  S   UNL     1       7.785   7.647  18.545  1.00  0.00     0.124 S 
ATOM     92  O   UNL     1       6.348   7.894  18.487  1.00  0.00    -0.237 OA
ATOM     93  O   UNL     1       8.215   6.299  18.185  1.00  0.00    -0.237 OA
ATOM     94  O   UNL     1       8.468   8.223  19.701  1.00  0.00    -0.744 OA
ENDBRANCH  87  91
ENDBRANCH  61  84
ENDBRANCH  35  36
ENDBRANCH  27  30
ENDBRANCH  25  26
ENDBRANCH  24  25
ENDBRANCH   1  24
TORSDOF 18
