REMARK SMILES CCN(CC(C)C)C(=O)N[C@](C)(CC)C(=O)NCCCNC(=O)c1ccc(-c2c3nc(c(-c4cc(S(=O)(=O)[O-])ccc4F)c4ccc([nH]4)c(-c4cc(S(=O)(=O)[O-])ccc4F)c4nc(c(-c5cc(S(=O)(=O)[O-])ccc5F)c5ccc2[nH]5)C=C4)C=C3)cc1
REMARK SMILES IDX 18 1 17 2 15 3 16 4 11 6 12 7 10 8 8 9 9 10 3 12 2 13 1 14
REMARK SMILES IDX 4 15 5 16 6 17 7 18 13 19 14 20 19 21 20 22 21 23 22 24
REMARK SMILES IDX 23 26 24 27 25 28 86 29 26 30 85 31 27 32 28 33 29 34 79 35
REMARK SMILES IDX 30 36 84 37 78 38 80 39 31 40 83 41 77 42 76 43 32 45 64 46
REMARK SMILES IDX 44 47 63 48 45 49 48 50 62 51 81 52 46 53 47 54 61 56 82 57
REMARK SMILES IDX 49 58 33 59 34 60 42 61 35 62 41 63 43 64 40 65 36 66 37 67
REMARK SMILES IDX 38 68 39 69 65 70 66 71 74 72 67 73 73 74 75 75 72 76 68 77
REMARK SMILES IDX 69 78 70 79 71 80 50 81 51 82 59 83 52 84 58 85 60 86 57 87
REMARK SMILES IDX 53 88 54 89 55 90 56 91
REMARK H PARENT 17 5 10 11 21 25 80 44 48 55
REMARK Flexibility Score: inf
ROOT
ATOM      1  C   UNL     1      -0.410  -6.490   4.959  1.00  0.00     0.117 C 
ENDROOT
BRANCH   1   2
ATOM      2  N   UNL     1      -0.304  -5.771   3.708  1.00  0.00    -0.354 N 
ATOM      3  C   UNL     1       0.163  -4.489   3.747  1.00  0.00     0.245 C 
ATOM      4  O   UNL     1      -0.637  -3.560   3.884  1.00  0.00    -0.272 OA
ATOM      5  H   UNL     1      -0.561  -6.192   2.857  1.00  0.00     0.163 HD
BRANCH   3   6
ATOM      6  C   UNL     1       1.626  -4.210   3.370  1.00  0.00     0.117 C 
ATOM      7  C   UNL     1       1.327  -3.576   2.009  1.00  0.00     0.045 C 
BRANCH   6   8
ATOM      8  N   UNL     1       2.520  -5.353   3.114  1.00  0.00    -0.324 N 
ATOM      9  C   UNL     1       3.775  -5.475   2.610  1.00  0.00     0.318 C 
ATOM     10  O   UNL     1       4.197  -6.639   2.572  1.00  0.00    -0.249 OA
ATOM     11  H   UNL     1       2.120  -6.217   3.362  1.00  0.00     0.166 HD
BRANCH   9  12
ATOM     12  N   UNL     1       4.565  -4.416   2.180  1.00  0.00    -0.325 N 
BRANCH  12  13
ATOM     13  C   UNL     1       5.967  -4.762   1.898  1.00  0.00     0.118 C 
ATOM     14  C   UNL     1       6.750  -5.122   3.162  1.00  0.00     0.027 C 
ENDBRANCH  12  13
BRANCH  12  15
ATOM     15  C   UNL     1       4.289  -2.968   2.091  1.00  0.00     0.124 C 
BRANCH  15  16
ATOM     16  C   UNL     1       4.137  -2.287   0.689  1.00  0.00     0.002 C 
ATOM     17  C   UNL     1       3.410  -3.043  -0.432  1.00  0.00     0.009 C 
ATOM     18  C   UNL     1       3.454  -0.914   0.878  1.00  0.00     0.009 C 
ENDBRANCH  15  16
ENDBRANCH  12  15
ENDBRANCH   9  12
ENDBRANCH   6   8
BRANCH   6  19
ATOM     19  C   UNL     1       2.200  -3.447   4.601  1.00  0.00     0.035 C 
ATOM     20  C   UNL     1       1.842  -1.980   4.779  1.00  0.00     0.007 C 
ENDBRANCH   6  19
ENDBRANCH   3   6
ENDBRANCH   1   2
BRANCH   1  21
ATOM     21  C   UNL     1      -1.111  -5.695   6.064  1.00  0.00     0.042 C 
BRANCH  21  22
ATOM     22  C   UNL     1      -2.461  -5.084   5.688  1.00  0.00     0.118 C 
BRANCH  22  23
ATOM     23  N   UNL     1      -3.386  -6.062   5.152  1.00  0.00    -0.352 N 
ATOM     24  C   UNL     1      -4.530  -6.559   5.715  1.00  0.00     0.251 C 
ATOM     25  H   UNL     1      -3.161  -6.417   4.262  1.00  0.00     0.163 HD
ATOM     26  O   UNL     1      -5.055  -7.558   5.240  1.00  0.00    -0.269 OA
BRANCH  24  27
ATOM     27  C   UNL     1      -5.097  -5.894   6.905  1.00  0.00     0.039 A 
ATOM     28  C   UNL     1      -5.504  -6.685   7.977  1.00  0.00     0.014 A 
ATOM     29  C   UNL     1      -5.228  -4.502   6.958  1.00  0.00     0.014 A 
ATOM     30  C   UNL     1      -6.016  -6.074   9.119  1.00  0.00     0.010 A 
ATOM     31  C   UNL     1      -5.653  -3.891   8.133  1.00  0.00     0.010 A 
ATOM     32  C   UNL     1      -6.074  -4.672   9.217  1.00  0.00    -0.014 A 
BRANCH  32  33
ATOM     33  C   UNL     1      -6.608  -4.030  10.443  1.00  0.00     0.031 A 
ATOM     34  C   UNL     1      -7.874  -3.218  10.380  1.00  0.00     0.074 A 
ATOM     35  C   UNL     1      -5.948  -4.183  11.608  1.00  0.00     0.049 A 
ATOM     36  N   UNL     1      -8.519  -2.618  11.347  1.00  0.00    -0.248 NA
ATOM     37  C   UNL     1      -8.481  -3.035   9.053  1.00  0.00     0.031 C 
ATOM     38  C   UNL     1      -4.684  -4.905  11.772  1.00  0.00     0.029 A 
ATOM     39  N   UNL     1      -6.252  -3.756  12.875  1.00  0.00    -0.354 N 
ATOM     40  C   UNL     1      -9.604  -1.988  10.746  1.00  0.00     0.074 A 
ATOM     41  C   UNL     1      -9.485  -2.216   9.323  1.00  0.00     0.031 C 
ATOM     42  C   UNL     1      -4.348  -4.914  13.072  1.00  0.00     0.029 A 
ATOM     43  C   UNL     1      -5.348  -4.167  13.827  1.00  0.00     0.049 A 
ATOM     44  H   UNL     1      -7.043  -3.208  13.084  1.00  0.00     0.167 HD
ATOM     45  C   UNL     1     -10.623  -1.312  11.331  1.00  0.00     0.034 A 
ATOM     46  C   UNL     1      -5.332  -3.967  15.160  1.00  0.00     0.034 A 
ATOM     47  C   UNL     1     -10.726  -1.102  12.755  1.00  0.00     0.049 A 
ATOM     48  C   UNL     1      -6.471  -3.201  15.784  1.00  0.00     0.074 A 
ATOM     49  C   UNL     1     -11.729  -0.465  13.464  1.00  0.00     0.029 A 
ATOM     50  N   UNL     1      -9.786  -1.521  13.689  1.00  0.00    -0.354 N 
ATOM     51  N   UNL     1      -7.522  -2.663  15.208  1.00  0.00    -0.248 NA
ATOM     52  C   UNL     1      -6.431  -3.034  17.241  1.00  0.00     0.031 C 
ATOM     53  C   UNL     1     -11.364  -0.441  14.815  1.00  0.00     0.029 A 
ATOM     54  C   UNL     1     -10.173  -1.133  14.963  1.00  0.00     0.049 A 
ATOM     55  H   UNL     1      -8.965  -2.021  13.478  1.00  0.00     0.167 HD
ATOM     56  C   UNL     1      -8.283  -2.120  16.239  1.00  0.00     0.074 A 
ATOM     57  C   UNL     1      -7.583  -2.423  17.471  1.00  0.00     0.031 C 
ATOM     58  C   UNL     1      -9.453  -1.432  16.179  1.00  0.00     0.034 A 
BRANCH  45  59
ATOM     59  C   UNL     1     -11.690  -0.740  10.426  1.00  0.00     0.023 A 
ATOM     60  C   UNL     1     -12.497  -1.566   9.623  1.00  0.00     0.031 A 
ATOM     61  C   UNL     1     -11.888   0.649  10.343  1.00  0.00     0.131 A 
ATOM     62  C   UNL     1     -13.411  -0.996   8.724  1.00  0.00     0.055 A 
ATOM     63  C   UNL     1     -12.858   1.207   9.507  1.00  0.00     0.041 A 
ATOM     64  F   UNL     1     -11.134   1.492  11.066  1.00  0.00    -0.206 F 
ATOM     65  C   UNL     1     -13.616   0.384   8.679  1.00  0.00     0.022 A 
BRANCH  62  66
ATOM     66  S   UNL     1     -14.227  -2.075   7.515  1.00  0.00     0.124 S 
ATOM     67  O   UNL     1     -13.082  -2.628   6.794  1.00  0.00    -0.237 OA
ATOM     68  O   UNL     1     -14.958  -3.007   8.365  1.00  0.00    -0.237 OA
ATOM     69  O   UNL     1     -15.056  -1.155   6.739  1.00  0.00    -0.744 OA
ENDBRANCH  62  66
ENDBRANCH  45  59
BRANCH  46  70
ATOM     70  C   UNL     1      -4.219  -4.501  15.997  1.00  0.00     0.023 A 
ATOM     71  C   UNL     1      -4.460  -5.454  17.000  1.00  0.00     0.031 A 
ATOM     72  C   UNL     1      -2.904  -4.026  15.844  1.00  0.00     0.131 A 
ATOM     73  C   UNL     1      -3.418  -5.857  17.849  1.00  0.00     0.055 A 
ATOM     74  C   UNL     1      -1.858  -4.476  16.651  1.00  0.00     0.041 A 
ATOM     75  F   UNL     1      -2.615  -3.119  14.897  1.00  0.00    -0.206 F 
ATOM     76  C   UNL     1      -2.116  -5.385  17.673  1.00  0.00     0.022 A 
BRANCH  73  77
ATOM     77  S   UNL     1      -3.812  -6.930  19.257  1.00  0.00     0.124 S 
ATOM     78  O   UNL     1      -4.833  -6.152  19.948  1.00  0.00    -0.237 OA
ATOM     79  O   UNL     1      -4.271  -8.145  18.592  1.00  0.00    -0.237 OA
ATOM     80  O   UNL     1      -2.536  -7.051  19.960  1.00  0.00    -0.744 OA
ENDBRANCH  73  77
ENDBRANCH  46  70
BRANCH  58  81
ATOM     81  C   UNL     1     -10.055  -1.001  17.495  1.00  0.00     0.023 A 
ATOM     82  C   UNL     1      -9.406  -0.080  18.337  1.00  0.00     0.031 A 
ATOM     83  C   UNL     1     -11.273  -1.550  17.931  1.00  0.00     0.131 A 
ATOM     84  C   UNL     1      -9.936   0.201  19.604  1.00  0.00     0.055 A 
ATOM     85  C   UNL     1     -11.833  -1.209  19.163  1.00  0.00     0.041 A 
ATOM     86  F   UNL     1     -11.937  -2.435  17.170  1.00  0.00    -0.206 F 
ATOM     87  C   UNL     1     -11.154  -0.344  20.016  1.00  0.00     0.022 A 
BRANCH  84  88
ATOM     88  S   UNL     1      -8.944   1.188  20.759  1.00  0.00     0.124 S 
ATOM     89  O   UNL     1      -7.703   0.422  20.823  1.00  0.00    -0.237 OA
ATOM     90  O   UNL     1      -8.863   2.476  20.078  1.00  0.00    -0.237 OA
ATOM     91  O   UNL     1      -9.740   1.183  21.985  1.00  0.00    -0.744 OA
ENDBRANCH  84  88
ENDBRANCH  58  81
ENDBRANCH  32  33
ENDBRANCH  24  27
ENDBRANCH  22  23
ENDBRANCH  21  22
ENDBRANCH   1  21
TORSDOF 19
