REMARK SMILES CC(C)n1cncc1[C@@H](O)[C@H](C)C(=O)NCCCNC(=O)c1ccc(-c2c3nc(c(-c4cc(S(=O)(=O)[O-])ccc4F)c4ccc([nH]4)c(-c4cc(S(=O)(=O)[O-])ccc4F)c4nc(c(-c5cc(S(=O)(=O)[O-])ccc5F)c5ccc2[nH]5)C=C4)C=C3)cc1
REMARK SMILES IDX 17 1 16 2 15 3 13 4 14 5 11 7 12 8 9 9 8 10 4 11 5 12 6 13
REMARK SMILES IDX 7 14 2 15 1 16 3 17 10 18 18 20 19 21 20 22 21 24 22 25
REMARK SMILES IDX 23 26 84 27 24 28 83 29 25 30 26 31 27 32 77 33 28 34 82 35
REMARK SMILES IDX 76 36 78 37 29 38 81 39 75 40 74 41 30 43 62 44 42 45 61 46
REMARK SMILES IDX 43 47 46 48 60 49 79 50 44 51 45 52 59 54 80 55 47 56 31 57
REMARK SMILES IDX 32 58 40 59 33 60 39 61 41 62 38 63 34 64 35 65 36 66 37 67
REMARK SMILES IDX 63 68 64 69 72 70 65 71 71 72 73 73 70 74 66 75 67 76 68 77
REMARK SMILES IDX 69 78 48 79 49 80 57 81 50 82 56 83 58 84 55 85 51 86 52 87
REMARK SMILES IDX 53 88 54 89
REMARK H PARENT 15 6 10 19 19 23 78 42 46 53
REMARK Flexibility Score: inf
ROOT
ATOM      1  C   UNL     1       2.244   4.182   1.260  1.00  0.00     0.042 C 
ENDROOT
BRANCH   1   2
ATOM      2  C   UNL     1       1.392   4.364   2.509  1.00  0.00     0.117 C 
BRANCH   2   3
ATOM      3  N   UNL     1       0.309   5.322   2.375  1.00  0.00    -0.356 N 
ATOM      4  C   UNL     1      -1.027   5.124   2.579  1.00  0.00     0.225 C 
ATOM      5  O   UNL     1      -1.759   6.114   2.668  1.00  0.00    -0.275 OA
ATOM      6  H   UNL     1       0.572   6.231   2.103  1.00  0.00     0.163 HD
BRANCH   4   7
ATOM      7  C   UNL     1      -1.631   3.726   2.615  1.00  0.00     0.110 C 
ATOM      8  C   UNL     1      -1.490   3.064   1.241  1.00  0.00     0.021 C 
BRANCH   7   9
ATOM      9  C   UNL     1      -1.323   2.911   3.900  1.00  0.00     0.175 C 
BRANCH   9  10
ATOM     10  C   UNL     1      -1.069   1.445   3.717  1.00  0.00     0.067 A 
ATOM     11  N   UNL     1      -1.709   0.390   4.338  1.00  0.00    -0.330 N 
ATOM     12  C   UNL     1      -1.188  -0.768   3.797  1.00  0.00     0.199 A 
ATOM     13  N   UNL     1      -0.207  -0.533   2.967  1.00  0.00    -0.245 NA
ATOM     14  C   UNL     1      -0.106   0.823   2.930  1.00  0.00     0.137 A 
BRANCH  11  15
ATOM     15  C   UNL     1      -2.653   0.317   5.452  1.00  0.00     0.082 C 
ATOM     16  C   UNL     1      -1.913  -0.053   6.742  1.00  0.00     0.031 C 
ATOM     17  C   UNL     1      -3.569   1.511   5.703  1.00  0.00     0.031 C 
ENDBRANCH  11  15
ENDBRANCH   9  10
BRANCH   9  18
ATOM     18  O   UNL     1      -0.227   3.397   4.666  1.00  0.00    -0.386 OA
ATOM     19  H   UNL     1       0.598   3.257   4.175  1.00  0.00     0.211 HD
ENDBRANCH   9  18
ENDBRANCH   7   9
ENDBRANCH   4   7
ENDBRANCH   2   3
ENDBRANCH   1   2
BRANCH   1  20
ATOM     20  C   UNL     1       3.202   5.332   1.029  1.00  0.00     0.118 C 
BRANCH  20  21
ATOM     21  N   UNL     1       4.201   5.448   2.089  1.00  0.00    -0.352 N 
ATOM     22  C   UNL     1       5.104   6.477   2.293  1.00  0.00     0.251 C 
ATOM     23  H   UNL     1       4.236   4.707   2.735  1.00  0.00     0.163 HD
ATOM     24  O   UNL     1       6.082   6.317   2.995  1.00  0.00    -0.269 OA
BRANCH  22  25
ATOM     25  C   UNL     1       4.855   7.752   1.593  1.00  0.00     0.039 A 
ATOM     26  C   UNL     1       5.861   8.330   0.822  1.00  0.00     0.014 A 
ATOM     27  C   UNL     1       3.569   8.291   1.620  1.00  0.00     0.014 A 
ATOM     28  C   UNL     1       5.529   9.386  -0.021  1.00  0.00     0.010 A 
ATOM     29  C   UNL     1       3.218   9.258   0.700  1.00  0.00     0.010 A 
ATOM     30  C   UNL     1       4.192   9.818  -0.122  1.00  0.00    -0.014 A 
BRANCH  30  31
ATOM     31  C   UNL     1       3.818  10.750  -1.189  1.00  0.00     0.031 A 
ATOM     32  C   UNL     1       4.343  10.412  -2.540  1.00  0.00     0.074 A 
ATOM     33  C   UNL     1       2.949  11.776  -1.075  1.00  0.00     0.049 A 
ATOM     34  N   UNL     1       5.331  10.974  -3.151  1.00  0.00    -0.248 NA
ATOM     35  C   UNL     1       3.814   9.231  -3.236  1.00  0.00     0.031 C 
ATOM     36  C   UNL     1       2.095  12.131   0.059  1.00  0.00     0.029 A 
ATOM     37  N   UNL     1       2.592  12.693  -2.022  1.00  0.00    -0.354 N 
ATOM     38  C   UNL     1       5.396  10.392  -4.412  1.00  0.00     0.074 A 
ATOM     39  C   UNL     1       4.581   9.208  -4.330  1.00  0.00     0.031 C 
ATOM     40  C   UNL     1       1.175  13.040  -0.333  1.00  0.00     0.029 A 
ATOM     41  C   UNL     1       1.486  13.463  -1.686  1.00  0.00     0.049 A 
ATOM     42  H   UNL     1       3.078  12.799  -2.872  1.00  0.00     0.167 HD
ATOM     43  C   UNL     1       5.939  11.066  -5.467  1.00  0.00     0.034 A 
ATOM     44  C   UNL     1       0.864  14.396  -2.451  1.00  0.00     0.034 A 
ATOM     45  C   UNL     1       6.684  12.224  -5.009  1.00  0.00     0.049 A 
ATOM     46  C   UNL     1       1.861  14.889  -3.431  1.00  0.00     0.074 A 
ATOM     47  C   UNL     1       7.728  12.416  -4.122  1.00  0.00     0.029 A 
ATOM     48  N   UNL     1       6.121  13.471  -5.178  1.00  0.00    -0.354 N 
ATOM     49  N   UNL     1       2.921  15.569  -3.090  1.00  0.00    -0.248 NA
ATOM     50  C   UNL     1       1.932  14.250  -4.735  1.00  0.00     0.031 C 
ATOM     51  C   UNL     1       7.394  13.613  -3.419  1.00  0.00     0.029 A 
ATOM     52  C   UNL     1       6.224  14.131  -3.979  1.00  0.00     0.049 A 
ATOM     53  H   UNL     1       5.720  13.823  -6.006  1.00  0.00     0.167 HD
ATOM     54  C   UNL     1       3.934  15.081  -3.898  1.00  0.00     0.074 A 
ATOM     55  C   UNL     1       3.244  14.361  -4.967  1.00  0.00     0.031 C 
ATOM     56  C   UNL     1       5.235  15.068  -3.478  1.00  0.00     0.034 A 
BRANCH  43  57
ATOM     57  C   UNL     1       5.517  10.924  -6.918  1.00  0.00     0.023 A 
ATOM     58  C   UNL     1       6.163  11.758  -7.854  1.00  0.00     0.031 A 
ATOM     59  C   UNL     1       4.359  10.268  -7.387  1.00  0.00     0.131 A 
ATOM     60  C   UNL     1       5.590  12.022  -9.110  1.00  0.00     0.055 A 
ATOM     61  C   UNL     1       3.834  10.475  -8.668  1.00  0.00     0.041 A 
ATOM     62  F   UNL     1       3.619   9.462  -6.620  1.00  0.00    -0.206 F 
ATOM     63  C   UNL     1       4.425  11.387  -9.524  1.00  0.00     0.022 A 
BRANCH  60  64
ATOM     64  S   UNL     1       6.290  13.367 -10.101  1.00  0.00     0.124 S 
ATOM     65  O   UNL     1       6.235  14.478  -9.157  1.00  0.00    -0.237 OA
ATOM     66  O   UNL     1       7.619  12.850 -10.413  1.00  0.00    -0.237 OA
ATOM     67  O   UNL     1       5.376  13.463 -11.236  1.00  0.00    -0.744 OA
ENDBRANCH  60  64
ENDBRANCH  43  57
BRANCH  44  68
ATOM     68  C   UNL     1      -0.589  14.691  -2.519  1.00  0.00     0.023 A 
ATOM     69  C   UNL     1      -1.097  15.889  -3.061  1.00  0.00     0.031 A 
ATOM     70  C   UNL     1      -1.522  13.659  -2.270  1.00  0.00     0.131 A 
ATOM     71  C   UNL     1      -2.477  16.014  -3.340  1.00  0.00     0.055 A 
ATOM     72  C   UNL     1      -2.885  13.790  -2.541  1.00  0.00     0.041 A 
ATOM     73  F   UNL     1      -1.124  12.452  -1.837  1.00  0.00    -0.206 F 
ATOM     74  C   UNL     1      -3.367  14.967  -3.089  1.00  0.00     0.022 A 
BRANCH  71  75
ATOM     75  S   UNL     1      -3.121  17.514  -4.149  1.00  0.00     0.124 S 
ATOM     76  O   UNL     1      -3.040  18.502  -3.079  1.00  0.00    -0.237 OA
ATOM     77  O   UNL     1      -2.200  17.689  -5.266  1.00  0.00    -0.237 OA
ATOM     78  O   UNL     1      -4.481  17.135  -4.534  1.00  0.00    -0.744 OA
ENDBRANCH  71  75
ENDBRANCH  44  68
BRANCH  56  79
ATOM     79  C   UNL     1       5.627  15.917  -2.282  1.00  0.00     0.023 A 
ATOM     80  C   UNL     1       5.002  15.883  -1.015  1.00  0.00     0.031 A 
ATOM     81  C   UNL     1       6.762  16.738  -2.422  1.00  0.00     0.131 A 
ATOM     82  C   UNL     1       5.506  16.666   0.043  1.00  0.00     0.055 A 
ATOM     83  C   UNL     1       7.273  17.492  -1.366  1.00  0.00     0.041 A 
ATOM     84  F   UNL     1       7.418  16.802  -3.592  1.00  0.00    -0.206 F 
ATOM     85  C   UNL     1       6.640  17.466  -0.131  1.00  0.00     0.022 A 
BRANCH  82  86
ATOM     86  S   UNL     1       4.675  16.695   1.665  1.00  0.00     0.124 S 
ATOM     87  O   UNL     1       3.258  16.755   1.328  1.00  0.00    -0.237 OA
ATOM     88  O   UNL     1       5.134  15.449   2.274  1.00  0.00    -0.237 OA
ATOM     89  O   UNL     1       5.203  17.907   2.293  1.00  0.00    -0.744 OA
ENDBRANCH  82  86
ENDBRANCH  56  79
ENDBRANCH  30  31
ENDBRANCH  22  25
ENDBRANCH  20  21
ENDBRANCH   1  20
TORSDOF 17
