REMARK SMILES C[C@@H](CC(=O)NCCCNC(=O)c1ccc(-c2c3nc(c(-c4cc(S(=O)(=O)[O-])ccc4F)c4ccc([nH]4)c(-c4cc(S(=O)(=O)[O-])ccc4F)c4nc(c(-c5cc(S(=O)(=O)[O-])ccc5F)c5ccc2[nH]5)C=C4)C=C3)cc1)Cc1nnc(C2C(C)(C)C2(C)C)o1
REMARK SMILES IDX 7 1 6 2 4 3 5 4 3 6 2 7 1 8 76 9 77 10 78 11 88 12 79 13
REMARK SMILES IDX 80 14 81 15 82 16 85 17 83 18 84 19 86 20 87 21 8 22 9 23
REMARK SMILES IDX 10 24 11 25 12 27 13 28 14 29 75 30 15 31 74 32 16 33 17 34
REMARK SMILES IDX 18 35 68 36 19 37 73 38 67 39 69 40 20 41 72 42 66 43 65 44
REMARK SMILES IDX 21 46 53 47 33 48 52 49 34 50 37 51 51 52 70 53 35 54 36 55
REMARK SMILES IDX 50 57 71 58 38 59 22 60 23 61 31 62 24 63 30 64 32 65 29 66
REMARK SMILES IDX 25 67 26 68 27 69 28 70 54 71 55 72 63 73 56 74 62 75 64 76
REMARK SMILES IDX 61 77 57 78 58 79 59 80 60 81 39 82 40 83 48 84 41 85 47 86
REMARK SMILES IDX 49 87 46 88 42 89 43 90 44 91 45 92
REMARK H PARENT 6 5 10 26 69 45 37 56
REMARK Flexibility Score: inf
ROOT
ATOM      1  C   UNL     1       1.818  -2.081   1.079  1.00  0.00     0.117 C 
ENDROOT
BRANCH   1   2
ATOM      2  N   UNL     1       0.796  -2.723   0.272  1.00  0.00    -0.356 N 
ATOM      3  C   UNL     1       0.362  -2.452  -0.987  1.00  0.00     0.220 C 
ATOM      4  O   UNL     1      -0.573  -3.117  -1.437  1.00  0.00    -0.275 OA
ATOM      5  H   UNL     1       0.342  -3.479   0.709  1.00  0.00     0.163 HD
BRANCH   3   6
ATOM      6  C   UNL     1       1.005  -1.367  -1.832  1.00  0.00     0.103 C 
BRANCH   6   7
ATOM      7  C   UNL     1       0.459   0.067  -1.670  1.00  0.00     0.004 C 
ATOM      8  C   UNL     1       1.231   0.852  -0.603  1.00  0.00     0.009 C 
BRANCH   7   9
ATOM      9  C   UNL     1      -1.078   0.110  -1.495  1.00  0.00     0.103 C 
BRANCH   9  10
ATOM     10  C   UNL     1      -1.595   1.431  -1.059  1.00  0.00     0.216 A 
ATOM     11  N   UNL     1      -2.356   1.708  -0.025  1.00  0.00    -0.113 NA
ATOM     12  O   UNL     1      -1.134   2.549  -1.696  1.00  0.00    -0.425 OA
ATOM     13  N   UNL     1      -2.370   3.079   0.083  1.00  0.00    -0.113 NA
ATOM     14  C   UNL     1      -1.613   3.550  -0.889  1.00  0.00     0.220 A 
BRANCH  14  15
ATOM     15  C   UNL     1      -1.316   5.036  -1.018  1.00  0.00     0.090 C 
ATOM     16  C   UNL     1       0.022   5.595  -1.516  1.00  0.00    -0.017 C 
ATOM     17  C   UNL     1      -1.230   5.717  -2.385  1.00  0.00    -0.017 C 
ATOM     18  C   UNL     1       0.551   6.826  -0.802  1.00  0.00     0.012 C 
ATOM     19  C   UNL     1       1.160   4.697  -1.950  1.00  0.00     0.012 C 
ATOM     20  C   UNL     1      -1.340   4.922  -3.667  1.00  0.00     0.012 C 
ATOM     21  C   UNL     1      -1.943   7.050  -2.498  1.00  0.00     0.012 C 
ENDBRANCH  14  15
ENDBRANCH   9  10
ENDBRANCH   7   9
ENDBRANCH   6   7
ENDBRANCH   3   6
ENDBRANCH   1   2
BRANCH   1  22
ATOM     22  C   UNL     1       1.204  -1.264   2.213  1.00  0.00     0.042 C 
BRANCH  22  23
ATOM     23  C   UNL     1       0.652  -2.095   3.365  1.00  0.00     0.118 C 
BRANCH  23  24
ATOM     24  N   UNL     1       1.700  -2.688   4.177  1.00  0.00    -0.352 N 
ATOM     25  C   UNL     1       2.027  -2.493   5.495  1.00  0.00     0.251 C 
ATOM     26  H   UNL     1       2.270  -3.336   3.704  1.00  0.00     0.163 HD
ATOM     27  O   UNL     1       3.091  -2.966   5.905  1.00  0.00    -0.269 OA
BRANCH  25  28
ATOM     28  C   UNL     1       1.161  -1.719   6.419  1.00  0.00     0.039 A 
ATOM     29  C   UNL     1       1.772  -0.953   7.418  1.00  0.00     0.014 A 
ATOM     30  C   UNL     1      -0.235  -1.776   6.362  1.00  0.00     0.014 A 
ATOM     31  C   UNL     1       0.994  -0.216   8.316  1.00  0.00     0.010 A 
ATOM     32  C   UNL     1      -1.009  -0.971   7.202  1.00  0.00     0.010 A 
ATOM     33  C   UNL     1      -0.405  -0.193   8.200  1.00  0.00    -0.014 A 
BRANCH  33  34
ATOM     34  C   UNL     1      -1.232   0.628   9.127  1.00  0.00     0.031 A 
ATOM     35  C   UNL     1      -2.219  -0.023  10.061  1.00  0.00     0.074 A 
ATOM     36  C   UNL     1      -1.121   1.972   9.100  1.00  0.00     0.049 A 
ATOM     37  N   UNL     1      -3.017   0.528  10.940  1.00  0.00    -0.248 NA
ATOM     38  C   UNL     1      -2.348  -1.484   9.970  1.00  0.00     0.031 C 
ATOM     39  C   UNL     1      -0.259   2.729   8.189  1.00  0.00     0.029 A 
ATOM     40  N   UNL     1      -1.738   2.940   9.852  1.00  0.00    -0.354 N 
ATOM     41  C   UNL     1      -3.754  -0.514  11.494  1.00  0.00     0.074 A 
ATOM     42  C   UNL     1      -3.350  -1.720  10.803  1.00  0.00     0.031 C 
ATOM     43  C   UNL     1      -0.382   4.039   8.453  1.00  0.00     0.029 A 
ATOM     44  C   UNL     1      -1.353   4.221   9.527  1.00  0.00     0.049 A 
ATOM     45  H   UNL     1      -2.393   2.738  10.558  1.00  0.00     0.167 HD
ATOM     46  C   UNL     1      -4.666  -0.474  12.500  1.00  0.00     0.034 A 
ATOM     47  C   UNL     1      -1.739   5.409  10.033  1.00  0.00     0.034 A 
ATOM     48  C   UNL     1      -5.047   0.737  13.188  1.00  0.00     0.049 A 
ATOM     49  C   UNL     1      -2.726   5.430  11.170  1.00  0.00     0.074 A 
ATOM     50  C   UNL     1      -5.894   0.883  14.274  1.00  0.00     0.029 A 
ATOM     51  N   UNL     1      -4.619   2.015  12.850  1.00  0.00    -0.354 N 
ATOM     52  N   UNL     1      -3.346   4.425  11.745  1.00  0.00    -0.248 NA
ATOM     53  C   UNL     1      -3.045   6.743  11.741  1.00  0.00     0.031 C 
ATOM     54  C   UNL     1      -6.030   2.250  14.547  1.00  0.00     0.029 A 
ATOM     55  C   UNL     1      -5.209   2.956  13.682  1.00  0.00     0.049 A 
ATOM     56  H   UNL     1      -3.987   2.223  12.124  1.00  0.00     0.167 HD
ATOM     57  C   UNL     1      -4.121   4.987  12.756  1.00  0.00     0.074 A 
ATOM     58  C   UNL     1      -3.861   6.413  12.730  1.00  0.00     0.031 C 
ATOM     59  C   UNL     1      -4.971   4.381  13.625  1.00  0.00     0.034 A 
BRANCH  46  60
ATOM     60  C   UNL     1      -5.329  -1.778  12.889  1.00  0.00     0.023 A 
ATOM     61  C   UNL     1      -4.589  -2.870  13.379  1.00  0.00     0.031 A 
ATOM     62  C   UNL     1      -6.716  -1.947  12.729  1.00  0.00     0.131 A 
ATOM     63  C   UNL     1      -5.221  -4.103  13.605  1.00  0.00     0.055 A 
ATOM     64  C   UNL     1      -7.353  -3.152  13.039  1.00  0.00     0.041 A 
ATOM     65  F   UNL     1      -7.476  -0.950  12.250  1.00  0.00    -0.206 F 
ATOM     66  C   UNL     1      -6.602  -4.245  13.462  1.00  0.00     0.022 A 
BRANCH  63  67
ATOM     67  S   UNL     1      -4.188  -5.559  13.930  1.00  0.00     0.124 S 
ATOM     68  O   UNL     1      -3.327  -5.580  12.750  1.00  0.00    -0.237 OA
ATOM     69  O   UNL     1      -3.538  -5.210  15.189  1.00  0.00    -0.237 OA
ATOM     70  O   UNL     1      -5.152  -6.654  14.007  1.00  0.00    -0.744 OA
ENDBRANCH  63  67
ENDBRANCH  46  60
BRANCH  47  71
ATOM     71  C   UNL     1      -1.196   6.675   9.465  1.00  0.00     0.023 A 
ATOM     72  C   UNL     1      -0.348   7.507  10.213  1.00  0.00     0.031 A 
ATOM     73  C   UNL     1      -1.535   7.078   8.161  1.00  0.00     0.131 A 
ATOM     74  C   UNL     1       0.103   8.718   9.665  1.00  0.00     0.055 A 
ATOM     75  C   UNL     1      -1.046   8.261   7.604  1.00  0.00     0.041 A 
ATOM     76  F   UNL     1      -2.334   6.313   7.400  1.00  0.00    -0.206 F 
ATOM     77  C   UNL     1      -0.230   9.094   8.362  1.00  0.00     0.022 A 
BRANCH  74  78
ATOM     78  S   UNL     1       1.092   9.829  10.704  1.00  0.00     0.124 S 
ATOM     79  O   UNL     1       0.181  10.093  11.812  1.00  0.00    -0.237 OA
ATOM     80  O   UNL     1       2.254   9.002  11.012  1.00  0.00    -0.237 OA
ATOM     81  O   UNL     1       1.358  10.968   9.828  1.00  0.00    -0.744 OA
ENDBRANCH  74  78
ENDBRANCH  47  71
BRANCH  59  82
ATOM     82  C   UNL     1      -5.664   5.273  14.628  1.00  0.00     0.023 A 
ATOM     83  C   UNL     1      -6.581   6.261  14.225  1.00  0.00     0.031 A 
ATOM     84  C   UNL     1      -5.370   5.167  15.999  1.00  0.00     0.131 A 
ATOM     85  C   UNL     1      -7.113   7.151  15.170  1.00  0.00     0.055 A 
ATOM     86  C   UNL     1      -5.955   6.012  16.944  1.00  0.00     0.041 A 
ATOM     87  F   UNL     1      -4.499   4.246  16.443  1.00  0.00    -0.206 F 
ATOM     88  C   UNL     1      -6.818   7.023  16.529  1.00  0.00     0.022 A 
BRANCH  85  89
ATOM     89  S   UNL     1      -8.095   8.559  14.583  1.00  0.00     0.124 S 
ATOM     90  O   UNL     1      -7.178   9.199  13.646  1.00  0.00    -0.237 OA
ATOM     91  O   UNL     1      -9.257   7.903  13.991  1.00  0.00    -0.237 OA
ATOM     92  O   UNL     1      -8.366   9.319  15.801  1.00  0.00    -0.744 OA
ENDBRANCH  85  89
ENDBRANCH  59  82
ENDBRANCH  33  34
ENDBRANCH  25  28
ENDBRANCH  23  24
ENDBRANCH  22  23
ENDBRANCH   1  22
TORSDOF 17
