REMARK SMILES CC[C@@](C)(NC(=O)N[C@@H](C)c1cccc(Br)c1)C(=O)NCCCNC(=O)c1ccc(-c2c3nc(c(-c4cc(S(=O)(=O)[O-])ccc4F)c4ccc([nH]4)c(-c4cc(S(=O)(=O)[O-])ccc4F)c4nc(c(-c5cc(S(=O)(=O)[O-])ccc5F)c5ccc2[nH]5)C=C4)C=C3)cc1
REMARK SMILES IDX 22 1 21 2 20 3 18 4 19 5 3 7 4 8 2 9 1 10 5 11 6 12 7 14
REMARK SMILES IDX 8 15 9 17 10 18 11 19 12 20 17 21 13 22 15 23 14 24 16 25
REMARK SMILES IDX 23 26 24 27 25 28 26 30 27 31 28 32 89 33 29 34 88 35 30 36
REMARK SMILES IDX 31 37 32 38 82 39 33 40 87 41 81 42 83 43 34 44 86 45 80 46
REMARK SMILES IDX 79 47 35 49 67 50 47 51 66 52 48 53 51 54 65 55 84 56 49 57
REMARK SMILES IDX 50 58 64 60 85 61 52 62 36 63 37 64 45 65 38 66 44 67 46 68
REMARK SMILES IDX 43 69 39 70 40 71 41 72 42 73 68 74 69 75 77 76 70 77 76 78
REMARK SMILES IDX 78 79 75 80 71 81 72 82 73 83 74 84 53 85 54 86 62 87 55 88
REMARK SMILES IDX 61 89 63 90 60 91 56 92 57 93 58 94 59 95
REMARK H PARENT 20 6 5 13 8 16 24 29 83 48 51 59
REMARK Flexibility Score: inf
ROOT
ATOM      1  C   UNL     1       2.335   6.451   0.255  1.00  0.00     0.042 C 
ENDROOT
BRANCH   1   2
ATOM      2  C   UNL     1       1.904   5.540  -0.897  1.00  0.00     0.117 C 
BRANCH   2   3
ATOM      3  N   UNL     1       2.522   4.230  -1.053  1.00  0.00    -0.354 N 
ATOM      4  C   UNL     1       2.120   2.958  -0.737  1.00  0.00     0.245 C 
ATOM      5  O   UNL     1       2.684   2.051  -1.361  1.00  0.00    -0.272 OA
ATOM      6  H   UNL     1       3.413   4.266  -1.471  1.00  0.00     0.163 HD
BRANCH   4   7
ATOM      7  C   UNL     1       0.949   2.655   0.244  1.00  0.00     0.117 C 
ATOM      8  C   UNL     1      -0.352   2.873  -0.570  1.00  0.00     0.045 C 
BRANCH   7   9
ATOM      9  C   UNL     1       0.856   1.220   0.846  1.00  0.00     0.035 C 
ATOM     10  C   UNL     1       0.974   0.031  -0.098  1.00  0.00     0.007 C 
ENDBRANCH   7   9
BRANCH   7  11
ATOM     11  N   UNL     1       0.994   3.599   1.375  1.00  0.00    -0.324 N 
ATOM     12  C   UNL     1       1.850   3.827   2.379  1.00  0.00     0.316 C 
ATOM     13  H   UNL     1       0.215   4.200   1.398  1.00  0.00     0.166 HD
ATOM     14  O   UNL     1       1.439   4.552   3.290  1.00  0.00    -0.249 OA
ATOM     15  N   UNL     1       3.107   3.389   2.469  1.00  0.00    -0.332 N 
ATOM     16  H   UNL     1       3.546   3.737   3.279  1.00  0.00     0.165 HD
BRANCH  15  17
ATOM     17  C   UNL     1       4.014   2.537   1.705  1.00  0.00     0.111 C 
ATOM     18  C   UNL     1       5.084   3.322   0.939  1.00  0.00     0.036 C 
BRANCH  17  19
ATOM     19  C   UNL     1       4.701   1.528   2.611  1.00  0.00    -0.025 A 
ATOM     20  C   UNL     1       5.715   1.904   3.507  1.00  0.00     0.006 A 
ATOM     21  C   UNL     1       4.379   0.168   2.487  1.00  0.00     0.021 A 
ATOM     22  C   UNL     1       6.429   0.937   4.215  1.00  0.00     0.002 A 
ATOM     23  C   UNL     1       5.087  -0.791   3.206  1.00  0.00     0.018 A 
ATOM     24  C   UNL     1       6.120  -0.414   4.059  1.00  0.00     0.016 A 
ATOM     25  Br  UNL     1       4.658  -2.619   2.988  1.00  0.00    -0.051 Br
ENDBRANCH  17  19
ENDBRANCH  15  17
ENDBRANCH   7  11
ENDBRANCH   4   7
ENDBRANCH   2   3
ENDBRANCH   1   2
BRANCH   1  26
ATOM     26  C   UNL     1       3.814   6.717   0.506  1.00  0.00     0.118 C 
BRANCH  26  27
ATOM     27  N   UNL     1       4.576   7.028  -0.685  1.00  0.00    -0.352 N 
ATOM     28  C   UNL     1       5.467   8.048  -0.916  1.00  0.00     0.251 C 
ATOM     29  H   UNL     1       4.434   6.416  -1.444  1.00  0.00     0.163 HD
ATOM     30  O   UNL     1       5.913   8.199  -2.050  1.00  0.00    -0.269 OA
BRANCH  28  31
ATOM     31  C   UNL     1       5.870   8.975   0.169  1.00  0.00     0.039 A 
ATOM     32  C   UNL     1       5.914  10.343  -0.113  1.00  0.00     0.014 A 
ATOM     33  C   UNL     1       6.262   8.515   1.431  1.00  0.00     0.014 A 
ATOM     34  C   UNL     1       6.319  11.249   0.872  1.00  0.00     0.010 A 
ATOM     35  C   UNL     1       6.616   9.429   2.432  1.00  0.00     0.010 A 
ATOM     36  C   UNL     1       6.661  10.805   2.160  1.00  0.00    -0.014 A 
BRANCH  36  37
ATOM     37  C   UNL     1       7.091  11.785   3.198  1.00  0.00     0.031 A 
ATOM     38  C   UNL     1       8.510  11.789   3.707  1.00  0.00     0.074 A 
ATOM     39  C   UNL     1       6.208  12.683   3.679  1.00  0.00     0.049 A 
ATOM     40  N   UNL     1       9.081  12.597   4.566  1.00  0.00    -0.248 NA
ATOM     41  C   UNL     1       9.396  10.733   3.200  1.00  0.00     0.031 C 
ATOM     42  C   UNL     1       4.795  12.760   3.299  1.00  0.00     0.029 A 
ATOM     43  N   UNL     1       6.364  13.708   4.580  1.00  0.00    -0.354 N 
ATOM     44  C   UNL     1      10.392  12.149   4.700  1.00  0.00     0.074 A 
ATOM     45  C   UNL     1      10.507  10.957   3.886  1.00  0.00     0.031 C 
ATOM     46  C   UNL     1       4.225  13.796   3.935  1.00  0.00     0.029 A 
ATOM     47  C   UNL     1       5.217  14.440   4.791  1.00  0.00     0.049 A 
ATOM     48  H   UNL     1       7.216  13.901   5.033  1.00  0.00     0.167 HD
ATOM     49  C   UNL     1      11.412  12.693   5.413  1.00  0.00     0.034 A 
ATOM     50  C   UNL     1       4.990  15.511   5.579  1.00  0.00     0.034 A 
ATOM     51  C   UNL     1      11.284  13.882   6.224  1.00  0.00     0.049 A 
ATOM     52  C   UNL     1       6.135  16.093   6.370  1.00  0.00     0.074 A 
ATOM     53  C   UNL     1      12.259  14.535   6.960  1.00  0.00     0.029 A 
ATOM     54  N   UNL     1      10.106  14.596   6.414  1.00  0.00    -0.354 N 
ATOM     55  N   UNL     1       7.383  15.689   6.441  1.00  0.00    -0.248 NA
ATOM     56  C   UNL     1       5.845  17.291   7.167  1.00  0.00     0.031 C 
ATOM     57  C   UNL     1      11.659  15.597   7.646  1.00  0.00     0.029 A 
ATOM     58  C   UNL     1      10.326  15.664   7.272  1.00  0.00     0.049 A 
ATOM     59  H   UNL     1       9.241  14.375   6.000  1.00  0.00     0.167 HD
ATOM     60  C   UNL     1       8.034  16.611   7.258  1.00  0.00     0.074 A 
ATOM     61  C   UNL     1       7.044  17.598   7.638  1.00  0.00     0.031 C 
ATOM     62  C   UNL     1       9.333  16.642   7.654  1.00  0.00     0.034 A 
BRANCH  49  63
ATOM     63  C   UNL     1      12.747  11.984   5.366  1.00  0.00     0.023 A 
ATOM     64  C   UNL     1      13.460  11.830   4.163  1.00  0.00     0.031 A 
ATOM     65  C   UNL     1      13.305  11.430   6.532  1.00  0.00     0.131 A 
ATOM     66  C   UNL     1      14.641  11.072   4.138  1.00  0.00     0.055 A 
ATOM     67  C   UNL     1      14.527  10.752   6.516  1.00  0.00     0.041 A 
ATOM     68  F   UNL     1      12.665  11.525   7.708  1.00  0.00    -0.206 F 
ATOM     69  C   UNL     1      15.194  10.555   5.311  1.00  0.00     0.022 A 
BRANCH  66  70
ATOM     70  S   UNL     1      15.360  10.641   2.529  1.00  0.00     0.124 S 
ATOM     71  O   UNL     1      14.254   9.927   1.894  1.00  0.00    -0.237 OA
ATOM     72  O   UNL     1      15.684  11.947   1.967  1.00  0.00    -0.237 OA
ATOM     73  O   UNL     1      16.509   9.808   2.879  1.00  0.00    -0.744 OA
ENDBRANCH  66  70
ENDBRANCH  49  63
BRANCH  50  74
ATOM     74  C   UNL     1       3.628  16.116   5.660  1.00  0.00     0.023 A 
ATOM     75  C   UNL     1       3.388  17.430   5.225  1.00  0.00     0.031 A 
ATOM     76  C   UNL     1       2.555  15.404   6.226  1.00  0.00     0.131 A 
ATOM     77  C   UNL     1       2.123  18.010   5.411  1.00  0.00     0.055 A 
ATOM     78  C   UNL     1       1.284  15.966   6.356  1.00  0.00     0.041 A 
ATOM     79  F   UNL     1       2.728  14.144   6.654  1.00  0.00    -0.206 F 
ATOM     80  C   UNL     1       1.066  17.282   5.962  1.00  0.00     0.022 A 
BRANCH  77  81
ATOM     81  S   UNL     1       1.902  19.765   5.008  1.00  0.00     0.124 S 
ATOM     82  O   UNL     1       2.906  20.394   5.857  1.00  0.00    -0.237 OA
ATOM     83  O   UNL     1       2.171  19.782   3.574  1.00  0.00    -0.237 OA
ATOM     84  O   UNL     1       0.514  20.027   5.382  1.00  0.00    -0.744 OA
ENDBRANCH  77  81
ENDBRANCH  50  74
BRANCH  62  85
ATOM     85  C   UNL     1       9.765  17.821   8.498  1.00  0.00     0.023 A 
ATOM     86  C   UNL     1       9.234  18.058   9.778  1.00  0.00     0.031 A 
ATOM     87  C   UNL     1      10.695  18.747   7.991  1.00  0.00     0.131 A 
ATOM     88  C   UNL     1       9.572  19.231  10.471  1.00  0.00     0.055 A 
ATOM     89  C   UNL     1      11.084  19.874   8.716  1.00  0.00     0.041 A 
ATOM     90  F   UNL     1      11.237  18.577   6.774  1.00  0.00    -0.206 F 
ATOM     91  C   UNL     1      10.507  20.132   9.956  1.00  0.00     0.022 A 
BRANCH  88  92
ATOM     92  S   UNL     1       8.671  19.632  11.995  1.00  0.00     0.124 S 
ATOM     93  O   UNL     1       7.283  19.585  11.548  1.00  0.00    -0.237 OA
ATOM     94  O   UNL     1       9.088  18.561  12.893  1.00  0.00    -0.237 OA
ATOM     95  O   UNL     1       9.165  20.962  12.345  1.00  0.00    -0.744 OA
ENDBRANCH  88  92
ENDBRANCH  62  85
ENDBRANCH  36  37
ENDBRANCH  28  31
ENDBRANCH  26  27
ENDBRANCH   1  26
TORSDOF 17
