REMARK SMILES Cc1cccc(CNC(=O)N[C@@H](CC2=c3ccccc3=NC2)C(=O)NCCCNC(=O)c2ccc(-c3c4nc(c(-c5cc(S(=O)(=O)[O-])ccc5F)c5ccc([nH]5)c(-c5cc(S(=O)(=O)[O-])ccc5F)c5nc(c(-c6cc(S(=O)(=O)[O-])ccc6F)c6ccc3[nH]6)C=C5)C=C4)cc2)c1
REMARK SMILES IDX 27 1 26 2 25 3 23 4 24 5 12 7 11 8 8 9 9 10 10 12 7 14 6 15
REMARK SMILES IDX 1 16 2 17 3 18 95 19 4 20 5 21 13 22 14 23 15 24 22 25 16 26
REMARK SMILES IDX 20 27 21 28 17 29 19 30 18 31 28 32 29 33 30 34 31 36 32 37
REMARK SMILES IDX 33 38 94 39 34 40 93 41 35 42 36 43 37 44 87 45 38 46 92 47
REMARK SMILES IDX 86 48 88 49 39 50 91 51 85 52 84 53 40 55 72 56 52 57 71 58
REMARK SMILES IDX 53 59 56 60 70 61 89 62 54 63 55 64 69 66 90 67 57 68 41 69
REMARK SMILES IDX 42 70 50 71 43 72 49 73 51 74 48 75 44 76 45 77 46 78 47 79
REMARK SMILES IDX 73 80 74 81 82 82 75 83 81 84 83 85 80 86 76 87 77 88 78 89
REMARK SMILES IDX 79 90 58 91 59 92 67 93 60 94 66 95 68 96 65 97 61 98 62 99
REMARK SMILES IDX 63 100 64 101
REMARK H PARENT 25 6 8 11 11 13 29 35 88 54 56 65
REMARK Flexibility Score: inf
ROOT
ATOM      1  C   UNL     1      -8.138   2.196  -0.041  1.00  0.00     0.042 C 
ENDROOT
BRANCH   1   2
ATOM      2  C   UNL     1      -6.959   2.580   0.835  1.00  0.00     0.117 C 
BRANCH   2   3
ATOM      3  N   UNL     1      -5.942   1.553   0.992  1.00  0.00    -0.354 N 
ATOM      4  C   UNL     1      -4.633   1.676   1.370  1.00  0.00     0.242 C 
ATOM      5  O   UNL     1      -4.096   0.664   1.840  1.00  0.00    -0.273 OA
ATOM      6  H   UNL     1      -6.239   0.635   0.797  1.00  0.00     0.163 HD
BRANCH   4   7
ATOM      7  C   UNL     1      -3.824   3.002   1.293  1.00  0.00     0.177 C 
BRANCH   7   8
ATOM      8  N   UNL     1      -4.051   3.691   0.021  1.00  0.00    -0.326 N 
ATOM      9  N   UNL     1      -2.561   2.575  -1.421  1.00  0.00    -0.334 N 
ATOM     10  C   UNL     1      -3.676   3.289  -1.208  1.00  0.00     0.315 C 
ATOM     11  H   UNL     1      -2.619   1.929  -2.162  1.00  0.00     0.165 HD
ATOM     12  O   UNL     1      -4.395   3.572  -2.167  1.00  0.00    -0.249 OA
ATOM     13  H   UNL     1      -4.533   4.548   0.070  1.00  0.00     0.166 HD
BRANCH   9  14
ATOM     14  C   UNL     1      -1.283   2.600  -0.735  1.00  0.00     0.153 C 
BRANCH  14  15
ATOM     15  C   UNL     1      -0.699   1.230  -0.488  1.00  0.00    -0.028 A 
ATOM     16  C   UNL     1       2.769  -0.299   0.022  1.00  0.00     0.044 C 
ATOM     17  C   UNL     1       1.282  -0.157  -0.106  1.00  0.00    -0.051 A 
ATOM     18  C   UNL     1       0.464  -1.286  -0.004  1.00  0.00     0.003 A 
ATOM     19  C   UNL     1       0.693   1.093  -0.348  1.00  0.00     0.009 A 
ATOM     20  C   UNL     1      -0.920  -1.163  -0.114  1.00  0.00     0.001 A 
ATOM     21  C   UNL     1      -1.497   0.087  -0.345  1.00  0.00     0.005 A 
ENDBRANCH  14  15
ENDBRANCH   9  14
ENDBRANCH   7   8
BRANCH   7  22
ATOM     22  C   UNL     1      -3.886   3.957   2.517  1.00  0.00     0.068 C 
BRANCH  22  23
ATOM     23  C   UNL     1      -5.223   4.248   3.113  1.00  0.00    -0.037 C 
ATOM     24  C   UNL     1      -5.942   3.418   3.864  1.00  0.00     0.001 A 
ATOM     25  C   UNL     1      -5.995   5.501   2.852  1.00  0.00     0.174 C 
ATOM     26  C   UNL     1      -5.721   2.090   4.326  1.00  0.00     0.010 A 
ATOM     27  C   UNL     1      -7.279   4.039   3.851  1.00  0.00     0.065 A 
ATOM     28  N   UNL     1      -7.385   5.204   3.275  1.00  0.00    -0.280 NA
ATOM     29  C   UNL     1      -6.786   1.343   4.646  1.00  0.00     0.001 A 
ATOM     30  C   UNL     1      -8.395   3.169   4.288  1.00  0.00     0.028 A 
ATOM     31  C   UNL     1      -8.134   1.884   4.594  1.00  0.00     0.002 A 
ENDBRANCH  22  23
ENDBRANCH   7  22
ENDBRANCH   4   7
ENDBRANCH   2   3
ENDBRANCH   1   2
BRANCH   1  32
ATOM     32  C   UNL     1      -9.191   1.398   0.720  1.00  0.00     0.118 C 
BRANCH  32  33
ATOM     33  N   UNL     1     -10.268   2.159   1.361  1.00  0.00    -0.352 N 
ATOM     34  C   UNL     1     -11.331   1.715   2.140  1.00  0.00     0.251 C 
ATOM     35  H   UNL     1     -10.233   3.132   1.218  1.00  0.00     0.163 HD
ATOM     36  O   UNL     1     -12.193   2.511   2.511  1.00  0.00    -0.269 OA
BRANCH  34  37
ATOM     37  C   UNL     1     -11.382   0.313   2.628  1.00  0.00     0.039 A 
ATOM     38  C   UNL     1     -11.906   0.031   3.903  1.00  0.00     0.014 A 
ATOM     39  C   UNL     1     -10.741  -0.688   1.919  1.00  0.00     0.014 A 
ATOM     40  C   UNL     1     -11.568  -1.163   4.538  1.00  0.00     0.010 A 
ATOM     41  C   UNL     1     -10.234  -1.753   2.602  1.00  0.00     0.010 A 
ATOM     42  C   UNL     1     -10.638  -1.982   3.915  1.00  0.00    -0.014 A 
BRANCH  42  43
ATOM     43  C   UNL     1      -9.988  -3.140   4.487  1.00  0.00     0.031 A 
ATOM     44  C   UNL     1     -10.429  -4.468   4.042  1.00  0.00     0.074 A 
ATOM     45  C   UNL     1      -8.807  -2.911   5.091  1.00  0.00     0.049 A 
ATOM     46  N   UNL     1     -10.134  -5.570   4.625  1.00  0.00    -0.248 NA
ATOM     47  C   UNL     1     -11.286  -4.649   2.873  1.00  0.00     0.031 C 
ATOM     48  C   UNL     1      -7.695  -3.817   5.335  1.00  0.00     0.029 A 
ATOM     49  N   UNL     1      -8.446  -1.738   5.748  1.00  0.00    -0.354 N 
ATOM     50  C   UNL     1     -10.460  -6.591   3.756  1.00  0.00     0.074 A 
ATOM     51  C   UNL     1     -11.277  -5.976   2.743  1.00  0.00     0.031 C 
ATOM     52  C   UNL     1      -6.900  -3.275   6.278  1.00  0.00     0.029 A 
ATOM     53  C   UNL     1      -7.577  -2.089   6.790  1.00  0.00     0.049 A 
ATOM     54  H   UNL     1      -8.746  -0.828   5.521  1.00  0.00     0.167 HD
ATOM     55  C   UNL     1      -9.845  -7.797   3.910  1.00  0.00     0.034 A 
ATOM     56  C   UNL     1      -8.034  -1.964   8.073  1.00  0.00     0.034 A 
ATOM     57  C   UNL     1      -8.950  -7.754   5.073  1.00  0.00     0.049 A 
ATOM     58  C   UNL     1      -8.303  -3.309   8.731  1.00  0.00     0.074 A 
ATOM     59  C   UNL     1      -7.581  -7.581   5.193  1.00  0.00     0.029 A 
ATOM     60  N   UNL     1      -9.485  -7.514   6.335  1.00  0.00    -0.354 N 
ATOM     61  N   UNL     1      -8.416  -4.447   8.096  1.00  0.00    -0.248 NA
ATOM     62  C   UNL     1      -8.432  -3.465  10.174  1.00  0.00     0.031 C 
ATOM     63  C   UNL     1      -7.312  -7.138   6.519  1.00  0.00     0.029 A 
ATOM     64  C   UNL     1      -8.509  -7.081   7.215  1.00  0.00     0.049 A 
ATOM     65  H   UNL     1     -10.432  -7.637   6.572  1.00  0.00     0.167 HD
ATOM     66  C   UNL     1      -8.643  -5.464   8.990  1.00  0.00     0.074 A 
ATOM     67  C   UNL     1      -8.604  -4.794  10.282  1.00  0.00     0.031 C 
ATOM     68  C   UNL     1      -8.858  -6.761   8.597  1.00  0.00     0.034 A 
BRANCH  55  69
ATOM     69  C   UNL     1      -9.791  -8.890   2.860  1.00  0.00     0.023 A 
ATOM     70  C   UNL     1      -8.754  -9.843   2.938  1.00  0.00     0.031 A 
ATOM     71  C   UNL     1     -10.660  -9.051   1.761  1.00  0.00     0.131 A 
ATOM     72  C   UNL     1      -8.561 -10.813   1.936  1.00  0.00     0.055 A 
ATOM     73  C   UNL     1     -10.443  -9.985   0.737  1.00  0.00     0.041 A 
ATOM     74  F   UNL     1     -11.800  -8.362   1.643  1.00  0.00    -0.206 F 
ATOM     75  C   UNL     1      -9.383 -10.870   0.816  1.00  0.00     0.022 A 
BRANCH  72  76
ATOM     76  S   UNL     1      -7.221 -12.018   2.129  1.00  0.00     0.124 S 
ATOM     77  O   UNL     1      -6.038 -11.165   2.103  1.00  0.00    -0.237 OA
ATOM     78  O   UNL     1      -7.546 -12.639   3.408  1.00  0.00    -0.237 OA
ATOM     79  O   UNL     1      -7.380 -12.889   0.965  1.00  0.00    -0.744 OA
ENDBRANCH  72  76
ENDBRANCH  55  69
BRANCH  56  80
ATOM     80  C   UNL     1      -8.850  -0.721   8.280  1.00  0.00     0.023 A 
ATOM     81  C   UNL     1      -8.192   0.527   8.351  1.00  0.00     0.031 A 
ATOM     82  C   UNL     1     -10.226  -0.714   7.996  1.00  0.00     0.131 A 
ATOM     83  C   UNL     1      -8.886   1.717   8.055  1.00  0.00     0.055 A 
ATOM     84  C   UNL     1     -10.901   0.469   7.664  1.00  0.00     0.041 A 
ATOM     85  F   UNL     1     -10.908  -1.865   7.897  1.00  0.00    -0.206 F 
ATOM     86  C   UNL     1     -10.224   1.686   7.658  1.00  0.00     0.022 A 
BRANCH  83  87
ATOM     87  S   UNL     1      -7.996   3.308   8.054  1.00  0.00     0.124 S 
ATOM     88  O   UNL     1      -8.035   3.671   9.466  1.00  0.00    -0.237 OA
ATOM     89  O   UNL     1      -6.680   2.950   7.533  1.00  0.00    -0.237 OA
ATOM     90  O   UNL     1      -8.807   4.147   7.175  1.00  0.00    -0.744 OA
ENDBRANCH  83  87
ENDBRANCH  56  80
BRANCH  68  91
ATOM     91  C   UNL     1      -9.367  -7.885   9.487  1.00  0.00     0.023 A 
ATOM     92  C   UNL     1      -9.879  -7.674  10.772  1.00  0.00     0.031 A 
ATOM     93  C   UNL     1      -9.417  -9.230   9.035  1.00  0.00     0.131 A 
ATOM     94  C   UNL     1     -10.299  -8.743  11.580  1.00  0.00     0.055 A 
ATOM     95  C   UNL     1      -9.944 -10.278   9.797  1.00  0.00     0.041 A 
ATOM     96  F   UNL     1      -8.965  -9.596   7.827  1.00  0.00    -0.206 F 
ATOM     97  C   UNL     1     -10.368 -10.043  11.093  1.00  0.00     0.022 A 
BRANCH  94  98
ATOM     98  S   UNL     1     -10.652  -8.393  13.320  1.00  0.00     0.124 S 
ATOM     99  O   UNL     1      -9.358  -7.911  13.794  1.00  0.00    -0.237 OA
ATOM    100  O   UNL     1     -11.707  -7.388  13.230  1.00  0.00    -0.237 OA
ATOM    101  O   UNL     1     -11.067  -9.687  13.855  1.00  0.00    -0.744 OA
ENDBRANCH  94  98
ENDBRANCH  68  91
ENDBRANCH  42  43
ENDBRANCH  34  37
ENDBRANCH  32  33
ENDBRANCH   1  32
TORSDOF 18
