REMARK SMILES CCC[C@H]1CCc2c(sc(NC(=O)[C@H]3[C@@H](C(=O)NCCCNC(=O)c4ccc(-c5c6nc(c(-c7cc(S(=O)(=O)[O-])ccc7F)c7ccc([nH]7)c(-c7cc(S(=O)(=O)[O-])ccc7F)c7nc(c(-c8cc(S(=O)(=O)[O-])ccc8F)c8ccc5[nH]8)C=C7)C=C6)cc4)[C@H]4CC[C@@H]3O4)c2C(N)=O)C1
REMARK SMILES IDX 19 1 18 2 16 3 17 4 15 6 14 7 91 8 88 9 90 10 92 11 89 12
REMARK SMILES IDX 12 13 11 14 13 16 10 17 4 18 5 19 97 20 6 21 8 22 7 23 9 24
REMARK SMILES IDX 93 25 3 26 2 27 1 28 94 29 95 30 96 31 20 34 21 35 22 36
REMARK SMILES IDX 23 37 24 39 25 40 26 41 87 42 27 43 86 44 28 45 29 46 30 47
REMARK SMILES IDX 80 48 31 49 85 50 79 51 81 52 32 53 84 54 78 55 77 56 33 58
REMARK SMILES IDX 65 59 45 60 64 61 46 62 49 63 63 64 82 65 47 66 48 67 62 69
REMARK SMILES IDX 83 70 50 71 34 72 35 73 43 74 36 75 42 76 44 77 41 78 37 79
REMARK SMILES IDX 38 80 39 81 40 82 66 83 67 84 75 85 68 86 74 87 76 88 73 89
REMARK SMILES IDX 69 90 70 91 71 92 72 93 51 94 52 95 60 96 53 97 59 98 61 99
REMARK SMILES IDX 58 100 54 101 55 102 56 103 57 104
REMARK H PARENT 18 5 11 15 95 32 95 33 22 38 81 57 49 68
REMARK Flexibility Score: inf
ROOT
ATOM      1  C   UNL     1       0.407   4.651  -0.351  1.00  0.00     0.117 C 
ENDROOT
BRANCH   1   2
ATOM      2  N   UNL     1      -0.643   3.944  -1.062  1.00  0.00    -0.356 N 
ATOM      3  C   UNL     1      -1.906   3.651  -0.641  1.00  0.00     0.226 C 
ATOM      4  O   UNL     1      -2.673   3.102  -1.428  1.00  0.00    -0.275 OA
ATOM      5  H   UNL     1      -0.412   3.635  -1.968  1.00  0.00     0.163 HD
BRANCH   3   6
ATOM      6  C   UNL     1      -2.303   4.047   0.767  1.00  0.00     0.122 C 
ATOM      7  C   UNL     1      -3.649   3.533   1.290  1.00  0.00     0.123 C 
ATOM      8  C   UNL     1      -4.475   4.819   1.330  1.00  0.00     0.132 C 
ATOM      9  C   UNL     1      -2.477   5.571   0.933  1.00  0.00     0.132 C 
ATOM     10  C   UNL     1      -4.638   5.552  -0.006  1.00  0.00     0.035 C 
ATOM     11  O   UNL     1      -3.485   5.668   1.981  1.00  0.00    -0.373 OA
ATOM     12  C   UNL     1      -3.266   6.196  -0.207  1.00  0.00     0.035 C 
BRANCH   7  13
ATOM     13  C   UNL     1      -4.319   2.341   0.665  1.00  0.00     0.231 C 
ATOM     14  N   UNL     1      -3.763   1.096   0.706  1.00  0.00    -0.317 N 
ATOM     15  H   UNL     1      -4.275   0.431   0.191  1.00  0.00     0.170 HD
ATOM     16  O   UNL     1      -5.428   2.454   0.131  1.00  0.00    -0.274 OA
BRANCH  14  17
ATOM     17  C   UNL     1      -2.644   0.560   1.309  1.00  0.00     0.108 A 
ATOM     18  C   UNL     1       1.044  -2.435   2.433  1.00  0.00    -0.006 C 
ATOM     19  C   UNL     1       1.655  -1.049   2.755  1.00  0.00     0.009 C 
ATOM     20  C   UNL     1       0.062  -2.312   1.247  1.00  0.00     0.050 C 
ATOM     21  C   UNL     1       0.598  -0.015   3.158  1.00  0.00     0.038 C 
ATOM     22  C   UNL     1      -0.856  -1.139   1.440  1.00  0.00     0.011 A 
ATOM     23  C   UNL     1      -0.630  -0.083   2.294  1.00  0.00    -0.019 A 
ATOM     24  S   UNL     1      -2.307  -0.967   0.586  1.00  0.00    -0.122 S 
ATOM     25  C   UNL     1      -1.741   0.849   2.322  1.00  0.00     0.077 A 
BRANCH  18  26
ATOM     26  C   UNL     1       2.196  -3.447   2.253  1.00  0.00     0.004 C 
BRANCH  26  27
ATOM     27  C   UNL     1       1.929  -4.720   1.448  1.00  0.00    -0.003 C 
ATOM     28  C   UNL     1       2.014  -4.514  -0.059  1.00  0.00     0.004 C 
ENDBRANCH  26  27
ENDBRANCH  18  26
BRANCH  25  29
ATOM     29  C   UNL     1      -1.811   1.883   3.340  1.00  0.00     0.251 C 
ATOM     30  N   UNL     1      -2.938   1.873   4.105  1.00  0.00    -0.365 N 
ATOM     31  O   UNL     1      -0.899   2.671   3.573  1.00  0.00    -0.269 OA
ATOM     32  H   UNL     1      -3.662   1.235   3.907  1.00  0.00     0.159 HD
ATOM     33  H   UNL     1      -3.029   2.502   4.857  1.00  0.00     0.159 HD
ENDBRANCH  25  29
ENDBRANCH  14  17
ENDBRANCH   7  13
ENDBRANCH   3   6
ENDBRANCH   1   2
BRANCH   1  34
ATOM     34  C   UNL     1       1.763   3.976  -0.467  1.00  0.00     0.042 C 
BRANCH  34  35
ATOM     35  C   UNL     1       2.268   3.792  -1.890  1.00  0.00     0.118 C 
BRANCH  35  36
ATOM     36  N   UNL     1       2.337   5.034  -2.645  1.00  0.00    -0.352 N 
ATOM     37  C   UNL     1       3.379   5.574  -3.359  1.00  0.00     0.251 C 
ATOM     38  H   UNL     1       1.511   5.569  -2.644  1.00  0.00     0.163 HD
ATOM     39  O   UNL     1       3.271   6.711  -3.808  1.00  0.00    -0.269 OA
BRANCH  37  40
ATOM     40  C   UNL     1       4.630   4.807  -3.557  1.00  0.00     0.039 A 
ATOM     41  C   UNL     1       5.853   5.479  -3.476  1.00  0.00     0.014 A 
ATOM     42  C   UNL     1       4.606   3.438  -3.836  1.00  0.00     0.014 A 
ATOM     43  C   UNL     1       7.047   4.768  -3.620  1.00  0.00     0.010 A 
ATOM     44  C   UNL     1       5.795   2.716  -3.881  1.00  0.00     0.010 A 
ATOM     45  C   UNL     1       7.029   3.375  -3.796  1.00  0.00    -0.014 A 
BRANCH  45  46
ATOM     46  C   UNL     1       8.287   2.599  -3.953  1.00  0.00     0.031 A 
ATOM     47  C   UNL     1       8.549   1.856  -5.238  1.00  0.00     0.074 A 
ATOM     48  C   UNL     1       9.162   2.516  -2.932  1.00  0.00     0.049 A 
ATOM     49  N   UNL     1       9.539   1.060  -5.551  1.00  0.00    -0.248 NA
ATOM     50  C   UNL     1       7.538   2.000  -6.297  1.00  0.00     0.031 C 
ATOM     51  C   UNL     1       8.999   3.152  -1.622  1.00  0.00     0.029 A 
ATOM     52  N   UNL     1      10.363   1.859  -2.832  1.00  0.00    -0.354 N 
ATOM     53  C   UNL     1       9.258   0.592  -6.831  1.00  0.00     0.074 A 
ATOM     54  C   UNL     1       7.970   1.136  -7.202  1.00  0.00     0.031 C 
ATOM     55  C   UNL     1      10.072   2.877  -0.863  1.00  0.00     0.029 A 
ATOM     56  C   UNL     1      10.981   2.016  -1.613  1.00  0.00     0.049 A 
ATOM     57  H   UNL     1      10.746   1.325  -3.564  1.00  0.00     0.167 HD
ATOM     58  C   UNL     1      10.017  -0.194  -7.636  1.00  0.00     0.034 A 
ATOM     59  C   UNL     1      12.146   1.520  -1.153  1.00  0.00     0.034 A 
ATOM     60  C   UNL     1      11.312  -0.708  -7.259  1.00  0.00     0.049 A 
ATOM     61  C   UNL     1      12.982   0.662  -2.070  1.00  0.00     0.074 A 
ATOM     62  C   UNL     1      12.186  -1.480  -8.004  1.00  0.00     0.029 A 
ATOM     63  N   UNL     1      11.922  -0.496  -6.028  1.00  0.00    -0.354 N 
ATOM     64  N   UNL     1      12.722   0.260  -3.293  1.00  0.00    -0.248 NA
ATOM     65  C   UNL     1      14.280   0.213  -1.551  1.00  0.00     0.031 C 
ATOM     66  C   UNL     1      13.296  -1.781  -7.206  1.00  0.00     0.029 A 
ATOM     67  C   UNL     1      13.152  -1.134  -5.990  1.00  0.00     0.049 A 
ATOM     68  H   UNL     1      11.536   0.030  -5.291  1.00  0.00     0.167 HD
ATOM     69  C   UNL     1      13.845  -0.455  -3.703  1.00  0.00     0.074 A 
ATOM     70  C   UNL     1      14.785  -0.414  -2.602  1.00  0.00     0.031 C 
ATOM     71  C   UNL     1      14.080  -1.084  -4.884  1.00  0.00     0.034 A 
BRANCH  58  72
ATOM     72  C   UNL     1       9.446  -0.554  -8.989  1.00  0.00     0.023 A 
ATOM     73  C   UNL     1       9.143   0.429  -9.948  1.00  0.00     0.031 A 
ATOM     74  C   UNL     1       9.156  -1.892  -9.308  1.00  0.00     0.131 A 
ATOM     75  C   UNL     1       8.487   0.072 -11.136  1.00  0.00     0.055 A 
ATOM     76  C   UNL     1       8.586  -2.251 -10.533  1.00  0.00     0.041 A 
ATOM     77  F   UNL     1       9.401  -2.875  -8.428  1.00  0.00    -0.206 F 
ATOM     78  C   UNL     1       8.232  -1.264 -11.448  1.00  0.00     0.022 A 
BRANCH  75  79
ATOM     79  S   UNL     1       7.829   1.394 -12.190  1.00  0.00     0.124 S 
ATOM     80  O   UNL     1       6.911   2.069 -11.275  1.00  0.00    -0.237 OA
ATOM     81  O   UNL     1       9.030   2.136 -12.554  1.00  0.00    -0.237 OA
ATOM     82  O   UNL     1       7.185   0.670 -13.285  1.00  0.00    -0.744 OA
ENDBRANCH  75  79
ENDBRANCH  58  72
BRANCH  59  83
ATOM     83  C   UNL     1      12.607   1.825   0.233  1.00  0.00     0.023 A 
ATOM     84  C   UNL     1      13.770   2.578   0.459  1.00  0.00     0.031 A 
ATOM     85  C   UNL     1      11.916   1.328   1.352  1.00  0.00     0.131 A 
ATOM     86  C   UNL     1      14.239   2.767   1.768  1.00  0.00     0.055 A 
ATOM     87  C   UNL     1      12.357   1.564   2.655  1.00  0.00     0.041 A 
ATOM     88  F   UNL     1      10.793   0.610   1.193  1.00  0.00    -0.206 F 
ATOM     89  C   UNL     1      13.534   2.275   2.868  1.00  0.00     0.022 A 
BRANCH  86  90
ATOM     90  S   UNL     1      15.837   3.591   2.007  1.00  0.00     0.124 S 
ATOM     91  O   UNL     1      16.732   2.734   1.238  1.00  0.00    -0.237 OA
ATOM     92  O   UNL     1      15.580   4.915   1.450  1.00  0.00    -0.237 OA
ATOM     93  O   UNL     1      16.026   3.553   3.455  1.00  0.00    -0.744 OA
ENDBRANCH  86  90
ENDBRANCH  59  83
BRANCH  71  94
ATOM     94  C   UNL     1      15.439  -1.720  -5.060  1.00  0.00     0.023 A 
ATOM     95  C   UNL     1      15.860  -2.808  -4.275  1.00  0.00     0.031 A 
ATOM     96  C   UNL     1      16.339  -1.203  -6.009  1.00  0.00     0.131 A 
ATOM     97  C   UNL     1      17.170  -3.294  -4.401  1.00  0.00     0.055 A 
ATOM     98  C   UNL     1      17.617  -1.735  -6.177  1.00  0.00     0.041 A 
ATOM     99  F   UNL     1      15.991  -0.164  -6.786  1.00  0.00    -0.206 F 
ATOM    100  C   UNL     1      18.046  -2.775  -5.358  1.00  0.00     0.022 A 
BRANCH  97 101
ATOM    101  S   UNL     1      17.755  -4.533  -3.212  1.00  0.00     0.124 S 
ATOM    102  O   UNL     1      17.491  -3.877  -1.935  1.00  0.00    -0.237 OA
ATOM    103  O   UNL     1      16.914  -5.684  -3.523  1.00  0.00    -0.237 OA
ATOM    104  O   UNL     1      19.169  -4.689  -3.547  1.00  0.00    -0.744 OA
ENDBRANCH  97 101
ENDBRANCH  71  94
ENDBRANCH  45  46
ENDBRANCH  37  40
ENDBRANCH  35  36
ENDBRANCH  34  35
ENDBRANCH   1  34
TORSDOF 18
