REMARK SMILES CCOc1cccc(OCC)c1-c1ccc([C@@H](C)C(=O)NCCCNC(=O)c2ccc(-c3c4nc(c(-c5cc(S(=O)(=O)[O-])ccc5F)c5ccc([nH]5)c(-c5cc(S(=O)(=O)[O-])ccc5F)c5nc(c(-c6cc(S(=O)(=O)[O-])ccc6F)c6ccc3[nH]6)C=C5)C=C4)cc2)cc1F
REMARK SMILES IDX 22 1 21 2 19 3 20 4 17 6 18 7 16 8 13 9 14 10 92 11 15 12
REMARK SMILES IDX 91 13 93 14 12 15 4 16 5 17 6 18 8 19 7 20 3 21 2 22 1 23
REMARK SMILES IDX 9 24 10 25 11 26 23 27 24 28 25 29 26 30 27 32 28 33 29 34
REMARK SMILES IDX 90 35 30 36 89 37 31 38 32 39 33 40 83 41 34 42 88 43 82 44
REMARK SMILES IDX 84 45 35 46 87 47 81 48 80 49 36 51 68 52 48 53 67 54 49 55
REMARK SMILES IDX 52 56 66 57 85 58 50 59 51 60 65 62 86 63 53 64 37 65 38 66
REMARK SMILES IDX 46 67 39 68 45 69 47 70 44 71 40 72 41 73 42 74 43 75 69 76
REMARK SMILES IDX 70 77 78 78 71 79 77 80 79 81 76 82 72 83 73 84 74 85 75 86
REMARK SMILES IDX 54 87 55 88 63 89 56 90 62 91 64 92 61 93 57 94 58 95 59 96
REMARK SMILES IDX 60 97
REMARK H PARENT 21 5 25 31 84 50 52 61
REMARK Flexibility Score: inf
ROOT
ATOM      1  C   UNL     1       2.600   4.413  -2.483  1.00  0.00     0.117 C 
ENDROOT
BRANCH   1   2
ATOM      2  N   UNL     1       1.183   4.374  -2.134  1.00  0.00    -0.356 N 
ATOM      3  C   UNL     1       0.478   4.246  -0.974  1.00  0.00     0.227 C 
ATOM      4  O   UNL     1      -0.755   4.237  -1.112  1.00  0.00    -0.274 OA
ATOM      5  H   UNL     1       0.599   4.459  -2.922  1.00  0.00     0.163 HD
BRANCH   3   6
ATOM      6  C   UNL     1       1.070   4.119   0.451  1.00  0.00     0.105 C 
ATOM      7  C   UNL     1       2.049   5.222   0.837  1.00  0.00     0.023 C 
BRANCH   6   8
ATOM      8  C   UNL     1       1.574   2.728   0.793  1.00  0.00    -0.033 A 
ATOM      9  C   UNL     1       2.486   0.066   1.224  1.00  0.00     0.025 A 
ATOM     10  C   UNL     1       2.918   0.822   0.139  1.00  0.00     0.012 A 
ATOM     11  C   UNL     1       1.559   0.663   2.088  1.00  0.00     0.131 A 
ATOM     12  C   UNL     1       2.568   2.154   0.018  1.00  0.00     0.005 A 
ATOM     13  C   UNL     1       1.077   1.965   1.858  1.00  0.00     0.044 A 
ATOM     14  F   UNL     1       1.086  -0.011   3.148  1.00  0.00    -0.206 F 
BRANCH   9  15
ATOM     15  C   UNL     1       2.974  -1.315   1.314  1.00  0.00     0.069 A 
ATOM     16  C   UNL     1       2.056  -2.350   0.987  1.00  0.00     0.130 A 
ATOM     17  C   UNL     1       2.447  -3.685   0.868  1.00  0.00     0.047 A 
ATOM     18  C   UNL     1       3.779  -4.023   1.052  1.00  0.00     0.008 A 
ATOM     19  C   UNL     1       4.325  -1.681   1.529  1.00  0.00     0.130 A 
ATOM     20  C   UNL     1       4.697  -3.033   1.394  1.00  0.00     0.047 A 
BRANCH  16  21
ATOM     21  O   UNL     1       0.722  -2.044   0.843  1.00  0.00    -0.493 OA
BRANCH  21  22
ATOM     22  C   UNL     1       0.276  -2.091  -0.517  1.00  0.00     0.226 C 
ATOM     23  C   UNL     1      -0.316  -0.737  -0.878  1.00  0.00     0.049 C 
ENDBRANCH  21  22
ENDBRANCH  16  21
BRANCH  19  24
ATOM     24  O   UNL     1       5.415  -0.938   1.901  1.00  0.00    -0.493 OA
BRANCH  24  25
ATOM     25  C   UNL     1       5.538   0.466   1.742  1.00  0.00     0.226 C 
ATOM     26  C   UNL     1       6.086   0.818   0.364  1.00  0.00     0.049 C 
ENDBRANCH  24  25
ENDBRANCH  19  24
ENDBRANCH   9  15
ENDBRANCH   6   8
ENDBRANCH   3   6
ENDBRANCH   1   2
BRANCH   1  27
ATOM     27  C   UNL     1       3.093   3.093  -3.099  1.00  0.00     0.042 C 
BRANCH  27  28
ATOM     28  C   UNL     1       2.914   2.954  -4.603  1.00  0.00     0.118 C 
BRANCH  28  29
ATOM     29  N   UNL     1       3.875   3.746  -5.350  1.00  0.00    -0.352 N 
ATOM     30  C   UNL     1       4.936   3.374  -6.142  1.00  0.00     0.251 C 
ATOM     31  H   UNL     1       3.744   4.719  -5.277  1.00  0.00     0.163 HD
ATOM     32  O   UNL     1       5.728   4.250  -6.490  1.00  0.00    -0.269 OA
BRANCH  30  33
ATOM     33  C   UNL     1       5.167   1.966  -6.563  1.00  0.00     0.039 A 
ATOM     34  C   UNL     1       6.489   1.525  -6.711  1.00  0.00     0.014 A 
ATOM     35  C   UNL     1       4.123   1.095  -6.883  1.00  0.00     0.014 A 
ATOM     36  C   UNL     1       6.758   0.210  -7.112  1.00  0.00     0.010 A 
ATOM     37  C   UNL     1       4.390  -0.240  -7.206  1.00  0.00     0.010 A 
ATOM     38  C   UNL     1       5.711  -0.699  -7.325  1.00  0.00    -0.014 A 
BRANCH  38  39
ATOM     39  C   UNL     1       5.977  -2.125  -7.668  1.00  0.00     0.031 A 
ATOM     40  C   UNL     1       5.525  -2.692  -8.988  1.00  0.00     0.074 A 
ATOM     41  C   UNL     1       6.574  -2.928  -6.763  1.00  0.00     0.049 A 
ATOM     42  N   UNL     1       5.577  -3.926  -9.423  1.00  0.00    -0.248 NA
ATOM     43  C   UNL     1       4.910  -1.750  -9.935  1.00  0.00     0.031 C 
ATOM     44  C   UNL     1       7.037  -2.508  -5.439  1.00  0.00     0.029 A 
ATOM     45  N   UNL     1       6.882  -4.266  -6.810  1.00  0.00    -0.354 N 
ATOM     46  C   UNL     1       4.992  -3.913 -10.685  1.00  0.00     0.074 A 
ATOM     47  C   UNL     1       4.545  -2.555 -10.921  1.00  0.00     0.031 C 
ATOM     48  C   UNL     1       7.584  -3.559  -4.809  1.00  0.00     0.029 A 
ATOM     49  C   UNL     1       7.464  -4.741  -5.657  1.00  0.00     0.049 A 
ATOM     50  H   UNL     1       6.703  -4.832  -7.595  1.00  0.00     0.167 HD
ATOM     51  C   UNL     1       4.856  -4.932 -11.572  1.00  0.00     0.034 A 
ATOM     52  C   UNL     1       7.839  -5.989  -5.309  1.00  0.00     0.034 A 
ATOM     53  C   UNL     1       5.315  -6.279 -11.328  1.00  0.00     0.049 A 
ATOM     54  C   UNL     1       7.639  -7.112  -6.294  1.00  0.00     0.074 A 
ATOM     55  C   UNL     1       5.277  -7.370 -12.179  1.00  0.00     0.029 A 
ATOM     56  N   UNL     1       5.887  -6.724 -10.143  1.00  0.00    -0.354 N 
ATOM     57  N   UNL     1       7.121  -7.071  -7.500  1.00  0.00    -0.248 NA
ATOM     58  C   UNL     1       8.079  -8.449  -5.873  1.00  0.00     0.031 C 
ATOM     59  C   UNL     1       5.759  -8.487 -11.487  1.00  0.00     0.029 A 
ATOM     60  C   UNL     1       6.170  -8.079 -10.228  1.00  0.00     0.049 A 
ATOM     61  H   UNL     1       6.066  -6.159  -9.356  1.00  0.00     0.167 HD
ATOM     62  C   UNL     1       7.196  -8.373  -7.989  1.00  0.00     0.074 A 
ATOM     63  C   UNL     1       7.827  -9.168  -6.956  1.00  0.00     0.031 C 
ATOM     64  C   UNL     1       6.782  -8.867  -9.183  1.00  0.00     0.034 A 
BRANCH  51  65
ATOM     65  C   UNL     1       4.155  -4.632 -12.877  1.00  0.00     0.023 A 
ATOM     66  C   UNL     1       4.684  -3.722 -13.809  1.00  0.00     0.031 A 
ATOM     67  C   UNL     1       2.934  -5.257 -13.190  1.00  0.00     0.131 A 
ATOM     68  C   UNL     1       3.962  -3.409 -14.971  1.00  0.00     0.055 A 
ATOM     69  C   UNL     1       2.260  -5.001 -14.386  1.00  0.00     0.041 A 
ATOM     70  F   UNL     1       2.369  -6.121 -12.333  1.00  0.00    -0.206 F 
ATOM     71  C   UNL     1       2.766  -4.060 -15.279  1.00  0.00     0.022 A 
BRANCH  68  72
ATOM     72  S   UNL     1       4.538  -2.036 -16.008  1.00  0.00     0.124 S 
ATOM     73  O   UNL     1       4.520  -0.924 -15.059  1.00  0.00    -0.237 OA
ATOM     74  O   UNL     1       5.861  -2.494 -16.428  1.00  0.00    -0.237 OA
ATOM     75  O   UNL     1       3.539  -1.960 -17.066  1.00  0.00    -0.744 OA
ENDBRANCH  68  72
ENDBRANCH  51  65
BRANCH  52  76
ATOM     76  C   UNL     1       8.418  -6.256  -3.961  1.00  0.00     0.023 A 
ATOM     77  C   UNL     1       9.736  -6.718  -3.818  1.00  0.00     0.031 A 
ATOM     78  C   UNL     1       7.646  -6.099  -2.795  1.00  0.00     0.131 A 
ATOM     79  C   UNL     1      10.228  -7.051  -2.546  1.00  0.00     0.055 A 
ATOM     80  C   UNL     1       8.158  -6.379  -1.527  1.00  0.00     0.041 A 
ATOM     81  F   UNL     1       6.380  -5.660  -2.874  1.00  0.00    -0.206 F 
ATOM     82  C   UNL     1       9.452  -6.872  -1.399  1.00  0.00     0.022 A 
BRANCH  79  83
ATOM     83  S   UNL     1      11.870  -7.811  -2.423  1.00  0.00     0.124 S 
ATOM     84  O   UNL     1      11.717  -8.988  -3.269  1.00  0.00    -0.237 OA
ATOM     85  O   UNL     1      12.732  -6.753  -2.943  1.00  0.00    -0.237 OA
ATOM     86  O   UNL     1      12.013  -8.082  -0.994  1.00  0.00    -0.744 OA
ENDBRANCH  79  83
ENDBRANCH  52  76
BRANCH  64  87
ATOM     87  C   UNL     1       7.031 -10.333  -9.440  1.00  0.00     0.023 A 
ATOM     88  C   UNL     1       6.372 -11.334  -8.704  1.00  0.00     0.031 A 
ATOM     89  C   UNL     1       7.955 -10.735 -10.421  1.00  0.00     0.131 A 
ATOM     90  C   UNL     1       6.688 -12.684  -8.919  1.00  0.00     0.055 A 
ATOM     91  C   UNL     1       8.220 -12.082 -10.674  1.00  0.00     0.041 A 
ATOM     92  F   UNL     1       8.616  -9.823 -11.152  1.00  0.00    -0.206 F 
ATOM     93  C   UNL     1       7.596 -13.065  -9.911  1.00  0.00     0.022 A 
BRANCH  90  94
ATOM     94  S   UNL     1       5.965 -13.933  -7.821  1.00  0.00     0.124 S 
ATOM     95  O   UNL     1       6.447 -13.502  -6.513  1.00  0.00    -0.237 OA
ATOM     96  O   UNL     1       4.535 -13.769  -8.060  1.00  0.00    -0.237 OA
ATOM     97  O   UNL     1       6.534 -15.189  -8.309  1.00  0.00    -0.744 OA
ENDBRANCH  90  94
ENDBRANCH  64  87
ENDBRANCH  38  39
ENDBRANCH  30  33
ENDBRANCH  28  29
ENDBRANCH  27  28
ENDBRANCH   1  27
TORSDOF 19
