REMARK SMILES O=C1CCCC2=C1[C@H](c1ccc([N+](=O)[O-])cc1)CC(=O)N2c1ccccc1C(=O)NCCCNC(=O)c1ccc(-c2c3nc(c(-c4cc(S(=O)(=O)[O-])ccc4F)c4ccc([nH]4)c(-c4cc(S(=O)(=O)[O-])ccc4F)c4nc(c(-c5cc(S(=O)(=O)[O-])ccc5F)c5ccc2[nH]5)C=C4)C=C3)cc1
REMARK SMILES IDX 32 1 31 2 30 3 28 4 29 5 27 7 22 8 23 9 24 10 26 11 25 12
REMARK SMILES IDX 21 13 1 14 2 15 3 16 7 17 4 18 6 19 8 20 5 21 18 22 19 23
REMARK SMILES IDX 20 24 9 25 10 26 17 27 11 28 16 29 12 30 13 31 14 32 15 33
REMARK SMILES IDX 33 34 34 35 35 36 36 38 37 39 38 40 99 41 39 42 98 43 40 44
REMARK SMILES IDX 41 45 42 46 92 47 43 48 97 49 91 50 93 51 44 52 96 53 90 54
REMARK SMILES IDX 89 55 45 57 77 58 57 59 76 60 58 61 61 62 75 63 94 64 59 65
REMARK SMILES IDX 60 66 74 68 95 69 62 70 46 71 47 72 55 73 48 74 54 75 56 76
REMARK SMILES IDX 53 77 49 78 50 79 51 80 52 81 78 82 79 83 87 84 80 85 86 86
REMARK SMILES IDX 88 87 85 88 81 89 82 90 83 91 84 92 63 93 64 94 72 95 65 96
REMARK SMILES IDX 71 97 73 98 70 99 66 100 67 101 68 102 69 103
REMARK H PARENT 30 6 34 37 93 56 61 67
REMARK Flexibility Score: inf
ROOT
ATOM      1  C   UNL     1       3.921  -1.111   3.112  1.00  0.00     0.042 C 
ENDROOT
BRANCH   1   2
ATOM      2  C   UNL     1       4.671  -0.994   1.778  1.00  0.00     0.118 C 
BRANCH   2   3
ATOM      3  N   UNL     1       6.096  -0.744   1.872  1.00  0.00    -0.352 N 
ATOM      4  C   UNL     1       7.203  -0.922   1.076  1.00  0.00     0.253 C 
ATOM      5  O   UNL     1       8.183  -0.321   1.551  1.00  0.00    -0.269 OA
ATOM      6  H   UNL     1       6.335  -0.339   2.737  1.00  0.00     0.163 HD
BRANCH   4   7
ATOM      7  C   UNL     1       7.438  -1.683  -0.231  1.00  0.00     0.063 A 
ATOM      8  C   UNL     1       6.620  -2.374  -1.156  1.00  0.00     0.061 A 
ATOM      9  C   UNL     1       7.212  -2.972  -2.317  1.00  0.00     0.027 A 
ATOM     10  C   UNL     1       8.573  -2.969  -2.571  1.00  0.00     0.002 A 
ATOM     11  C   UNL     1       8.839  -1.717  -0.543  1.00  0.00     0.016 A 
ATOM     12  C   UNL     1       9.397  -2.344  -1.668  1.00  0.00     0.001 A 
BRANCH   8  13
ATOM     13  N   UNL     1       5.205  -2.598  -1.110  1.00  0.00    -0.284 N 
ATOM     14  O   UNL     1       0.759  -1.036  -0.941  1.00  0.00    -0.294 OA
ATOM     15  C   UNL     1       1.962  -0.777  -0.901  1.00  0.00     0.161 C 
ATOM     16  C   UNL     1       2.469   0.648  -0.817  1.00  0.00     0.081 C 
ATOM     17  C   UNL     1       2.961  -1.885  -0.892  1.00  0.00     0.023 C 
ATOM     18  C   UNL     1       3.638   0.859  -1.754  1.00  0.00     0.015 C 
ATOM     19  C   UNL     1       4.250  -1.577  -1.170  1.00  0.00     0.033 C 
ATOM     20  C   UNL     1       2.484  -3.330  -0.688  1.00  0.00     0.064 C 
ATOM     21  C   UNL     1       4.732  -0.188  -1.559  1.00  0.00     0.055 C 
ATOM     22  C   UNL     1       3.364  -4.191  -1.574  1.00  0.00     0.114 C 
ATOM     23  C   UNL     1       4.811  -3.960  -1.206  1.00  0.00     0.232 C 
ATOM     24  O   UNL     1       5.569  -4.925  -1.084  1.00  0.00    -0.274 OA
BRANCH  20  25
ATOM     25  C   UNL     1       2.447  -3.837   0.763  1.00  0.00    -0.039 A 
ATOM     26  C   UNL     1       3.265  -4.865   1.302  1.00  0.00     0.011 A 
ATOM     27  C   UNL     1       1.526  -3.261   1.625  1.00  0.00     0.011 A 
ATOM     28  C   UNL     1       3.296  -5.175   2.674  1.00  0.00     0.086 A 
ATOM     29  C   UNL     1       1.549  -3.588   2.980  1.00  0.00     0.086 A 
ATOM     30  C   UNL     1       2.467  -4.474   3.522  1.00  0.00     0.269 A 
BRANCH  30  31
ATOM     31  N   UNL     1       2.674  -4.488   4.972  1.00  0.00     0.062 N 
ATOM     32  O   UNL     1       3.095  -5.531   5.484  1.00  0.00    -0.258 OA
ATOM     33  O   UNL     1       2.498  -3.417   5.577  1.00  0.00    -0.258 OA
ENDBRANCH  30  31
ENDBRANCH  20  25
ENDBRANCH   8  13
ENDBRANCH   4   7
ENDBRANCH   2   3
ENDBRANCH   1   2
BRANCH   1  34
ATOM     34  C   UNL     1       2.813  -0.105   3.529  1.00  0.00     0.118 C 
BRANCH  34  35
ATOM     35  N   UNL     1       1.696   0.210   2.625  1.00  0.00    -0.352 N 
ATOM     36  C   UNL     1       0.321   0.009   2.589  1.00  0.00     0.251 C 
ATOM     37  H   UNL     1       2.007   0.695   1.827  1.00  0.00     0.163 HD
ATOM     38  O   UNL     1      -0.300   0.667   1.749  1.00  0.00    -0.269 OA
BRANCH  36  39
ATOM     39  C   UNL     1      -0.446  -0.984   3.402  1.00  0.00     0.039 A 
ATOM     40  C   UNL     1      -1.471  -1.740   2.783  1.00  0.00     0.014 A 
ATOM     41  C   UNL     1      -0.141  -1.280   4.720  1.00  0.00     0.014 A 
ATOM     42  C   UNL     1      -2.093  -2.840   3.434  1.00  0.00     0.010 A 
ATOM     43  C   UNL     1      -0.679  -2.443   5.313  1.00  0.00     0.010 A 
ATOM     44  C   UNL     1      -1.682  -3.247   4.710  1.00  0.00    -0.014 A 
BRANCH  44  45
ATOM     45  C   UNL     1      -2.319  -4.384   5.502  1.00  0.00     0.031 A 
ATOM     46  C   UNL     1      -2.654  -4.127   6.967  1.00  0.00     0.074 A 
ATOM     47  C   UNL     1      -2.541  -5.646   5.050  1.00  0.00     0.049 A 
ATOM     48  N   UNL     1      -2.914  -4.970   7.938  1.00  0.00    -0.248 NA
ATOM     49  C   UNL     1      -2.552  -2.730   7.416  1.00  0.00     0.031 C 
ATOM     50  C   UNL     1      -2.237  -6.167   3.716  1.00  0.00     0.029 A 
ATOM     51  N   UNL     1      -3.074  -6.749   5.701  1.00  0.00    -0.354 N 
ATOM     52  C   UNL     1      -2.881  -4.202   9.099  1.00  0.00     0.074 A 
ATOM     53  C   UNL     1      -2.381  -2.903   8.713  1.00  0.00     0.031 C 
ATOM     54  C   UNL     1      -2.612  -7.461   3.643  1.00  0.00     0.029 A 
ATOM     55  C   UNL     1      -3.165  -7.891   4.928  1.00  0.00     0.049 A 
ATOM     56  H   UNL     1      -3.365  -6.720   6.641  1.00  0.00     0.167 HD
ATOM     57  C   UNL     1      -3.324  -4.479  10.353  1.00  0.00     0.034 A 
ATOM     58  C   UNL     1      -3.641  -9.129   5.212  1.00  0.00     0.034 A 
ATOM     59  C   UNL     1      -3.961  -5.714  10.721  1.00  0.00     0.049 A 
ATOM     60  C   UNL     1      -4.201  -9.429   6.593  1.00  0.00     0.074 A 
ATOM     61  C   UNL     1      -4.538  -6.061  11.930  1.00  0.00     0.029 A 
ATOM     62  N   UNL     1      -4.137  -6.794   9.870  1.00  0.00    -0.354 N 
ATOM     63  N   UNL     1      -4.231  -8.667   7.663  1.00  0.00    -0.248 NA
ATOM     64  C   UNL     1      -4.817 -10.752   6.795  1.00  0.00     0.031 C 
ATOM     65  C   UNL     1      -5.026  -7.368  11.823  1.00  0.00     0.029 A 
ATOM     66  C   UNL     1      -4.818  -7.806  10.525  1.00  0.00     0.049 A 
ATOM     67  H   UNL     1      -3.824  -6.835   8.937  1.00  0.00     0.167 HD
ATOM     68  C   UNL     1      -4.918  -9.398   8.636  1.00  0.00     0.074 A 
ATOM     69  C   UNL     1      -5.287 -10.656   8.030  1.00  0.00     0.031 C 
ATOM     70  C   UNL     1      -5.221  -9.050   9.914  1.00  0.00     0.034 A 
BRANCH  57  71
ATOM     71  C   UNL     1      -3.175  -3.383  11.389  1.00  0.00     0.023 A 
ATOM     72  C   UNL     1      -3.731  -2.105  11.185  1.00  0.00     0.031 A 
ATOM     73  C   UNL     1      -2.393  -3.577  12.539  1.00  0.00     0.131 A 
ATOM     74  C   UNL     1      -3.362  -1.039  12.015  1.00  0.00     0.055 A 
ATOM     75  C   UNL     1      -2.140  -2.538  13.438  1.00  0.00     0.041 A 
ATOM     76  F   UNL     1      -1.833  -4.770  12.795  1.00  0.00    -0.206 F 
ATOM     77  C   UNL     1      -2.597  -1.251  13.161  1.00  0.00     0.022 A 
BRANCH  74  78
ATOM     78  S   UNL     1      -3.705   0.648  11.440  1.00  0.00     0.124 S 
ATOM     79  O   UNL     1      -2.951   0.689  10.188  1.00  0.00    -0.237 OA
ATOM     80  O   UNL     1      -5.157   0.650  11.308  1.00  0.00    -0.237 OA
ATOM     81  O   UNL     1      -3.171   1.489  12.508  1.00  0.00    -0.744 OA
ENDBRANCH  74  78
ENDBRANCH  57  71
BRANCH  58  82
ATOM     82  C   UNL     1      -3.656 -10.217   4.175  1.00  0.00     0.023 A 
ATOM     83  C   UNL     1      -4.869 -10.740   3.684  1.00  0.00     0.031 A 
ATOM     84  C   UNL     1      -2.466 -10.820   3.734  1.00  0.00     0.131 A 
ATOM     85  C   UNL     1      -4.867 -11.859   2.831  1.00  0.00     0.055 A 
ATOM     86  C   UNL     1      -2.466 -11.901   2.845  1.00  0.00     0.041 A 
ATOM     87  F   UNL     1      -1.278 -10.373   4.171  1.00  0.00    -0.206 F 
ATOM     88  C   UNL     1      -3.672 -12.435   2.399  1.00  0.00     0.022 A 
BRANCH  85  89
ATOM     89  S   UNL     1      -6.453 -12.611   2.361  1.00  0.00     0.124 S 
ATOM     90  O   UNL     1      -6.992 -13.004   3.657  1.00  0.00    -0.237 OA
ATOM     91  O   UNL     1      -7.128 -11.503   1.693  1.00  0.00    -0.237 OA
ATOM     92  O   UNL     1      -6.062 -13.714   1.485  1.00  0.00    -0.744 OA
ENDBRANCH  85  89
ENDBRANCH  58  82
BRANCH  70  93
ATOM     93  C   UNL     1      -6.086  -9.990  10.725  1.00  0.00     0.023 A 
ATOM     94  C   UNL     1      -5.659 -11.275  11.101  1.00  0.00     0.031 A 
ATOM     95  C   UNL     1      -7.367  -9.576  11.140  1.00  0.00     0.131 A 
ATOM     96  C   UNL     1      -6.524 -12.119  11.817  1.00  0.00     0.055 A 
ATOM     97  C   UNL     1      -8.196 -10.395  11.908  1.00  0.00     0.041 A 
ATOM     98  F   UNL     1      -7.832  -8.360  10.812  1.00  0.00    -0.206 F 
ATOM     99  C   UNL     1      -7.782 -11.681  12.238  1.00  0.00     0.022 A 
BRANCH  96 100
ATOM    100  S   UNL     1      -6.027 -13.842  12.100  1.00  0.00     0.124 S 
ATOM    101  O   UNL     1      -5.744 -14.304  10.745  1.00  0.00    -0.237 OA
ATOM    102  O   UNL     1      -4.871 -13.692  12.978  1.00  0.00    -0.237 OA
ATOM    103  O   UNL     1      -7.206 -14.440  12.725  1.00  0.00    -0.744 OA
ENDBRANCH  96 100
ENDBRANCH  70  93
ENDBRANCH  44  45
ENDBRANCH  36  39
ENDBRANCH  34  35
ENDBRANCH   1  34
TORSDOF 16
