REMARK SMILES COc1ccc(OCc2cccs2)c(C(=O)NCCCNC(=O)c2ccc(-c3c4nc(c(-c5cc(S(=O)(=O)[O-])ccc5F)c5ccc([nH]5)c(-c5cc(S(=O)(=O)[O-])ccc5F)c5nc(c(-c6cc(S(=O)(=O)[O-])ccc6F)c6ccc3[nH]6)C=C5)C=C4)cc2)c1
REMARK SMILES IDX 19 1 18 2 17 3 15 4 16 5 14 7 3 8 4 9 87 10 5 11 6 12 2 13
REMARK SMILES IDX 1 14 7 15 8 16 9 17 10 18 13 19 11 20 12 21 20 22 21 23
REMARK SMILES IDX 22 24 23 26 24 27 25 28 86 29 26 30 85 31 27 32 28 33 29 34
REMARK SMILES IDX 79 35 30 36 84 37 78 38 80 39 31 40 83 41 77 42 76 43 32 45
REMARK SMILES IDX 64 46 44 47 63 48 45 49 48 50 62 51 81 52 46 53 47 54 61 56
REMARK SMILES IDX 82 57 49 58 33 59 34 60 42 61 35 62 41 63 43 64 40 65 36 66
REMARK SMILES IDX 37 67 38 68 39 69 65 70 66 71 74 72 67 73 73 74 75 75 72 76
REMARK SMILES IDX 68 77 69 78 70 79 71 80 50 81 51 82 59 83 52 84 58 85 60 86
REMARK SMILES IDX 57 87 53 88 54 89 55 90 56 91
REMARK H PARENT 17 6 21 25 80 44 48 55
REMARK Flexibility Score: inf
ROOT
ATOM      1  C   UNL     1       5.168  -0.222   0.900  1.00  0.00     0.042 C 
ENDROOT
BRANCH   1   2
ATOM      2  C   UNL     1       4.594  -1.609   1.182  1.00  0.00     0.118 C 
BRANCH   2   3
ATOM      3  N   UNL     1       4.746  -1.907   2.598  1.00  0.00    -0.352 N 
ATOM      4  C   UNL     1       3.860  -1.871   3.644  1.00  0.00     0.255 C 
ATOM      5  O   UNL     1       4.309  -1.838   4.787  1.00  0.00    -0.269 OA
ATOM      6  H   UNL     1       5.655  -2.188   2.853  1.00  0.00     0.163 HD
BRANCH   4   7
ATOM      7  C   UNL     1       2.396  -1.918   3.440  1.00  0.00     0.085 A 
ATOM      8  C   UNL     1       0.424  -0.880   2.450  1.00  0.00     0.119 A 
ATOM      9  C   UNL     1      -0.390  -1.674   3.246  1.00  0.00     0.050 A 
ATOM     10  C   UNL     1       1.807  -0.948   2.605  1.00  0.00     0.064 A 
ATOM     11  C   UNL     1       0.183  -2.626   4.088  1.00  0.00     0.051 A 
ATOM     12  C   UNL     1       1.575  -2.812   4.148  1.00  0.00     0.132 A 
BRANCH   8  13
ATOM     13  O   UNL     1      -0.214  -0.017   1.602  1.00  0.00    -0.497 OA
ATOM     14  C   UNL     1       0.402   0.102   0.320  1.00  0.00     0.278 C 
ENDBRANCH   8  13
BRANCH  12  15
ATOM     15  O   UNL     1       1.887  -3.887   4.929  1.00  0.00    -0.487 OA
BRANCH  15  16
ATOM     16  C   UNL     1       3.106  -4.624   4.833  1.00  0.00     0.276 C 
BRANCH  16  17
ATOM     17  C   UNL     1       3.169  -5.459   3.581  1.00  0.00     0.042 A 
ATOM     18  C   UNL     1       3.260  -5.068   2.258  1.00  0.00     0.019 A 
ATOM     19  S   UNL     1       3.262  -7.172   3.709  1.00  0.00    -0.145 S 
ATOM     20  C   UNL     1       3.476  -6.155   1.366  1.00  0.00     0.012 A 
ATOM     21  C   UNL     1       3.505  -7.359   2.027  1.00  0.00     0.065 A 
ENDBRANCH  16  17
ENDBRANCH  15  16
ENDBRANCH  12  15
ENDBRANCH   4   7
ENDBRANCH   2   3
ENDBRANCH   1   2
BRANCH   1  22
ATOM     22  C   UNL     1       6.694  -0.223   0.916  1.00  0.00     0.118 C 
BRANCH  22  23
ATOM     23  N   UNL     1       7.236  -0.862  -0.276  1.00  0.00    -0.352 N 
ATOM     24  C   UNL     1       8.026  -0.317  -1.262  1.00  0.00     0.251 C 
ATOM     25  H   UNL     1       7.006  -1.812  -0.391  1.00  0.00     0.163 HD
ATOM     26  O   UNL     1       8.150  -0.899  -2.331  1.00  0.00    -0.269 OA
BRANCH  24  27
ATOM     27  C   UNL     1       8.702   0.975  -1.015  1.00  0.00     0.039 A 
ATOM     28  C   UNL     1       8.735   1.937  -2.026  1.00  0.00     0.014 A 
ATOM     29  C   UNL     1       9.302   1.230   0.221  1.00  0.00     0.014 A 
ATOM     30  C   UNL     1       9.331   3.175  -1.778  1.00  0.00     0.010 A 
ATOM     31  C   UNL     1       9.803   2.495   0.498  1.00  0.00     0.010 A 
ATOM     32  C   UNL     1       9.844   3.475  -0.505  1.00  0.00    -0.014 A 
BRANCH  32  33
ATOM     33  C   UNL     1      10.478   4.785  -0.208  1.00  0.00     0.031 A 
ATOM     34  C   UNL     1      11.925   4.830   0.208  1.00  0.00     0.074 A 
ATOM     35  C   UNL     1       9.743   5.914  -0.250  1.00  0.00     0.049 A 
ATOM     36  N   UNL     1      12.642   5.848   0.607  1.00  0.00    -0.248 NA
ATOM     37  C   UNL     1      12.648   3.549   0.217  1.00  0.00     0.031 C 
ATOM     38  C   UNL     1       8.322   5.986  -0.598  1.00  0.00     0.029 A 
ATOM     39  N   UNL     1      10.085   7.217   0.007  1.00  0.00    -0.354 N 
ATOM     40  C   UNL     1      13.890   5.326   0.934  1.00  0.00     0.074 A 
ATOM     41  C   UNL     1      13.803   3.893   0.762  1.00  0.00     0.031 C 
ATOM     42  C   UNL     1       7.925   7.268  -0.565  1.00  0.00     0.029 A 
ATOM     43  C   UNL     1       9.044   8.104  -0.144  1.00  0.00     0.049 A 
ATOM     44  H   UNL     1      10.991   7.492   0.276  1.00  0.00     0.167 HD
ATOM     45  C   UNL     1      15.014   5.984   1.311  1.00  0.00     0.034 A 
ATOM     46  C   UNL     1       8.998   9.438   0.044  1.00  0.00     0.034 A 
ATOM     47  C   UNL     1      15.083   7.417   1.453  1.00  0.00     0.049 A 
ATOM     48  C   UNL     1      10.256  10.149   0.478  1.00  0.00     0.074 A 
ATOM     49  C   UNL     1      16.176   8.200   1.779  1.00  0.00     0.029 A 
ATOM     50  N   UNL     1      14.011   8.284   1.279  1.00  0.00    -0.354 N 
ATOM     51  N   UNL     1      11.442   9.646   0.739  1.00  0.00    -0.248 NA
ATOM     52  C   UNL     1      10.173  11.606   0.630  1.00  0.00     0.031 C 
ATOM     53  C   UNL     1      15.751   9.529   1.870  1.00  0.00     0.029 A 
ATOM     54  C   UNL     1      14.411   9.590   1.517  1.00  0.00     0.049 A 
ATOM     55  H   UNL     1      13.100   8.011   1.025  1.00  0.00     0.167 HD
ATOM     56  C   UNL     1      12.255  10.734   1.048  1.00  0.00     0.074 A 
ATOM     57  C   UNL     1      11.426  11.916   0.928  1.00  0.00     0.031 C 
ATOM     58  C   UNL     1      13.568  10.756   1.394  1.00  0.00     0.034 A 
BRANCH  45  59
ATOM     59  C   UNL     1      16.240   5.152   1.612  1.00  0.00     0.023 A 
ATOM     60  C   UNL     1      16.836   4.335   0.634  1.00  0.00     0.031 A 
ATOM     61  C   UNL     1      16.797   5.142   2.902  1.00  0.00     0.131 A 
ATOM     62  C   UNL     1      17.891   3.479   0.983  1.00  0.00     0.055 A 
ATOM     63  C   UNL     1      17.908   4.356   3.219  1.00  0.00     0.041 A 
ATOM     64  F   UNL     1      16.261   5.882   3.885  1.00  0.00    -0.206 F 
ATOM     65  C   UNL     1      18.450   3.504   2.262  1.00  0.00     0.022 A 
BRANCH  62  66
ATOM     66  S   UNL     1      18.412   2.218  -0.213  1.00  0.00     0.124 S 
ATOM     67  O   UNL     1      17.172   1.471  -0.411  1.00  0.00    -0.237 OA
ATOM     68  O   UNL     1      18.861   3.022  -1.344  1.00  0.00    -0.237 OA
ATOM     69  O   UNL     1      19.464   1.490   0.492  1.00  0.00    -0.744 OA
ENDBRANCH  62  66
ENDBRANCH  45  59
BRANCH  46  70
ATOM     70  C   UNL     1       7.730  10.192  -0.175  1.00  0.00     0.023 A 
ATOM     71  C   UNL     1       7.635  11.168  -1.181  1.00  0.00     0.031 A 
ATOM     72  C   UNL     1       6.606   9.981   0.644  1.00  0.00     0.131 A 
ATOM     73  C   UNL     1       6.464  11.931  -1.308  1.00  0.00     0.055 A 
ATOM     74  C   UNL     1       5.423  10.703   0.475  1.00  0.00     0.041 A 
ATOM     75  F   UNL     1       6.639   9.056   1.616  1.00  0.00    -0.206 F 
ATOM     76  C   UNL     1       5.353  11.696  -0.496  1.00  0.00     0.022 A 
BRANCH  73  77
ATOM     77  S   UNL     1       6.448  13.304  -2.494  1.00  0.00     0.124 S 
ATOM     78  O   UNL     1       7.571  14.110  -2.029  1.00  0.00    -0.237 OA
ATOM     79  O   UNL     1       6.637  12.610  -3.763  1.00  0.00    -0.237 OA
ATOM     80  O   UNL     1       5.128  13.902  -2.304  1.00  0.00    -0.744 OA
ENDBRANCH  73  77
ENDBRANCH  46  70
BRANCH  58  81
ATOM     81  C   UNL     1      14.198  12.111   1.609  1.00  0.00     0.023 A 
ATOM     82  C   UNL     1      13.815  12.950   2.669  1.00  0.00     0.031 A 
ATOM     83  C   UNL     1      15.197  12.568   0.731  1.00  0.00     0.131 A 
ATOM     84  C   UNL     1      14.383  14.226   2.789  1.00  0.00     0.055 A 
ATOM     85  C   UNL     1      15.808  13.811   0.895  1.00  0.00     0.041 A 
ATOM     86  F   UNL     1      15.601  11.809  -0.301  1.00  0.00    -0.206 F 
ATOM     87  C   UNL     1      15.391  14.655   1.921  1.00  0.00     0.022 A 
BRANCH  84  88
ATOM     88  S   UNL     1      13.716  15.362   4.035  1.00  0.00     0.124 S 
ATOM     89  O   UNL     1      12.310  15.439   3.653  1.00  0.00    -0.237 OA
ATOM     90  O   UNL     1      14.001  14.660   5.282  1.00  0.00    -0.237 OA
ATOM     91  O   UNL     1      14.483  16.589   3.827  1.00  0.00    -0.744 OA
ENDBRANCH  84  88
ENDBRANCH  58  81
ENDBRANCH  32  33
ENDBRANCH  24  27
ENDBRANCH  22  23
ENDBRANCH   1  22
TORSDOF 17
