REMARK SMILES Nc1ccc(N2CC3(CCC3)C2)c(C(=O)NCCCNC(=O)c2ccc(-c3c4nc(c(-c5cc(S(=O)(=O)[O-])ccc5F)c5ccc([nH]5)c(-c5cc(S(=O)(=O)[O-])ccc5F)c5nc(c(-c6cc(S(=O)(=O)[O-])ccc6F)c6ccc3[nH]6)C=C5)C=C4)cc2)c1
REMARK SMILES IDX 19 1 18 2 17 3 16 4 14 5 15 6 13 8 2 9 3 10 86 11 4 12 5 13
REMARK SMILES IDX 1 14 6 17 7 18 12 19 8 20 9 21 11 22 10 23 20 24 21 25 22 27
REMARK SMILES IDX 23 28 24 29 85 30 25 31 84 32 26 33 27 34 28 35 78 36 29 37
REMARK SMILES IDX 83 38 77 39 79 40 30 41 82 42 76 43 75 44 31 46 63 47 43 48
REMARK SMILES IDX 62 49 44 50 47 51 61 52 80 53 45 54 46 55 60 57 81 58 48 59
REMARK SMILES IDX 32 60 33 61 41 62 34 63 40 64 42 65 39 66 35 67 36 68 37 69
REMARK SMILES IDX 38 70 64 71 65 72 73 73 66 74 72 75 74 76 71 77 67 78 68 79
REMARK SMILES IDX 69 80 70 81 49 82 50 83 58 84 51 85 57 86 59 87 56 88 52 89
REMARK SMILES IDX 53 90 54 91 55 92
REMARK H PARENT 16 7 1 15 1 16 20 26 79 45 47 56
REMARK Flexibility Score: inf
ROOT
ATOM      1  C   UNL     1       0.408   5.932  -1.073  1.00  0.00     0.118 C 
ENDROOT
BRANCH   1   2
ATOM      2  C   UNL     1       0.971   4.543  -0.764  1.00  0.00     0.042 C 
BRANCH   2   3
ATOM      3  C   UNL     1       0.379   3.934   0.506  1.00  0.00     0.118 C 
BRANCH   3   4
ATOM      4  N   UNL     1      -1.020   3.619   0.302  1.00  0.00    -0.352 N 
ATOM      5  C   UNL     1      -1.745   2.514  -0.057  1.00  0.00     0.253 C 
ATOM      6  O   UNL     1      -2.938   2.771  -0.199  1.00  0.00    -0.269 OA
ATOM      7  H   UNL     1      -1.597   4.400   0.462  1.00  0.00     0.163 HD
BRANCH   5   8
ATOM      8  C   UNL     1      -1.195   1.119  -0.190  1.00  0.00     0.065 A 
ATOM      9  C   UNL     1       0.802  -0.316  -0.182  1.00  0.00     0.032 A 
ATOM     10  C   UNL     1       0.001  -1.423   0.050  1.00  0.00     0.027 A 
ATOM     11  C   UNL     1       0.186   0.923  -0.371  1.00  0.00     0.041 A 
ATOM     12  C   UNL     1      -1.385  -1.281   0.114  1.00  0.00     0.029 A 
ATOM     13  C   UNL     1      -2.014  -0.026  -0.026  1.00  0.00     0.050 A 
BRANCH   9  14
ATOM     14  N   UNL     1       2.173  -0.447  -0.317  1.00  0.00    -0.399 N 
ATOM     15  H   UNL     1       2.599  -1.325  -0.183  1.00  0.00     0.156 HD
ATOM     16  H   UNL     1       2.722   0.336  -0.548  1.00  0.00     0.156 HD
ENDBRANCH   9  14
BRANCH  13  17
ATOM     17  N   UNL     1      -3.418  -0.046  -0.008  1.00  0.00    -0.370 N 
ATOM     18  C   UNL     1      -4.322  -0.404   1.046  1.00  0.00     0.125 C 
ATOM     19  C   UNL     1      -4.432   0.508  -0.856  1.00  0.00     0.125 C 
ATOM     20  C   UNL     1      -5.313   0.493   0.364  1.00  0.00     0.005 C 
ATOM     21  C   UNL     1      -6.764   0.122   0.218  1.00  0.00     0.011 C 
ATOM     22  C   UNL     1      -5.688   1.794   1.043  1.00  0.00     0.011 C 
ATOM     23  C   UNL     1      -7.069   1.639   0.364  1.00  0.00     0.001 C 
ENDBRANCH  13  17
ENDBRANCH   5   8
ENDBRANCH   3   4
ENDBRANCH   2   3
ENDBRANCH   1   2
BRANCH   1  24
ATOM     24  N   UNL     1       0.795   6.910  -0.063  1.00  0.00    -0.352 N 
ATOM     25  C   UNL     1       1.590   8.023  -0.184  1.00  0.00     0.251 C 
ATOM     26  H   UNL     1       0.433   6.748   0.838  1.00  0.00     0.163 HD
ATOM     27  O   UNL     1       2.030   8.568   0.822  1.00  0.00    -0.269 OA
BRANCH  25  28
ATOM     28  C   UNL     1       1.917   8.547  -1.526  1.00  0.00     0.039 A 
ATOM     29  C   UNL     1       3.228   8.940  -1.807  1.00  0.00     0.014 A 
ATOM     30  C   UNL     1       0.923   8.655  -2.503  1.00  0.00     0.014 A 
ATOM     31  C   UNL     1       3.557   9.374  -3.094  1.00  0.00     0.010 A 
ATOM     32  C   UNL     1       1.268   9.015  -3.801  1.00  0.00     0.010 A 
ATOM     33  C   UNL     1       2.589   9.376  -4.111  1.00  0.00    -0.014 A 
BRANCH  33  34
ATOM     34  C   UNL     1       2.925   9.744  -5.511  1.00  0.00     0.031 A 
ATOM     35  C   UNL     1       2.264  10.934  -6.151  1.00  0.00     0.074 A 
ATOM     36  C   UNL     1       3.752   8.957  -6.228  1.00  0.00     0.049 A 
ATOM     37  N   UNL     1       2.309  11.337  -7.394  1.00  0.00    -0.248 NA
ATOM     38  C   UNL     1       1.415  11.760  -5.279  1.00  0.00     0.031 C 
ATOM     39  C   UNL     1       4.431   7.763  -5.721  1.00  0.00     0.029 A 
ATOM     40  N   UNL     1       4.147   9.029  -7.541  1.00  0.00    -0.354 N 
ATOM     41  C   UNL     1       1.480  12.452  -7.460  1.00  0.00     0.074 A 
ATOM     42  C   UNL     1       0.902  12.623  -6.144  1.00  0.00     0.031 C 
ATOM     43  C   UNL     1       5.171   7.226  -6.705  1.00  0.00     0.029 A 
ATOM     44  C   UNL     1       4.972   7.998  -7.928  1.00  0.00     0.049 A 
ATOM     45  H   UNL     1       3.867   9.752  -8.148  1.00  0.00     0.167 HD
ATOM     46  C   UNL     1       1.240  13.267  -8.517  1.00  0.00     0.034 A 
ATOM     47  C   UNL     1       5.488   7.692  -9.136  1.00  0.00     0.034 A 
ATOM     48  C   UNL     1       1.833  13.081  -9.819  1.00  0.00     0.049 A 
ATOM     49  C   UNL     1       5.166   8.584 -10.309  1.00  0.00     0.074 A 
ATOM     50  C   UNL     1       1.700  13.873 -10.946  1.00  0.00     0.029 A 
ATOM     51  N   UNL     1       2.660  12.023 -10.174  1.00  0.00    -0.354 N 
ATOM     52  N   UNL     1       4.413   9.659 -10.347  1.00  0.00    -0.248 NA
ATOM     53  C   UNL     1       5.767   8.226 -11.601  1.00  0.00     0.031 C 
ATOM     54  C   UNL     1       2.379  13.254 -11.999  1.00  0.00     0.029 A 
ATOM     55  C   UNL     1       3.014  12.123 -11.510  1.00  0.00     0.049 A 
ATOM     56  H   UNL     1       2.953  11.307  -9.565  1.00  0.00     0.167 HD
ATOM     57  C   UNL     1       4.482  10.126 -11.657  1.00  0.00     0.074 A 
ATOM     58  C   UNL     1       5.355   9.220 -12.375  1.00  0.00     0.031 C 
ATOM     59  C   UNL     1       3.885  11.210 -12.214  1.00  0.00     0.034 A 
BRANCH  46  60
ATOM     60  C   UNL     1       0.273  14.409  -8.313  1.00  0.00     0.023 A 
ATOM     61  C   UNL     1       0.523  15.434  -7.383  1.00  0.00     0.031 A 
ATOM     62  C   UNL     1      -0.928  14.465  -9.043  1.00  0.00     0.131 A 
ATOM     63  C   UNL     1      -0.444  16.423  -7.152  1.00  0.00     0.055 A 
ATOM     64  C   UNL     1      -1.848  15.502  -8.871  1.00  0.00     0.041 A 
ATOM     65  F   UNL     1      -1.236  13.505  -9.928  1.00  0.00    -0.206 F 
ATOM     66  C   UNL     1      -1.616  16.481  -7.909  1.00  0.00     0.022 A 
BRANCH  63  67
ATOM     67  S   UNL     1      -0.216  17.542  -5.743  1.00  0.00     0.124 S 
ATOM     68  O   UNL     1      -0.133  16.599  -4.629  1.00  0.00    -0.237 OA
ATOM     69  O   UNL     1       1.019  18.235  -6.087  1.00  0.00    -0.237 OA
ATOM     70  O   UNL     1      -1.423  18.367  -5.761  1.00  0.00    -0.744 OA
ENDBRANCH  63  67
ENDBRANCH  46  60
BRANCH  47  71
ATOM     71  C   UNL     1       6.340   6.480  -9.310  1.00  0.00     0.023 A 
ATOM     72  C   UNL     1       7.683   6.591  -9.704  1.00  0.00     0.031 A 
ATOM     73  C   UNL     1       5.814   5.188  -9.127  1.00  0.00     0.131 A 
ATOM     74  C   UNL     1       8.438   5.434  -9.952  1.00  0.00     0.055 A 
ATOM     75  C   UNL     1       6.587   4.041  -9.315  1.00  0.00     0.041 A 
ATOM     76  F   UNL     1       4.536   5.022  -8.748  1.00  0.00    -0.206 F 
ATOM     77  C   UNL     1       7.905   4.160  -9.745  1.00  0.00     0.022 A 
BRANCH  74  78
ATOM     78  S   UNL     1      10.104   5.619 -10.646  1.00  0.00     0.124 S 
ATOM     79  O   UNL     1       9.833   6.358 -11.873  1.00  0.00    -0.237 OA
ATOM     80  O   UNL     1      10.792   6.354  -9.590  1.00  0.00    -0.237 OA
ATOM     81  O   UNL     1      10.549   4.239 -10.833  1.00  0.00    -0.744 OA
ENDBRANCH  74  78
ENDBRANCH  47  71
BRANCH  59  82
ATOM     82  C   UNL     1       4.205  11.513 -13.658  1.00  0.00     0.023 A 
ATOM     83  C   UNL     1       3.788  10.676 -14.707  1.00  0.00     0.031 A 
ATOM     84  C   UNL     1       4.925  12.677 -13.986  1.00  0.00     0.131 A 
ATOM     85  C   UNL     1       4.131  10.993 -16.030  1.00  0.00     0.055 A 
ATOM     86  C   UNL     1       5.208  13.019 -15.308  1.00  0.00     0.041 A 
ATOM     87  F   UNL     1       5.353  13.510 -13.023  1.00  0.00    -0.206 F 
ATOM     88  C   UNL     1       4.819  12.169 -16.339  1.00  0.00     0.022 A 
BRANCH  85  89
ATOM     89  S   UNL     1       3.731   9.808 -17.343  1.00  0.00     0.124 S 
ATOM     90  O   UNL     1       4.463   8.621 -16.914  1.00  0.00    -0.237 OA
ATOM     91  O   UNL     1       2.276   9.725 -17.259  1.00  0.00    -0.237 OA
ATOM     92  O   UNL     1       4.244  10.449 -18.553  1.00  0.00    -0.744 OA
ENDBRANCH  85  89
ENDBRANCH  59  82
ENDBRANCH  33  34
ENDBRANCH  25  28
ENDBRANCH   1  24
TORSDOF 15
