REMARK SMILES CC(C)n1c([C@H](O)CC(=O)NCCCNC(=O)c2ccc(-c3c4nc(c(-c5cc(S(=O)(=O)[O-])ccc5F)c5ccc([nH]5)c(-c5cc(S(=O)(=O)[O-])ccc5F)c5nc(c(-c6cc(S(=O)(=O)[O-])ccc6F)c6ccc3[nH]6)C=C5)C=C4)cc2)nc2cc(Cl)ccc21
REMARK SMILES IDX 13 1 12 2 11 3 9 4 10 5 8 7 6 8 5 9 4 10 88 11 81 12 82 13
REMARK SMILES IDX 87 14 83 15 86 16 84 17 85 18 2 19 1 20 3 21 7 22 14 24
REMARK SMILES IDX 15 25 16 26 17 28 18 29 19 30 80 31 20 32 79 33 21 34 22 35
REMARK SMILES IDX 23 36 73 37 24 38 78 39 72 40 74 41 25 42 77 43 71 44 70 45
REMARK SMILES IDX 26 47 58 48 38 49 57 50 39 51 42 52 56 53 75 54 40 55 41 56
REMARK SMILES IDX 55 58 76 59 43 60 27 61 28 62 36 63 29 64 35 65 37 66 34 67
REMARK SMILES IDX 30 68 31 69 32 70 33 71 59 72 60 73 68 74 61 75 67 76 69 77
REMARK SMILES IDX 66 78 62 79 63 80 64 81 65 82 44 83 45 84 53 85 46 86 52 87
REMARK SMILES IDX 54 88 51 89 47 90 48 91 49 92 50 93
REMARK H PARENT 11 6 7 23 15 27 74 46 42 57
REMARK Flexibility Score: inf
ROOT
ATOM      1  C   UNL     1      -1.839   3.103   1.325  1.00  0.00     0.042 C 
ENDROOT
BRANCH   1   2
ATOM      2  C   UNL     1      -2.507   3.211  -0.048  1.00  0.00     0.117 C 
BRANCH   2   3
ATOM      3  N   UNL     1      -1.559   3.699  -1.038  1.00  0.00    -0.356 N 
ATOM      4  C   UNL     1      -0.776   2.960  -1.872  1.00  0.00     0.223 C 
ATOM      5  O   UNL     1       0.284   3.431  -2.285  1.00  0.00    -0.275 OA
ATOM      6  H   UNL     1      -1.473   4.676  -1.113  1.00  0.00     0.163 HD
BRANCH   4   7
ATOM      7  C   UNL     1      -1.345   1.694  -2.439  1.00  0.00     0.140 C 
BRANCH   7   8
ATOM      8  C   UNL     1      -0.953   0.362  -1.847  1.00  0.00     0.190 C 
BRANCH   8   9
ATOM      9  C   UNL     1      -1.968  -0.727  -2.167  1.00  0.00     0.139 A 
ATOM     10  N   UNL     1      -2.681  -0.926  -3.348  1.00  0.00    -0.323 N 
ATOM     11  C   UNL     1      -3.666  -1.870  -3.078  1.00  0.00     0.069 A 
ATOM     12  N   UNL     1      -2.308  -1.650  -1.278  1.00  0.00    -0.230 NA
ATOM     13  C   UNL     1      -3.364  -2.343  -1.808  1.00  0.00     0.090 A 
ATOM     14  C   UNL     1      -4.739  -2.372  -3.831  1.00  0.00     0.030 A 
ATOM     15  C   UNL     1      -4.120  -3.390  -1.257  1.00  0.00     0.051 A 
ATOM     16  C   UNL     1      -5.496  -3.401  -3.266  1.00  0.00     0.023 A 
ATOM     17  C   UNL     1      -5.183  -3.906  -2.005  1.00  0.00     0.043 A 
ATOM     18  Cl  UNL     1      -6.134  -5.193  -1.366  1.00  0.00    -0.084 Cl
BRANCH  10  19
ATOM     19  C   UNL     1      -2.416  -0.475  -4.717  1.00  0.00     0.083 C 
ATOM     20  C   UNL     1      -2.827   0.958  -5.069  1.00  0.00     0.031 C 
ATOM     21  C   UNL     1      -1.018  -0.852  -5.202  1.00  0.00     0.031 C 
ENDBRANCH  10  19
ENDBRANCH   8   9
BRANCH   8  22
ATOM     22  O   UNL     1      -0.892   0.469  -0.424  1.00  0.00    -0.385 OA
ATOM     23  H   UNL     1      -1.768   0.705  -0.079  1.00  0.00     0.211 HD
ENDBRANCH   8  22
ENDBRANCH   7   8
ENDBRANCH   4   7
ENDBRANCH   2   3
ENDBRANCH   1   2
BRANCH   1  24
ATOM     24  C   UNL     1      -1.092   4.375   1.737  1.00  0.00     0.118 C 
BRANCH  24  25
ATOM     25  N   UNL     1      -1.946   5.532   1.902  1.00  0.00    -0.352 N 
ATOM     26  C   UNL     1      -2.753   5.969   2.917  1.00  0.00     0.251 C 
ATOM     27  H   UNL     1      -1.947   6.130   1.120  1.00  0.00     0.163 HD
ATOM     28  O   UNL     1      -3.284   7.069   2.750  1.00  0.00    -0.269 OA
BRANCH  26  29
ATOM     29  C   UNL     1      -3.075   5.176   4.135  1.00  0.00     0.039 A 
ATOM     30  C   UNL     1      -2.448   3.990   4.520  1.00  0.00     0.014 A 
ATOM     31  C   UNL     1      -4.146   5.651   4.911  1.00  0.00     0.014 A 
ATOM     32  C   UNL     1      -2.964   3.216   5.548  1.00  0.00     0.010 A 
ATOM     33  C   UNL     1      -4.638   4.905   5.973  1.00  0.00     0.010 A 
ATOM     34  C   UNL     1      -4.088   3.653   6.240  1.00  0.00    -0.014 A 
BRANCH  34  35
ATOM     35  C   UNL     1      -4.638   2.765   7.258  1.00  0.00     0.031 A 
ATOM     36  C   UNL     1      -3.766   2.499   8.445  1.00  0.00     0.074 A 
ATOM     37  C   UNL     1      -5.908   2.325   7.178  1.00  0.00     0.049 A 
ATOM     38  N   UNL     1      -3.403   1.370   8.969  1.00  0.00    -0.248 NA
ATOM     39  C   UNL     1      -3.149   3.674   9.080  1.00  0.00     0.031 C 
ATOM     40  C   UNL     1      -6.958   2.764   6.250  1.00  0.00     0.029 A 
ATOM     41  N   UNL     1      -6.569   1.477   8.008  1.00  0.00    -0.354 N 
ATOM     42  C   UNL     1      -2.633   1.691  10.094  1.00  0.00     0.074 A 
ATOM     43  C   UNL     1      -2.419   3.115  10.043  1.00  0.00     0.031 C 
ATOM     44  C   UNL     1      -8.161   2.385   6.733  1.00  0.00     0.029 A 
ATOM     45  C   UNL     1      -7.948   1.547   7.900  1.00  0.00     0.049 A 
ATOM     46  H   UNL     1      -6.110   0.868   8.631  1.00  0.00     0.167 HD
ATOM     47  C   UNL     1      -2.327   0.794  11.077  1.00  0.00     0.034 A 
ATOM     48  C   UNL     1      -8.851   1.039   8.770  1.00  0.00     0.034 A 
ATOM     49  C   UNL     1      -2.512  -0.558  10.639  1.00  0.00     0.049 A 
ATOM     50  C   UNL     1      -8.159   0.052   9.632  1.00  0.00     0.074 A 
ATOM     51  C   UNL     1      -1.871  -1.386   9.742  1.00  0.00     0.029 A 
ATOM     52  N   UNL     1      -3.693  -1.182  10.950  1.00  0.00    -0.354 N 
ATOM     53  N   UNL     1      -7.698  -1.096   9.220  1.00  0.00    -0.248 NA
ATOM     54  C   UNL     1      -7.606   0.534  10.888  1.00  0.00     0.031 C 
ATOM     55  C   UNL     1      -2.897  -2.216   9.210  1.00  0.00     0.029 A 
ATOM     56  C   UNL     1      -4.098  -1.867   9.835  1.00  0.00     0.049 A 
ATOM     57  H   UNL     1      -4.162  -1.144  11.815  1.00  0.00     0.167 HD
ATOM     58  C   UNL     1      -6.515  -1.276   9.925  1.00  0.00     0.074 A 
ATOM     59  C   UNL     1      -6.569  -0.297  11.008  1.00  0.00     0.031 C 
ATOM     60  C   UNL     1      -5.480  -2.009   9.416  1.00  0.00     0.034 A 
BRANCH  47  61
ATOM     61  C   UNL     1      -2.080   1.154  12.525  1.00  0.00     0.023 A 
ATOM     62  C   UNL     1      -2.394   2.418  13.058  1.00  0.00     0.031 A 
ATOM     63  C   UNL     1      -1.723   0.166  13.469  1.00  0.00     0.131 A 
ATOM     64  C   UNL     1      -2.325   2.679  14.434  1.00  0.00     0.055 A 
ATOM     65  C   UNL     1      -1.718   0.407  14.851  1.00  0.00     0.041 A 
ATOM     66  F   UNL     1      -1.418  -1.083  13.085  1.00  0.00    -0.206 F 
ATOM     67  C   UNL     1      -2.018   1.671  15.341  1.00  0.00     0.022 A 
BRANCH  64  68
ATOM     68  S   UNL     1      -2.640   4.351  15.065  1.00  0.00     0.124 S 
ATOM     69  O   UNL     1      -3.845   4.149  15.862  1.00  0.00    -0.237 OA
ATOM     70  O   UNL     1      -1.419   4.619  15.822  1.00  0.00    -0.237 OA
ATOM     71  O   UNL     1      -2.801   5.148  13.853  1.00  0.00    -0.744 OA
ENDBRANCH  64  68
ENDBRANCH  47  61
BRANCH  48  72
ATOM     72  C   UNL     1     -10.098   1.714   9.194  1.00  0.00     0.023 A 
ATOM     73  C   UNL     1     -10.129   3.120   9.297  1.00  0.00     0.031 A 
ATOM     74  C   UNL     1     -11.159   0.997   9.764  1.00  0.00     0.131 A 
ATOM     75  C   UNL     1     -11.173   3.760   9.976  1.00  0.00     0.055 A 
ATOM     76  C   UNL     1     -12.209   1.640  10.430  1.00  0.00     0.041 A 
ATOM     77  F   UNL     1     -11.166  -0.344   9.732  1.00  0.00    -0.206 F 
ATOM     78  C   UNL     1     -12.213   3.028  10.548  1.00  0.00     0.022 A 
BRANCH  75  79
ATOM     79  S   UNL     1     -11.162   5.561  10.195  1.00  0.00     0.124 S 
ATOM     80  O   UNL     1     -12.513   5.930   9.778  1.00  0.00    -0.237 OA
ATOM     81  O   UNL     1     -10.890   5.685  11.623  1.00  0.00    -0.237 OA
ATOM     82  O   UNL     1     -10.097   6.009   9.303  1.00  0.00    -0.744 OA
ENDBRANCH  75  79
ENDBRANCH  48  72
BRANCH  60  83
ATOM     83  C   UNL     1      -5.701  -2.816   8.152  1.00  0.00     0.023 A 
ATOM     84  C   UNL     1      -5.267  -4.153   8.146  1.00  0.00     0.031 A 
ATOM     85  C   UNL     1      -6.071  -2.250   6.916  1.00  0.00     0.131 A 
ATOM     86  C   UNL     1      -5.161  -4.859   6.940  1.00  0.00     0.055 A 
ATOM     87  C   UNL     1      -6.033  -2.981   5.724  1.00  0.00     0.041 A 
ATOM     88  F   UNL     1      -6.385  -0.954   6.806  1.00  0.00    -0.206 F 
ATOM     89  C   UNL     1      -5.558  -4.287   5.729  1.00  0.00     0.022 A 
BRANCH  86  90
ATOM     90  S   UNL     1      -4.341  -6.474   6.897  1.00  0.00     0.124 S 
ATOM     91  O   UNL     1      -5.419  -7.354   6.442  1.00  0.00    -0.237 OA
ATOM     92  O   UNL     1      -3.270  -6.250   5.922  1.00  0.00    -0.237 OA
ATOM     93  O   UNL     1      -3.897  -6.686   8.263  1.00  0.00    -0.744 OA
ENDBRANCH  86  90
ENDBRANCH  60  83
ENDBRANCH  34  35
ENDBRANCH  26  29
ENDBRANCH  24  25
ENDBRANCH   1  24
TORSDOF 17
