REMARK SMILES COc1ccc(/C=N/NC(=O)c2cc(C)nn2C)c(C(=O)NCCCNC(=O)c2ccc(-c3c4nc(c(-c5cc(S(=O)(=O)[O-])ccc5F)c5ccc([nH]5)c(-c5cc(S(=O)(=O)[O-])ccc5F)c5nc(c(-c6cc(S(=O)(=O)[O-])ccc6F)c6ccc3[nH]6)C=C5)C=C4)cc2)c1OC
REMARK SMILES IDX 24 1 23 2 22 3 20 4 21 5 19 7 3 8 4 9 92 10 5 11 6 12 2 13
REMARK SMILES IDX 1 14 93 15 94 16 7 17 8 18 9 19 10 20 11 22 12 23 13 24
REMARK SMILES IDX 17 25 14 26 16 27 18 28 15 29 25 30 26 31 27 32 28 34 29 35
REMARK SMILES IDX 30 36 91 37 31 38 90 39 32 40 33 41 34 42 84 43 35 44 89 45
REMARK SMILES IDX 83 46 85 47 36 48 88 49 82 50 81 51 37 53 69 54 49 55 68 56
REMARK SMILES IDX 50 57 53 58 67 59 86 60 51 61 52 62 66 64 87 65 54 66 38 67
REMARK SMILES IDX 39 68 47 69 40 70 46 71 48 72 45 73 41 74 42 75 43 76 44 77
REMARK SMILES IDX 70 78 71 79 79 80 72 81 78 82 80 83 77 84 73 85 74 86 75 87
REMARK SMILES IDX 76 88 55 89 56 90 64 91 57 92 63 93 65 94 62 95 58 96 59 97
REMARK SMILES IDX 60 98 61 99
REMARK H PARENT 22 6 9 21 26 33 85 52 53 63
REMARK Flexibility Score: inf
ROOT
ATOM      1  C   UNL     1       5.793   1.976  -0.204  1.00  0.00     0.042 C 
ENDROOT
BRANCH   1   2
ATOM      2  C   UNL     1       4.575   1.703   0.664  1.00  0.00     0.118 C 
BRANCH   2   3
ATOM      3  N   UNL     1       4.498   2.366   1.952  1.00  0.00    -0.352 N 
ATOM      4  C   UNL     1       3.357   2.653   2.682  1.00  0.00     0.255 C 
ATOM      5  O   UNL     1       3.442   2.846   3.893  1.00  0.00    -0.269 OA
ATOM      6  H   UNL     1       5.354   2.642   2.353  1.00  0.00     0.163 HD
BRANCH   4   7
ATOM      7  C   UNL     1       2.058   2.875   2.000  1.00  0.00     0.094 A 
ATOM      8  C   UNL     1       0.215   2.124   0.586  1.00  0.00     0.161 A 
ATOM      9  C   UNL     1      -0.198   3.464   0.496  1.00  0.00     0.051 A 
ATOM     10  C   UNL     1       1.351   1.812   1.357  1.00  0.00     0.174 A 
ATOM     11  C   UNL     1       0.425   4.477   1.213  1.00  0.00     0.015 A 
ATOM     12  C   UNL     1       1.543   4.190   1.994  1.00  0.00     0.011 A 
BRANCH   8  13
ATOM     13  O   UNL     1      -0.655   1.355  -0.127  1.00  0.00    -0.493 OA
ATOM     14  C   UNL     1      -0.686  -0.049  -0.045  1.00  0.00     0.278 C 
ENDBRANCH   8  13
BRANCH  10  15
ATOM     15  O   UNL     1       1.699   0.539   1.739  1.00  0.00    -0.492 OA
ATOM     16  C   UNL     1       2.166  -0.351   0.730  1.00  0.00     0.278 C 
ENDBRANCH  10  15
BRANCH  12  17
ATOM     17  C   UNL     1       2.026   5.288   2.886  1.00  0.00     0.142 C 
ATOM     18  N   UNL     1       1.636   6.511   2.684  1.00  0.00    -0.180 NA
BRANCH  18  19
ATOM     19  N   UNL     1       1.962   7.503   3.567  1.00  0.00    -0.242 N 
ATOM     20  C   UNL     1       3.054   7.707   4.392  1.00  0.00     0.289 C 
ATOM     21  H   UNL     1       1.284   8.214   3.627  1.00  0.00     0.194 HD
ATOM     22  O   UNL     1       2.951   8.567   5.269  1.00  0.00    -0.266 OA
BRANCH  20  23
ATOM     23  C   UNL     1       4.272   6.975   4.168  1.00  0.00     0.127 A 
ATOM     24  C   UNL     1       4.865   6.590   2.977  1.00  0.00     0.059 A 
ATOM     25  N   UNL     1       5.136   6.546   5.145  1.00  0.00    -0.263 N 
ATOM     26  C   UNL     1       6.023   5.878   3.339  1.00  0.00     0.060 A 
ATOM     27  N   UNL     1       6.197   5.865   4.663  1.00  0.00    -0.178 NA
ATOM     28  C   UNL     1       4.996   6.643   6.579  1.00  0.00     0.174 C 
ATOM     29  C   UNL     1       6.985   5.189   2.451  1.00  0.00     0.069 C 
ENDBRANCH  20  23
ENDBRANCH  18  19
ENDBRANCH  12  17
ENDBRANCH   4   7
ENDBRANCH   2   3
ENDBRANCH   1   2
BRANCH   1  30
ATOM     30  C   UNL     1       7.144   1.646   0.419  1.00  0.00     0.118 C 
BRANCH  30  31
ATOM     31  N   UNL     1       7.280   0.275   0.893  1.00  0.00    -0.352 N 
ATOM     32  C   UNL     1       7.868  -0.861   0.387  1.00  0.00     0.251 C 
ATOM     33  H   UNL     1       6.856   0.129   1.769  1.00  0.00     0.163 HD
ATOM     34  O   UNL     1       7.726  -1.904   1.027  1.00  0.00    -0.269 OA
BRANCH  32  35
ATOM     35  C   UNL     1       8.604  -0.900  -0.903  1.00  0.00     0.039 A 
ATOM     36  C   UNL     1       8.573  -2.088  -1.649  1.00  0.00     0.014 A 
ATOM     37  C   UNL     1       9.360   0.166  -1.383  1.00  0.00     0.014 A 
ATOM     38  C   UNL     1       9.207  -2.167  -2.896  1.00  0.00     0.010 A 
ATOM     39  C   UNL     1       9.899   0.127  -2.671  1.00  0.00     0.010 A 
ATOM     40  C   UNL     1       9.827  -1.038  -3.449  1.00  0.00    -0.014 A 
BRANCH  40  41
ATOM     41  C   UNL     1      10.403  -1.042  -4.825  1.00  0.00     0.031 A 
ATOM     42  C   UNL     1      11.855  -0.698  -5.044  1.00  0.00     0.074 A 
ATOM     43  C   UNL     1       9.601  -1.256  -5.889  1.00  0.00     0.049 A 
ATOM     44  N   UNL     1      12.498  -0.477  -6.162  1.00  0.00    -0.248 NA
ATOM     45  C   UNL     1      12.681  -0.539  -3.837  1.00  0.00     0.031 C 
ATOM     46  C   UNL     1       8.168  -1.555  -5.824  1.00  0.00     0.029 A 
ATOM     47  N   UNL     1       9.870  -1.235  -7.236  1.00  0.00    -0.354 N 
ATOM     48  C   UNL     1      13.791  -0.113  -5.794  1.00  0.00     0.074 A 
ATOM     49  C   UNL     1      13.818  -0.091  -4.346  1.00  0.00     0.031 C 
ATOM     50  C   UNL     1       7.693  -1.711  -7.070  1.00  0.00     0.029 A 
ATOM     51  C   UNL     1       8.768  -1.470  -8.026  1.00  0.00     0.049 A 
ATOM     52  H   UNL     1      10.769  -1.068  -7.603  1.00  0.00     0.167 HD
ATOM     53  C   UNL     1      14.860   0.157  -6.586  1.00  0.00     0.034 A 
ATOM     54  C   UNL     1       8.628  -1.471  -9.366  1.00  0.00     0.034 A 
ATOM     55  C   UNL     1      14.830   0.088  -8.027  1.00  0.00     0.049 A 
ATOM     56  C   UNL     1       9.831  -1.183 -10.227  1.00  0.00     0.074 A 
ATOM     57  C   UNL     1      15.871   0.271  -8.922  1.00  0.00     0.029 A 
ATOM     58  N   UNL     1      13.700  -0.187  -8.787  1.00  0.00    -0.354 N 
ATOM     59  N   UNL     1      11.053  -0.874  -9.861  1.00  0.00    -0.248 NA
ATOM     60  C   UNL     1       9.636  -1.252 -11.681  1.00  0.00     0.031 C 
ATOM     61  C   UNL     1      15.360   0.162 -10.221  1.00  0.00     0.029 A 
ATOM     62  C   UNL     1      14.014  -0.157 -10.138  1.00  0.00     0.049 A 
ATOM     63  H   UNL     1      12.806  -0.375  -8.421  1.00  0.00     0.167 HD
ATOM     64  C   UNL     1      11.778  -0.741 -11.041  1.00  0.00     0.074 A 
ATOM     65  C   UNL     1      10.861  -1.015 -12.127  1.00  0.00     0.031 C 
ATOM     66  C   UNL     1      13.087  -0.424 -11.211  1.00  0.00     0.034 A 
BRANCH  53  67
ATOM     67  C   UNL     1      16.144   0.569  -5.903  1.00  0.00     0.023 A 
ATOM     68  C   UNL     1      16.820  -0.290  -5.019  1.00  0.00     0.031 A 
ATOM     69  C   UNL     1      16.682   1.852  -6.109  1.00  0.00     0.131 A 
ATOM     70  C   UNL     1      17.937   0.173  -4.307  1.00  0.00     0.055 A 
ATOM     71  C   UNL     1      17.846   2.276  -5.464  1.00  0.00     0.041 A 
ATOM     72  F   UNL     1      16.075   2.725  -6.929  1.00  0.00    -0.206 F 
ATOM     73  C   UNL     1      18.470   1.442  -4.542  1.00  0.00     0.022 A 
BRANCH  70  74
ATOM     74  S   UNL     1      18.581  -0.849  -2.954  1.00  0.00     0.124 S 
ATOM     75  O   UNL     1      17.412  -0.955  -2.084  1.00  0.00    -0.237 OA
ATOM     76  O   UNL     1      18.977  -2.071  -3.644  1.00  0.00    -0.237 OA
ATOM     77  O   UNL     1      19.680  -0.051  -2.415  1.00  0.00    -0.744 OA
ENDBRANCH  70  74
ENDBRANCH  53  67
BRANCH  54  78
ATOM     78  C   UNL     1       7.299  -1.742  -9.986  1.00  0.00     0.023 A 
ATOM     79  C   UNL     1       7.083  -2.901 -10.747  1.00  0.00     0.031 A 
ATOM     80  C   UNL     1       6.236  -0.831  -9.852  1.00  0.00     0.131 A 
ATOM     81  C   UNL     1       5.848  -3.099 -11.383  1.00  0.00     0.055 A 
ATOM     82  C   UNL     1       4.994  -1.057 -10.446  1.00  0.00     0.041 A 
ATOM     83  F   UNL     1       6.388   0.288  -9.125  1.00  0.00    -0.206 F 
ATOM     84  C   UNL     1       4.798  -2.191 -11.228  1.00  0.00     0.022 A 
BRANCH  81  85
ATOM     85  S   UNL     1       5.656  -4.532 -12.478  1.00  0.00     0.124 S 
ATOM     86  O   UNL     1       6.712  -4.302 -13.457  1.00  0.00    -0.237 OA
ATOM     87  O   UNL     1       5.865  -5.645 -11.558  1.00  0.00    -0.237 OA
ATOM     88  O   UNL     1       4.292  -4.393 -12.984  1.00  0.00    -0.744 OA
ENDBRANCH  81  85
ENDBRANCH  54  78
BRANCH  66  89
ATOM     89  C   UNL     1      13.608  -0.406 -12.627  1.00  0.00     0.023 A 
ATOM     90  C   UNL     1      13.197   0.566 -13.555  1.00  0.00     0.031 A 
ATOM     91  C   UNL     1      14.520  -1.388 -13.054  1.00  0.00     0.131 A 
ATOM     92  C   UNL     1      13.657   0.505 -14.879  1.00  0.00     0.055 A 
ATOM     93  C   UNL     1      15.017  -1.410 -14.358  1.00  0.00     0.041 A 
ATOM     94  F   UNL     1      14.944  -2.341 -12.209  1.00  0.00    -0.206 F 
ATOM     95  C   UNL     1      14.576  -0.467 -15.282  1.00  0.00     0.022 A 
BRANCH  92  96
ATOM     96  S   UNL     1      12.973   1.667 -16.093  1.00  0.00     0.124 S 
ATOM     97  O   UNL     1      11.548   1.360 -16.038  1.00  0.00    -0.237 OA
ATOM     98  O   UNL     1      13.368   2.960 -15.545  1.00  0.00    -0.237 OA
ATOM     99  O   UNL     1      13.640   1.293 -17.339  1.00  0.00    -0.744 OA
ENDBRANCH  92  96
ENDBRANCH  66  89
ENDBRANCH  40  41
ENDBRANCH  32  35
ENDBRANCH  30  31
ENDBRANCH   1  30
TORSDOF 18
