REMARK SMILES CO[C@@H]1C[NH2+][C@@H](O[C@@H]2C[C@@H](C(=O)NCCCNC(=O)c3ccc(-c4c5nc(c(-c6cc(S(=O)(=O)[O-])ccc6F)c6ccc([nH]6)c(-c6cc(S(=O)(=O)[O-])ccc6F)c6nc(c(-c7cc(S(=O)(=O)[O-])ccc7F)c7ccc4[nH]7)C=C6)C=C5)cc3)N(C(=O)OC(C)(C)C)C2)c2cc(Cl)ccc21
REMARK SMILES IDX 15 1 14 2 13 3 11 4 12 5 10 7 8 8 9 9 91 10 83 11 7 12 6 13
REMARK SMILES IDX 3 14 4 15 98 16 5 17 92 18 97 19 93 22 96 23 94 24 95 25
REMARK SMILES IDX 2 26 1 27 84 28 85 29 86 30 87 31 88 32 89 33 90 34 16 35
REMARK SMILES IDX 17 36 18 37 19 39 20 40 21 41 82 42 22 43 81 44 23 45 24 46
REMARK SMILES IDX 25 47 75 48 26 49 80 50 74 51 76 52 27 53 79 54 73 55 72 56
REMARK SMILES IDX 28 58 60 59 40 60 59 61 41 62 44 63 58 64 77 65 42 66 43 67
REMARK SMILES IDX 57 69 78 70 45 71 29 72 30 73 38 74 31 75 37 76 39 77 36 78
REMARK SMILES IDX 32 79 33 80 34 81 35 82 61 83 62 84 70 85 63 86 69 87 71 88
REMARK SMILES IDX 68 89 64 90 65 91 66 92 67 93 46 94 47 95 55 96 48 97 54 98
REMARK SMILES IDX 56 99 53 100 49 101 50 102 51 103 52 104
REMARK H PARENT 13 6 5 20 5 21 17 38 76 57 44 68
REMARK Flexibility Score: inf
ROOT
ATOM      1  C   UNL     1      -2.295  -2.283   2.661  1.00  0.00     0.042 C 
ENDROOT
BRANCH   1   2
ATOM      2  C   UNL     1      -1.000  -1.534   3.132  1.00  0.00     0.117 C 
BRANCH   2   3
ATOM      3  N   UNL     1       0.026  -2.210   3.992  1.00  0.00    -0.354 N 
ATOM      4  C   UNL     1       1.399  -2.478   3.948  1.00  0.00     0.243 C 
ATOM      5  O   UNL     1       1.954  -2.632   5.043  1.00  0.00    -0.273 OA
ATOM      6  H   UNL     1      -0.379  -2.564   4.817  1.00  0.00     0.163 HD
BRANCH   4   7
ATOM      7  C   UNL     1       2.241  -2.585   2.623  1.00  0.00     0.180 C 
ATOM      8  C   UNL     1       3.829  -3.722   1.117  1.00  0.00     0.147 C 
ATOM      9  C   UNL     1       2.869  -3.962   2.309  1.00  0.00     0.069 C 
ATOM     10  C   UNL     1       4.326  -2.295   1.390  1.00  0.00     0.156 C 
ATOM     11  N   UNL     1       3.347  -1.677   2.287  1.00  0.00    -0.293 N 
BRANCH   8  12
ATOM     12  O   UNL     1       3.613  -4.030  -0.266  1.00  0.00    -0.320 OA
BRANCH  12  13
ATOM     13  C   UNL     1       2.466  -4.034  -1.119  1.00  0.00     0.354 C 
ATOM     14  C   UNL     1       0.481  -2.132  -0.152  1.00  0.00     0.203 C 
ATOM     15  C   UNL     1       1.717  -1.745  -1.020  1.00  0.00     0.300 C 
ATOM     16  C   UNL     1       0.384  -3.651   0.157  1.00  0.00    -0.002 A 
ATOM     17  N   UNL     1       2.274  -2.797  -1.849  1.00  0.00    -0.315 N 
ATOM     18  C   UNL     1       1.199  -4.555  -0.514  1.00  0.00     0.046 A 
ATOM     19  C   UNL     1      -0.245  -4.236   1.261  1.00  0.00     0.009 A 
ATOM     20  H   UNL     1       3.176  -2.486  -2.209  1.00  0.00     0.349 HD
ATOM     21  H   UNL     1       1.612  -2.981  -2.603  1.00  0.00     0.349 HD
ATOM     22  C   UNL     1       1.000  -5.955  -0.415  1.00  0.00     0.033 A 
ATOM     23  C   UNL     1      -0.371  -5.615   1.484  1.00  0.00     0.021 A 
ATOM     24  C   UNL     1       0.177  -6.480   0.569  1.00  0.00     0.041 A 
ATOM     25  Cl  UNL     1       0.012  -8.173   0.777  1.00  0.00    -0.084 Cl
BRANCH  14  26
ATOM     26  O   UNL     1      -0.731  -1.496  -0.592  1.00  0.00    -0.371 OA
ATOM     27  C   UNL     1      -0.635  -0.058  -0.502  1.00  0.00     0.196 C 
ENDBRANCH  14  26
ENDBRANCH  12  13
ENDBRANCH   8  12
BRANCH  11  28
ATOM     28  C   UNL     1       3.349  -0.322   2.471  1.00  0.00     0.411 C 
ATOM     29  O   UNL     1       4.226   0.423   2.041  1.00  0.00    -0.224 OA
BRANCH  28  30
ATOM     30  O   UNL     1       2.287   0.075   3.199  1.00  0.00    -0.444 OA
BRANCH  30  31
ATOM     31  C   UNL     1       2.232   1.392   3.793  1.00  0.00     0.106 C 
ATOM     32  C   UNL     1       3.430   1.634   4.719  1.00  0.00     0.056 C 
ATOM     33  C   UNL     1       2.094   2.486   2.732  1.00  0.00     0.056 C 
ATOM     34  C   UNL     1       0.956   1.357   4.644  1.00  0.00     0.056 C 
ENDBRANCH  30  31
ENDBRANCH  28  30
ENDBRANCH  11  28
ENDBRANCH   4   7
ENDBRANCH   2   3
ENDBRANCH   1   2
BRANCH   1  35
ATOM     35  C   UNL     1      -3.058  -3.108   3.700  1.00  0.00     0.118 C 
BRANCH  35  36
ATOM     36  N   UNL     1      -4.369  -2.512   3.922  1.00  0.00    -0.352 N 
ATOM     37  C   UNL     1      -5.617  -2.955   3.546  1.00  0.00     0.251 C 
ATOM     38  H   UNL     1      -4.361  -1.661   4.418  1.00  0.00     0.163 HD
ATOM     39  O   UNL     1      -6.511  -2.125   3.395  1.00  0.00    -0.269 OA
BRANCH  37  40
ATOM     40  C   UNL     1      -5.903  -4.399   3.345  1.00  0.00     0.039 A 
ATOM     41  C   UNL     1      -5.281  -5.373   4.129  1.00  0.00     0.014 A 
ATOM     42  C   UNL     1      -6.888  -4.785   2.426  1.00  0.00     0.014 A 
ATOM     43  C   UNL     1      -5.555  -6.725   3.916  1.00  0.00     0.010 A 
ATOM     44  C   UNL     1      -7.216  -6.138   2.267  1.00  0.00     0.010 A 
ATOM     45  C   UNL     1      -6.532  -7.127   2.990  1.00  0.00    -0.014 A 
BRANCH  45  46
ATOM     46  C   UNL     1      -6.842  -8.576   2.814  1.00  0.00     0.031 A 
ATOM     47  C   UNL     1      -6.607  -9.258   1.492  1.00  0.00     0.074 A 
ATOM     48  C   UNL     1      -7.314  -9.287   3.859  1.00  0.00     0.049 A 
ATOM     49  N   UNL     1      -6.828 -10.504   1.158  1.00  0.00    -0.248 NA
ATOM     50  C   UNL     1      -6.057  -8.437   0.402  1.00  0.00     0.031 C 
ATOM     51  C   UNL     1      -7.579  -8.737   5.189  1.00  0.00     0.029 A 
ATOM     52  N   UNL     1      -7.642 -10.616   3.980  1.00  0.00    -0.354 N 
ATOM     53  C   UNL     1      -6.461 -10.613  -0.180  1.00  0.00     0.074 A 
ATOM     54  C   UNL     1      -6.041  -9.298  -0.608  1.00  0.00     0.031 C 
ATOM     55  C   UNL     1      -7.981  -9.723   6.001  1.00  0.00     0.029 A 
ATOM     56  C   UNL     1      -8.087 -10.964   5.237  1.00  0.00     0.049 A 
ATOM     57  H   UNL     1      -7.567 -11.260   3.239  1.00  0.00     0.167 HD
ATOM     58  C   UNL     1      -6.459 -11.715  -0.969  1.00  0.00     0.034 A 
ATOM     59  C   UNL     1      -8.550 -12.136   5.721  1.00  0.00     0.034 A 
ATOM     60  C   UNL     1      -6.856 -13.025  -0.515  1.00  0.00     0.049 A 
ATOM     61  C   UNL     1      -8.579 -13.337   4.811  1.00  0.00     0.074 A 
ATOM     62  C   UNL     1      -6.849 -14.210  -1.230  1.00  0.00     0.029 A 
ATOM     63  N   UNL     1      -7.326 -13.329   0.754  1.00  0.00    -0.354 N 
ATOM     64  N   UNL     1      -8.177 -13.434   3.566  1.00  0.00    -0.248 NA
ATOM     65  C   UNL     1      -9.119 -14.588   5.362  1.00  0.00     0.031 C 
ATOM     66  C   UNL     1      -7.390 -15.209  -0.423  1.00  0.00     0.029 A 
ATOM     67  C   UNL     1      -7.647 -14.675   0.829  1.00  0.00     0.049 A 
ATOM     68  H   UNL     1      -7.418 -12.684   1.493  1.00  0.00     0.167 HD
ATOM     69  C   UNL     1      -8.393 -14.757   3.193  1.00  0.00     0.074 A 
ATOM     70  C   UNL     1      -8.937 -15.431   4.353  1.00  0.00     0.031 C 
ATOM     71  C   UNL     1      -8.166 -15.352   1.995  1.00  0.00     0.034 A 
BRANCH  58  72
ATOM     72  C   UNL     1      -6.006 -11.589  -2.406  1.00  0.00     0.023 A 
ATOM     73  C   UNL     1      -6.891 -11.922  -3.451  1.00  0.00     0.031 A 
ATOM     74  C   UNL     1      -4.671 -11.301  -2.736  1.00  0.00     0.131 A 
ATOM     75  C   UNL     1      -6.418 -12.007  -4.766  1.00  0.00     0.055 A 
ATOM     76  C   UNL     1      -4.217 -11.335  -4.056  1.00  0.00     0.041 A 
ATOM     77  F   UNL     1      -3.784 -10.985  -1.779  1.00  0.00    -0.206 F 
ATOM     78  C   UNL     1      -5.088 -11.706  -5.076  1.00  0.00     0.022 A 
BRANCH  75  79
ATOM     79  S   UNL     1      -7.484 -12.597  -6.111  1.00  0.00     0.124 S 
ATOM     80  O   UNL     1      -7.454 -11.466  -7.036  1.00  0.00    -0.237 OA
ATOM     81  O   UNL     1      -6.773 -13.790  -6.562  1.00  0.00    -0.237 OA
ATOM     82  O   UNL     1      -8.769 -12.834  -5.463  1.00  0.00    -0.744 OA
ENDBRANCH  75  79
ENDBRANCH  58  72
BRANCH  59  83
ATOM     83  C   UNL     1      -8.986 -12.211   7.149  1.00  0.00     0.023 A 
ATOM     84  C   UNL     1     -10.020 -11.386   7.632  1.00  0.00     0.031 A 
ATOM     85  C   UNL     1      -8.301 -13.015   8.075  1.00  0.00     0.131 A 
ATOM     86  C   UNL     1     -10.274 -11.315   9.007  1.00  0.00     0.055 A 
ATOM     87  C   UNL     1      -8.616 -13.005   9.436  1.00  0.00     0.041 A 
ATOM     88  F   UNL     1      -7.301 -13.812   7.670  1.00  0.00    -0.206 F 
ATOM     89  C   UNL     1      -9.593 -12.134   9.911  1.00  0.00     0.022 A 
BRANCH  86  90
ATOM     90  S   UNL     1     -11.385 -10.048   9.682  1.00  0.00     0.124 S 
ATOM     91  O   UNL     1     -12.388 -10.855  10.369  1.00  0.00    -0.237 OA
ATOM     92  O   UNL     1     -10.482  -9.292  10.546  1.00  0.00    -0.237 OA
ATOM     93  O   UNL     1     -11.852  -9.333   8.499  1.00  0.00    -0.744 OA
ENDBRANCH  86  90
ENDBRANCH  59  83
BRANCH  71  94
ATOM     94  C   UNL     1      -8.482 -16.822   1.836  1.00  0.00     0.023 A 
ATOM     95  C   UNL     1      -7.456 -17.724   1.490  1.00  0.00     0.031 A 
ATOM     96  C   UNL     1      -9.806 -17.292   1.835  1.00  0.00     0.131 A 
ATOM     97  C   UNL     1      -7.777 -19.027   1.093  1.00  0.00     0.055 A 
ATOM     98  C   UNL     1     -10.115 -18.611   1.498  1.00  0.00     0.041 A 
ATOM     99  F   UNL     1     -10.822 -16.471   2.147  1.00  0.00    -0.206 F 
ATOM    100  C   UNL     1      -9.100 -19.479   1.105  1.00  0.00     0.022 A 
BRANCH  97 101
ATOM    101  S   UNL     1      -6.506 -20.146   0.439  1.00  0.00     0.124 S 
ATOM    102  O   UNL     1      -6.602 -21.281   1.355  1.00  0.00    -0.237 OA
ATOM    103  O   UNL     1      -6.988 -20.397  -0.916  1.00  0.00    -0.237 OA
ATOM    104  O   UNL     1      -5.272 -19.373   0.536  1.00  0.00    -0.744 OA
ENDBRANCH  97 101
ENDBRANCH  71  94
ENDBRANCH  45  46
ENDBRANCH  37  40
ENDBRANCH  35  36
ENDBRANCH   1  35
TORSDOF 19
