REMARK SMILES O=C(CC1(CN2CC3(CCCCC3)CC2=O)CCCCC1)NCCCNC(=O)c1ccc(-c2c3nc(c(-c4cc(S(=O)(=O)[O-])ccc4F)c4ccc([nH]4)c(-c4cc(S(=O)(=O)[O-])ccc4F)c4nc(c(-c5cc(S(=O)(=O)[O-])ccc5F)c5ccc2[nH]5)C=C4)C=C3)cc1
REMARK SMILES IDX 24 1 23 2 22 3 1 4 2 5 3 7 4 8 17 9 21 10 18 11 20 12 19 13
REMARK SMILES IDX 5 14 6 15 7 16 15 17 8 18 14 19 16 20 9 21 13 22 10 23 12 24
REMARK SMILES IDX 11 25 25 26 26 27 27 28 28 30 29 31 30 32 91 33 31 34 90 35
REMARK SMILES IDX 32 36 33 37 34 38 84 39 35 40 89 41 83 42 85 43 36 44 88 45
REMARK SMILES IDX 82 46 81 47 37 49 69 50 49 51 68 52 50 53 53 54 67 55 86 56
REMARK SMILES IDX 51 57 52 58 66 60 87 61 54 62 38 63 39 64 47 65 40 66 46 67
REMARK SMILES IDX 48 68 45 69 41 70 42 71 43 72 44 73 70 74 71 75 79 76 72 77
REMARK SMILES IDX 78 78 80 79 77 80 73 81 74 82 75 83 76 84 55 85 56 86 64 87
REMARK SMILES IDX 57 88 63 89 65 90 62 91 58 92 59 93 60 94 61 95
REMARK H PARENT 22 6 26 29 85 48 53 59
REMARK Flexibility Score: inf
ROOT
ATOM      1  C   UNL     1       2.353   3.152  -1.593  1.00  0.00     0.042 C 
ENDROOT
BRANCH   1   2
ATOM      2  C   UNL     1       2.094   1.652  -1.610  1.00  0.00     0.117 C 
BRANCH   2   3
ATOM      3  N   UNL     1       2.746   0.957  -0.518  1.00  0.00    -0.356 N 
ATOM      4  O   UNL     1       0.902  -0.266   0.115  1.00  0.00    -0.275 OA
ATOM      5  C   UNL     1       2.103  -0.023   0.198  1.00  0.00     0.220 C 
ATOM      6  H   UNL     1       3.672   1.193  -0.284  1.00  0.00     0.163 HD
BRANCH   5   7
ATOM      7  C   UNL     1       2.995  -0.779   1.160  1.00  0.00     0.108 C 
BRANCH   7   8
ATOM      8  C   UNL     1       4.093  -1.704   0.553  1.00  0.00    -0.003 C 
ATOM      9  C   UNL     1       5.497  -1.022   0.703  1.00  0.00     0.009 C 
ATOM     10  C   UNL     1       4.157  -2.969   1.458  1.00  0.00     0.009 C 
ATOM     11  C   UNL     1       6.673  -1.950   0.358  1.00  0.00     0.001 C 
ATOM     12  C   UNL     1       5.298  -3.929   1.139  1.00  0.00     0.001 C 
ATOM     13  C   UNL     1       6.652  -3.235   1.180  1.00  0.00     0.000 C 
BRANCH   8  14
ATOM     14  C   UNL     1       3.909  -1.977  -0.976  1.00  0.00     0.127 C 
BRANCH  14  15
ATOM     15  N   UNL     1       2.683  -2.544  -1.516  1.00  0.00    -0.342 N 
ATOM     16  C   UNL     1       2.164  -3.826  -1.130  1.00  0.00     0.127 C 
ATOM     17  C   UNL     1       2.424  -2.355  -2.895  1.00  0.00     0.223 C 
ATOM     18  C   UNL     1       2.343  -4.691  -2.390  1.00  0.00    -0.003 C 
ATOM     19  C   UNL     1       1.854  -3.664  -3.438  1.00  0.00     0.109 C 
ATOM     20  O   UNL     1       2.712  -1.387  -3.567  1.00  0.00    -0.275 OA
ATOM     21  C   UNL     1       3.864  -4.987  -2.572  1.00  0.00     0.009 C 
ATOM     22  C   UNL     1       1.455  -5.945  -2.263  1.00  0.00     0.009 C 
ATOM     23  C   UNL     1       4.236  -6.282  -3.264  1.00  0.00     0.001 C 
ATOM     24  C   UNL     1       1.977  -7.210  -2.940  1.00  0.00     0.001 C 
ATOM     25  C   UNL     1       3.454  -7.432  -2.665  1.00  0.00     0.000 C 
ENDBRANCH  14  15
ENDBRANCH   8  14
ENDBRANCH   7   8
ENDBRANCH   5   7
ENDBRANCH   2   3
ENDBRANCH   1   2
BRANCH   1  26
ATOM     26  C   UNL     1       3.814   3.554  -1.761  1.00  0.00     0.118 C 
BRANCH  26  27
ATOM     27  N   UNL     1       4.375   3.188  -3.051  1.00  0.00    -0.352 N 
ATOM     28  C   UNL     1       5.140   3.934  -3.917  1.00  0.00     0.251 C 
ATOM     29  H   UNL     1       4.178   2.270  -3.349  1.00  0.00     0.163 HD
ATOM     30  O   UNL     1       5.422   3.473  -5.021  1.00  0.00    -0.269 OA
BRANCH  28  31
ATOM     31  C   UNL     1       5.596   5.296  -3.548  1.00  0.00     0.039 A 
ATOM     32  C   UNL     1       5.543   6.303  -4.517  1.00  0.00     0.014 A 
ATOM     33  C   UNL     1       6.095   5.585  -2.275  1.00  0.00     0.014 A 
ATOM     34  C   UNL     1       5.933   7.606  -4.194  1.00  0.00     0.010 A 
ATOM     35  C   UNL     1       6.418   6.899  -1.934  1.00  0.00     0.010 A 
ATOM     36  C   UNL     1       6.348   7.923  -2.891  1.00  0.00    -0.014 A 
BRANCH  36  37
ATOM     37  C   UNL     1       6.740   9.311  -2.523  1.00  0.00     0.031 A 
ATOM     38  C   UNL     1       8.158   9.611  -2.115  1.00  0.00     0.074 A 
ATOM     39  C   UNL     1       5.814  10.291  -2.505  1.00  0.00     0.049 A 
ATOM     40  N   UNL     1       8.681  10.733  -1.690  1.00  0.00    -0.248 NA
ATOM     41  C   UNL     1       9.105   8.487  -2.160  1.00  0.00     0.031 C 
ATOM     42  C   UNL     1       4.398  10.123  -2.839  1.00  0.00     0.029 A 
ATOM     43  N   UNL     1       5.922  11.621  -2.184  1.00  0.00    -0.354 N 
ATOM     44  C   UNL     1      10.011  10.447  -1.400  1.00  0.00     0.074 A 
ATOM     45  C   UNL     1      10.194   9.031  -1.641  1.00  0.00     0.031 C 
ATOM     46  C   UNL     1       3.776  11.307  -2.725  1.00  0.00     0.029 A 
ATOM     47  C   UNL     1       4.736  12.312  -2.276  1.00  0.00     0.049 A 
ATOM     48  H   UNL     1       6.770  12.042  -1.913  1.00  0.00     0.167 HD
ATOM     49  C   UNL     1      10.995  11.289  -0.993  1.00  0.00     0.034 A 
ATOM     50  C   UNL     1       4.451  13.604  -2.021  1.00  0.00     0.034 A 
ATOM     51  C   UNL     1      10.805  12.704  -0.778  1.00  0.00     0.049 A 
ATOM     52  C   UNL     1       5.560  14.524  -1.577  1.00  0.00     0.074 A 
ATOM     53  C   UNL     1      11.741  13.656  -0.413  1.00  0.00     0.029 A 
ATOM     54  N   UNL     1       9.593  13.371  -0.907  1.00  0.00    -0.354 N 
ATOM     55  N   UNL     1       6.822  14.246  -1.347  1.00  0.00    -0.248 NA
ATOM     56  C   UNL     1       5.207  15.936  -1.375  1.00  0.00     0.031 C 
ATOM     57  C   UNL     1      11.088  14.886  -0.270  1.00  0.00     0.029 A 
ATOM     58  C   UNL     1       9.755  14.717  -0.611  1.00  0.00     0.049 A 
ATOM     59  H   UNL     1       8.743  12.951  -1.171  1.00  0.00     0.167 HD
ATOM     60  C   UNL     1       7.420  15.457  -1.006  1.00  0.00     0.074 A 
ATOM     61  C   UNL     1       6.383  16.465  -1.070  1.00  0.00     0.031 C 
ATOM     62  C   UNL     1       8.712  15.712  -0.675  1.00  0.00     0.034 A 
BRANCH  49  63
ATOM     63  C   UNL     1      12.356  10.687  -0.733  1.00  0.00     0.023 A 
ATOM     64  C   UNL     1      13.100  10.076  -1.758  1.00  0.00     0.031 A 
ATOM     65  C   UNL     1      12.900  10.686   0.564  1.00  0.00     0.131 A 
ATOM     66  C   UNL     1      14.300   9.416  -1.455  1.00  0.00     0.055 A 
ATOM     67  C   UNL     1      14.137  10.101   0.843  1.00  0.00     0.041 A 
ATOM     68  F   UNL     1      12.229  11.236   1.587  1.00  0.00    -0.206 F 
ATOM     69  C   UNL     1      14.837   9.446  -0.166  1.00  0.00     0.022 A 
BRANCH  66  70
ATOM     70  S   UNL     1      15.068   8.387  -2.736  1.00  0.00     0.124 S 
ATOM     71  O   UNL     1      14.006   7.422  -3.014  1.00  0.00    -0.237 OA
ATOM     72  O   UNL     1      15.347   9.353  -3.792  1.00  0.00    -0.237 OA
ATOM     73  O   UNL     1      16.245   7.832  -2.070  1.00  0.00    -0.744 OA
ENDBRANCH  66  70
ENDBRANCH  49  63
BRANCH  50  74
ATOM     74  C   UNL     1       3.061  14.116  -2.178  1.00  0.00     0.023 A 
ATOM     75  C   UNL     1       2.745  15.057  -3.170  1.00  0.00     0.031 A 
ATOM     76  C   UNL     1       2.036  13.702  -1.309  1.00  0.00     0.131 A 
ATOM     77  C   UNL     1       1.448  15.590  -3.241  1.00  0.00     0.055 A 
ATOM     78  C   UNL     1       0.736  14.199  -1.414  1.00  0.00     0.041 A 
ATOM     79  F   UNL     1       2.285  12.798  -0.348  1.00  0.00    -0.206 F 
ATOM     80  C   UNL     1       0.439  15.160  -2.376  1.00  0.00     0.022 A 
BRANCH  77  81
ATOM     81  S   UNL     1       1.119  16.917  -4.433  1.00  0.00     0.124 S 
ATOM     82  O   UNL     1       2.083  17.932  -4.022  1.00  0.00    -0.237 OA
ATOM     83  O   UNL     1       1.388  16.254  -5.705  1.00  0.00    -0.237 OA
ATOM     84  O   UNL     1      -0.282  17.252  -4.191  1.00  0.00    -0.744 OA
ENDBRANCH  77  81
ENDBRANCH  50  74
BRANCH  62  85
ATOM     85  C   UNL     1       9.079  17.152  -0.414  1.00  0.00     0.023 A 
ATOM     86  C   UNL     1       8.596  17.849   0.707  1.00  0.00     0.031 A 
ATOM     87  C   UNL     1       9.912  17.839  -1.314  1.00  0.00     0.131 A 
ATOM     88  C   UNL     1       8.906  19.208   0.870  1.00  0.00     0.055 A 
ATOM     89  C   UNL     1      10.261  19.175  -1.118  1.00  0.00     0.041 A 
ATOM     90  F   UNL     1      10.400  17.220  -2.401  1.00  0.00    -0.206 F 
ATOM     91  C   UNL     1       9.747  19.872  -0.028  1.00  0.00     0.022 A 
BRANCH  88  92
ATOM     92  S   UNL     1       8.125  20.125   2.227  1.00  0.00     0.124 S 
ATOM     93  O   UNL     1       6.706  19.935   1.945  1.00  0.00    -0.237 OA
ATOM     94  O   UNL     1       8.638  19.434   3.406  1.00  0.00    -0.237 OA
ATOM     95  O   UNL     1       8.616  21.490   2.047  1.00  0.00    -0.744 OA
ENDBRANCH  88  92
ENDBRANCH  62  85
ENDBRANCH  36  37
ENDBRANCH  28  31
ENDBRANCH  26  27
ENDBRANCH   1  26
TORSDOF 16
