REMARK SMILES COCc1cccc(O[C@@H](C)c2ccc(C(=O)NCCCNC(=O)c3ccc(-c4c5nc(c(-c6cc(S(=O)(=O)[O-])ccc6F)c6ccc([nH]6)c(-c6cc(S(=O)(=O)[O-])ccc6F)c6nc(c(-c7cc(S(=O)(=O)[O-])ccc7F)c7ccc4[nH]7)C=C6)C=C5)cc3)o2)c1
REMARK SMILES IDX 19 1 18 2 16 3 17 4 15 6 12 7 13 8 88 9 14 10 10 11 11 12
REMARK SMILES IDX 9 13 8 14 4 15 5 16 89 17 6 18 7 19 3 20 2 21 1 22 20 23
REMARK SMILES IDX 21 24 22 25 23 26 24 28 25 29 26 30 87 31 27 32 86 33 28 34
REMARK SMILES IDX 29 35 30 36 80 37 31 38 85 39 79 40 81 41 32 42 84 43 78 44
REMARK SMILES IDX 77 45 33 47 65 48 45 49 64 50 46 51 49 52 63 53 82 54 47 55
REMARK SMILES IDX 48 56 62 58 83 59 50 60 34 61 35 62 43 63 36 64 42 65 44 66
REMARK SMILES IDX 41 67 37 68 38 69 39 70 40 71 66 72 67 73 75 74 68 75 74 76
REMARK SMILES IDX 76 77 73 78 69 79 70 80 71 81 72 82 51 83 52 84 60 85 53 86
REMARK SMILES IDX 59 87 61 88 58 89 54 90 55 91 56 92 57 93
REMARK H PARENT 18 5 22 27 81 46 49 57
REMARK Flexibility Score: inf
ROOT
ATOM      1  C   UNL     1       5.026  -1.417   1.168  1.00  0.00     0.118 C 
ENDROOT
BRANCH   1   2
ATOM      2  N   UNL     1       4.055  -2.331   1.740  1.00  0.00    -0.349 N 
ATOM      3  C   UNL     1       2.861  -2.095   2.388  1.00  0.00     0.286 C 
ATOM      4  O   UNL     1       2.164  -3.086   2.605  1.00  0.00    -0.266 OA
ATOM      5  H   UNL     1       4.289  -3.283   1.650  1.00  0.00     0.163 HD
BRANCH   3   6
ATOM      6  C   UNL     1       2.456  -0.748   2.753  1.00  0.00     0.191 A 
ATOM      7  C   UNL     1       0.922   0.786   3.245  1.00  0.00     0.145 A 
ATOM      8  C   UNL     1       2.147   1.417   3.300  1.00  0.00     0.050 A 
ATOM      9  O   UNL     1       1.107  -0.530   2.931  1.00  0.00    -0.452 OA
ATOM     10  C   UNL     1       3.123   0.439   2.994  1.00  0.00     0.057 A 
BRANCH   7  11
ATOM     11  C   UNL     1      -0.485   1.258   3.487  1.00  0.00     0.236 C 
ATOM     12  C   UNL     1      -1.607   0.338   3.013  1.00  0.00     0.062 C 
BRANCH  11  13
ATOM     13  O   UNL     1      -0.691   2.625   3.057  1.00  0.00    -0.483 OA
BRANCH  13  14
ATOM     14  C   UNL     1      -0.277   3.057   1.829  1.00  0.00     0.120 A 
ATOM     15  C   UNL     1       0.511   2.756  -0.460  1.00  0.00    -0.019 A 
ATOM     16  C   UNL     1       0.779   4.129  -0.532  1.00  0.00     0.006 A 
ATOM     17  C   UNL     1      -0.057   2.247   0.718  1.00  0.00     0.052 A 
ATOM     18  C   UNL     1       0.496   4.963   0.551  1.00  0.00     0.004 A 
ATOM     19  C   UNL     1      -0.026   4.425   1.728  1.00  0.00     0.046 A 
BRANCH  15  20
ATOM     20  C   UNL     1       0.897   1.854  -1.614  1.00  0.00     0.195 C 
BRANCH  20  21
ATOM     21  O   UNL     1       0.412   0.514  -1.492  1.00  0.00    -0.380 OA
ATOM     22  C   UNL     1       1.326  -0.349  -0.823  1.00  0.00     0.195 C 
ENDBRANCH  20  21
ENDBRANCH  15  20
ENDBRANCH  13  14
ENDBRANCH  11  13
ENDBRANCH   7  11
ENDBRANCH   3   6
ENDBRANCH   1   2
BRANCH   1  23
ATOM     23  C   UNL     1       6.266  -1.268   2.046  1.00  0.00     0.042 C 
BRANCH  23  24
ATOM     24  C   UNL     1       7.224  -2.457   1.966  1.00  0.00     0.118 C 
BRANCH  24  25
ATOM     25  N   UNL     1       7.847  -2.576   0.653  1.00  0.00    -0.352 N 
ATOM     26  C   UNL     1       9.169  -2.525   0.283  1.00  0.00     0.251 C 
ATOM     27  H   UNL     1       7.217  -2.717  -0.090  1.00  0.00     0.163 HD
ATOM     28  O   UNL     1       9.445  -2.417  -0.909  1.00  0.00    -0.269 OA
BRANCH  26  29
ATOM     29  C   UNL     1      10.250  -2.580   1.294  1.00  0.00     0.039 A 
ATOM     30  C   UNL     1      11.387  -1.787   1.111  1.00  0.00     0.014 A 
ATOM     31  C   UNL     1      10.175  -3.439   2.394  1.00  0.00     0.014 A 
ATOM     32  C   UNL     1      12.412  -1.806   2.061  1.00  0.00     0.010 A 
ATOM     33  C   UNL     1      11.161  -3.400   3.379  1.00  0.00     0.010 A 
ATOM     34  C   UNL     1      12.291  -2.583   3.225  1.00  0.00    -0.014 A 
BRANCH  34  35
ATOM     35  C   UNL     1      13.333  -2.552   4.287  1.00  0.00     0.031 A 
ATOM     36  C   UNL     1      14.102  -3.800   4.633  1.00  0.00     0.074 A 
ATOM     37  C   UNL     1      13.547  -1.414   4.978  1.00  0.00     0.049 A 
ATOM     38  N   UNL     1      14.986  -3.993   5.579  1.00  0.00    -0.248 NA
ATOM     39  C   UNL     1      13.817  -4.995   3.824  1.00  0.00     0.031 C 
ATOM     40  C   UNL     1      12.844  -0.148   4.755  1.00  0.00     0.029 A 
ATOM     41  N   UNL     1      14.407  -1.136   6.011  1.00  0.00    -0.354 N 
ATOM     42  C   UNL     1      15.359  -5.330   5.484  1.00  0.00     0.074 A 
ATOM     43  C   UNL     1      14.552  -5.913   4.433  1.00  0.00     0.031 C 
ATOM     44  C   UNL     1      13.321   0.775   5.605  1.00  0.00     0.029 A 
ATOM     45  C   UNL     1      14.320   0.158   6.471  1.00  0.00     0.049 A 
ATOM     46  H   UNL     1      15.029  -1.800   6.387  1.00  0.00     0.167 HD
ATOM     47  C   UNL     1      16.304  -6.001   6.189  1.00  0.00     0.034 A 
ATOM     48  C   UNL     1      14.958   0.774   7.487  1.00  0.00     0.034 A 
ATOM     49  C   UNL     1      17.100  -5.403   7.234  1.00  0.00     0.049 A 
ATOM     50  C   UNL     1      15.966  -0.008   8.293  1.00  0.00     0.074 A 
ATOM     51  C   UNL     1      18.108  -5.980   7.988  1.00  0.00     0.029 A 
ATOM     52  N   UNL     1      16.974  -4.093   7.682  1.00  0.00    -0.354 N 
ATOM     53  N   UNL     1      16.336  -1.262   8.162  1.00  0.00    -0.248 NA
ATOM     54  C   UNL     1      16.648   0.710   9.377  1.00  0.00     0.031 C 
ATOM     55  C   UNL     1      18.536  -5.047   8.938  1.00  0.00     0.029 A 
ATOM     56  C   UNL     1      17.861  -3.857   8.721  1.00  0.00     0.049 A 
ATOM     57  H   UNL     1      16.346  -3.430   7.314  1.00  0.00     0.167 HD
ATOM     58  C   UNL     1      17.323  -1.468   9.123  1.00  0.00     0.074 A 
ATOM     59  C   UNL     1      17.499  -0.207   9.813  1.00  0.00     0.031 C 
ATOM     60  C   UNL     1      18.023  -2.596   9.407  1.00  0.00     0.034 A 
BRANCH  47  61
ATOM     61  C   UNL     1      16.506  -7.464   5.865  1.00  0.00     0.023 A 
ATOM     62  C   UNL     1      16.928  -7.885   4.592  1.00  0.00     0.031 A 
ATOM     63  C   UNL     1      16.255  -8.453   6.832  1.00  0.00     0.131 A 
ATOM     64  C   UNL     1      17.008  -9.254   4.295  1.00  0.00     0.055 A 
ATOM     65  C   UNL     1      16.422  -9.812   6.558  1.00  0.00     0.041 A 
ATOM     66  F   UNL     1      15.829  -8.117   8.060  1.00  0.00    -0.206 F 
ATOM     67  C   UNL     1      16.785 -10.221   5.277  1.00  0.00     0.022 A 
BRANCH  64  68
ATOM     68  S   UNL     1      17.254  -9.751   2.568  1.00  0.00     0.124 S 
ATOM     69  O   UNL     1      16.105  -9.126   1.916  1.00  0.00    -0.237 OA
ATOM     70  O   UNL     1      18.557  -9.175   2.257  1.00  0.00    -0.237 OA
ATOM     71  O   UNL     1      17.212 -11.211   2.623  1.00  0.00    -0.744 OA
ENDBRANCH  64  68
ENDBRANCH  47  61
BRANCH  48  72
ATOM     72  C   UNL     1      14.662   2.199   7.818  1.00  0.00     0.023 A 
ATOM     73  C   UNL     1      15.659   3.184   7.733  1.00  0.00     0.031 A 
ATOM     74  C   UNL     1      13.392   2.589   8.281  1.00  0.00     0.131 A 
ATOM     75  C   UNL     1      15.388   4.494   8.159  1.00  0.00     0.055 A 
ATOM     76  C   UNL     1      13.109   3.907   8.642  1.00  0.00     0.041 A 
ATOM     77  F   UNL     1      12.399   1.690   8.381  1.00  0.00    -0.206 F 
ATOM     78  C   UNL     1      14.116   4.866   8.598  1.00  0.00     0.022 A 
BRANCH  75  79
ATOM     79  S   UNL     1      16.757   5.681   8.234  1.00  0.00     0.124 S 
ATOM     80  O   UNL     1      17.694   4.996   9.117  1.00  0.00    -0.237 OA
ATOM     81  O   UNL     1      17.149   5.779   6.832  1.00  0.00    -0.237 OA
ATOM     82  O   UNL     1      16.136   6.880   8.792  1.00  0.00    -0.744 OA
ENDBRANCH  75  79
ENDBRANCH  48  72
BRANCH  60  83
ATOM     83  C   UNL     1      19.084  -2.496  10.478  1.00  0.00     0.023 A 
ATOM     84  C   UNL     1      18.762  -2.240  11.823  1.00  0.00     0.031 A 
ATOM     85  C   UNL     1      20.441  -2.649  10.143  1.00  0.00     0.131 A 
ATOM     86  C   UNL     1      19.786  -2.085  12.770  1.00  0.00     0.055 A 
ATOM     87  C   UNL     1      21.451  -2.563  11.101  1.00  0.00     0.041 A 
ATOM     88  F   UNL     1      20.809  -2.890   8.874  1.00  0.00    -0.206 F 
ATOM     89  C   UNL     1      21.127  -2.264  12.421  1.00  0.00     0.022 A 
BRANCH  86  90
ATOM     90  S   UNL     1      19.348  -1.542  14.444  1.00  0.00     0.124 S 
ATOM     91  O   UNL     1      18.672  -0.276  14.185  1.00  0.00    -0.237 OA
ATOM     92  O   UNL     1      18.500  -2.633  14.914  1.00  0.00    -0.237 OA
ATOM     93  O   UNL     1      20.641  -1.429  15.117  1.00  0.00    -0.744 OA
ENDBRANCH  86  90
ENDBRANCH  60  83
ENDBRANCH  34  35
ENDBRANCH  26  29
ENDBRANCH  24  25
ENDBRANCH  23  24
ENDBRANCH   1  23
TORSDOF 18
