REMARK SMILES C[C@]1(C(=O)NCc2ccc(C(=O)NCCCNC(=O)c3ccc(-c4c5nc(c(-c6cc(S(=O)(=O)[O-])ccc6F)c6ccc([nH]6)c(-c6cc(S(=O)(=O)[O-])ccc6F)c6nc(c(-c7cc(S(=O)(=O)[O-])ccc7F)c7ccc4[nH]7)C=C6)C=C5)cc3)o2)CCC[NH2+]C1
REMARK SMILES IDX 15 1 14 2 13 3 11 4 12 5 10 7 7 8 8 9 83 10 9 11 6 12 5 13
REMARK SMILES IDX 3 14 4 15 2 17 1 18 84 19 88 20 85 21 87 22 86 23 16 26
REMARK SMILES IDX 17 27 18 28 19 30 20 31 21 32 82 33 22 34 81 35 23 36 24 37
REMARK SMILES IDX 25 38 75 39 26 40 80 41 74 42 76 43 27 44 79 45 73 46 72 47
REMARK SMILES IDX 28 49 60 50 40 51 59 52 41 53 44 54 58 55 77 56 42 57 43 58
REMARK SMILES IDX 57 60 78 61 45 62 29 63 30 64 38 65 31 66 37 67 39 68 36 69
REMARK SMILES IDX 32 70 33 71 34 72 35 73 61 74 62 75 70 76 63 77 69 78 71 79
REMARK SMILES IDX 68 80 64 81 65 82 66 83 67 84 46 85 47 86 55 87 48 88 54 89
REMARK SMILES IDX 56 90 53 91 49 92 50 93 51 94 52 95
REMARK H PARENT 13 6 5 16 87 24 87 25 17 29 76 48 44 59
REMARK Flexibility Score: inf
ROOT
ATOM      1  C   UNL     1       3.556   0.943  -8.064  1.00  0.00     0.042 C 
ENDROOT
BRANCH   1   2
ATOM      2  C   UNL     1       2.089   0.519  -8.042  1.00  0.00     0.118 C 
BRANCH   2   3
ATOM      3  N   UNL     1       1.901  -0.907  -7.854  1.00  0.00    -0.349 N 
ATOM      4  C   UNL     1       1.578  -1.617  -6.716  1.00  0.00     0.286 C 
ATOM      5  O   UNL     1       1.208  -2.780  -6.891  1.00  0.00    -0.266 OA
ATOM      6  H   UNL     1       2.023  -1.453  -8.664  1.00  0.00     0.163 HD
BRANCH   4   7
ATOM      7  C   UNL     1       1.691  -1.012  -5.400  1.00  0.00     0.191 A 
ATOM      8  C   UNL     1       1.314  -0.933  -3.215  1.00  0.00     0.124 A 
ATOM      9  C   UNL     1       2.204   0.076  -3.499  1.00  0.00     0.048 A 
ATOM     10  O   UNL     1       1.011  -1.612  -4.360  1.00  0.00    -0.454 OA
ATOM     11  C   UNL     1       2.408   0.055  -4.891  1.00  0.00     0.056 A 
BRANCH   8  12
ATOM     12  C   UNL     1       0.690  -1.413  -1.954  1.00  0.00     0.191 C 
BRANCH  12  13
ATOM     13  N   UNL     1       1.428  -0.871  -0.826  1.00  0.00    -0.348 N 
ATOM     14  C   UNL     1       1.427   0.330  -0.204  1.00  0.00     0.232 C 
ATOM     15  O   UNL     1       2.497   0.596   0.367  1.00  0.00    -0.274 OA
ATOM     16  H   UNL     1       2.063  -1.512  -0.432  1.00  0.00     0.163 HD
BRANCH  14  17
ATOM     17  C   UNL     1       0.239   1.313  -0.062  1.00  0.00     0.095 C 
ATOM     18  C   UNL     1       0.017   1.378   1.477  1.00  0.00     0.028 C 
ATOM     19  C   UNL     1       0.663   2.734  -0.522  1.00  0.00     0.028 C 
ATOM     20  C   UNL     1      -1.116   0.953  -0.684  1.00  0.00     0.277 C 
ATOM     21  C   UNL     1       0.480   2.969  -2.020  1.00  0.00     0.063 C 
ATOM     22  N   UNL     1      -1.178   1.141  -2.135  1.00  0.00    -0.345 N 
ATOM     23  C   UNL     1      -0.888   2.519  -2.518  1.00  0.00     0.260 C 
ATOM     24  H   UNL     1      -0.495   0.525  -2.576  1.00  0.00     0.346 HD
ATOM     25  H   UNL     1      -2.125   0.921  -2.442  1.00  0.00     0.346 HD
ENDBRANCH  14  17
ENDBRANCH  12  13
ENDBRANCH   8  12
ENDBRANCH   4   7
ENDBRANCH   2   3
ENDBRANCH   1   2
BRANCH   1  26
ATOM     26  C   UNL     1       4.317   0.563  -9.329  1.00  0.00     0.118 C 
BRANCH  26  27
ATOM     27  N   UNL     1       3.829   1.262 -10.505  1.00  0.00    -0.352 N 
ATOM     28  C   UNL     1       4.460   2.134 -11.359  1.00  0.00     0.251 C 
ATOM     29  H   UNL     1       2.888   1.081 -10.728  1.00  0.00     0.163 HD
ATOM     30  O   UNL     1       3.773   2.758 -12.166  1.00  0.00    -0.269 OA
BRANCH  28  31
ATOM     31  C   UNL     1       5.928   2.347 -11.317  1.00  0.00     0.039 A 
ATOM     32  C   UNL     1       6.422   3.630 -11.578  1.00  0.00     0.014 A 
ATOM     33  C   UNL     1       6.825   1.298 -11.095  1.00  0.00     0.014 A 
ATOM     34  C   UNL     1       7.800   3.870 -11.565  1.00  0.00     0.010 A 
ATOM     35  C   UNL     1       8.195   1.552 -11.012  1.00  0.00     0.010 A 
ATOM     36  C   UNL     1       8.699   2.839 -11.253  1.00  0.00    -0.014 A 
BRANCH  36  37
ATOM     37  C   UNL     1      10.165   3.088 -11.188  1.00  0.00     0.031 A 
ATOM     38  C   UNL     1      11.093   2.415 -12.164  1.00  0.00     0.074 A 
ATOM     39  C   UNL     1      10.665   3.875 -10.215  1.00  0.00     0.049 A 
ATOM     40  N   UNL     1      12.401   2.441 -12.218  1.00  0.00    -0.248 NA
ATOM     41  C   UNL     1      10.466   1.580 -13.199  1.00  0.00     0.031 C 
ATOM     42  C   UNL     1       9.871   4.556  -9.189  1.00  0.00     0.029 A 
ATOM     43  N   UNL     1      11.958   4.228  -9.921  1.00  0.00    -0.354 N 
ATOM     44  C   UNL     1      12.755   1.615 -13.280  1.00  0.00     0.074 A 
ATOM     45  C   UNL     1      11.524   1.061 -13.805  1.00  0.00     0.031 C 
ATOM     46  C   UNL     1      10.693   5.258  -8.392  1.00  0.00     0.029 A 
ATOM     47  C   UNL     1      12.072   5.044  -8.820  1.00  0.00     0.049 A 
ATOM     48  H   UNL     1      12.732   3.926 -10.449  1.00  0.00     0.167 HD
ATOM     49  C   UNL     1      13.989   1.357 -13.784  1.00  0.00     0.034 A 
ATOM     50  C   UNL     1      13.163   5.553  -8.214  1.00  0.00     0.034 A 
ATOM     51  C   UNL     1      15.207   1.927 -13.257  1.00  0.00     0.049 A 
ATOM     52  C   UNL     1      14.524   5.243  -8.781  1.00  0.00     0.074 A 
ATOM     53  C   UNL     1      16.503   1.774 -13.720  1.00  0.00     0.029 A 
ATOM     54  N   UNL     1      15.282   2.757 -12.145  1.00  0.00    -0.354 N 
ATOM     55  N   UNL     1      14.838   4.492  -9.812  1.00  0.00    -0.248 NA
ATOM     56  C   UNL     1      15.675   5.859  -8.111  1.00  0.00     0.031 C 
ATOM     57  C   UNL     1      17.364   2.459 -12.855  1.00  0.00     0.029 A 
ATOM     58  C   UNL     1      16.602   3.100 -11.892  1.00  0.00     0.049 A 
ATOM     59  H   UNL     1      14.509   3.057 -11.613  1.00  0.00     0.167 HD
ATOM     60  C   UNL     1      16.223   4.571  -9.929  1.00  0.00     0.074 A 
ATOM     61  C   UNL     1      16.679   5.454  -8.875  1.00  0.00     0.031 C 
ATOM     62  C   UNL     1      17.044   3.971 -10.828  1.00  0.00     0.034 A 
BRANCH  49  63
ATOM     63  C   UNL     1      14.077   0.395 -14.946  1.00  0.00     0.023 A 
ATOM     64  C   UNL     1      13.472   0.674 -16.184  1.00  0.00     0.031 A 
ATOM     65  C   UNL     1      14.746  -0.834 -14.806  1.00  0.00     0.131 A 
ATOM     66  C   UNL     1      13.477  -0.292 -17.202  1.00  0.00     0.055 A 
ATOM     67  C   UNL     1      14.820  -1.757 -15.851  1.00  0.00     0.041 A 
ATOM     68  F   UNL     1      15.328  -1.168 -13.643  1.00  0.00    -0.206 F 
ATOM     69  C   UNL     1      14.168  -1.496 -17.053  1.00  0.00     0.022 A 
BRANCH  66  70
ATOM     70  S   UNL     1      12.442  -0.013 -18.665  1.00  0.00     0.124 S 
ATOM     71  O   UNL     1      11.115   0.110 -18.068  1.00  0.00    -0.237 OA
ATOM     72  O   UNL     1      13.008   1.210 -19.224  1.00  0.00    -0.237 OA
ATOM     73  O   UNL     1      12.648  -1.218 -19.466  1.00  0.00    -0.744 OA
ENDBRANCH  66  70
ENDBRANCH  49  63
BRANCH  50  74
ATOM     74  C   UNL     1      13.022   6.401  -6.996  1.00  0.00     0.023 A 
ATOM     75  C   UNL     1      13.383   7.758  -7.016  1.00  0.00     0.031 A 
ATOM     76  C   UNL     1      12.560   5.858  -5.785  1.00  0.00     0.131 A 
ATOM     77  C   UNL     1      13.318   8.515  -5.836  1.00  0.00     0.055 A 
ATOM     78  C   UNL     1      12.451   6.628  -4.626  1.00  0.00     0.041 A 
ATOM     79  F   UNL     1      12.195   4.568  -5.715  1.00  0.00    -0.206 F 
ATOM     80  C   UNL     1      12.843   7.963  -4.644  1.00  0.00     0.022 A 
BRANCH  77  81
ATOM     81  S   UNL     1      13.937  10.220  -5.865  1.00  0.00     0.124 S 
ATOM     82  O   UNL     1      15.318  10.028  -6.293  1.00  0.00    -0.237 OA
ATOM     83  O   UNL     1      13.046  10.849  -6.834  1.00  0.00    -0.237 OA
ATOM     84  O   UNL     1      13.768  10.667  -4.484  1.00  0.00    -0.744 OA
ENDBRANCH  77  81
ENDBRANCH  50  74
BRANCH  62  85
ATOM     85  C   UNL     1      18.515   4.292 -10.727  1.00  0.00     0.023 A 
ATOM     86  C   UNL     1      19.289   3.879  -9.628  1.00  0.00     0.031 A 
ATOM     87  C   UNL     1      19.145   5.046 -11.733  1.00  0.00     0.131 A 
ATOM     88  C   UNL     1      20.632   4.274  -9.531  1.00  0.00     0.055 A 
ATOM     89  C   UNL     1      20.496   5.385 -11.661  1.00  0.00     0.041 A 
ATOM     90  F   UNL     1      18.453   5.468 -12.804  1.00  0.00    -0.206 F 
ATOM     91  C   UNL     1      21.244   5.011 -10.548  1.00  0.00     0.022 A 
BRANCH  88  92
ATOM     92  S   UNL     1      21.544   3.894  -8.010  1.00  0.00     0.124 S 
ATOM     93  O   UNL     1      20.726   4.547  -6.994  1.00  0.00    -0.237 OA
ATOM     94  O   UNL     1      21.534   2.435  -7.996  1.00  0.00    -0.237 OA
ATOM     95  O   UNL     1      22.855   4.502  -8.235  1.00  0.00    -0.744 OA
ENDBRANCH  88  92
ENDBRANCH  62  85
ENDBRANCH  36  37
ENDBRANCH  28  31
ENDBRANCH  26  27
ENDBRANCH   1  26
TORSDOF 16
