REMARK SMILES CC[C@@H]1CCC[C@@H](Oc2cncc(C(=O)NCCCNC(=O)c3ccc(-c4c5nc(c(-c6cc(S(=O)(=O)[O-])ccc6F)c6ccc([nH]6)c(-c6cc(S(=O)(=O)[O-])ccc6F)c6nc(c(-c7cc(S(=O)(=O)[O-])ccc7F)c7ccc4[nH]7)C=C6)C=C5)cc3)n2)C1
REMARK SMILES IDX 18 1 17 2 16 3 14 4 15 5 13 7 9 8 10 9 86 10 11 11 12 12
REMARK SMILES IDX 8 13 7 14 3 15 4 16 87 17 5 18 6 19 2 20 1 21 19 22 20 23
REMARK SMILES IDX 21 24 22 26 23 27 24 28 85 29 25 30 84 31 26 32 27 33 28 34
REMARK SMILES IDX 78 35 29 36 83 37 77 38 79 39 30 40 82 41 76 42 75 43 31 45
REMARK SMILES IDX 63 46 43 47 62 48 44 49 47 50 61 51 80 52 45 53 46 54 60 56
REMARK SMILES IDX 81 57 48 58 32 59 33 60 41 61 34 62 40 63 42 64 39 65 35 66
REMARK SMILES IDX 36 67 37 68 38 69 64 70 65 71 73 72 66 73 72 74 74 75 71 76
REMARK SMILES IDX 67 77 68 78 69 79 70 80 49 81 50 82 58 83 51 84 57 85 59 86
REMARK SMILES IDX 56 87 52 88 53 89 54 90 55 91
REMARK H PARENT 16 6 20 25 79 44 47 55
REMARK Flexibility Score: inf
ROOT
ATOM      1  C   UNL     1       6.689   3.473   5.660  1.00  0.00     0.042 C 
ENDROOT
BRANCH   1   2
ATOM      2  C   UNL     1       6.751   2.586   4.421  1.00  0.00     0.118 C 
BRANCH   2   3
ATOM      3  N   UNL     1       7.242   1.255   4.742  1.00  0.00    -0.351 N 
ATOM      4  C   UNL     1       6.576   0.084   5.004  1.00  0.00     0.271 C 
ATOM      5  O   UNL     1       7.249  -0.899   5.320  1.00  0.00    -0.267 OA
ATOM      6  H   UNL     1       8.223   1.182   4.778  1.00  0.00     0.163 HD
BRANCH   4   7
ATOM      7  C   UNL     1       5.099  -0.051   4.900  1.00  0.00     0.150 A 
ATOM      8  C   UNL     1       3.007   0.837   4.433  1.00  0.00     0.233 A 
ATOM      9  C   UNL     1       2.482  -0.422   4.657  1.00  0.00     0.179 A 
ATOM     10  N   UNL     1       4.337   1.024   4.574  1.00  0.00    -0.205 NA
ATOM     11  N   UNL     1       3.217  -1.520   4.984  1.00  0.00    -0.257 NA
ATOM     12  C   UNL     1       4.543  -1.302   5.101  1.00  0.00     0.145 A 
BRANCH   8  13
ATOM     13  O   UNL     1       2.383   1.981   4.092  1.00  0.00    -0.473 OA
BRANCH  13  14
ATOM     14  C   UNL     1       1.060   2.212   3.608  1.00  0.00     0.175 C 
ATOM     15  C   UNL     1       0.263   0.180   2.280  1.00  0.00    -0.008 C 
ATOM     16  C   UNL     1      -0.853  -0.034   3.328  1.00  0.00     0.004 C 
ATOM     17  C   UNL     1       0.716   1.637   2.232  1.00  0.00     0.048 C 
ATOM     18  C   UNL     1      -0.702   0.677   4.679  1.00  0.00     0.004 C 
ATOM     19  C   UNL     1      -0.067   2.058   4.623  1.00  0.00     0.045 C 
BRANCH  15  20
ATOM     20  C   UNL     1      -0.191  -0.385   0.916  1.00  0.00     0.000 C 
ATOM     21  C   UNL     1       0.707  -0.019  -0.257  1.00  0.00     0.004 C 
ENDBRANCH  15  20
ENDBRANCH  13  14
ENDBRANCH   8  13
ENDBRANCH   4   7
ENDBRANCH   2   3
ENDBRANCH   1   2
BRANCH   1  22
ATOM     22  C   UNL     1       8.054   3.683   6.317  1.00  0.00     0.118 C 
BRANCH  22  23
ATOM     23  N   UNL     1       9.041   4.218   5.384  1.00  0.00    -0.352 N 
ATOM     24  C   UNL     1       9.686   5.429   5.376  1.00  0.00     0.251 C 
ATOM     25  H   UNL     1       9.281   3.615   4.644  1.00  0.00     0.163 HD
ATOM     26  O   UNL     1      10.275   5.798   4.367  1.00  0.00    -0.269 OA
BRANCH  24  27
ATOM     27  C   UNL     1       9.654   6.281   6.581  1.00  0.00     0.039 A 
ATOM     28  C   UNL     1       9.411   7.649   6.440  1.00  0.00     0.014 A 
ATOM     29  C   UNL     1       9.861   5.725   7.846  1.00  0.00     0.014 A 
ATOM     30  C   UNL     1       9.283   8.444   7.580  1.00  0.00     0.010 A 
ATOM     31  C   UNL     1       9.662   6.503   8.981  1.00  0.00     0.010 A 
ATOM     32  C   UNL     1       9.352   7.866   8.859  1.00  0.00    -0.014 A 
BRANCH  32  33
ATOM     33  C   UNL     1       9.049   8.652  10.081  1.00  0.00     0.031 A 
ATOM     34  C   UNL     1      10.107   8.864  11.127  1.00  0.00     0.074 A 
ATOM     35  C   UNL     1       7.793   9.102  10.276  1.00  0.00     0.049 A 
ATOM     36  N   UNL     1       9.999   9.414  12.308  1.00  0.00    -0.248 NA
ATOM     37  C   UNL     1      11.457   8.372  10.812  1.00  0.00     0.031 C 
ATOM     38  C   UNL     1       6.679   8.929   9.339  1.00  0.00     0.029 A 
ATOM     39  N   UNL     1       7.232   9.780  11.329  1.00  0.00    -0.354 N 
ATOM     40  C   UNL     1      11.265   9.337  12.878  1.00  0.00     0.074 A 
ATOM     41  C   UNL     1      12.109   8.635  11.935  1.00  0.00     0.031 C 
ATOM     42  C   UNL     1       5.578   9.501   9.851  1.00  0.00     0.029 A 
ATOM     43  C   UNL     1       5.886  10.024  11.177  1.00  0.00     0.049 A 
ATOM     44  H   UNL     1       7.745  10.066  12.120  1.00  0.00     0.167 HD
ATOM     45  C   UNL     1      11.684   9.827  14.070  1.00  0.00     0.034 A 
ATOM     46  C   UNL     1       4.994  10.578  12.023  1.00  0.00     0.034 A 
ATOM     47  C   UNL     1      10.827  10.524  14.998  1.00  0.00     0.049 A 
ATOM     48  C   UNL     1       5.476  11.045  13.375  1.00  0.00     0.074 A 
ATOM     49  C   UNL     1      11.159  11.096  16.213  1.00  0.00     0.029 A 
ATOM     50  N   UNL     1       9.465  10.733  14.821  1.00  0.00    -0.354 N 
ATOM     51  N   UNL     1       6.689  11.010  13.877  1.00  0.00    -0.248 NA
ATOM     52  C   UNL     1       4.470  11.628  14.273  1.00  0.00     0.031 C 
ATOM     53  C   UNL     1       9.989  11.583  16.803  1.00  0.00     0.029 A 
ATOM     54  C   UNL     1       8.938  11.388  15.923  1.00  0.00     0.049 A 
ATOM     55  H   UNL     1       8.950  10.456  14.029  1.00  0.00     0.167 HD
ATOM     56  C   UNL     1       6.592  11.590  15.139  1.00  0.00     0.074 A 
ATOM     57  C   UNL     1       5.212  11.991  15.308  1.00  0.00     0.031 C 
ATOM     58  C   UNL     1       7.555  11.771  16.078  1.00  0.00     0.034 A 
BRANCH  45  59
ATOM     59  C   UNL     1      13.129   9.615  14.447  1.00  0.00     0.023 A 
ATOM     60  C   UNL     1      14.174  10.207  13.716  1.00  0.00     0.031 A 
ATOM     61  C   UNL     1      13.468   8.828  15.562  1.00  0.00     0.131 A 
ATOM     62  C   UNL     1      15.507   9.963  14.078  1.00  0.00     0.055 A 
ATOM     63  C   UNL     1      14.794   8.650  15.961  1.00  0.00     0.041 A 
ATOM     64  F   UNL     1      12.514   8.221  16.285  1.00  0.00    -0.206 F 
ATOM     65  C   UNL     1      15.824   9.211  15.212  1.00  0.00     0.022 A 
BRANCH  62  66
ATOM     66  S   UNL     1      16.825  10.554  12.982  1.00  0.00     0.124 S 
ATOM     67  O   UNL     1      16.510   9.854  11.739  1.00  0.00    -0.237 OA
ATOM     68  O   UNL     1      16.608  11.996  12.976  1.00  0.00    -0.237 OA
ATOM     69  O   UNL     1      18.048  10.110  13.646  1.00  0.00    -0.744 OA
ENDBRANCH  62  66
ENDBRANCH  45  59
BRANCH  46  70
ATOM     70  C   UNL     1       3.552  10.688  11.653  1.00  0.00     0.023 A 
ATOM     71  C   UNL     1       2.916  11.938  11.598  1.00  0.00     0.031 A 
ATOM     72  C   UNL     1       2.766   9.542  11.432  1.00  0.00     0.131 A 
ATOM     73  C   UNL     1       1.528  12.010  11.401  1.00  0.00     0.055 A 
ATOM     74  C   UNL     1       1.398   9.623  11.164  1.00  0.00     0.041 A 
ATOM     75  F   UNL     1       3.318   8.319  11.475  1.00  0.00    -0.206 F 
ATOM     76  C   UNL     1       0.767  10.863  11.167  1.00  0.00     0.022 A 
BRANCH  73  77
ATOM     77  S   UNL     1       0.711  13.618  11.593  1.00  0.00     0.124 S 
ATOM     78  O   UNL     1       1.133  14.005  12.934  1.00  0.00    -0.237 OA
ATOM     79  O   UNL     1       1.287  14.383  10.493  1.00  0.00    -0.237 OA
ATOM     80  O   UNL     1      -0.708  13.297  11.453  1.00  0.00    -0.744 OA
ENDBRANCH  73  77
ENDBRANCH  46  70
BRANCH  58  81
ATOM     81  C   UNL     1       7.144  12.460  17.356  1.00  0.00     0.023 A 
ATOM     82  C   UNL     1       6.249  11.860  18.259  1.00  0.00     0.031 A 
ATOM     83  C   UNL     1       7.648  13.734  17.671  1.00  0.00     0.131 A 
ATOM     84  C   UNL     1       5.843  12.556  19.407  1.00  0.00     0.055 A 
ATOM     85  C   UNL     1       7.292  14.394  18.848  1.00  0.00     0.041 A 
ATOM     86  F   UNL     1       8.503  14.355  16.843  1.00  0.00    -0.206 F 
ATOM     87  C   UNL     1       6.375  13.810  19.717  1.00  0.00     0.022 A 
BRANCH  84  88
ATOM     88  S   UNL     1       4.543  11.836  20.445  1.00  0.00     0.124 S 
ATOM     89  O   UNL     1       3.427  11.739  19.510  1.00  0.00    -0.237 OA
ATOM     90  O   UNL     1       5.138  10.570  20.860  1.00  0.00    -0.237 OA
ATOM     91  O   UNL     1       4.374  12.820  21.514  1.00  0.00    -0.744 OA
ENDBRANCH  84  88
ENDBRANCH  58  81
ENDBRANCH  32  33
ENDBRANCH  24  27
ENDBRANCH  22  23
ENDBRANCH   1  22
TORSDOF 16
