REMARK SMILES CN(CCc1ccccn1)C(=O)NC1(CC(=O)NCCCNC(=O)c2ccc(-c3c4nc(c(-c5cc(S(=O)(=O)[O-])ccc5F)c5ccc([nH]5)c(-c5cc(S(=O)(=O)[O-])ccc5F)c5nc(c(-c6cc(S(=O)(=O)[O-])ccc6F)c6ccc3[nH]6)C=C5)C=C4)cc2)CCC1
REMARK SMILES IDX 16 1 17 2 18 3 15 5 14 6 88 7 90 8 89 9 13 10 11 11 12 12
REMARK SMILES IDX 2 14 1 15 3 16 4 17 5 18 6 19 10 20 7 21 9 22 8 23 19 24
REMARK SMILES IDX 20 25 21 26 22 27 23 28 24 30 25 31 26 32 87 33 27 34 86 35
REMARK SMILES IDX 28 36 29 37 30 38 80 39 31 40 85 41 79 42 81 43 32 44 84 45
REMARK SMILES IDX 78 46 77 47 33 49 65 50 45 51 64 52 46 53 49 54 63 55 82 56
REMARK SMILES IDX 47 57 48 58 62 60 83 61 50 62 34 63 35 64 43 65 36 66 42 67
REMARK SMILES IDX 44 68 41 69 37 70 38 71 39 72 40 73 66 74 67 75 75 76 68 77
REMARK SMILES IDX 74 78 76 79 73 80 69 81 70 82 71 83 72 84 51 85 52 86 60 87
REMARK SMILES IDX 53 88 59 89 61 90 58 91 54 92 55 93 56 94 57 95
REMARK H PARENT 18 4 13 13 22 29 81 48 49 59
REMARK Flexibility Score: inf
ROOT
ATOM      1  C   UNL     1       1.845   4.600  -2.013  1.00  0.00     0.222 C 
ATOM      2  O   UNL     1       2.709   3.743  -1.813  1.00  0.00    -0.275 OA
ATOM      3  N   UNL     1       2.224   5.905  -1.942  1.00  0.00    -0.356 N 
ATOM      4  H   UNL     1       3.133   6.056  -1.595  1.00  0.00     0.163 HD
ENDROOT
BRANCH   1   5
ATOM      5  C   UNL     1       0.434   4.206  -2.403  1.00  0.00     0.128 C 
BRANCH   5   6
ATOM      6  C   UNL     1      -0.664   4.264  -1.328  1.00  0.00     0.051 C 
ATOM      7  C   UNL     1      -2.041   3.714  -1.822  1.00  0.00     0.029 C 
ATOM      8  C   UNL     1      -1.430   5.630  -1.153  1.00  0.00     0.029 C 
ATOM      9  C   UNL     1      -2.521   5.135  -2.095  1.00  0.00     0.005 C 
BRANCH   6  10
ATOM     10  N   UNL     1      -0.179   3.801   0.005  1.00  0.00    -0.332 N 
ATOM     11  C   UNL     1       0.557   2.717   0.381  1.00  0.00     0.317 C 
ATOM     12  O   UNL     1       1.556   2.944   1.069  1.00  0.00    -0.249 OA
ATOM     13  H   UNL     1      -0.439   4.387   0.752  1.00  0.00     0.165 HD
BRANCH  11  14
ATOM     14  N   UNL     1       0.132   1.444   0.091  1.00  0.00    -0.327 N 
ATOM     15  C   UNL     1       1.043   0.355   0.403  1.00  0.00     0.148 C 
BRANCH  14  16
ATOM     16  C   UNL     1      -1.258   1.062  -0.126  1.00  0.00     0.127 C 
BRANCH  16  17
ATOM     17  C   UNL     1      -2.235   1.184   1.067  1.00  0.00     0.078 C 
BRANCH  17  18
ATOM     18  C   UNL     1      -2.177   2.428   1.917  1.00  0.00     0.042 A 
ATOM     19  C   UNL     1      -2.994   3.532   1.675  1.00  0.00     0.024 A 
ATOM     20  N   UNL     1      -1.262   2.424   2.916  1.00  0.00    -0.261 NA
ATOM     21  C   UNL     1      -2.810   4.689   2.432  1.00  0.00     0.003 A 
ATOM     22  C   UNL     1      -1.096   3.561   3.626  1.00  0.00     0.111 A 
ATOM     23  C   UNL     1      -1.832   4.713   3.417  1.00  0.00     0.020 A 
ENDBRANCH  17  18
ENDBRANCH  16  17
ENDBRANCH  14  16
ENDBRANCH  11  14
ENDBRANCH   6  10
ENDBRANCH   5   6
ENDBRANCH   1   5
BRANCH   3  24
ATOM     24  C   UNL     1       1.496   7.104  -2.297  1.00  0.00     0.117 C 
BRANCH  24  25
ATOM     25  C   UNL     1       1.048   7.884  -1.063  1.00  0.00     0.042 C 
BRANCH  25  26
ATOM     26  C   UNL     1       2.089   8.860  -0.541  1.00  0.00     0.118 C 
BRANCH  26  27
ATOM     27  N   UNL     1       2.278   9.964  -1.469  1.00  0.00    -0.352 N 
ATOM     28  C   UNL     1       1.902  11.280  -1.384  1.00  0.00     0.251 C 
ATOM     29  H   UNL     1       2.756   9.727  -2.297  1.00  0.00     0.163 HD
ATOM     30  O   UNL     1       1.836  11.932  -2.424  1.00  0.00    -0.269 OA
BRANCH  28  31
ATOM     31  C   UNL     1       1.594  11.924  -0.083  1.00  0.00     0.039 A 
ATOM     32  C   UNL     1       0.734  13.029  -0.071  1.00  0.00     0.014 A 
ATOM     33  C   UNL     1       2.221  11.533   1.103  1.00  0.00     0.014 A 
ATOM     34  C   UNL     1       0.505  13.728   1.117  1.00  0.00     0.010 A 
ATOM     35  C   UNL     1       1.917  12.168   2.305  1.00  0.00     0.010 A 
ATOM     36  C   UNL     1       1.090  13.299   2.318  1.00  0.00    -0.014 A 
BRANCH  36  37
ATOM     37  C   UNL     1       0.919  14.068   3.577  1.00  0.00     0.031 A 
ATOM     38  C   UNL     1       2.119  14.706   4.232  1.00  0.00     0.074 A 
ATOM     39  C   UNL     1      -0.297  14.159   4.147  1.00  0.00     0.049 A 
ATOM     40  N   UNL     1       2.199  15.361   5.362  1.00  0.00    -0.248 NA
ATOM     41  C   UNL     1       3.408  14.550   3.540  1.00  0.00     0.031 C 
ATOM     42  C   UNL     1      -1.522  13.548   3.625  1.00  0.00     0.029 A 
ATOM     43  N   UNL     1      -0.706  14.797   5.290  1.00  0.00    -0.354 N 
ATOM     44  C   UNL     1       3.546  15.673   5.526  1.00  0.00     0.074 A 
ATOM     45  C   UNL     1       4.252  15.075   4.414  1.00  0.00     0.031 C 
ATOM     46  C   UNL     1      -2.549  13.866   4.430  1.00  0.00     0.029 A 
ATOM     47  C   UNL     1      -2.052  14.668   5.543  1.00  0.00     0.049 A 
ATOM     48  H   UNL     1      -0.094  15.300   5.874  1.00  0.00     0.167 HD
ATOM     49  C   UNL     1       4.136  16.411   6.499  1.00  0.00     0.034 A 
ATOM     50  C   UNL     1      -2.798  15.143   6.559  1.00  0.00     0.034 A 
ATOM     51  C   UNL     1       3.408  17.024   7.583  1.00  0.00     0.049 A 
ATOM     52  C   UNL     1      -2.128  15.983   7.616  1.00  0.00     0.074 A 
ATOM     53  C   UNL     1       3.886  17.830   8.601  1.00  0.00     0.029 A 
ATOM     54  N   UNL     1       2.039  16.898   7.788  1.00  0.00    -0.354 N 
ATOM     55  N   UNL     1      -0.859  16.302   7.737  1.00  0.00    -0.248 NA
ATOM     56  C   UNL     1      -2.993  16.543   8.661  1.00  0.00     0.031 C 
ATOM     57  C   UNL     1       2.818  18.148   9.449  1.00  0.00     0.029 A 
ATOM     58  C   UNL     1       1.659  17.599   8.922  1.00  0.00     0.049 A 
ATOM     59  H   UNL     1       1.427  16.386   7.211  1.00  0.00     0.167 HD
ATOM     60  C   UNL     1      -0.781  17.128   8.854  1.00  0.00     0.074 A 
ATOM     61  C   UNL     1      -2.132  17.269   9.359  1.00  0.00     0.031 C 
ATOM     62  C   UNL     1       0.306  17.722   9.411  1.00  0.00     0.034 A 
BRANCH  49  63
ATOM     63  C   UNL     1       5.639  16.571   6.437  1.00  0.00     0.023 A 
ATOM     64  C   UNL     1       6.272  17.205   5.353  1.00  0.00     0.031 A 
ATOM     65  C   UNL     1       6.455  16.045   7.455  1.00  0.00     0.131 A 
ATOM     66  C   UNL     1       7.673  17.220   5.267  1.00  0.00     0.055 A 
ATOM     67  C   UNL     1       7.848  16.140   7.406  1.00  0.00     0.041 A 
ATOM     68  F   UNL     1       5.914  15.411   8.507  1.00  0.00    -0.206 F 
ATOM     69  C   UNL     1       8.466  16.715   6.299  1.00  0.00     0.022 A 
BRANCH  66  70
ATOM     70  S   UNL     1       8.439  17.770   3.717  1.00  0.00     0.124 S 
ATOM     71  O   UNL     1       7.878  16.820   2.760  1.00  0.00    -0.237 OA
ATOM     72  O   UNL     1       7.970  19.145   3.603  1.00  0.00    -0.237 OA
ATOM     73  O   UNL     1       9.871  17.616   3.970  1.00  0.00    -0.744 OA
ENDBRANCH  66  70
ENDBRANCH  49  63
BRANCH  50  74
ATOM     74  C   UNL     1      -4.258  14.853   6.621  1.00  0.00     0.023 A 
ATOM     75  C   UNL     1      -5.205  15.880   6.484  1.00  0.00     0.031 A 
ATOM     76  C   UNL     1      -4.729  13.546   6.840  1.00  0.00     0.131 A 
ATOM     77  C   UNL     1      -6.573  15.592   6.613  1.00  0.00     0.055 A 
ATOM     78  C   UNL     1      -6.092  13.257   6.919  1.00  0.00     0.041 A 
ATOM     79  F   UNL     1      -3.865  12.526   6.964  1.00  0.00    -0.206 F 
ATOM     80  C   UNL     1      -7.023  14.286   6.818  1.00  0.00     0.022 A 
BRANCH  77  81
ATOM     81  S   UNL     1      -7.756  16.967   6.580  1.00  0.00     0.124 S 
ATOM     82  O   UNL     1      -7.276  17.800   7.676  1.00  0.00    -0.237 OA
ATOM     83  O   UNL     1      -7.563  17.499   5.236  1.00  0.00    -0.237 OA
ATOM     84  O   UNL     1      -9.043  16.313   6.810  1.00  0.00    -0.744 OA
ENDBRANCH  77  81
ENDBRANCH  50  74
BRANCH  62  85
ATOM     85  C   UNL     1       0.057  18.617  10.598  1.00  0.00     0.023 A 
ATOM     86  C   UNL     1      -0.391  18.107  11.829  1.00  0.00     0.031 A 
ATOM     87  C   UNL     1       0.251  20.005  10.486  1.00  0.00     0.131 A 
ATOM     88  C   UNL     1      -0.693  18.986  12.879  1.00  0.00     0.055 A 
ATOM     89  C   UNL     1       0.008  20.869  11.555  1.00  0.00     0.041 A 
ATOM     90  F   UNL     1       0.678  20.545   9.334  1.00  0.00    -0.206 F 
ATOM     91  C   UNL     1      -0.482  20.362  12.755  1.00  0.00     0.022 A 
BRANCH  88  92
ATOM     92  S   UNL     1      -1.464  18.316  14.378  1.00  0.00     0.124 S 
ATOM     93  O   UNL     1      -2.659  17.672  13.843  1.00  0.00    -0.237 OA
ATOM     94  O   UNL     1      -0.431  17.420  14.886  1.00  0.00    -0.237 OA
ATOM     95  O   UNL     1      -1.712  19.503  15.195  1.00  0.00    -0.744 OA
ENDBRANCH  88  92
ENDBRANCH  62  85
ENDBRANCH  36  37
ENDBRANCH  28  31
ENDBRANCH  26  27
ENDBRANCH  25  26
ENDBRANCH  24  25
ENDBRANCH   3  24
TORSDOF 19
