REMARK SMILES Cc1c(CC(=O)NCCCNC(=O)c2ccc(-c3c4nc(c(-c5cc(S(=O)(=O)[O-])ccc5F)c5ccc([nH]5)c(-c5cc(S(=O)(=O)[O-])ccc5F)c5nc(c(-c6cc(S(=O)(=O)[O-])ccc6F)c6ccc3[nH]6)C=C5)C=C4)cc2)cc(-c2ccccc2)cc1-c1ccccc1
REMARK SMILES IDX 9 1 8 2 7 3 5 4 6 5 4 7 3 8 1 9 2 10 86 11 77 12 85 13 78 14
REMARK SMILES IDX 87 15 88 16 92 17 89 18 91 19 90 20 79 21 80 22 84 23 81 24
REMARK SMILES IDX 83 25 82 26 10 27 11 28 12 29 13 31 14 32 15 33 76 34 16 35
REMARK SMILES IDX 75 36 17 37 18 38 19 39 69 40 20 41 74 42 68 43 70 44 21 45
REMARK SMILES IDX 73 46 67 47 66 48 22 50 54 51 34 52 53 53 35 54 38 55 52 56
REMARK SMILES IDX 71 57 36 58 37 59 51 61 72 62 39 63 23 64 24 65 32 66 25 67
REMARK SMILES IDX 31 68 33 69 30 70 26 71 27 72 28 73 29 74 55 75 56 76 64 77
REMARK SMILES IDX 57 78 63 79 65 80 62 81 58 82 59 83 60 84 61 85 40 86 41 87
REMARK SMILES IDX 49 88 42 89 48 90 50 91 47 92 43 93 44 94 45 95 46 96
REMARK H PARENT 7 6 11 30 70 49 38 60
REMARK Flexibility Score: inf
ROOT
ATOM      1  C   UNL     1       1.591  -0.635   3.029  1.00  0.00     0.042 C 
ENDROOT
BRANCH   1   2
ATOM      2  C   UNL     1       2.198  -2.009   2.750  1.00  0.00     0.117 C 
BRANCH   2   3
ATOM      3  N   UNL     1       1.198  -3.006   2.392  1.00  0.00    -0.356 N 
ATOM      4  C   UNL     1       0.663  -3.301   1.170  1.00  0.00     0.224 C 
ATOM      5  O   UNL     1      -0.168  -4.210   1.081  1.00  0.00    -0.275 OA
ATOM      6  H   UNL     1       0.858  -3.547   3.140  1.00  0.00     0.163 HD
BRANCH   4   7
ATOM      7  C   UNL     1       1.080  -2.514  -0.068  1.00  0.00     0.135 C 
BRANCH   7   8
ATOM      8  C   UNL     1       0.382  -1.169  -0.198  1.00  0.00    -0.035 A 
ATOM      9  C   UNL     1       2.578   0.105  -0.420  1.00  0.00     0.045 C 
ATOM     10  C   UNL     1       1.071   0.066  -0.299  1.00  0.00    -0.040 A 
ATOM     11  C   UNL     1       0.325   1.276  -0.308  1.00  0.00    -0.015 A 
ATOM     12  C   UNL     1      -1.030  -1.175  -0.182  1.00  0.00     0.013 A 
ATOM     13  C   UNL     1      -1.084   1.216  -0.266  1.00  0.00     0.017 A 
ATOM     14  C   UNL     1      -1.782   0.004  -0.218  1.00  0.00    -0.017 A 
BRANCH  11  15
ATOM     15  C   UNL     1       0.958   2.608  -0.297  1.00  0.00    -0.018 A 
ATOM     16  C   UNL     1       0.853   3.430   0.839  1.00  0.00     0.009 A 
ATOM     17  C   UNL     1       1.689   3.084  -1.396  1.00  0.00     0.009 A 
ATOM     18  C   UNL     1       1.469   4.682   0.880  1.00  0.00     0.001 A 
ATOM     19  C   UNL     1       2.317   4.332  -1.350  1.00  0.00     0.001 A 
ATOM     20  C   UNL     1       2.205   5.130  -0.213  1.00  0.00     0.000 A 
ENDBRANCH  11  15
BRANCH  14  21
ATOM     21  C   UNL     1      -3.253  -0.029  -0.196  1.00  0.00    -0.018 A 
ATOM     22  C   UNL     1      -3.952  -0.718   0.809  1.00  0.00     0.009 A 
ATOM     23  C   UNL     1      -4.003   0.619  -1.193  1.00  0.00     0.009 A 
ATOM     24  C   UNL     1      -5.349  -0.760   0.816  1.00  0.00     0.001 A 
ATOM     25  C   UNL     1      -5.399   0.576  -1.189  1.00  0.00     0.001 A 
ATOM     26  C   UNL     1      -6.072  -0.114  -0.184  1.00  0.00     0.000 A 
ENDBRANCH  14  21
ENDBRANCH   7   8
ENDBRANCH   4   7
ENDBRANCH   2   3
ENDBRANCH   1   2
BRANCH   1  27
ATOM     27  C   UNL     1       1.095  -0.474   4.460  1.00  0.00     0.118 C 
BRANCH  27  28
ATOM     28  N   UNL     1       1.840   0.516   5.234  1.00  0.00    -0.352 N 
ATOM     29  C   UNL     1       1.620   0.932   6.536  1.00  0.00     0.251 C 
ATOM     30  H   UNL     1       2.596   0.943   4.770  1.00  0.00     0.163 HD
ATOM     31  O   UNL     1       2.306   1.795   7.063  1.00  0.00    -0.269 OA
BRANCH  29  32
ATOM     32  C   UNL     1       0.599   0.211   7.329  1.00  0.00     0.039 A 
ATOM     33  C   UNL     1       1.035  -0.459   8.476  1.00  0.00     0.014 A 
ATOM     34  C   UNL     1      -0.674  -0.013   6.811  1.00  0.00     0.014 A 
ATOM     35  C   UNL     1       0.283  -1.520   8.970  1.00  0.00     0.010 A 
ATOM     36  C   UNL     1      -1.377  -1.123   7.244  1.00  0.00     0.010 A 
ATOM     37  C   UNL     1      -0.867  -1.914   8.281  1.00  0.00    -0.014 A 
BRANCH  37  38
ATOM     38  C   UNL     1      -1.478  -3.227   8.467  1.00  0.00     0.031 A 
ATOM     39  C   UNL     1      -2.783  -3.385   9.139  1.00  0.00     0.074 A 
ATOM     40  C   UNL     1      -0.848  -4.332   8.009  1.00  0.00     0.049 A 
ATOM     41  N   UNL     1      -3.130  -4.436   9.805  1.00  0.00    -0.248 NA
ATOM     42  C   UNL     1      -3.799  -2.341   9.140  1.00  0.00     0.031 C 
ATOM     43  C   UNL     1      -1.393  -5.682   7.901  1.00  0.00     0.029 A 
ATOM     44  N   UNL     1       0.515  -4.489   7.779  1.00  0.00    -0.354 N 
ATOM     45  C   UNL     1      -4.476  -4.340  10.062  1.00  0.00     0.074 A 
ATOM     46  C   UNL     1      -4.831  -2.987   9.692  1.00  0.00     0.031 C 
ATOM     47  C   UNL     1      -0.378  -6.559   7.884  1.00  0.00     0.029 A 
ATOM     48  C   UNL     1       0.847  -5.814   8.107  1.00  0.00     0.049 A 
ATOM     49  H   UNL     1       1.134  -3.799   7.447  1.00  0.00     0.167 HD
ATOM     50  C   UNL     1      -5.184  -5.448  10.422  1.00  0.00     0.034 A 
ATOM     51  C   UNL     1       1.788  -6.096   9.054  1.00  0.00     0.034 A 
ATOM     52  C   UNL     1      -4.342  -6.640  10.501  1.00  0.00     0.049 A 
ATOM     53  C   UNL     1       1.254  -6.907  10.213  1.00  0.00     0.074 A 
ATOM     54  C   UNL     1      -4.136  -7.701   9.634  1.00  0.00     0.029 A 
ATOM     55  N   UNL     1      -3.355  -6.732  11.475  1.00  0.00    -0.354 N 
ATOM     56  N   UNL     1      -0.015  -7.077  10.463  1.00  0.00    -0.248 NA
ATOM     57  C   UNL     1       2.105  -7.573  11.193  1.00  0.00     0.031 C 
ATOM     58  C   UNL     1      -2.989  -8.411  10.070  1.00  0.00     0.029 A 
ATOM     59  C   UNL     1      -2.514  -7.798  11.216  1.00  0.00     0.049 A 
ATOM     60  H   UNL     1      -3.267  -6.123  12.243  1.00  0.00     0.167 HD
ATOM     61  C   UNL     1      -0.168  -7.825  11.605  1.00  0.00     0.074 A 
ATOM     62  C   UNL     1       1.193  -8.132  12.008  1.00  0.00     0.031 C 
ATOM     63  C   UNL     1      -1.407  -8.111  12.113  1.00  0.00     0.034 A 
BRANCH  50  64
ATOM     64  C   UNL     1      -6.694  -5.502  10.386  1.00  0.00     0.023 A 
ATOM     65  C   UNL     1      -7.343  -6.697  10.010  1.00  0.00     0.031 A 
ATOM     66  C   UNL     1      -7.542  -4.416  10.670  1.00  0.00     0.131 A 
ATOM     67  C   UNL     1      -8.736  -6.745   9.813  1.00  0.00     0.055 A 
ATOM     68  C   UNL     1      -8.919  -4.441  10.411  1.00  0.00     0.041 A 
ATOM     69  F   UNL     1      -7.074  -3.298  11.246  1.00  0.00    -0.206 F 
ATOM     70  C   UNL     1      -9.522  -5.607   9.962  1.00  0.00     0.022 A 
BRANCH  67  71
ATOM     71  S   UNL     1      -9.510  -8.325   9.367  1.00  0.00     0.124 S 
ATOM     72  O   UNL     1      -8.797  -8.689   8.147  1.00  0.00    -0.237 OA
ATOM     73  O   UNL     1      -9.238  -9.143  10.543  1.00  0.00    -0.237 OA
ATOM     74  O   UNL     1     -10.916  -7.970   9.175  1.00  0.00    -0.744 OA
ENDBRANCH  67  71
ENDBRANCH  50  64
BRANCH  51  75
ATOM     75  C   UNL     1       2.876  -5.080   9.120  1.00  0.00     0.023 A 
ATOM     76  C   UNL     1       3.603  -4.845   7.932  1.00  0.00     0.031 A 
ATOM     77  C   UNL     1       2.936  -4.109  10.128  1.00  0.00     0.131 A 
ATOM     78  C   UNL     1       4.207  -3.602   7.704  1.00  0.00     0.055 A 
ATOM     79  C   UNL     1       3.607  -2.895   9.925  1.00  0.00     0.041 A 
ATOM     80  F   UNL     1       2.245  -4.262  11.267  1.00  0.00    -0.206 F 
ATOM     81  C   UNL     1       4.205  -2.618   8.693  1.00  0.00     0.022 A 
BRANCH  78  82
ATOM     82  S   UNL     1       4.734  -3.180   6.015  1.00  0.00     0.124 S 
ATOM     83  O   UNL     1       6.160  -3.478   6.052  1.00  0.00    -0.237 OA
ATOM     84  O   UNL     1       3.921  -4.066   5.184  1.00  0.00    -0.237 OA
ATOM     85  O   UNL     1       4.383  -1.766   5.890  1.00  0.00    -0.744 OA
ENDBRANCH  78  82
ENDBRANCH  51  75
BRANCH  63  86
ATOM     86  C   UNL     1      -1.713  -8.783  13.440  1.00  0.00     0.023 A 
ATOM     87  C   UNL     1      -0.775  -8.949  14.470  1.00  0.00     0.031 A 
ATOM     88  C   UNL     1      -3.027  -9.230  13.741  1.00  0.00     0.131 A 
ATOM     89  C   UNL     1      -1.118  -9.589  15.678  1.00  0.00     0.055 A 
ATOM     90  C   UNL     1      -3.383  -9.800  14.967  1.00  0.00     0.041 A 
ATOM     91  F   UNL     1      -4.031  -9.127  12.858  1.00  0.00    -0.206 F 
ATOM     92  C   UNL     1      -2.421  -9.998  15.943  1.00  0.00     0.022 A 
BRANCH  89  93
ATOM     93  S   UNL     1       0.197  -9.922  16.880  1.00  0.00     0.124 S 
ATOM     94  O   UNL     1       1.055 -10.844  16.139  1.00  0.00    -0.237 OA
ATOM     95  O   UNL     1       0.751  -8.593  17.116  1.00  0.00    -0.237 OA
ATOM     96  O   UNL     1      -0.511 -10.511  18.015  1.00  0.00    -0.744 OA
ENDBRANCH  89  93
ENDBRANCH  63  86
ENDBRANCH  37  38
ENDBRANCH  29  32
ENDBRANCH  27  28
ENDBRANCH   1  27
TORSDOF 16
