REMARK SMILES O=C(NCCCNC(=O)c1ccn(-c2cc(-c3ccncc3)nc(-c3ccccc3F)n2)n1)c1ccc(-c2c3nc(c(-c4cc(S(=O)(=O)[O-])ccc4F)c4ccc([nH]4)c(-c4cc(S(=O)(=O)[O-])ccc4F)c4nc(c(-c5cc(S(=O)(=O)[O-])ccc5F)c5ccc2[nH]5)C=C4)C=C3)cc1
REMARK SMILES IDX 4 1 3 2 1 3 2 4 34 6 35 7 96 8 36 9 95 10 37 11 38 12 39 13
REMARK SMILES IDX 89 14 40 15 94 16 88 17 90 18 41 19 93 20 87 21 86 22 42 24
REMARK SMILES IDX 74 25 54 26 73 27 55 28 58 29 72 30 91 31 56 32 57 33 71 35
REMARK SMILES IDX 92 36 59 37 43 38 44 39 52 40 45 41 51 42 53 43 50 44 46 45
REMARK SMILES IDX 47 46 48 47 49 48 75 49 76 50 84 51 77 52 83 53 85 54 82 55
REMARK SMILES IDX 78 56 79 57 80 58 81 59 60 60 61 61 69 62 62 63 68 64 70 65
REMARK SMILES IDX 67 66 63 67 64 68 65 69 66 70 5 71 6 72 7 73 8 74 9 76 10 77
REMARK SMILES IDX 11 78 33 79 12 80 13 81 14 82 15 83 32 84 16 85 24 86 23 87
REMARK SMILES IDX 17 88 18 89 22 90 19 91 21 92 20 93 25 94 26 95 30 96 27 97
REMARK SMILES IDX 29 98 31 99 28 100
REMARK H PARENT 3 5 90 23 58 34 7 75
REMARK Flexibility Score: inf
ROOT
ATOM      1  C   UNL     1       4.756  -1.192   0.103  1.00  0.00     0.118 C 
ENDROOT
BRANCH   1   2
ATOM      2  N   UNL     1       3.366  -1.079  -0.295  1.00  0.00    -0.352 N 
ATOM      3  O   UNL     1       1.321  -0.332  -0.660  1.00  0.00    -0.269 OA
ATOM      4  C   UNL     1       2.345  -0.224   0.020  1.00  0.00     0.251 C 
ATOM      5  H   UNL     1       3.096  -1.776  -0.936  1.00  0.00     0.163 HD
BRANCH   4   6
ATOM      6  C   UNL     1       2.367   0.757   1.139  1.00  0.00     0.039 A 
ATOM      7  C   UNL     1       3.511   1.230   1.782  1.00  0.00     0.014 A 
ATOM      8  C   UNL     1       1.112   1.235   1.563  1.00  0.00     0.014 A 
ATOM      9  C   UNL     1       3.404   2.098   2.868  1.00  0.00     0.010 A 
ATOM     10  C   UNL     1       1.000   2.119   2.632  1.00  0.00     0.010 A 
ATOM     11  C   UNL     1       2.150   2.538   3.297  1.00  0.00    -0.014 A 
BRANCH  11  12
ATOM     12  C   UNL     1       2.099   3.621   4.282  1.00  0.00     0.031 A 
ATOM     13  C   UNL     1       2.631   4.926   3.789  1.00  0.00     0.074 A 
ATOM     14  C   UNL     1       1.455   3.553   5.465  1.00  0.00     0.049 A 
ATOM     15  N   UNL     1       3.586   5.646   4.280  1.00  0.00    -0.248 NA
ATOM     16  C   UNL     1       2.083   5.447   2.524  1.00  0.00     0.031 C 
ATOM     17  C   UNL     1       0.636   2.449   5.963  1.00  0.00     0.029 A 
ATOM     18  N   UNL     1       1.301   4.514   6.426  1.00  0.00    -0.354 N 
ATOM     19  C   UNL     1       3.607   6.816   3.524  1.00  0.00     0.074 A 
ATOM     20  C   UNL     1       2.786   6.568   2.369  1.00  0.00     0.031 C 
ATOM     21  C   UNL     1      -0.094   2.878   7.017  1.00  0.00     0.029 A 
ATOM     22  C   UNL     1       0.280   4.247   7.336  1.00  0.00     0.049 A 
ATOM     23  H   UNL     1       1.861   5.323   6.471  1.00  0.00     0.167 HD
ATOM     24  C   UNL     1       4.099   7.984   4.019  1.00  0.00     0.034 A 
ATOM     25  C   UNL     1      -0.266   5.108   8.238  1.00  0.00     0.034 A 
ATOM     26  C   UNL     1       5.011   7.761   5.112  1.00  0.00     0.049 A 
ATOM     27  C   UNL     1       0.742   6.170   8.483  1.00  0.00     0.074 A 
ATOM     28  C   UNL     1       6.161   7.009   5.275  1.00  0.00     0.029 A 
ATOM     29  N   UNL     1       4.607   8.086   6.385  1.00  0.00    -0.354 N 
ATOM     30  N   UNL     1       1.902   5.962   9.044  1.00  0.00    -0.248 NA
ATOM     31  C   UNL     1       0.624   7.413   7.739  1.00  0.00     0.031 C 
ATOM     32  C   UNL     1       6.080   6.497   6.602  1.00  0.00     0.029 A 
ATOM     33  C   UNL     1       4.922   7.017   7.184  1.00  0.00     0.049 A 
ATOM     34  H   UNL     1       4.175   8.925   6.668  1.00  0.00     0.167 HD
ATOM     35  C   UNL     1       2.771   6.825   8.396  1.00  0.00     0.074 A 
ATOM     36  C   UNL     1       1.911   7.760   7.677  1.00  0.00     0.031 C 
ATOM     37  C   UNL     1       4.101   6.544   8.279  1.00  0.00     0.034 A 
BRANCH  24  38
ATOM     38  C   UNL     1       3.475   9.335   3.743  1.00  0.00     0.023 A 
ATOM     39  C   UNL     1       4.124  10.480   4.240  1.00  0.00     0.031 A 
ATOM     40  C   UNL     1       2.149   9.528   3.286  1.00  0.00     0.131 A 
ATOM     41  C   UNL     1       3.444  11.708   4.338  1.00  0.00     0.055 A 
ATOM     42  C   UNL     1       1.505  10.767   3.317  1.00  0.00     0.041 A 
ATOM     43  F   UNL     1       1.371   8.518   2.879  1.00  0.00    -0.206 F 
ATOM     44  C   UNL     1       2.141  11.861   3.872  1.00  0.00     0.022 A 
BRANCH  41  45
ATOM     45  S   UNL     1       4.235  13.063   5.245  1.00  0.00     0.124 S 
ATOM     46  O   UNL     1       4.439  12.456   6.555  1.00  0.00    -0.237 OA
ATOM     47  O   UNL     1       5.435  13.298   4.449  1.00  0.00    -0.237 OA
ATOM     48  O   UNL     1       3.239  14.130   5.197  1.00  0.00    -0.744 OA
ENDBRANCH  41  45
ENDBRANCH  24  38
BRANCH  25  49
ATOM     49  C   UNL     1      -1.690   5.215   8.683  1.00  0.00     0.023 A 
ATOM     50  C   UNL     1      -2.078   6.064   9.746  1.00  0.00     0.031 A 
ATOM     51  C   UNL     1      -2.739   4.671   7.909  1.00  0.00     0.131 A 
ATOM     52  C   UNL     1      -3.446   6.338   9.987  1.00  0.00     0.055 A 
ATOM     53  C   UNL     1      -4.089   4.931   8.162  1.00  0.00     0.041 A 
ATOM     54  F   UNL     1      -2.496   3.934   6.815  1.00  0.00    -0.206 F 
ATOM     55  C   UNL     1      -4.449   5.778   9.195  1.00  0.00     0.022 A 
BRANCH  52  56
ATOM     56  S   UNL     1      -3.945   7.549  11.255  1.00  0.00     0.124 S 
ATOM     57  O   UNL     1      -3.909   6.746  12.472  1.00  0.00    -0.237 OA
ATOM     58  O   UNL     1      -2.927   8.585  11.129  1.00  0.00    -0.237 OA
ATOM     59  O   UNL     1      -5.284   7.953  10.822  1.00  0.00    -0.744 OA
ENDBRANCH  52  56
ENDBRANCH  25  49
BRANCH  37  60
ATOM     60  C   UNL     1       4.724   5.506   9.179  1.00  0.00     0.023 A 
ATOM     61  C   UNL     1       4.408   4.130   9.170  1.00  0.00     0.031 A 
ATOM     62  C   UNL     1       5.820   5.927   9.953  1.00  0.00     0.131 A 
ATOM     63  C   UNL     1       5.194   3.230   9.919  1.00  0.00     0.055 A 
ATOM     64  C   UNL     1       6.603   5.032  10.678  1.00  0.00     0.041 A 
ATOM     65  F   UNL     1       6.184   7.220   9.969  1.00  0.00    -0.206 F 
ATOM     66  C   UNL     1       6.293   3.678  10.663  1.00  0.00     0.022 A 
BRANCH  63  67
ATOM     67  S   UNL     1       4.834   1.443   9.893  1.00  0.00     0.124 S 
ATOM     68  O   UNL     1       3.498   1.365  10.472  1.00  0.00    -0.237 OA
ATOM     69  O   UNL     1       4.942   1.108   8.475  1.00  0.00    -0.237 OA
ATOM     70  O   UNL     1       5.892   0.867  10.727  1.00  0.00    -0.744 OA
ENDBRANCH  63  67
ENDBRANCH  37  60
ENDBRANCH  11  12
ENDBRANCH   4   6
ENDBRANCH   1   2
BRANCH   1  71
ATOM     71  C   UNL     1       5.005  -1.818   1.476  1.00  0.00     0.042 C 
BRANCH  71  72
ATOM     72  C   UNL     1       4.452  -3.233   1.644  1.00  0.00     0.118 C 
BRANCH  72  73
ATOM     73  N   UNL     1       5.052  -4.162   0.703  1.00  0.00    -0.351 N 
ATOM     74  C   UNL     1       5.973  -5.156   0.925  1.00  0.00     0.271 C 
ATOM     75  H   UNL     1       4.755  -4.065  -0.230  1.00  0.00     0.163 HD
ATOM     76  O   UNL     1       6.521  -5.665  -0.053  1.00  0.00    -0.267 OA
BRANCH  74  77
ATOM     77  C   UNL     1       6.216  -5.627   2.294  1.00  0.00     0.150 A 
ATOM     78  C   UNL     1       5.250  -6.131   3.204  1.00  0.00     0.056 A 
ATOM     79  N   UNL     1       7.458  -5.727   2.805  1.00  0.00    -0.161 NA
ATOM     80  C   UNL     1       5.977  -6.670   4.236  1.00  0.00     0.118 A 
ATOM     81  N   UNL     1       7.301  -6.434   3.954  1.00  0.00    -0.222 N 
BRANCH  81  82
ATOM     82  C   UNL     1       8.412  -6.912   4.704  1.00  0.00     0.158 A 
ATOM     83  C   UNL     1       9.607  -6.226   4.633  1.00  0.00     0.078 A 
ATOM     84  N   UNL     1       8.241  -8.028   5.450  1.00  0.00    -0.209 NA
ATOM     85  C   UNL     1      10.632  -6.718   5.415  1.00  0.00     0.077 A 
ATOM     86  C   UNL     1       9.323  -8.468   6.111  1.00  0.00     0.165 A 
ATOM     87  N   UNL     1      10.523  -7.865   6.117  1.00  0.00    -0.228 NA
BRANCH  85  88
ATOM     88  C   UNL     1      11.899  -5.999   5.579  1.00  0.00     0.003 A 
ATOM     89  C   UNL     1      11.923  -4.699   6.101  1.00  0.00     0.030 A 
ATOM     90  C   UNL     1      13.120  -6.598   5.258  1.00  0.00     0.030 A 
ATOM     91  C   UNL     1      13.143  -4.063   6.266  1.00  0.00     0.111 A 
ATOM     92  C   UNL     1      14.289  -5.877   5.449  1.00  0.00     0.111 A 
ATOM     93  N   UNL     1      14.328  -4.621   5.941  1.00  0.00    -0.265 NA
ENDBRANCH  85  88
BRANCH  86  94
ATOM     94  C   UNL     1       9.222  -9.768   6.759  1.00  0.00     0.055 A 
ATOM     95  C   UNL     1       9.060 -10.942   5.999  1.00  0.00     0.015 A 
ATOM     96  C   UNL     1       9.289  -9.894   8.148  1.00  0.00     0.134 A 
ATOM     97  C   UNL     1       8.979 -12.195   6.616  1.00  0.00     0.001 A 
ATOM     98  C   UNL     1       9.198 -11.139   8.772  1.00  0.00     0.040 A 
ATOM     99  F   UNL     1       9.424  -8.806   8.922  1.00  0.00    -0.206 F 
ATOM    100  C   UNL     1       9.047 -12.292   8.004  1.00  0.00     0.003 A 
ENDBRANCH  86  94
ENDBRANCH  81  82
ENDBRANCH  74  77
ENDBRANCH  72  73
ENDBRANCH  71  72
ENDBRANCH   1  71
TORSDOF 16
