REMARK SMILES COc1ccc(C(=O)C2=C(NCCCNC(=O)c3ccc(-c4c5nc(c(-c6cc(S(=O)(=O)[O-])ccc6F)c6ccc([nH]6)c(-c6cc(S(=O)(=O)[O-])ccc6F)c6nc(c(-c7cc(S(=O)(=O)[O-])ccc7F)c7ccc4[nH]7)C=C6)C=C5)cc3)C(=O)N(CC(=O)[O-])[C@H]2c2ccccc2)cc1
REMARK SMILES IDX 13 1 12 2 11 3 10 5 9 6 88 7 81 8 83 9 82 10 7 11 8 12 6 13
REMARK SMILES IDX 3 14 4 15 96 16 5 17 95 18 2 19 1 20 89 21 90 22 94 23 91 24
REMARK SMILES IDX 93 25 92 26 84 27 85 28 86 29 87 30 14 31 15 32 16 33 17 35
REMARK SMILES IDX 18 36 19 37 80 38 20 39 79 40 21 41 22 42 23 43 73 44 24 45
REMARK SMILES IDX 78 46 72 47 74 48 25 49 77 50 71 51 70 52 26 54 58 55 38 56
REMARK SMILES IDX 57 57 39 58 42 59 56 60 75 61 40 62 41 63 55 65 76 66 43 67
REMARK SMILES IDX 27 68 28 69 36 70 29 71 35 72 37 73 34 74 30 75 31 76 32 77
REMARK SMILES IDX 33 78 59 79 60 80 68 81 61 82 67 83 69 84 66 85 62 86 63 87
REMARK SMILES IDX 64 88 65 89 44 90 45 91 53 92 46 93 52 94 54 95 51 96 47 97
REMARK SMILES IDX 48 98 49 99 50 100
REMARK H PARENT 11 4 15 34 74 53 42 64
REMARK Flexibility Score: inf
ROOT
ATOM      1  C   UNL     1       0.474  -1.727  -7.343  1.00  0.00     0.042 C 
ENDROOT
BRANCH   1   2
ATOM      2  C   UNL     1       0.961  -3.171  -7.324  1.00  0.00     0.115 C 
BRANCH   2   3
ATOM      3  N   UNL     1       2.405  -3.219  -7.366  1.00  0.00    -0.380 N 
ATOM      4  H   UNL     1       2.813  -2.793  -8.155  1.00  0.00     0.160 HD
BRANCH   3   5
ATOM      5  C   UNL     1       3.295  -3.765  -6.479  1.00  0.00     0.110 C 
ATOM      6  C   UNL     1       3.249  -4.309  -5.257  1.00  0.00     0.056 C 
ATOM      7  C   UNL     1       4.553  -4.880  -4.779  1.00  0.00     0.153 C 
ATOM      8  C   UNL     1       4.733  -3.907  -6.896  1.00  0.00     0.271 C 
ATOM      9  N   UNL     1       5.403  -4.574  -5.903  1.00  0.00    -0.320 N 
ATOM     10  O   UNL     1       5.188  -3.507  -7.956  1.00  0.00    -0.267 OA
BRANCH   6  11
ATOM     11  C   UNL     1       2.010  -4.558  -4.505  1.00  0.00     0.193 C 
ATOM     12  O   UNL     1       1.423  -5.627  -4.659  1.00  0.00    -0.289 OA
BRANCH  11  13
ATOM     13  C   UNL     1       1.511  -3.552  -3.521  1.00  0.00     0.023 A 
ATOM     14  C   UNL     1       0.608  -1.865  -1.446  1.00  0.00     0.118 A 
ATOM     15  C   UNL     1      -0.151  -2.966  -1.847  1.00  0.00     0.047 A 
ATOM     16  C   UNL     1       1.793  -1.581  -2.120  1.00  0.00     0.047 A 
ATOM     17  C   UNL     1       0.297  -3.808  -2.871  1.00  0.00     0.016 A 
ATOM     18  C   UNL     1       2.224  -2.403  -3.171  1.00  0.00     0.016 A 
BRANCH  14  19
ATOM     19  O   UNL     1       0.096  -1.165  -0.390  1.00  0.00    -0.497 OA
ATOM     20  C   UNL     1       0.785   0.021  -0.009  1.00  0.00     0.278 C 
ENDBRANCH  14  19
ENDBRANCH  11  13
ENDBRANCH   6  11
BRANCH   7  21
ATOM     21  C   UNL     1       5.070  -4.255  -3.494  1.00  0.00    -0.021 A 
ATOM     22  C   UNL     1       5.641  -2.966  -3.476  1.00  0.00     0.006 A 
ATOM     23  C   UNL     1       4.950  -4.948  -2.280  1.00  0.00     0.006 A 
ATOM     24  C   UNL     1       6.062  -2.385  -2.280  1.00  0.00     0.000 A 
ATOM     25  C   UNL     1       5.385  -4.367  -1.086  1.00  0.00     0.000 A 
ATOM     26  C   UNL     1       5.934  -3.086  -1.086  1.00  0.00     0.000 A 
ENDBRANCH   7  21
BRANCH   9  27
ATOM     27  C   UNL     1       6.804  -4.955  -6.002  1.00  0.00     0.173 C 
BRANCH  27  28
ATOM     28  C   UNL     1       7.078  -6.158  -6.891  1.00  0.00     0.061 C 
ATOM     29  O   UNL     1       8.190  -6.567  -7.196  1.00  0.00    -0.548 OA
ATOM     30  O   UNL     1       5.983  -6.829  -7.296  1.00  0.00    -0.548 OA
ENDBRANCH  27  28
ENDBRANCH   9  27
ENDBRANCH   3   5
ENDBRANCH   2   3
ENDBRANCH   1   2
BRANCH   1  31
ATOM     31  C   UNL     1       0.792  -0.974  -8.632  1.00  0.00     0.118 C 
BRANCH  31  32
ATOM     32  N   UNL     1       0.095  -1.514  -9.791  1.00  0.00    -0.352 N 
ATOM     33  C   UNL     1      -0.825  -0.931 -10.630  1.00  0.00     0.251 C 
ATOM     34  H   UNL     1       0.318  -2.448 -10.009  1.00  0.00     0.163 HD
ATOM     35  O   UNL     1      -1.426  -1.635 -11.438  1.00  0.00    -0.269 OA
BRANCH  33  36
ATOM     36  C   UNL     1      -1.114   0.519 -10.553  1.00  0.00     0.039 A 
ATOM     37  C   UNL     1      -2.440   0.947 -10.670  1.00  0.00     0.014 A 
ATOM     38  C   UNL     1      -0.094   1.461 -10.395  1.00  0.00     0.014 A 
ATOM     39  C   UNL     1      -2.748   2.306 -10.554  1.00  0.00     0.010 A 
ATOM     40  C   UNL     1      -0.409   2.805 -10.201  1.00  0.00     0.010 A 
ATOM     41  C   UNL     1      -1.740   3.244 -10.275  1.00  0.00    -0.014 A 
BRANCH  41  42
ATOM     42  C   UNL     1      -2.064   4.678 -10.046  1.00  0.00     0.031 A 
ATOM     43  C   UNL     1      -1.526   5.738 -10.970  1.00  0.00     0.074 A 
ATOM     44  C   UNL     1      -2.794   5.030  -8.967  1.00  0.00     0.049 A 
ATOM     45  N   UNL     1      -1.640   7.040 -10.892  1.00  0.00    -0.248 NA
ATOM     46  C   UNL     1      -0.731   5.274 -12.117  1.00  0.00     0.031 C 
ATOM     47  C   UNL     1      -3.334   4.100  -7.973  1.00  0.00     0.029 A 
ATOM     48  N   UNL     1      -3.200   6.263  -8.518  1.00  0.00    -0.354 N 
ATOM     49  C   UNL     1      -0.920   7.551 -11.968  1.00  0.00     0.074 A 
ATOM     50  C   UNL     1      -0.329   6.419 -12.649  1.00  0.00     0.031 C 
ATOM     51  C   UNL     1      -4.019   4.791  -7.048  1.00  0.00     0.029 A 
ATOM     52  C   UNL     1      -3.929   6.215  -7.352  1.00  0.00     0.049 A 
ATOM     53  H   UNL     1      -2.990   7.103  -8.987  1.00  0.00     0.167 HD
ATOM     54  C   UNL     1      -0.783   8.842 -12.362  1.00  0.00     0.034 A 
ATOM     55  C   UNL     1      -4.456   7.205  -6.603  1.00  0.00     0.034 A 
ATOM     56  C   UNL     1      -1.395   9.959 -11.683  1.00  0.00     0.049 A 
ATOM     57  C   UNL     1      -4.281   8.633  -7.058  1.00  0.00     0.074 A 
ATOM     58  C   UNL     1      -1.372  11.298 -12.034  1.00  0.00     0.029 A 
ATOM     59  N   UNL     1      -2.135   9.871 -10.510  1.00  0.00    -0.354 N 
ATOM     60  N   UNL     1      -3.643   9.092  -8.109  1.00  0.00    -0.248 NA
ATOM     61  C   UNL     1      -4.908   9.672  -6.231  1.00  0.00     0.031 C 
ATOM     62  C   UNL     1      -2.038  12.025 -11.041  1.00  0.00     0.029 A 
ATOM     63  C   UNL     1      -2.545  11.134 -10.109  1.00  0.00     0.049 A 
ATOM     64  H   UNL     1      -2.338   9.034 -10.033  1.00  0.00     0.167 HD
ATOM     65  C   UNL     1      -3.821  10.473  -8.085  1.00  0.00     0.074 A 
ATOM     66  C   UNL     1      -4.638  10.767  -6.927  1.00  0.00     0.031 C 
ATOM     67  C   UNL     1      -3.353  11.414  -8.945  1.00  0.00     0.034 A 
BRANCH  54  68
ATOM     68  C   UNL     1       0.080   9.115 -13.571  1.00  0.00     0.023 A 
ATOM     69  C   UNL     1      -0.259   8.630 -14.847  1.00  0.00     0.031 A 
ATOM     70  C   UNL     1       1.262   9.866 -13.446  1.00  0.00     0.131 A 
ATOM     71  C   UNL     1       0.608   8.842 -15.930  1.00  0.00     0.055 A 
ATOM     72  C   UNL     1       2.081  10.140 -14.544  1.00  0.00     0.041 A 
ATOM     73  F   UNL     1       1.648  10.340 -12.251  1.00  0.00    -0.206 F 
ATOM     74  C   UNL     1       1.763   9.616 -15.793  1.00  0.00     0.022 A 
BRANCH  71  75
ATOM     75  S   UNL     1       0.270   7.983 -17.491  1.00  0.00     0.124 S 
ATOM     76  O   UNL     1       0.314   6.584 -17.073  1.00  0.00    -0.237 OA
ATOM     77  O   UNL     1      -1.043   8.500 -17.858  1.00  0.00    -0.237 OA
ATOM     78  O   UNL     1       1.370   8.402 -18.358  1.00  0.00    -0.744 OA
ENDBRANCH  71  75
ENDBRANCH  54  68
BRANCH  55  79
ATOM     79  C   UNL     1      -5.187   6.895  -5.340  1.00  0.00     0.023 A 
ATOM     80  C   UNL     1      -6.551   7.196  -5.200  1.00  0.00     0.031 A 
ATOM     81  C   UNL     1      -4.518   6.340  -4.234  1.00  0.00     0.131 A 
ATOM     82  C   UNL     1      -7.191   6.991  -3.968  1.00  0.00     0.055 A 
ATOM     83  C   UNL     1      -5.173   6.084  -3.028  1.00  0.00     0.041 A 
ATOM     84  F   UNL     1      -3.215   6.029  -4.314  1.00  0.00    -0.206 F 
ATOM     85  C   UNL     1      -6.515   6.425  -2.885  1.00  0.00     0.022 A 
BRANCH  82  86
ATOM     86  S   UNL     1      -8.899   7.569  -3.770  1.00  0.00     0.124 S 
ATOM     87  O   UNL     1      -8.774   8.983  -4.104  1.00  0.00    -0.237 OA
ATOM     88  O   UNL     1      -9.612   6.741  -4.737  1.00  0.00    -0.237 OA
ATOM     89  O   UNL     1      -9.194   7.282  -2.368  1.00  0.00    -0.744 OA
ENDBRANCH  82  86
ENDBRANCH  55  79
BRANCH  67  90
ATOM     90  C   UNL     1      -3.758  12.844  -8.682  1.00  0.00     0.023 A 
ATOM     91  C   UNL     1      -3.313  13.543  -7.546  1.00  0.00     0.031 A 
ATOM     92  C   UNL     1      -4.617  13.510  -9.574  1.00  0.00     0.131 A 
ATOM     93  C   UNL     1      -3.776  14.844  -7.301  1.00  0.00     0.055 A 
ATOM     94  C   UNL     1      -5.025  14.826  -9.357  1.00  0.00     0.041 A 
ATOM     95  F   UNL     1      -5.075  12.890 -10.674  1.00  0.00    -0.206 F 
ATOM     96  C   UNL     1      -4.615  15.497  -8.208  1.00  0.00     0.022 A 
BRANCH  93  97
ATOM     97  S   UNL     1      -3.341  15.642  -5.731  1.00  0.00     0.124 S 
ATOM     98  O   UNL     1      -3.882  14.703  -4.753  1.00  0.00    -0.237 OA
ATOM     99  O   UNL     1      -1.885  15.712  -5.809  1.00  0.00    -0.237 OA
ATOM    100  O   UNL     1      -4.027  16.931  -5.799  1.00  0.00    -0.744 OA
ENDBRANCH  93  97
ENDBRANCH  67  90
ENDBRANCH  41  42
ENDBRANCH  33  36
ENDBRANCH  31  32
ENDBRANCH   1  31
TORSDOF 19
