REMARK SMILES C[C@H](Oc1ccnc2c(F)cc(F)cc12)C(=O)NCCCNC(=O)c1ccc(-c2c3nc(c(-c4cc(S(=O)(=O)[O-])ccc4F)c4ccc([nH]4)c(-c4cc(S(=O)(=O)[O-])ccc4F)c4nc(c(-c5cc(S(=O)(=O)[O-])ccc5F)c5ccc2[nH]5)C=C4)C=C3)cc1
REMARK SMILES IDX 20 1 19 2 18 3 16 4 17 5 2 7 1 8 3 9 4 10 5 11 15 12 6 13
REMARK SMILES IDX 8 14 14 15 7 16 9 17 12 18 10 19 11 20 13 21 21 22 22 23
REMARK SMILES IDX 23 24 24 26 25 27 26 28 87 29 27 30 86 31 28 32 29 33 30 34
REMARK SMILES IDX 80 35 31 36 85 37 79 38 81 39 32 40 84 41 78 42 77 43 33 45
REMARK SMILES IDX 65 46 45 47 64 48 46 49 49 50 63 51 82 52 47 53 48 54 62 56
REMARK SMILES IDX 83 57 50 58 34 59 35 60 43 61 36 62 42 63 44 64 41 65 37 66
REMARK SMILES IDX 38 67 39 68 40 69 66 70 67 71 75 72 68 73 74 74 76 75 73 76
REMARK SMILES IDX 69 77 70 78 71 79 72 80 51 81 52 82 60 83 53 84 59 85 61 86
REMARK SMILES IDX 58 87 54 88 55 89 56 90 57 91
REMARK H PARENT 18 6 22 25 81 44 49 55
REMARK Flexibility Score: inf
ROOT
ATOM      1  C   UNL     1      -1.356  -0.215   2.607  1.00  0.00     0.042 C 
ENDROOT
BRANCH   1   2
ATOM      2  C   UNL     1      -0.894  -1.482   1.899  1.00  0.00     0.118 C 
BRANCH   2   3
ATOM      3  N   UNL     1      -1.454  -1.621   0.566  1.00  0.00    -0.353 N 
ATOM      4  C   UNL     1      -0.852  -1.540  -0.654  1.00  0.00     0.260 C 
ATOM      5  O   UNL     1      -1.558  -1.683  -1.658  1.00  0.00    -0.271 OA
ATOM      6  H   UNL     1      -2.422  -1.803   0.539  1.00  0.00     0.163 HD
BRANCH   4   7
ATOM      7  C   UNL     1       0.664  -1.312  -0.791  1.00  0.00     0.258 C 
ATOM      8  C   UNL     1       1.441  -2.521  -0.265  1.00  0.00     0.064 C 
BRANCH   7   9
ATOM      9  O   UNL     1       1.136  -0.136  -0.144  1.00  0.00    -0.480 OA
BRANCH   9  10
ATOM     10  C   UNL     1       0.851   1.091  -0.700  1.00  0.00     0.131 A 
ATOM     11  C   UNL     1       0.282   1.273  -1.956  1.00  0.00     0.067 A 
ATOM     12  C   UNL     1       1.185   2.225   0.082  1.00  0.00     0.048 A 
ATOM     13  C   UNL     1       0.080   2.564  -2.399  1.00  0.00     0.115 A 
ATOM     14  C   UNL     1       0.934   3.507  -0.458  1.00  0.00     0.110 A 
ATOM     15  C   UNL     1       1.744   2.124   1.374  1.00  0.00     0.053 A 
ATOM     16  N   UNL     1       0.397   3.661  -1.688  1.00  0.00    -0.253 NA
ATOM     17  C   UNL     1       1.255   4.625   0.323  1.00  0.00     0.152 A 
ATOM     18  C   UNL     1       2.035   3.264   2.116  1.00  0.00     0.127 A 
ATOM     19  F   UNL     1       1.035   5.855  -0.172  1.00  0.00    -0.204 F 
ATOM     20  C   UNL     1       1.796   4.523   1.603  1.00  0.00     0.080 A 
ATOM     21  F   UNL     1       2.549   3.121   3.343  1.00  0.00    -0.207 F 
ENDBRANCH   9  10
ENDBRANCH   7   9
ENDBRANCH   4   7
ENDBRANCH   2   3
ENDBRANCH   1   2
BRANCH   1  22
ATOM     22  C   UNL     1      -2.866  -0.116   2.792  1.00  0.00     0.118 C 
BRANCH  22  23
ATOM     23  N   UNL     1      -3.403  -1.172   3.642  1.00  0.00    -0.352 N 
ATOM     24  C   UNL     1      -3.889  -1.106   4.925  1.00  0.00     0.251 C 
ATOM     25  H   UNL     1      -3.421  -2.067   3.233  1.00  0.00     0.163 HD
ATOM     26  O   UNL     1      -4.130  -2.143   5.540  1.00  0.00    -0.269 OA
BRANCH  24  27
ATOM     27  C   UNL     1      -4.097   0.205   5.572  1.00  0.00     0.039 A 
ATOM     28  C   UNL     1      -3.595   0.413   6.859  1.00  0.00     0.014 A 
ATOM     29  C   UNL     1      -4.786   1.226   4.911  1.00  0.00     0.014 A 
ATOM     30  C   UNL     1      -3.717   1.671   7.452  1.00  0.00     0.010 A 
ATOM     31  C   UNL     1      -4.850   2.496   5.476  1.00  0.00     0.010 A 
ATOM     32  C   UNL     1      -4.315   2.731   6.751  1.00  0.00    -0.014 A 
BRANCH  32  33
ATOM     33  C   UNL     1      -4.370   4.095   7.332  1.00  0.00     0.031 A 
ATOM     34  C   UNL     1      -5.687   4.700   7.725  1.00  0.00     0.074 A 
ATOM     35  C   UNL     1      -3.234   4.809   7.451  1.00  0.00     0.049 A 
ATOM     36  N   UNL     1      -5.926   5.870   8.256  1.00  0.00    -0.248 NA
ATOM     37  C   UNL     1      -6.894   3.896   7.471  1.00  0.00     0.031 C 
ATOM     38  C   UNL     1      -1.907   4.349   7.039  1.00  0.00     0.029 A 
ATOM     39  N   UNL     1      -3.013   6.071   7.941  1.00  0.00    -0.354 N 
ATOM     40  C   UNL     1      -7.306   5.943   8.403  1.00  0.00     0.074 A 
ATOM     41  C   UNL     1      -7.856   4.725   7.851  1.00  0.00     0.031 C 
ATOM     42  C   UNL     1      -1.007   5.308   7.312  1.00  0.00     0.029 A 
ATOM     43  C   UNL     1      -1.694   6.458   7.897  1.00  0.00     0.049 A 
ATOM     44  H   UNL     1      -3.731   6.646   8.292  1.00  0.00     0.167 HD
ATOM     45  C   UNL     1      -8.043   6.923   8.975  1.00  0.00     0.034 A 
ATOM     46  C   UNL     1      -1.101   7.604   8.289  1.00  0.00     0.034 A 
ATOM     47  C   UNL     1      -7.485   8.124   9.537  1.00  0.00     0.049 A 
ATOM     48  C   UNL     1      -1.940   8.677   8.935  1.00  0.00     0.074 A 
ATOM     49  C   UNL     1      -8.143   9.142  10.203  1.00  0.00     0.029 A 
ATOM     50  N   UNL     1      -6.142   8.469   9.502  1.00  0.00    -0.354 N 
ATOM     51  N   UNL     1      -3.230   8.678   9.177  1.00  0.00    -0.248 NA
ATOM     52  C   UNL     1      -1.248   9.897   9.374  1.00  0.00     0.031 C 
ATOM     53  C   UNL     1      -7.205  10.122  10.536  1.00  0.00     0.029 A 
ATOM     54  C   UNL     1      -5.955   9.696  10.116  1.00  0.00     0.049 A 
ATOM     55  H   UNL     1      -5.428   7.923   9.101  1.00  0.00     0.167 HD
ATOM     56  C   UNL     1      -3.500   9.886   9.815  1.00  0.00     0.074 A 
ATOM     57  C   UNL     1      -2.235  10.581   9.940  1.00  0.00     0.031 C 
ATOM     58  C   UNL     1      -4.688  10.374  10.251  1.00  0.00     0.034 A 
BRANCH  45  59
ATOM     59  C   UNL     1      -9.533   6.731   9.065  1.00  0.00     0.023 A 
ATOM     60  C   UNL     1     -10.404   7.572   8.351  1.00  0.00     0.031 A 
ATOM     61  C   UNL     1     -10.087   5.778   9.939  1.00  0.00     0.131 A 
ATOM     62  C   UNL     1     -11.787   7.455   8.540  1.00  0.00     0.055 A 
ATOM     63  C   UNL     1     -11.466   5.646  10.100  1.00  0.00     0.041 A 
ATOM     64  F   UNL     1      -9.292   4.952  10.638  1.00  0.00    -0.206 F 
ATOM     65  C   UNL     1     -12.322   6.493   9.404  1.00  0.00     0.022 A 
BRANCH  62  66
ATOM     66  S   UNL     1     -12.946   8.561   7.690  1.00  0.00     0.124 S 
ATOM     67  O   UNL     1     -13.856   7.612   7.052  1.00  0.00    -0.237 OA
ATOM     68  O   UNL     1     -13.513   9.319   8.802  1.00  0.00    -0.237 OA
ATOM     69  O   UNL     1     -12.100   9.317   6.773  1.00  0.00    -0.744 OA
ENDBRANCH  62  66
ENDBRANCH  45  59
BRANCH  46  70
ATOM     70  C   UNL     1       0.376   7.740   8.152  1.00  0.00     0.023 A 
ATOM     71  C   UNL     1       0.991   7.780   6.886  1.00  0.00     0.031 A 
ATOM     72  C   UNL     1       1.200   7.730   9.290  1.00  0.00     0.131 A 
ATOM     73  C   UNL     1       2.389   7.759   6.792  1.00  0.00     0.055 A 
ATOM     74  C   UNL     1       2.591   7.764   9.193  1.00  0.00     0.041 A 
ATOM     75  F   UNL     1       0.656   7.677  10.516  1.00  0.00    -0.206 F 
ATOM     76  C   UNL     1       3.192   7.765   7.938  1.00  0.00     0.022 A 
BRANCH  73  77
ATOM     77  S   UNL     1       3.214   7.609   5.183  1.00  0.00     0.124 S 
ATOM     78  O   UNL     1       3.975   8.852   5.115  1.00  0.00    -0.237 OA
ATOM     79  O   UNL     1       4.005   6.394   5.362  1.00  0.00    -0.237 OA
ATOM     80  O   UNL     1       2.111   7.489   4.234  1.00  0.00    -0.744 OA
ENDBRANCH  73  77
ENDBRANCH  46  70
BRANCH  58  81
ATOM     81  C   UNL     1      -4.711  11.729  10.910  1.00  0.00     0.023 A 
ATOM     82  C   UNL     1      -5.062  11.848  12.268  1.00  0.00     0.031 A 
ATOM     83  C   UNL     1      -4.539  12.904  10.158  1.00  0.00     0.131 A 
ATOM     84  C   UNL     1      -5.269  13.116  12.823  1.00  0.00     0.055 A 
ATOM     85  C   UNL     1      -4.707  14.166  10.727  1.00  0.00     0.041 A 
ATOM     86  F   UNL     1      -4.212  12.838   8.857  1.00  0.00    -0.206 F 
ATOM     87  C   UNL     1      -5.086  14.276  12.062  1.00  0.00     0.022 A 
BRANCH  84  88
ATOM     88  S   UNL     1      -5.846  13.307  14.532  1.00  0.00     0.124 S 
ATOM     89  O   UNL     1      -4.806  14.157  15.111  1.00  0.00    -0.237 OA
ATOM     90  O   UNL     1      -7.144  13.949  14.347  1.00  0.00    -0.237 OA
ATOM     91  O   UNL     1      -5.886  11.942  15.046  1.00  0.00    -0.744 OA
ENDBRANCH  84  88
ENDBRANCH  58  81
ENDBRANCH  32  33
ENDBRANCH  24  27
ENDBRANCH  22  23
ENDBRANCH   1  22
TORSDOF 15
