REMARK SMILES COc1ccccc1[C@@H]1CN(C(=O)c2cnn3ccccc23)C[C@H]1C(=O)NCCCNC(=O)c1ccc(-c2c3nc(c(-c4cc(S(=O)(=O)[O-])ccc4F)c4ccc([nH]4)c(-c4cc(S(=O)(=O)[O-])ccc4F)c4nc(c(-c5cc(S(=O)(=O)[O-])ccc5F)c5ccc2[nH]5)C=C4)C=C3)cc1
REMARK SMILES IDX 29 1 28 2 27 3 25 4 26 5 24 7 9 8 10 9 11 10 23 11 8 12 3 13
REMARK SMILES IDX 4 14 5 15 7 16 6 17 2 18 1 19 12 20 13 21 14 22 15 23 22 24
REMARK SMILES IDX 16 25 17 26 21 27 18 28 20 29 19 30 30 31 31 32 32 33 33 35
REMARK SMILES IDX 34 36 35 37 96 38 36 39 95 40 37 41 38 42 39 43 89 44 40 45
REMARK SMILES IDX 94 46 88 47 90 48 41 49 93 50 87 51 86 52 42 54 74 55 54 56
REMARK SMILES IDX 73 57 55 58 58 59 72 60 91 61 56 62 57 63 71 65 92 66 59 67
REMARK SMILES IDX 43 68 44 69 52 70 45 71 51 72 53 73 50 74 46 75 47 76 48 77
REMARK SMILES IDX 49 78 75 79 76 80 84 81 77 82 83 83 85 84 82 85 78 86 79 87
REMARK SMILES IDX 80 88 81 89 60 90 61 91 69 92 62 93 68 94 70 95 67 96 63 97
REMARK SMILES IDX 64 98 65 99 66 100
REMARK H PARENT 27 6 31 34 90 53 58 64
REMARK Flexibility Score: inf
ROOT
ATOM      1  C   UNL     1       6.448   1.174  -2.506  1.00  0.00     0.042 C 
ENDROOT
BRANCH   1   2
ATOM      2  C   UNL     1       5.786   1.681  -1.227  1.00  0.00     0.117 C 
BRANCH   2   3
ATOM      3  N   UNL     1       4.595   2.472  -1.482  1.00  0.00    -0.356 N 
ATOM      4  C   UNL     1       3.282   2.235  -1.238  1.00  0.00     0.225 C 
ATOM      5  O   UNL     1       2.484   3.133  -1.525  1.00  0.00    -0.275 OA
ATOM      6  H   UNL     1       4.774   3.340  -1.911  1.00  0.00     0.163 HD
BRANCH   4   7
ATOM      7  C   UNL     1       2.767   0.940  -0.640  1.00  0.00     0.107 C 
ATOM      8  C   UNL     1       2.965  -0.301  -1.534  1.00  0.00     0.057 C 
ATOM      9  C   UNL     1       3.252  -1.432  -0.550  1.00  0.00     0.129 C 
ATOM     10  N   UNL     1       3.944  -0.758   0.534  1.00  0.00    -0.337 N 
ATOM     11  C   UNL     1       3.412   0.588   0.703  1.00  0.00     0.134 C 
BRANCH   8  12
ATOM     12  C   UNL     1       1.887  -0.587  -2.555  1.00  0.00    -0.000 A 
ATOM     13  C   UNL     1       0.601  -1.073  -2.266  1.00  0.00     0.122 A 
ATOM     14  C   UNL     1      -0.311  -1.338  -3.296  1.00  0.00     0.047 A 
ATOM     15  C   UNL     1       0.047  -1.141  -4.629  1.00  0.00     0.004 A 
ATOM     16  C   UNL     1       2.224  -0.396  -3.913  1.00  0.00     0.008 A 
ATOM     17  C   UNL     1       1.322  -0.683  -4.938  1.00  0.00     0.001 A 
BRANCH  13  18
ATOM     18  O   UNL     1       0.239  -1.513  -1.020  1.00  0.00    -0.496 OA
ATOM     19  C   UNL     1      -0.247  -0.488  -0.161  1.00  0.00     0.278 C 
ENDBRANCH  13  18
ENDBRANCH   8  12
BRANCH  10  20
ATOM     20  C   UNL     1       4.860  -1.288   1.422  1.00  0.00     0.257 C 
ATOM     21  O   UNL     1       5.206  -0.680   2.431  1.00  0.00    -0.269 OA
BRANCH  20  22
ATOM     22  C   UNL     1       5.388  -2.608   1.140  1.00  0.00     0.085 A 
ATOM     23  C   UNL     1       5.415  -3.704   2.023  1.00  0.00     0.150 A 
ATOM     24  C   UNL     1       6.049  -3.075   0.017  1.00  0.00     0.079 A 
ATOM     25  N   UNL     1       5.947  -4.804   1.489  1.00  0.00    -0.176 NA
ATOM     26  N   UNL     1       6.333  -4.426   0.244  1.00  0.00    -0.240 N 
ATOM     27  C   UNL     1       6.461  -2.517  -1.230  1.00  0.00     0.029 A 
ATOM     28  C   UNL     1       6.932  -5.229  -0.730  1.00  0.00     0.113 A 
ATOM     29  C   UNL     1       7.040  -3.299  -2.160  1.00  0.00     0.004 A 
ATOM     30  C   UNL     1       7.279  -4.710  -1.919  1.00  0.00     0.020 A 
ENDBRANCH  20  22
ENDBRANCH  10  20
ENDBRANCH   4   7
ENDBRANCH   2   3
ENDBRANCH   1   2
BRANCH   1  31
ATOM     31  C   UNL     1       7.102   2.286  -3.300  1.00  0.00     0.118 C 
BRANCH  31  32
ATOM     32  N   UNL     1       8.236   2.868  -2.592  1.00  0.00    -0.352 N 
ATOM     33  C   UNL     1       9.106   3.841  -3.045  1.00  0.00     0.251 C 
ATOM     34  H   UNL     1       8.402   2.527  -1.683  1.00  0.00     0.163 HD
ATOM     35  O   UNL     1      10.187   3.998  -2.508  1.00  0.00    -0.269 OA
BRANCH  33  36
ATOM     36  C   UNL     1       8.697   4.654  -4.207  1.00  0.00     0.039 A 
ATOM     37  C   UNL     1       9.598   4.898  -5.243  1.00  0.00     0.014 A 
ATOM     38  C   UNL     1       7.385   5.123  -4.272  1.00  0.00     0.014 A 
ATOM     39  C   UNL     1       9.139   5.542  -6.388  1.00  0.00     0.010 A 
ATOM     40  C   UNL     1       6.903   5.653  -5.447  1.00  0.00     0.010 A 
ATOM     41  C   UNL     1       7.780   5.889  -6.501  1.00  0.00    -0.014 A 
BRANCH  41  42
ATOM     42  C   UNL     1       7.244   6.332  -7.788  1.00  0.00     0.031 A 
ATOM     43  C   UNL     1       7.543   5.404  -8.912  1.00  0.00     0.074 A 
ATOM     44  C   UNL     1       6.382   7.361  -7.944  1.00  0.00     0.049 A 
ATOM     45  N   UNL     1       8.356   5.598  -9.896  1.00  0.00    -0.248 NA
ATOM     46  C   UNL     1       7.020   4.029  -8.845  1.00  0.00     0.031 C 
ATOM     47  C   UNL     1       5.760   8.184  -6.904  1.00  0.00     0.029 A 
ATOM     48  N   UNL     1       5.794   7.827  -9.083  1.00  0.00    -0.354 N 
ATOM     49  C   UNL     1       8.248   4.478 -10.713  1.00  0.00     0.074 A 
ATOM     50  C   UNL     1       7.601   3.475  -9.912  1.00  0.00     0.031 C 
ATOM     51  C   UNL     1       4.729   8.882  -7.431  1.00  0.00     0.029 A 
ATOM     52  C   UNL     1       4.718   8.688  -8.871  1.00  0.00     0.049 A 
ATOM     53  H   UNL     1       6.105   7.576  -9.983  1.00  0.00     0.167 HD
ATOM     54  C   UNL     1       8.471   4.569 -12.055  1.00  0.00     0.034 A 
ATOM     55  C   UNL     1       3.866   9.198  -9.803  1.00  0.00     0.034 A 
ATOM     56  C   UNL     1       9.169   5.799 -12.371  1.00  0.00     0.049 A 
ATOM     57  C   UNL     1       4.576   9.138 -11.103  1.00  0.00     0.074 A 
ATOM     58  C   UNL     1      10.367   6.361 -11.970  1.00  0.00     0.029 A 
ATOM     59  N   UNL     1       8.439   6.840 -12.904  1.00  0.00    -0.354 N 
ATOM     60  N   UNL     1       5.649   9.833 -11.362  1.00  0.00    -0.248 NA
ATOM     61  C   UNL     1       4.393   7.955 -11.930  1.00  0.00     0.031 C 
ATOM     62  C   UNL     1      10.082   7.748 -11.802  1.00  0.00     0.029 A 
ATOM     63  C   UNL     1       8.765   7.977 -12.207  1.00  0.00     0.049 A 
ATOM     64  H   UNL     1       7.799   6.779 -13.650  1.00  0.00     0.167 HD
ATOM     65  C   UNL     1       6.486   8.960 -12.039  1.00  0.00     0.074 A 
ATOM     66  C   UNL     1       5.619   7.856 -12.452  1.00  0.00     0.031 C 
ATOM     67  C   UNL     1       7.845   9.072 -11.955  1.00  0.00     0.034 A 
BRANCH  54  68
ATOM     68  C   UNL     1       7.735   3.773 -13.117  1.00  0.00     0.023 A 
ATOM     69  C   UNL     1       8.036   4.075 -14.461  1.00  0.00     0.031 A 
ATOM     70  C   UNL     1       6.584   2.977 -12.918  1.00  0.00     0.131 A 
ATOM     71  C   UNL     1       7.157   3.723 -15.499  1.00  0.00     0.055 A 
ATOM     72  C   UNL     1       5.749   2.571 -13.963  1.00  0.00     0.041 A 
ATOM     73  F   UNL     1       6.147   2.614 -11.708  1.00  0.00    -0.206 F 
ATOM     74  C   UNL     1       6.010   2.975 -15.259  1.00  0.00     0.022 A 
BRANCH  71  75
ATOM     75  S   UNL     1       7.447   4.432 -17.140  1.00  0.00     0.124 S 
ATOM     76  O   UNL     1       7.478   5.858 -16.835  1.00  0.00    -0.237 OA
ATOM     77  O   UNL     1       8.720   3.822 -17.509  1.00  0.00    -0.237 OA
ATOM     78  O   UNL     1       6.291   3.981 -17.911  1.00  0.00    -0.744 OA
ENDBRANCH  71  75
ENDBRANCH  54  68
BRANCH  55  79
ATOM     79  C   UNL     1       2.401   9.452  -9.674  1.00  0.00     0.023 A 
ATOM     80  C   UNL     1       1.678  10.278 -10.564  1.00  0.00     0.031 A 
ATOM     81  C   UNL     1       1.635   8.655  -8.793  1.00  0.00     0.131 A 
ATOM     82  C   UNL     1       0.260  10.278 -10.551  1.00  0.00     0.055 A 
ATOM     83  C   UNL     1       0.238   8.659  -8.784  1.00  0.00     0.041 A 
ATOM     84  F   UNL     1       2.221   7.774  -7.967  1.00  0.00    -0.206 F 
ATOM     85  C   UNL     1      -0.457   9.464  -9.672  1.00  0.00     0.022 A 
BRANCH  82  86
ATOM     86  S   UNL     1      -0.687  11.275 -11.751  1.00  0.00     0.124 S 
ATOM     87  O   UNL     1      -0.424  12.637 -11.302  1.00  0.00    -0.237 OA
ATOM     88  O   UNL     1      -0.094  10.883 -13.024  1.00  0.00    -0.237 OA
ATOM     89  O   UNL     1      -2.067  10.823 -11.558  1.00  0.00    -0.744 OA
ENDBRANCH  82  86
ENDBRANCH  55  79
BRANCH  67  90
ATOM     90  C   UNL     1       8.436  10.346 -11.379  1.00  0.00     0.023 A 
ATOM     91  C   UNL     1       8.161  10.872 -10.094  1.00  0.00     0.031 A 
ATOM     92  C   UNL     1       9.424  10.992 -12.145  1.00  0.00     0.131 A 
ATOM     93  C   UNL     1       8.861  12.006  -9.631  1.00  0.00     0.055 A 
ATOM     94  C   UNL     1      10.131  12.096 -11.674  1.00  0.00     0.041 A 
ATOM     95  F   UNL     1       9.748  10.531 -13.365  1.00  0.00    -0.206 F 
ATOM     96  C   UNL     1       9.848  12.612 -10.416  1.00  0.00     0.022 A 
BRANCH  93  97
ATOM     97  S   UNL     1       8.490  12.736  -8.001  1.00  0.00     0.124 S 
ATOM     98  O   UNL     1       7.035  12.819  -7.986  1.00  0.00    -0.237 OA
ATOM     99  O   UNL     1       9.086  11.771  -7.080  1.00  0.00    -0.237 OA
ATOM    100  O   UNL     1       9.173  14.031  -8.046  1.00  0.00    -0.744 OA
ENDBRANCH  93  97
ENDBRANCH  67  90
ENDBRANCH  41  42
ENDBRANCH  33  36
ENDBRANCH  31  32
ENDBRANCH   1  31
TORSDOF 17
