REMARK SMILES O=C(NCCCNC(=O)c1nn(Cc2ccc(F)cc2)c2c1CN(C(=O)[C@H]1CC1(F)F)CC2)c1ccc(-c2c3nc(c(-c4cc(S(=O)(=O)[O-])ccc4F)c4ccc([nH]4)c(-c4cc(S(=O)(=O)[O-])ccc4F)c4nc(c(-c5cc(S(=O)(=O)[O-])ccc5F)c5ccc2[nH]5)C=C4)C=C3)cc1
REMARK SMILES IDX 4 1 3 2 1 3 2 4 34 6 35 7 96 8 36 9 95 10 37 11 38 12 39 13
REMARK SMILES IDX 89 14 40 15 94 16 88 17 90 18 41 19 93 20 87 21 86 22 42 24
REMARK SMILES IDX 74 25 54 26 73 27 55 28 58 29 72 30 91 31 56 32 57 33 71 35
REMARK SMILES IDX 92 36 59 37 43 38 44 39 52 40 45 41 51 42 53 43 50 44 46 45
REMARK SMILES IDX 47 46 48 47 49 48 75 49 76 50 84 51 77 52 83 53 85 54 82 55
REMARK SMILES IDX 78 56 79 57 80 58 81 59 60 60 61 61 69 62 62 63 68 64 70 65
REMARK SMILES IDX 67 66 63 67 64 68 65 69 66 70 5 71 6 72 7 73 8 74 9 76 10 77
REMARK SMILES IDX 11 78 22 79 12 80 21 81 23 82 33 83 24 84 32 85 13 86 14 87
REMARK SMILES IDX 15 88 20 89 16 90 19 91 17 92 18 93 25 94 26 95 27 96 28 97
REMARK SMILES IDX 29 98 30 99 31 100
REMARK H PARENT 3 5 90 23 58 34 7 75
REMARK Flexibility Score: inf
ROOT
ATOM      1  C   UNL     1      15.363   9.726  -9.165  1.00  0.00     0.118 C 
ENDROOT
BRANCH   1   2
ATOM      2  N   UNL     1      16.384  10.628  -9.658  1.00  0.00    -0.352 N 
ATOM      3  O   UNL     1      17.459  12.486 -10.183  1.00  0.00    -0.269 OA
ATOM      4  C   UNL     1      16.368  11.912 -10.131  1.00  0.00     0.251 C 
ATOM      5  H   UNL     1      17.285  10.232  -9.650  1.00  0.00     0.163 HD
BRANCH   4   6
ATOM      6  C   UNL     1      15.167  12.594 -10.681  1.00  0.00     0.039 A 
ATOM      7  C   UNL     1      13.837  12.222 -10.466  1.00  0.00     0.014 A 
ATOM      8  C   UNL     1      15.438  13.660 -11.557  1.00  0.00     0.014 A 
ATOM      9  C   UNL     1      12.816  12.800 -11.217  1.00  0.00     0.010 A 
ATOM     10  C   UNL     1      14.425  14.247 -12.297  1.00  0.00     0.010 A 
ATOM     11  C   UNL     1      13.121  13.773 -12.168  1.00  0.00    -0.014 A 
BRANCH  11  12
ATOM     12  C   UNL     1      12.044  14.397 -12.936  1.00  0.00     0.031 A 
ATOM     13  C   UNL     1      11.146  15.292 -12.134  1.00  0.00     0.074 A 
ATOM     14  C   UNL     1      12.027  14.328 -14.287  1.00  0.00     0.049 A 
ATOM     15  N   UNL     1       9.852  15.320 -12.091  1.00  0.00    -0.248 NA
ATOM     16  C   UNL     1      11.781  16.218 -11.172  1.00  0.00     0.031 C 
ATOM     17  C   UNL     1      13.016  13.696 -15.168  1.00  0.00     0.029 A 
ATOM     18  N   UNL     1      11.191  14.925 -15.181  1.00  0.00    -0.354 N 
ATOM     19  C   UNL     1       9.510  16.381 -11.250  1.00  0.00     0.074 A 
ATOM     20  C   UNL     1      10.726  16.811 -10.614  1.00  0.00     0.031 C 
ATOM     21  C   UNL     1      12.871  14.173 -16.426  1.00  0.00     0.029 A 
ATOM     22  C   UNL     1      11.712  15.049 -16.471  1.00  0.00     0.049 A 
ATOM     23  H   UNL     1      10.291  15.243 -14.938  1.00  0.00     0.167 HD
ATOM     24  C   UNL     1       8.277  16.963 -11.260  1.00  0.00     0.034 A 
ATOM     25  C   UNL     1      11.275  15.883 -17.460  1.00  0.00     0.034 A 
ATOM     26  C   UNL     1       7.289  16.113 -11.864  1.00  0.00     0.049 A 
ATOM     27  C   UNL     1       9.886  16.267 -17.095  1.00  0.00     0.074 A 
ATOM     28  C   UNL     1       6.765  14.877 -11.542  1.00  0.00     0.029 A 
ATOM     29  N   UNL     1       6.984  16.309 -13.190  1.00  0.00    -0.354 N 
ATOM     30  N   UNL     1       8.900  15.414 -17.022  1.00  0.00    -0.248 NA
ATOM     31  C   UNL     1       9.720  17.484 -16.313  1.00  0.00     0.031 C 
ATOM     32  C   UNL     1       6.663  14.191 -12.788  1.00  0.00     0.029 A 
ATOM     33  C   UNL     1       7.043  15.077 -13.798  1.00  0.00     0.049 A 
ATOM     34  H   UNL     1       6.766  17.167 -13.621  1.00  0.00     0.167 HD
ATOM     35  C   UNL     1       8.201  15.774 -15.880  1.00  0.00     0.074 A 
ATOM     36  C   UNL     1       8.725  17.091 -15.512  1.00  0.00     0.031 C 
ATOM     37  C   UNL     1       7.473  14.867 -15.166  1.00  0.00     0.034 A 
BRANCH  24  38
ATOM     38  C   UNL     1       8.034  18.420 -10.970  1.00  0.00     0.023 A 
ATOM     39  C   UNL     1       6.725  18.874 -10.719  1.00  0.00     0.031 A 
ATOM     40  C   UNL     1       9.010  19.420 -11.191  1.00  0.00     0.131 A 
ATOM     41  C   UNL     1       6.432  20.252 -10.719  1.00  0.00     0.055 A 
ATOM     42  C   UNL     1       8.725  20.786 -11.140  1.00  0.00     0.041 A 
ATOM     43  F   UNL     1      10.263  19.118 -11.559  1.00  0.00    -0.206 F 
ATOM     44  C   UNL     1       7.426  21.209 -10.921  1.00  0.00     0.022 A 
BRANCH  41  45
ATOM     45  S   UNL     1       4.705  20.787 -10.562  1.00  0.00     0.124 S 
ATOM     46  O   UNL     1       4.076  20.119 -11.696  1.00  0.00    -0.237 OA
ATOM     47  O   UNL     1       4.350  20.282  -9.240  1.00  0.00    -0.237 OA
ATOM     48  O   UNL     1       4.788  22.242 -10.667  1.00  0.00    -0.744 OA
ENDBRANCH  41  45
ENDBRANCH  24  38
BRANCH  25  49
ATOM     49  C   UNL     1      12.108  16.685 -18.417  1.00  0.00     0.023 A 
ATOM     50  C   UNL     1      11.564  17.341 -19.549  1.00  0.00     0.031 A 
ATOM     51  C   UNL     1      13.435  17.035 -18.077  1.00  0.00     0.131 A 
ATOM     52  C   UNL     1      12.335  18.287 -20.275  1.00  0.00     0.055 A 
ATOM     53  C   UNL     1      14.189  17.968 -18.796  1.00  0.00     0.041 A 
ATOM     54  F   UNL     1      14.023  16.553 -16.972  1.00  0.00    -0.206 F 
ATOM     55  C   UNL     1      13.638  18.607 -19.893  1.00  0.00     0.022 A 
BRANCH  52  56
ATOM     56  S   UNL     1      11.616  19.216 -21.674  1.00  0.00     0.124 S 
ATOM     57  O   UNL     1      11.631  18.223 -22.742  1.00  0.00    -0.237 OA
ATOM     58  O   UNL     1      10.304  19.599 -21.165  1.00  0.00    -0.237 OA
ATOM     59  O   UNL     1      12.547  20.330 -21.859  1.00  0.00    -0.744 OA
ENDBRANCH  52  56
ENDBRANCH  25  49
BRANCH  37  60
ATOM     60  C   UNL     1       7.247  13.485 -15.746  1.00  0.00     0.023 A 
ATOM     61  C   UNL     1       8.258  12.529 -16.010  1.00  0.00     0.031 A 
ATOM     62  C   UNL     1       5.910  13.071 -15.880  1.00  0.00     0.131 A 
ATOM     63  C   UNL     1       7.902  11.214 -16.386  1.00  0.00     0.055 A 
ATOM     64  C   UNL     1       5.565  11.770 -16.239  1.00  0.00     0.041 A 
ATOM     65  F   UNL     1       4.907  13.923 -15.608  1.00  0.00    -0.206 F 
ATOM     66  C   UNL     1       6.561  10.836 -16.497  1.00  0.00     0.022 A 
BRANCH  63  67
ATOM     67  S   UNL     1       9.179   9.952 -16.718  1.00  0.00     0.124 S 
ATOM     68  O   UNL     1      10.050  10.610 -17.683  1.00  0.00    -0.237 OA
ATOM     69  O   UNL     1       9.735   9.711 -15.389  1.00  0.00    -0.237 OA
ATOM     70  O   UNL     1       8.418   8.822 -17.258  1.00  0.00    -0.744 OA
ENDBRANCH  63  67
ENDBRANCH  37  60
ENDBRANCH  11  12
ENDBRANCH   4   6
ENDBRANCH   1   2
BRANCH   1  71
ATOM     71  C   UNL     1      14.703   8.841 -10.220  1.00  0.00     0.042 C 
BRANCH  71  72
ATOM     72  C   UNL     1      15.654   7.864 -10.919  1.00  0.00     0.118 C 
BRANCH  72  73
ATOM     73  N   UNL     1      16.284   6.938  -9.982  1.00  0.00    -0.351 N 
ATOM     74  C   UNL     1      16.064   5.593  -9.777  1.00  0.00     0.272 C 
ATOM     75  H   UNL     1      16.974   7.338  -9.405  1.00  0.00     0.163 HD
ATOM     76  O   UNL     1      16.546   5.077  -8.766  1.00  0.00    -0.267 OA
BRANCH  74  77
ATOM     77  C   UNL     1      15.241   4.821 -10.719  1.00  0.00     0.155 A 
ATOM     78  N   UNL     1      15.293   5.004 -12.053  1.00  0.00    -0.167 NA
ATOM     79  C   UNL     1      14.358   3.753 -10.404  1.00  0.00     0.026 A 
ATOM     80  N   UNL     1      14.322   4.210 -12.559  1.00  0.00    -0.264 N 
ATOM     81  C   UNL     1      13.724   3.458 -11.594  1.00  0.00     0.046 A 
ATOM     82  C   UNL     1      14.040   3.099  -9.101  1.00  0.00     0.159 C 
ATOM     83  C   UNL     1      12.602   2.496 -11.732  1.00  0.00     0.078 C 
ATOM     84  N   UNL     1      13.051   2.017  -9.328  1.00  0.00    -0.337 N 
ATOM     85  C   UNL     1      11.995   2.288 -10.327  1.00  0.00     0.126 C 
BRANCH  80  86
ATOM     86  C   UNL     1      14.144   4.110 -14.005  1.00  0.00     0.180 C 
BRANCH  86  87
ATOM     87  C   UNL     1      13.675   5.394 -14.642  1.00  0.00    -0.026 A 
ATOM     88  C   UNL     1      14.568   6.469 -14.795  1.00  0.00     0.008 A 
ATOM     89  C   UNL     1      12.363   5.524 -15.130  1.00  0.00     0.008 A 
ATOM     90  C   UNL     1      14.169   7.635 -15.441  1.00  0.00     0.039 A 
ATOM     91  C   UNL     1      11.967   6.696 -15.782  1.00  0.00     0.039 A 
ATOM     92  C   UNL     1      12.879   7.732 -15.943  1.00  0.00     0.123 A 
ATOM     93  F   UNL     1      12.532   8.833 -16.616  1.00  0.00    -0.207 F 
ENDBRANCH  86  87
ENDBRANCH  80  86
BRANCH  84  94
ATOM     94  C   UNL     1      13.152   0.856  -8.568  1.00  0.00     0.232 C 
ATOM     95  O   UNL     1      14.032   0.655  -7.751  1.00  0.00    -0.274 OA
BRANCH  94  96
ATOM     96  C   UNL     1      12.066  -0.139  -8.716  1.00  0.00     0.154 C 
ATOM     97  C   UNL     1      11.952  -1.026  -9.944  1.00  0.00     0.097 C 
ATOM     98  C   UNL     1      12.370  -1.588  -8.639  1.00  0.00     0.260 C 
ATOM     99  F   UNL     1      13.638  -2.104  -8.526  1.00  0.00    -0.206 F 
ATOM    100  F   UNL     1      11.518  -2.453  -7.986  1.00  0.00    -0.206 F 
ENDBRANCH  94  96
ENDBRANCH  84  94
ENDBRANCH  74  77
ENDBRANCH  72  73
ENDBRANCH  71  72
ENDBRANCH   1  71
TORSDOF 17
