REMARK SMILES O=C(NCCCNC(=O)c1ccc([C@@H]2CC(O)=Nc3c2ncn3-c2cccc(Cl)c2)cc1)c1ccc(-c2c3nc(c(-c4cc(S(=O)(=O)[O-])ccc4F)c4ccc([nH]4)c(-c4cc(S(=O)(=O)[O-])ccc4F)c4nc(c(-c5cc(S(=O)(=O)[O-])ccc5F)c5ccc2[nH]5)C=C4)C=C3)cc1
REMARK SMILES IDX 4 1 3 2 1 3 2 4 33 6 34 7 95 8 35 9 94 10 36 11 37 12 38 13
REMARK SMILES IDX 88 14 39 15 93 16 87 17 89 18 40 19 92 20 86 21 85 22 41 24
REMARK SMILES IDX 73 25 53 26 72 27 54 28 57 29 71 30 90 31 55 32 56 33 70 35
REMARK SMILES IDX 91 36 58 37 42 38 43 39 51 40 44 41 50 42 52 43 49 44 45 45
REMARK SMILES IDX 46 46 47 47 48 48 74 49 75 50 83 51 76 52 82 53 84 54 81 55
REMARK SMILES IDX 77 56 78 57 79 58 80 59 59 60 60 61 68 62 61 63 67 64 69 65
REMARK SMILES IDX 66 66 62 67 63 68 64 69 65 70 5 71 6 72 7 73 8 74 9 76 10 77
REMARK SMILES IDX 11 78 32 79 12 80 31 81 13 82 14 83 15 84 20 85 16 86 19 87
REMARK SMILES IDX 21 88 18 89 23 90 22 91 17 92 24 94 25 95 30 96 26 97 28 98
REMARK SMILES IDX 27 99 29 100
REMARK H PARENT 3 5 89 23 57 34 7 75 17 93
REMARK Flexibility Score: inf
ROOT
ATOM      1  C   UNL     1       4.594  -0.889  -0.699  1.00  0.00     0.118 C 
ENDROOT
BRANCH   1   2
ATOM      2  N   UNL     1       3.189  -0.661  -0.968  1.00  0.00    -0.352 N 
ATOM      3  O   UNL     1       1.152   0.176  -0.906  1.00  0.00    -0.269 OA
ATOM      4  C   UNL     1       2.147  -0.142  -0.249  1.00  0.00     0.251 C 
ATOM      5  H   UNL     1       2.924  -0.942  -1.873  1.00  0.00     0.163 HD
BRANCH   4   6
ATOM      6  C   UNL     1       2.098  -0.024   1.235  1.00  0.00     0.039 A 
ATOM      7  C   UNL     1       3.171  -0.190   2.111  1.00  0.00     0.014 A 
ATOM      8  C   UNL     1       0.821   0.218   1.779  1.00  0.00     0.014 A 
ATOM      9  C   UNL     1       2.957  -0.224   3.490  1.00  0.00     0.010 A 
ATOM     10  C   UNL     1       0.604   0.198   3.151  1.00  0.00     0.010 A 
ATOM     11  C   UNL     1       1.668  -0.063   4.008  1.00  0.00    -0.014 A 
BRANCH  11  12
ATOM     12  C   UNL     1       1.496   0.053   5.458  1.00  0.00     0.031 A 
ATOM     13  C   UNL     1       2.098   1.289   6.029  1.00  0.00     0.074 A 
ATOM     14  C   UNL     1       0.714  -0.757   6.204  1.00  0.00     0.049 A 
ATOM     15  N   UNL     1       3.075   1.388   6.869  1.00  0.00    -0.248 NA
ATOM     16  C   UNL     1       1.663   2.582   5.474  1.00  0.00     0.031 C 
ATOM     17  C   UNL     1      -0.152  -1.837   5.728  1.00  0.00     0.029 A 
ATOM     18  N   UNL     1       0.438  -0.714   7.543  1.00  0.00    -0.354 N 
ATOM     19  C   UNL     1       3.207   2.749   7.141  1.00  0.00     0.074 A 
ATOM     20  C   UNL     1       2.479   3.426   6.104  1.00  0.00     0.031 C 
ATOM     21  C   UNL     1      -1.013  -2.186   6.711  1.00  0.00     0.029 A 
ATOM     22  C   UNL     1      -0.691  -1.443   7.920  1.00  0.00     0.049 A 
ATOM     23  H   UNL     1       0.990  -0.212   8.186  1.00  0.00     0.167 HD
ATOM     24  C   UNL     1       3.673   3.185   8.345  1.00  0.00     0.034 A 
ATOM     25  C   UNL     1      -1.358  -1.396   9.109  1.00  0.00     0.034 A 
ATOM     26  C   UNL     1       4.391   2.129   9.032  1.00  0.00     0.049 A 
ATOM     27  C   UNL     1      -0.410  -0.860  10.116  1.00  0.00     0.074 A 
ATOM     28  C   UNL     1       5.470   1.325   8.715  1.00  0.00     0.029 A 
ATOM     29  N   UNL     1       3.787   1.513  10.108  1.00  0.00    -0.354 N 
ATOM     30  N   UNL     1       0.662  -1.496  10.500  1.00  0.00    -0.248 NA
ATOM     31  C   UNL     1      -0.391   0.578  10.341  1.00  0.00     0.031 C 
ATOM     32  C   UNL     1       5.147   0.044   9.257  1.00  0.00     0.029 A 
ATOM     33  C   UNL     1       3.938   0.160   9.942  1.00  0.00     0.049 A 
ATOM     34  H   UNL     1       3.332   1.961  10.857  1.00  0.00     0.167 HD
ATOM     35  C   UNL     1       1.641  -0.520  10.589  1.00  0.00     0.074 A 
ATOM     36  C   UNL     1       0.912   0.748  10.578  1.00  0.00     0.031 C 
ATOM     37  C   UNL     1       2.958  -0.816  10.376  1.00  0.00     0.034 A 
BRANCH  24  38
ATOM     38  C   UNL     1       3.111   4.390   9.089  1.00  0.00     0.023 A 
ATOM     39  C   UNL     1       3.574   4.576  10.405  1.00  0.00     0.031 A 
ATOM     40  C   UNL     1       1.953   5.125   8.748  1.00  0.00     0.131 A 
ATOM     41  C   UNL     1       2.796   5.256  11.356  1.00  0.00     0.055 A 
ATOM     42  C   UNL     1       1.223   5.870   9.681  1.00  0.00     0.041 A 
ATOM     43  F   UNL     1       1.412   5.118   7.526  1.00  0.00    -0.206 F 
ATOM     44  C   UNL     1       1.613   5.894  11.007  1.00  0.00     0.022 A 
BRANCH  41  45
ATOM     45  S   UNL     1       3.247   5.063  13.097  1.00  0.00     0.124 S 
ATOM     46  O   UNL     1       3.283   3.609  13.216  1.00  0.00    -0.237 OA
ATOM     47  O   UNL     1       4.534   5.748  13.149  1.00  0.00    -0.237 OA
ATOM     48  O   UNL     1       2.155   5.727  13.804  1.00  0.00    -0.744 OA
ENDBRANCH  41  45
ENDBRANCH  24  38
BRANCH  25  49
ATOM     49  C   UNL     1      -2.834  -1.488   9.340  1.00  0.00     0.023 A 
ATOM     50  C   UNL     1      -3.415  -1.744  10.605  1.00  0.00     0.031 A 
ATOM     51  C   UNL     1      -3.719  -1.072   8.319  1.00  0.00     0.131 A 
ATOM     52  C   UNL     1      -4.814  -1.590  10.797  1.00  0.00     0.055 A 
ATOM     53  C   UNL     1      -5.095  -0.925   8.514  1.00  0.00     0.041 A 
ATOM     54  F   UNL     1      -3.266  -0.706   7.111  1.00  0.00    -0.206 F 
ATOM     55  C   UNL     1      -5.647  -1.175   9.757  1.00  0.00     0.022 A 
BRANCH  52  56
ATOM     56  S   UNL     1      -5.575  -1.842  12.439  1.00  0.00     0.124 S 
ATOM     57  O   UNL     1      -5.432  -3.280  12.632  1.00  0.00    -0.237 OA
ATOM     58  O   UNL     1      -4.766  -0.987  13.298  1.00  0.00    -0.237 OA
ATOM     59  O   UNL     1      -6.954  -1.385  12.251  1.00  0.00    -0.744 OA
ENDBRANCH  52  56
ENDBRANCH  25  49
BRANCH  37  60
ATOM     60  C   UNL     1       3.393  -2.266  10.390  1.00  0.00     0.023 A 
ATOM     61  C   UNL     1       2.886  -3.283   9.548  1.00  0.00     0.031 A 
ATOM     62  C   UNL     1       4.469  -2.595  11.235  1.00  0.00     0.131 A 
ATOM     63  C   UNL     1       3.454  -4.574   9.583  1.00  0.00     0.055 A 
ATOM     64  C   UNL     1       5.037  -3.866  11.255  1.00  0.00     0.041 A 
ATOM     65  F   UNL     1       5.014  -1.665  12.038  1.00  0.00    -0.206 F 
ATOM     66  C   UNL     1       4.527  -4.863  10.433  1.00  0.00     0.022 A 
BRANCH  63  67
ATOM     67  S   UNL     1       2.807  -5.914   8.528  1.00  0.00     0.124 S 
ATOM     68  O   UNL     1       1.366  -5.847   8.733  1.00  0.00    -0.237 OA
ATOM     69  O   UNL     1       3.286  -5.534   7.201  1.00  0.00    -0.237 OA
ATOM     70  O   UNL     1       3.443  -7.118   9.069  1.00  0.00    -0.744 OA
ENDBRANCH  63  67
ENDBRANCH  37  60
ENDBRANCH  11  12
ENDBRANCH   4   6
ENDBRANCH   1   2
BRANCH   1  71
ATOM     71  C   UNL     1       4.938  -2.227  -0.050  1.00  0.00     0.042 C 
BRANCH  71  72
ATOM     72  C   UNL     1       4.413  -3.462  -0.774  1.00  0.00     0.118 C 
BRANCH  72  73
ATOM     73  N   UNL     1       4.927  -3.593  -2.129  1.00  0.00    -0.352 N 
ATOM     74  C   UNL     1       5.690  -4.580  -2.695  1.00  0.00     0.251 C 
ATOM     75  H   UNL     1       4.689  -2.855  -2.736  1.00  0.00     0.163 HD
ATOM     76  O   UNL     1       6.134  -4.421  -3.836  1.00  0.00    -0.269 OA
BRANCH  74  77
ATOM     77  C   UNL     1       6.001  -5.830  -1.966  1.00  0.00     0.039 A 
ATOM     78  C   UNL     1       7.300  -6.338  -2.046  1.00  0.00     0.014 A 
ATOM     79  C   UNL     1       5.019  -6.543  -1.274  1.00  0.00     0.014 A 
ATOM     80  C   UNL     1       7.624  -7.532  -1.399  1.00  0.00     0.005 A 
ATOM     81  C   UNL     1       5.349  -7.724  -0.605  1.00  0.00     0.005 A 
ATOM     82  C   UNL     1       6.654  -8.241  -0.669  1.00  0.00    -0.038 A 
BRANCH  82  83
ATOM     83  C   UNL     1       7.018  -9.585  -0.062  1.00  0.00     0.081 C 
ATOM     84  C   UNL     1       6.137 -10.721  -0.630  1.00  0.00     0.111 C 
ATOM     85  C   UNL     1       6.890  -9.477   1.411  1.00  0.00     0.093 A 
ATOM     86  C   UNL     1       5.200 -11.375   0.370  1.00  0.00     0.188 C 
ATOM     87  C   UNL     1       6.074 -10.327   2.125  1.00  0.00     0.164 A 
ATOM     88  N   UNL     1       7.537  -8.592   2.228  1.00  0.00    -0.238 NA
ATOM     89  N   UNL     1       5.204 -11.254   1.656  1.00  0.00    -0.198 NA
ATOM     90  N   UNL     1       6.228  -9.955   3.450  1.00  0.00    -0.283 N 
ATOM     91  C   UNL     1       7.066  -8.856   3.433  1.00  0.00     0.206 A 
BRANCH  86  92
ATOM     92  O   UNL     1       4.302 -12.211  -0.191  1.00  0.00    -0.496 OA
ATOM     93  H   UNL     1       4.278 -12.316  -1.121  1.00  0.00     0.294 HD
ENDBRANCH  86  92
BRANCH  90  94
ATOM     94  C   UNL     1       5.693 -10.598   4.592  1.00  0.00     0.050 A 
ATOM     95  C   UNL     1       5.278  -9.852   5.700  1.00  0.00     0.027 A 
ATOM     96  C   UNL     1       5.596 -11.998   4.609  1.00  0.00     0.047 A 
ATOM     97  C   UNL     1       4.727 -10.507   6.805  1.00  0.00     0.004 A 
ATOM     98  C   UNL     1       5.091 -12.640   5.737  1.00  0.00     0.043 A 
ATOM     99  C   UNL     1       4.642 -11.901   6.829  1.00  0.00     0.020 A 
ATOM    100  Cl  UNL     1       5.043 -14.362   5.785  1.00  0.00    -0.084 Cl
ENDBRANCH  90  94
ENDBRANCH  82  83
ENDBRANCH  74  77
ENDBRANCH  72  73
ENDBRANCH  71  72
ENDBRANCH   1  71
TORSDOF 16
