REMARK SMILES N#Cc1cccnc1N1CC[NH+]([C@@H](C(=O)NCCCNC(=O)c2ccc(-c3c4nc(c(-c5cc(S(=O)(=O)[O-])ccc5F)c5ccc([nH]5)c(-c5cc(S(=O)(=O)[O-])ccc5F)c5nc(c(-c6cc(S(=O)(=O)[O-])ccc6F)c6ccc3[nH]6)C=C5)C=C4)cc2)c2c[nH]c3cc(CO)ccc23)CC1
REMARK SMILES IDX 18 1 17 2 16 3 14 4 15 5 13 7 12 8 9 9 10 10 98 11 11 12
REMARK SMILES IDX 97 13 8 15 3 16 4 17 5 18 7 19 6 20 2 21 1 22 86 23 87 24
REMARK SMILES IDX 96 25 88 26 89 27 95 28 90 30 94 31 91 32 92 33 93 34 19 36
REMARK SMILES IDX 20 37 21 38 22 40 23 41 24 42 85 43 25 44 84 45 26 46 27 47
REMARK SMILES IDX 28 48 78 49 29 50 83 51 77 52 79 53 30 54 82 55 76 56 75 57
REMARK SMILES IDX 31 59 63 60 43 61 62 62 44 63 47 64 61 65 80 66 45 67 46 68
REMARK SMILES IDX 60 70 81 71 48 72 32 73 33 74 41 75 34 76 40 77 42 78 39 79
REMARK SMILES IDX 35 80 36 81 37 82 38 83 64 84 65 85 73 86 66 87 72 88 74 89
REMARK SMILES IDX 71 90 67 91 68 92 69 93 70 94 49 95 50 96 58 97 51 98 57 99
REMARK SMILES IDX 59 100 56 101 52 102 53 103 54 104 55 105
REMARK H PARENT 16 6 12 14 88 29 93 35 20 39 79 58 47 69
REMARK Flexibility Score: inf
ROOT
ATOM      1  C   UNL     1       1.918  -3.097   3.334  1.00  0.00     0.042 C 
ENDROOT
BRANCH   1   2
ATOM      2  C   UNL     1       1.223  -4.445   2.976  1.00  0.00     0.118 C 
BRANCH   2   3
ATOM      3  N   UNL     1      -0.009  -4.374   2.187  1.00  0.00    -0.351 N 
ATOM      4  C   UNL     1      -0.449  -4.758   0.940  1.00  0.00     0.283 C 
ATOM      5  O   UNL     1      -1.673  -4.621   0.814  1.00  0.00    -0.268 OA
ATOM      6  H   UNL     1      -0.725  -3.923   2.691  1.00  0.00     0.163 HD
BRANCH   4   7
ATOM      7  C   UNL     1       0.442  -5.383  -0.186  1.00  0.00     0.307 C 
BRANCH   7   8
ATOM      8  N   UNL     1       1.470  -4.484  -0.862  1.00  0.00    -0.318 N 
ATOM      9  N   UNL     1       0.702  -1.619  -0.923  1.00  0.00    -0.344 N 
ATOM     10  C   UNL     1       0.073  -2.597  -1.811  1.00  0.00     0.179 C 
ATOM     11  C   UNL     1       1.350  -2.185   0.266  1.00  0.00     0.179 C 
ATOM     12  C   UNL     1       1.085  -3.719  -2.071  1.00  0.00     0.284 C 
ATOM     13  C   UNL     1       2.149  -3.491  -0.025  1.00  0.00     0.284 C 
ATOM     14  H   UNL     1       2.077  -5.263  -1.118  1.00  0.00     0.349 HD
BRANCH   9  15
ATOM     15  C   UNL     1      -0.068  -0.478  -0.671  1.00  0.00     0.146 A 
ATOM     16  C   UNL     1       0.533   0.770  -0.466  1.00  0.00     0.095 A 
ATOM     17  C   UNL     1      -0.278   1.882  -0.228  1.00  0.00     0.025 A 
ATOM     18  C   UNL     1      -1.657   1.725  -0.149  1.00  0.00     0.022 A 
ATOM     19  N   UNL     1      -1.417  -0.624  -0.618  1.00  0.00    -0.238 NA
ATOM     20  C   UNL     1      -2.175   0.461  -0.347  1.00  0.00     0.113 A 
BRANCH  16  21
ATOM     21  C   UNL     1       1.963   0.916  -0.484  1.00  0.00     0.103 C 
ATOM     22  N   UNL     1       3.112   0.982  -0.435  1.00  0.00    -0.192 NA
ENDBRANCH  16  21
ENDBRANCH   9  15
ENDBRANCH   7   8
BRANCH   7  23
ATOM     23  C   UNL     1      -0.339  -6.146  -1.315  1.00  0.00     0.044 A 
ATOM     24  C   UNL     1       0.134  -7.248  -2.021  1.00  0.00     0.094 A 
ATOM     25  C   UNL     1      -1.420  -5.693  -2.159  1.00  0.00     0.009 A 
ATOM     26  N   UNL     1       0.035  -6.852  -3.343  1.00  0.00    -0.361 N 
ATOM     27  C   UNL     1      -0.922  -5.870  -3.454  1.00  0.00     0.046 A 
ATOM     28  C   UNL     1      -2.596  -4.939  -2.017  1.00  0.00     0.011 A 
ATOM     29  H   UNL     1       0.566  -7.217  -4.087  1.00  0.00     0.166 HD
ATOM     30  C   UNL     1      -1.286  -5.027  -4.518  1.00  0.00     0.032 A 
ATOM     31  C   UNL     1      -3.077  -4.206  -3.107  1.00  0.00     0.007 A 
ATOM     32  C   UNL     1      -2.334  -4.119  -4.289  1.00  0.00    -0.021 A 
BRANCH  32  33
ATOM     33  C   UNL     1      -2.630  -3.015  -5.273  1.00  0.00     0.191 C 
BRANCH  33  34
ATOM     34  O   UNL     1      -2.689  -1.744  -4.628  1.00  0.00    -0.392 OA
ATOM     35  H   UNL     1      -3.400  -1.749  -3.968  1.00  0.00     0.211 HD
ENDBRANCH  33  34
ENDBRANCH  32  33
ENDBRANCH   7  23
ENDBRANCH   4   7
ENDBRANCH   2   3
ENDBRANCH   1   2
BRANCH   1  36
ATOM     36  C   UNL     1       1.043  -1.847   3.567  1.00  0.00     0.118 C 
BRANCH  36  37
ATOM     37  N   UNL     1       1.107  -1.385   4.940  1.00  0.00    -0.352 N 
ATOM     38  C   UNL     1       1.415  -0.149   5.461  1.00  0.00     0.251 C 
ATOM     39  H   UNL     1       0.896  -2.072   5.614  1.00  0.00     0.163 HD
ATOM     40  O   UNL     1       1.637  -0.075   6.669  1.00  0.00    -0.269 OA
BRANCH  38  41
ATOM     41  C   UNL     1       1.484   1.089   4.636  1.00  0.00     0.039 A 
ATOM     42  C   UNL     1       2.480   2.031   4.933  1.00  0.00     0.014 A 
ATOM     43  C   UNL     1       0.505   1.421   3.697  1.00  0.00     0.014 A 
ATOM     44  C   UNL     1       2.515   3.274   4.279  1.00  0.00     0.010 A 
ATOM     45  C   UNL     1       0.552   2.663   3.038  1.00  0.00     0.010 A 
ATOM     46  C   UNL     1       1.560   3.606   3.308  1.00  0.00    -0.014 A 
BRANCH  46  47
ATOM     47  C   UNL     1       1.605   4.925   2.594  1.00  0.00     0.031 A 
ATOM     48  C   UNL     1       0.488   5.933   2.745  1.00  0.00     0.074 A 
ATOM     49  C   UNL     1       2.640   5.226   1.780  1.00  0.00     0.049 A 
ATOM     50  N   UNL     1       0.335   7.100   2.164  1.00  0.00    -0.248 NA
ATOM     51  C   UNL     1      -0.611   5.568   3.647  1.00  0.00     0.031 C 
ATOM     52  C   UNL     1       3.780   4.349   1.512  1.00  0.00     0.029 A 
ATOM     53  N   UNL     1       2.905   6.348   1.027  1.00  0.00    -0.354 N 
ATOM     54  C   UNL     1      -0.878   7.605   2.624  1.00  0.00     0.074 A 
ATOM     55  C   UNL     1      -1.446   6.585   3.483  1.00  0.00     0.031 C 
ATOM     56  C   UNL     1       4.632   4.974   0.683  1.00  0.00     0.029 A 
ATOM     57  C   UNL     1       4.084   6.277   0.315  1.00  0.00     0.049 A 
ATOM     58  H   UNL     1       2.307   7.130   0.999  1.00  0.00     0.167 HD
ATOM     59  C   UNL     1      -1.458   8.809   2.375  1.00  0.00     0.034 A 
ATOM     60  C   UNL     1       4.657   7.145  -0.546  1.00  0.00     0.034 A 
ATOM     61  C   UNL     1      -0.885   9.833   1.530  1.00  0.00     0.049 A 
ATOM     62  C   UNL     1       3.973   8.459  -0.842  1.00  0.00     0.074 A 
ATOM     63  C   UNL     1      -1.376  11.100   1.257  1.00  0.00     0.029 A 
ATOM     64  N   UNL     1       0.299   9.711   0.814  1.00  0.00    -0.354 N 
ATOM     65  N   UNL     1       2.841   8.928  -0.370  1.00  0.00    -0.248 NA
ATOM     66  C   UNL     1       4.649   9.362  -1.784  1.00  0.00     0.031 C 
ATOM     67  C   UNL     1      -0.533  11.712   0.322  1.00  0.00     0.029 A 
ATOM     68  C   UNL     1       0.532  10.864   0.074  1.00  0.00     0.049 A 
ATOM     69  H   UNL     1       0.888   8.923   0.829  1.00  0.00     0.167 HD
ATOM     70  C   UNL     1       2.692  10.194  -0.933  1.00  0.00     0.074 A 
ATOM     71  C   UNL     1       3.852  10.420  -1.767  1.00  0.00     0.031 C 
ATOM     72  C   UNL     1       1.685  11.090  -0.767  1.00  0.00     0.034 A 
BRANCH  59  73
ATOM     73  C   UNL     1      -2.808   9.077   3.006  1.00  0.00     0.023 A 
ATOM     74  C   UNL     1      -2.977   9.120   4.401  1.00  0.00     0.031 A 
ATOM     75  C   UNL     1      -3.946   9.278   2.203  1.00  0.00     0.131 A 
ATOM     76  C   UNL     1      -4.260   9.273   4.948  1.00  0.00     0.055 A 
ATOM     77  C   UNL     1      -5.206   9.520   2.754  1.00  0.00     0.041 A 
ATOM     78  F   UNL     1      -3.854   9.233   0.864  1.00  0.00    -0.206 F 
ATOM     79  C   UNL     1      -5.372   9.501   4.135  1.00  0.00     0.022 A 
BRANCH  76  80
ATOM     80  S   UNL     1      -4.476   9.009   6.730  1.00  0.00     0.124 S 
ATOM     81  O   UNL     1      -3.963   7.650   6.889  1.00  0.00    -0.237 OA
ATOM     82  O   UNL     1      -3.663  10.072   7.307  1.00  0.00    -0.237 OA
ATOM     83  O   UNL     1      -5.918   9.148   6.924  1.00  0.00    -0.744 OA
ENDBRANCH  76  80
ENDBRANCH  59  73
BRANCH  60  84
ATOM     84  C   UNL     1       5.945   6.803  -1.221  1.00  0.00     0.023 A 
ATOM     85  C   UNL     1       7.106   7.563  -1.002  1.00  0.00     0.031 A 
ATOM     86  C   UNL     1       6.017   5.744  -2.143  1.00  0.00     0.131 A 
ATOM     87  C   UNL     1       8.275   7.282  -1.727  1.00  0.00     0.055 A 
ATOM     88  C   UNL     1       7.199   5.429  -2.816  1.00  0.00     0.041 A 
ATOM     89  F   UNL     1       4.935   4.992  -2.399  1.00  0.00    -0.206 F 
ATOM     90  C   UNL     1       8.334   6.209  -2.620  1.00  0.00     0.022 A 
BRANCH  87  91
ATOM     91  S   UNL     1       9.696   8.398  -1.557  1.00  0.00     0.124 S 
ATOM     92  O   UNL     1       9.123   9.673  -1.973  1.00  0.00    -0.237 OA
ATOM     93  O   UNL     1      10.016   8.269  -0.140  1.00  0.00    -0.237 OA
ATOM     94  O   UNL     1      10.686   7.831  -2.471  1.00  0.00    -0.744 OA
ENDBRANCH  87  91
ENDBRANCH  60  84
BRANCH  72  95
ATOM     95  C   UNL     1       1.821  12.425  -1.463  1.00  0.00     0.023 A 
ATOM     96  C   UNL     1       1.803  12.543  -2.864  1.00  0.00     0.031 A 
ATOM     97  C   UNL     1       1.982  13.601  -0.707  1.00  0.00     0.131 A 
ATOM     98  C   UNL     1       1.997  13.797  -3.466  1.00  0.00     0.055 A 
ATOM     99  C   UNL     1       2.113  14.854  -1.309  1.00  0.00     0.041 A 
ATOM    100  F   UNL     1       2.012  13.552   0.635  1.00  0.00    -0.206 F 
ATOM    101  C   UNL     1       2.134  14.956  -2.696  1.00  0.00     0.022 A 
BRANCH  98 102
ATOM    102  S   UNL     1       2.158  13.887  -5.271  1.00  0.00     0.124 S 
ATOM    103  O   UNL     1       3.298  13.009  -5.518  1.00  0.00    -0.237 OA
ATOM    104  O   UNL     1       0.863  13.393  -5.725  1.00  0.00    -0.237 OA
ATOM    105  O   UNL     1       2.403  15.306  -5.524  1.00  0.00    -0.744 OA
ENDBRANCH  98 102
ENDBRANCH  72  95
ENDBRANCH  46  47
ENDBRANCH  38  41
ENDBRANCH  36  37
ENDBRANCH   1  36
TORSDOF 19
