REMARK SMILES COc1cc(Cn2cc(C(=O)NCCCNC(=O)c3ccc(-c4c5nc(c(-c6cc(S(=O)(=O)[O-])ccc6F)c6ccc([nH]6)c(-c6cc(S(=O)(=O)[O-])ccc6F)c6nc(c(-c7cc(S(=O)(=O)[O-])ccc7F)c7ccc4[nH]7)C=C6)C=C5)cc3)c(=O)[nH]c2=O)ccn1
REMARK SMILES IDX 14 1 13 2 12 3 10 4 11 5 9 7 7 8 8 9 85 10 84 11 86 12 82 13
REMARK SMILES IDX 83 15 6 16 5 17 3 18 4 19 89 20 88 21 87 22 2 23 1 24 15 25
REMARK SMILES IDX 16 26 17 27 18 29 19 30 20 31 81 32 21 33 80 34 22 35 23 36
REMARK SMILES IDX 24 37 74 38 25 39 79 40 73 41 75 42 26 43 78 44 72 45 71 46
REMARK SMILES IDX 27 48 59 49 39 50 58 51 40 52 43 53 57 54 76 55 41 56 42 57
REMARK SMILES IDX 56 59 77 60 44 61 28 62 29 63 37 64 30 65 36 66 38 67 35 68
REMARK SMILES IDX 31 69 32 70 33 71 34 72 60 73 61 74 69 75 62 76 68 77 70 78
REMARK SMILES IDX 67 79 63 80 64 81 65 82 66 83 45 84 46 85 54 86 47 87 53 88
REMARK SMILES IDX 55 89 52 90 48 91 49 92 50 93 51 94
REMARK H PARENT 12 6 84 14 16 28 75 47 43 58
REMARK Flexibility Score: inf
ROOT
ATOM      1  C   UNL     1       1.092  -3.588   7.731  1.00  0.00     0.042 C 
ENDROOT
BRANCH   1   2
ATOM      2  C   UNL     1       1.331  -2.097   7.971  1.00  0.00     0.118 C 
BRANCH   2   3
ATOM      3  N   UNL     1       2.417  -1.899   8.917  1.00  0.00    -0.352 N 
ATOM      4  C   UNL     1       3.744  -1.614   8.759  1.00  0.00     0.258 C 
ATOM      5  O   UNL     1       4.432  -1.567   9.778  1.00  0.00    -0.269 OA
ATOM      6  H   UNL     1       2.142  -1.987   9.858  1.00  0.00     0.163 HD
BRANCH   4   7
ATOM      7  C   UNL     1       4.346  -1.347   7.424  1.00  0.00     0.121 A 
ATOM      8  N   UNL     1       4.553  -1.791   5.073  1.00  0.00    -0.295 N 
ATOM      9  C   UNL     1       4.034  -2.054   6.329  1.00  0.00     0.110 A 
ATOM     10  C   UNL     1       5.566  -0.863   4.888  1.00  0.00     0.328 A 
ATOM     11  N   UNL     1       5.989  -0.233   6.027  1.00  0.00    -0.273 N 
ATOM     12  O   UNL     1       6.064  -0.582   3.801  1.00  0.00    -0.248 OA
ATOM     13  C   UNL     1       5.411  -0.321   7.266  1.00  0.00     0.266 A 
ATOM     14  H   UNL     1       6.786   0.340   5.948  1.00  0.00     0.175 HD
ATOM     15  O   UNL     1       5.749   0.451   8.157  1.00  0.00    -0.268 OA
BRANCH   8  16
ATOM     16  C   UNL     1       3.983  -2.463   3.901  1.00  0.00     0.162 C 
BRANCH  16  17
ATOM     17  C   UNL     1       2.638  -1.882   3.519  1.00  0.00    -0.021 A 
ATOM     18  C   UNL     1       1.288  -0.301   2.340  1.00  0.00     0.213 A 
ATOM     19  C   UNL     1       2.548  -0.793   2.650  1.00  0.00     0.074 A 
ATOM     20  N   UNL     1       0.137  -0.760   2.869  1.00  0.00    -0.222 NA
ATOM     21  C   UNL     1       0.244  -1.799   3.718  1.00  0.00     0.115 A 
ATOM     22  C   UNL     1       1.451  -2.398   4.051  1.00  0.00     0.026 A 
BRANCH  18  23
ATOM     23  O   UNL     1       1.170   0.723   1.436  1.00  0.00    -0.481 OA
ATOM     24  C   UNL     1       1.056   0.161   0.130  1.00  0.00     0.280 C 
ENDBRANCH  18  23
ENDBRANCH  16  17
ENDBRANCH   8  16
ENDBRANCH   4   7
ENDBRANCH   2   3
ENDBRANCH   1   2
BRANCH   1  25
ATOM     25  C   UNL     1       0.247  -4.247   8.815  1.00  0.00     0.118 C 
BRANCH  25  26
ATOM     26  N   UNL     1      -1.167  -3.931   8.663  1.00  0.00    -0.352 N 
ATOM     27  C   UNL     1      -2.251  -4.775   8.557  1.00  0.00     0.251 C 
ATOM     28  H   UNL     1      -1.380  -2.970   8.631  1.00  0.00     0.163 HD
ATOM     29  O   UNL     1      -3.331  -4.318   8.218  1.00  0.00    -0.269 OA
BRANCH  27  30
ATOM     30  C   UNL     1      -2.096  -6.228   8.818  1.00  0.00     0.039 A 
ATOM     31  C   UNL     1      -1.296  -6.691   9.863  1.00  0.00     0.014 A 
ATOM     32  C   UNL     1      -2.776  -7.142   8.006  1.00  0.00     0.014 A 
ATOM     33  C   UNL     1      -1.043  -8.053   9.991  1.00  0.00     0.010 A 
ATOM     34  C   UNL     1      -2.591  -8.516   8.195  1.00  0.00     0.010 A 
ATOM     35  C   UNL     1      -1.685  -8.984   9.158  1.00  0.00    -0.014 A 
BRANCH  35  36
ATOM     36  C   UNL     1      -1.403 -10.435   9.329  1.00  0.00     0.031 A 
ATOM     37  C   UNL     1      -0.733 -11.226   8.239  1.00  0.00     0.074 A 
ATOM     38  C   UNL     1      -1.708 -11.027  10.502  1.00  0.00     0.049 A 
ATOM     39  N   UNL     1      -0.367 -12.482   8.241  1.00  0.00    -0.248 NA
ATOM     40  C   UNL     1      -0.436 -10.521   6.981  1.00  0.00     0.031 C 
ATOM     41  C   UNL     1      -2.361 -10.356  11.627  1.00  0.00     0.029 A 
ATOM     42  N   UNL     1      -1.492 -12.304  10.956  1.00  0.00    -0.354 N 
ATOM     43  C   UNL     1       0.190 -12.722   6.990  1.00  0.00     0.074 A 
ATOM     44  C   UNL     1       0.079 -11.491   6.239  1.00  0.00     0.031 C 
ATOM     45  C   UNL     1      -2.439 -11.207  12.659  1.00  0.00     0.029 A 
ATOM     46  C   UNL     1      -1.910 -12.506  12.251  1.00  0.00     0.049 A 
ATOM     47  H   UNL     1      -1.077 -13.008  10.407  1.00  0.00     0.167 HD
ATOM     48  C   UNL     1       0.756 -13.860   6.520  1.00  0.00     0.034 A 
ATOM     49  C   UNL     1      -1.883 -13.611  13.025  1.00  0.00     0.034 A 
ATOM     50  C   UNL     1       0.872 -15.073   7.289  1.00  0.00     0.049 A 
ATOM     51  C   UNL     1      -1.274 -14.871  12.469  1.00  0.00     0.074 A 
ATOM     52  C   UNL     1       1.456 -16.269   6.910  1.00  0.00     0.029 A 
ATOM     53  N   UNL     1       0.404 -15.251   8.583  1.00  0.00    -0.354 N 
ATOM     54  N   UNL     1      -0.706 -15.064  11.302  1.00  0.00    -0.248 NA
ATOM     55  C   UNL     1      -1.297 -16.063  13.328  1.00  0.00     0.031 C 
ATOM     56  C   UNL     1       1.286 -17.187   7.947  1.00  0.00     0.029 A 
ATOM     57  C   UNL     1       0.662 -16.545   9.006  1.00  0.00     0.049 A 
ATOM     58  H   UNL     1      -0.044 -14.560   9.122  1.00  0.00     0.167 HD
ATOM     59  C   UNL     1      -0.293 -16.393  11.291  1.00  0.00     0.074 A 
ATOM     60  C   UNL     1      -0.647 -16.947  12.581  1.00  0.00     0.031 C 
ATOM     61  C   UNL     1       0.316 -17.089  10.298  1.00  0.00     0.034 A 
BRANCH  48  62
ATOM     62  C   UNL     1       1.313 -13.868   5.117  1.00  0.00     0.023 A 
ATOM     63  C   UNL     1       0.769 -14.732   4.148  1.00  0.00     0.031 A 
ATOM     64  C   UNL     1       2.461 -13.129   4.779  1.00  0.00     0.131 A 
ATOM     65  C   UNL     1       1.395 -14.863   2.902  1.00  0.00     0.055 A 
ATOM     66  C   UNL     1       3.057 -13.233   3.521  1.00  0.00     0.041 A 
ATOM     67  F   UNL     1       3.018 -12.289   5.668  1.00  0.00    -0.206 F 
ATOM     68  C   UNL     1       2.531 -14.114   2.581  1.00  0.00     0.022 A 
BRANCH  65  69
ATOM     69  S   UNL     1       0.799 -16.056   1.672  1.00  0.00     0.124 S 
ATOM     70  O   UNL     1       0.501 -15.187   0.535  1.00  0.00    -0.237 OA
ATOM     71  O   UNL     1       1.959 -16.926   1.504  1.00  0.00    -0.237 OA
ATOM     72  O   UNL     1      -0.363 -16.666   2.308  1.00  0.00    -0.744 OA
ENDBRANCH  65  69
ENDBRANCH  48  62
BRANCH  49  73
ATOM     73  C   UNL     1      -2.413 -13.533  14.419  1.00  0.00     0.023 A 
ATOM     74  C   UNL     1      -3.755 -13.184  14.661  1.00  0.00     0.031 A 
ATOM     75  C   UNL     1      -1.561 -13.682  15.525  1.00  0.00     0.131 A 
ATOM     76  C   UNL     1      -4.182 -12.912  15.967  1.00  0.00     0.055 A 
ATOM     77  C   UNL     1      -2.011 -13.488  16.833  1.00  0.00     0.041 A 
ATOM     78  F   UNL     1      -0.271 -14.002  15.347  1.00  0.00    -0.206 F 
ATOM     79  C   UNL     1      -3.323 -13.080  17.057  1.00  0.00     0.022 A 
BRANCH  76  80
ATOM     80  S   UNL     1      -5.814 -12.182  16.276  1.00  0.00     0.124 S 
ATOM     81  O   UNL     1      -6.450 -13.199  17.107  1.00  0.00    -0.237 OA
ATOM     82  O   UNL     1      -5.460 -10.939  16.958  1.00  0.00    -0.237 OA
ATOM     83  O   UNL     1      -6.375 -12.016  14.940  1.00  0.00    -0.744 OA
ENDBRANCH  76  80
ENDBRANCH  49  73
BRANCH  61  84
ATOM     84  C   UNL     1       0.653 -18.542  10.536  1.00  0.00     0.023 A 
ATOM     85  C   UNL     1       1.995 -18.967  10.510  1.00  0.00     0.031 A 
ATOM     86  C   UNL     1      -0.353 -19.520  10.624  1.00  0.00     0.131 A 
ATOM     87  C   UNL     1       2.293 -20.335  10.523  1.00  0.00     0.055 A 
ATOM     88  C   UNL     1      -0.048 -20.880  10.688  1.00  0.00     0.041 A 
ATOM     89  F   UNL     1      -1.648 -19.165  10.641  1.00  0.00    -0.206 F 
ATOM     90  C   UNL     1       1.279 -21.293  10.621  1.00  0.00     0.022 A 
BRANCH  87  91
ATOM     91  S   UNL     1       3.997 -20.923  10.317  1.00  0.00     0.124 S 
ATOM     92  O   UNL     1       4.217 -21.653  11.564  1.00  0.00    -0.237 OA
ATOM     93  O   UNL     1       3.893 -21.752   9.119  1.00  0.00    -0.237 OA
ATOM     94  O   UNL     1       4.777 -19.699  10.168  1.00  0.00    -0.744 OA
ENDBRANCH  87  91
ENDBRANCH  61  84
ENDBRANCH  35  36
ENDBRANCH  27  30
ENDBRANCH  25  26
ENDBRANCH   1  25
TORSDOF 16
