REMARK SMILES Cc1cccc(-c2cc(C[C@]3(C(=O)NCCCNC(=O)c4ccc(-c5c6nc(c(-c7cc(S(=O)(=O)[O-])ccc7F)c7ccc([nH]7)c(-c7cc(S(=O)(=O)[O-])ccc7F)c7nc(c(-c8cc(S(=O)(=O)[O-])ccc8F)c8ccc5[nH]8)C=C7)C=C6)cc4)CCCN(C(=O)C(C)C)C3)on2)c1
REMARK SMILES IDX 16 1 15 2 14 3 12 4 13 5 11 7 84 8 93 9 85 10 87 11 86 12
REMARK SMILES IDX 10 13 9 14 7 15 8 16 95 17 94 18 6 19 1 20 2 21 3 22 96 23
REMARK SMILES IDX 4 24 5 25 88 26 89 27 90 28 91 29 92 30 17 31 18 32 19 33
REMARK SMILES IDX 20 35 21 36 22 37 83 38 23 39 82 40 24 41 25 42 26 43 76 44
REMARK SMILES IDX 27 45 81 46 75 47 77 48 28 49 80 50 74 51 73 52 29 54 61 55
REMARK SMILES IDX 41 56 60 57 42 58 45 59 59 60 78 61 43 62 44 63 58 65 79 66
REMARK SMILES IDX 46 67 30 68 31 69 39 70 32 71 38 72 40 73 37 74 33 75 34 76
REMARK SMILES IDX 35 77 36 78 62 79 63 80 71 81 64 82 70 83 72 84 69 85 65 86
REMARK SMILES IDX 66 87 67 88 68 89 47 90 48 91 56 92 49 93 55 94 57 95 54 96
REMARK SMILES IDX 50 97 51 98 52 99 53 100
REMARK H PARENT 14 6 18 34 77 53 45 64
REMARK Flexibility Score: inf
ROOT
ATOM      1  C   UNL     1      -7.846   6.693  -2.248  1.00  0.00     0.042 C 
ENDROOT
BRANCH   1   2
ATOM      2  C   UNL     1      -6.745   6.423  -3.267  1.00  0.00     0.117 C 
BRANCH   2   3
ATOM      3  N   UNL     1      -5.526   7.205  -3.038  1.00  0.00    -0.355 N 
ATOM      4  C   UNL     1      -4.322   6.966  -2.440  1.00  0.00     0.228 C 
ATOM      5  O   UNL     1      -3.495   7.884  -2.504  1.00  0.00    -0.274 OA
ATOM      6  H   UNL     1      -5.591   8.117  -3.402  1.00  0.00     0.163 HD
BRANCH   4   7
ATOM      7  C   UNL     1      -3.986   5.677  -1.636  1.00  0.00     0.074 C 
ATOM      8  C   UNL     1      -4.851   5.709  -0.342  1.00  0.00     0.021 C 
ATOM      9  C   UNL     1      -4.152   4.438  -2.556  1.00  0.00     0.136 C 
ATOM     10  C   UNL     1      -5.389   4.370   0.146  1.00  0.00     0.023 C 
ATOM     11  N   UNL     1      -4.678   3.251  -1.870  1.00  0.00    -0.341 N 
ATOM     12  C   UNL     1      -5.826   3.504  -1.016  1.00  0.00     0.119 C 
BRANCH   7  13
ATOM     13  C   UNL     1      -2.467   5.782  -1.228  1.00  0.00     0.097 C 
BRANCH  13  14
ATOM     14  C   UNL     1      -1.874   4.570  -0.584  1.00  0.00     0.138 A 
ATOM     15  C   UNL     1      -0.894   2.698   0.079  1.00  0.00     0.114 A 
ATOM     16  C   UNL     1      -1.126   3.517  -1.053  1.00  0.00     0.077 A 
ATOM     17  N   UNL     1      -1.443   3.244   1.176  1.00  0.00    -0.080 NA
ATOM     18  O   UNL     1      -2.037   4.426   0.759  1.00  0.00    -0.361 OA
BRANCH  15  19
ATOM     19  C   UNL     1      -0.206   1.415   0.117  1.00  0.00     0.004 A 
ATOM     20  C   UNL     1       3.324  -0.006  -0.128  1.00  0.00     0.044 C 
ATOM     21  C   UNL     1       1.833   0.092  -0.005  1.00  0.00    -0.050 A 
ATOM     22  C   UNL     1       1.074  -1.079   0.117  1.00  0.00     0.003 A 
ATOM     23  C   UNL     1       1.184   1.338  -0.019  1.00  0.00     0.014 A 
ATOM     24  C   UNL     1      -0.309  -1.010   0.254  1.00  0.00     0.001 A 
ATOM     25  C   UNL     1      -0.940   0.233   0.266  1.00  0.00     0.010 A 
ENDBRANCH  15  19
ENDBRANCH  13  14
ENDBRANCH   7  13
BRANCH  11  26
ATOM     26  C   UNL     1      -4.071   2.028  -2.090  1.00  0.00     0.225 C 
ATOM     27  O   UNL     1      -3.170   1.903  -2.928  1.00  0.00    -0.275 OA
BRANCH  26  28
ATOM     28  C   UNL     1      -4.500   0.773  -1.322  1.00  0.00     0.072 C 
ATOM     29  C   UNL     1      -4.564   0.903   0.198  1.00  0.00     0.018 C 
ATOM     30  C   UNL     1      -5.751   0.140  -1.916  1.00  0.00     0.018 C 
ENDBRANCH  26  28
ENDBRANCH  11  26
ENDBRANCH   4   7
ENDBRANCH   2   3
ENDBRANCH   1   2
BRANCH   1  31
ATOM     31  C   UNL     1      -8.855   7.731  -2.712  1.00  0.00     0.118 C 
BRANCH  31  32
ATOM     32  N   UNL     1     -10.111   7.162  -3.202  1.00  0.00    -0.352 N 
ATOM     33  C   UNL     1     -11.285   7.827  -3.529  1.00  0.00     0.251 C 
ATOM     34  H   UNL     1     -10.125   6.183  -3.313  1.00  0.00     0.163 HD
ATOM     35  O   UNL     1     -12.277   7.238  -3.917  1.00  0.00    -0.269 OA
BRANCH  33  36
ATOM     36  C   UNL     1     -11.261   9.308  -3.495  1.00  0.00     0.039 A 
ATOM     37  C   UNL     1     -11.427   9.983  -4.707  1.00  0.00     0.014 A 
ATOM     38  C   UNL     1     -10.769   9.961  -2.370  1.00  0.00     0.014 A 
ATOM     39  C   UNL     1     -10.865  11.247  -4.856  1.00  0.00     0.010 A 
ATOM     40  C   UNL     1     -10.103  11.155  -2.555  1.00  0.00     0.010 A 
ATOM     41  C   UNL     1     -10.101  11.772  -3.813  1.00  0.00    -0.014 A 
BRANCH  41  42
ATOM     42  C   UNL     1      -9.162  12.876  -3.996  1.00  0.00     0.031 A 
ATOM     43  C   UNL     1      -9.403  14.184  -3.353  1.00  0.00     0.074 A 
ATOM     44  C   UNL     1      -8.036  12.700  -4.724  1.00  0.00     0.049 A 
ATOM     45  N   UNL     1      -8.954  15.306  -3.804  1.00  0.00    -0.248 NA
ATOM     46  C   UNL     1     -10.218  14.335  -2.155  1.00  0.00     0.031 C 
ATOM     47  C   UNL     1      -6.888  13.600  -4.808  1.00  0.00     0.029 A 
ATOM     48  N   UNL     1      -7.822  11.770  -5.739  1.00  0.00    -0.354 N 
ATOM     49  C   UNL     1      -9.147  16.256  -2.829  1.00  0.00     0.074 A 
ATOM     50  C   UNL     1     -10.000  15.617  -1.854  1.00  0.00     0.031 C 
ATOM     51  C   UNL     1      -6.233  13.362  -5.954  1.00  0.00     0.029 A 
ATOM     52  C   UNL     1      -7.007  12.390  -6.703  1.00  0.00     0.049 A 
ATOM     53  H   UNL     1      -8.175  10.851  -5.774  1.00  0.00     0.167 HD
ATOM     54  C   UNL     1      -8.449  17.427  -2.881  1.00  0.00     0.034 A 
ATOM     55  C   UNL     1      -7.420  12.533  -7.995  1.00  0.00     0.034 A 
ATOM     56  C   UNL     1      -7.615  17.508  -4.080  1.00  0.00     0.049 A 
ATOM     57  C   UNL     1      -7.494  13.973  -8.447  1.00  0.00     0.074 A 
ATOM     58  C   UNL     1      -6.259  17.330  -4.301  1.00  0.00     0.029 A 
ATOM     59  N   UNL     1      -8.213  17.545  -5.336  1.00  0.00    -0.354 N 
ATOM     60  N   UNL     1      -7.482  14.997  -7.638  1.00  0.00    -0.248 NA
ATOM     61  C   UNL     1      -7.602  14.373  -9.845  1.00  0.00     0.031 C 
ATOM     62  C   UNL     1      -6.049  17.226  -5.700  1.00  0.00     0.029 A 
ATOM     63  C   UNL     1      -7.272  17.363  -6.332  1.00  0.00     0.049 A 
ATOM     64  H   UNL     1      -9.175  17.683  -5.494  1.00  0.00     0.167 HD
ATOM     65  C   UNL     1      -7.600  16.162  -8.358  1.00  0.00     0.074 A 
ATOM     66  C   UNL     1      -7.647  15.713  -9.739  1.00  0.00     0.031 C 
ATOM     67  C   UNL     1      -7.657  17.384  -7.740  1.00  0.00     0.034 A 
BRANCH  54  68
ATOM     68  C   UNL     1      -8.282  18.351  -1.692  1.00  0.00     0.023 A 
ATOM     69  C   UNL     1      -7.093  19.098  -1.557  1.00  0.00     0.031 A 
ATOM     70  C   UNL     1      -9.210  18.510  -0.645  1.00  0.00     0.131 A 
ATOM     71  C   UNL     1      -6.815  19.840  -0.395  1.00  0.00     0.055 A 
ATOM     72  C   UNL     1      -8.911  19.194   0.541  1.00  0.00     0.041 A 
ATOM     73  F   UNL     1     -10.469  18.061  -0.748  1.00  0.00    -0.206 F 
ATOM     74  C   UNL     1      -7.699  19.852   0.679  1.00  0.00     0.022 A 
BRANCH  71  75
ATOM     75  S   UNL     1      -5.280  20.804  -0.310  1.00  0.00     0.124 S 
ATOM     76  O   UNL     1      -4.258  19.778  -0.487  1.00  0.00    -0.237 OA
ATOM     77  O   UNL     1      -5.448  21.747  -1.409  1.00  0.00    -0.237 OA
ATOM     78  O   UNL     1      -5.329  21.400   1.025  1.00  0.00    -0.744 OA
ENDBRANCH  71  75
ENDBRANCH  54  68
BRANCH  55  79
ATOM     79  C   UNL     1      -8.299  11.418  -8.450  1.00  0.00     0.023 A 
ATOM     80  C   UNL     1      -7.763  10.114  -8.360  1.00  0.00     0.031 A 
ATOM     81  C   UNL     1      -9.690  11.551  -8.542  1.00  0.00     0.131 A 
ATOM     82  C   UNL     1      -8.609   9.014  -8.165  1.00  0.00     0.055 A 
ATOM     83  C   UNL     1     -10.532  10.435  -8.437  1.00  0.00     0.041 A 
ATOM     84  F   UNL     1     -10.260  12.763  -8.594  1.00  0.00    -0.206 F 
ATOM     85  C   UNL     1      -9.995   9.167  -8.199  1.00  0.00     0.022 A 
BRANCH  82  86
ATOM     86  S   UNL     1      -7.871   7.466  -7.558  1.00  0.00     0.124 S 
ATOM     87  O   UNL     1      -7.434   6.830  -8.795  1.00  0.00    -0.237 OA
ATOM     88  O   UNL     1      -6.810   7.943  -6.671  1.00  0.00    -0.237 OA
ATOM     89  O   UNL     1      -8.970   6.804  -6.859  1.00  0.00    -0.744 OA
ENDBRANCH  82  86
ENDBRANCH  55  79
BRANCH  67  90
ATOM     90  C   UNL     1      -7.983  18.722  -8.388  1.00  0.00     0.023 A 
ATOM     91  C   UNL     1      -8.450  18.865  -9.703  1.00  0.00     0.031 A 
ATOM     92  C   UNL     1      -7.884  19.933  -7.653  1.00  0.00     0.131 A 
ATOM     93  C   UNL     1      -8.719  20.134 -10.256  1.00  0.00     0.055 A 
ATOM     94  C   UNL     1      -8.217  21.185  -8.180  1.00  0.00     0.041 A 
ATOM     95  F   UNL     1      -7.472  19.959  -6.377  1.00  0.00    -0.206 F 
ATOM     96  C   UNL     1      -8.624  21.295  -9.498  1.00  0.00     0.022 A 
BRANCH  93  97
ATOM     97  S   UNL     1      -9.147  20.229 -12.015  1.00  0.00     0.124 S 
ATOM     98  O   UNL     1      -7.942  19.699 -12.648  1.00  0.00    -0.237 OA
ATOM     99  O   UNL     1     -10.330  19.379 -12.095  1.00  0.00    -0.237 OA
ATOM    100  O   UNL     1      -9.389  21.654 -12.236  1.00  0.00    -0.744 OA
ENDBRANCH  93  97
ENDBRANCH  67  90
ENDBRANCH  41  42
ENDBRANCH  33  36
ENDBRANCH  31  32
ENDBRANCH   1  31
TORSDOF 18
