REMARK SMILES C[C@H]1c2ccc(O)cc2OC(=O)[C@@H]1CC(=O)N[C@@H](CC1=c2ccccc2=NC1)C(=O)NCCCNC(=O)c1ccc(-c2c3nc(c(-c4cc(S(=O)(=O)[O-])ccc4F)c4ccc([nH]4)c(-c4cc(S(=O)(=O)[O-])ccc4F)c4nc(c(-c5cc(S(=O)(=O)[O-])ccc5F)c5ccc2[nH]5)C=C4)C=C3)cc1
REMARK SMILES IDX 32 1 31 2 29 3 30 4 18 6 17 7 15 8 16 9 14 11 13 12 1 13
REMARK SMILES IDX 2 14 3 15 4 16 9 17 11 18 5 19 8 20 10 21 12 22 6 23 7 24
REMARK SMILES IDX 19 26 20 27 21 28 28 29 22 30 26 31 27 32 23 33 25 34 24 35
REMARK SMILES IDX 33 36 34 37 35 38 36 39 37 41 38 42 39 43 100 44 40 45 99 46
REMARK SMILES IDX 41 47 42 48 43 49 93 50 44 51 98 52 92 53 94 54 45 55 97 56
REMARK SMILES IDX 91 57 90 58 46 60 78 61 58 62 77 63 59 64 62 65 76 66 95 67
REMARK SMILES IDX 60 68 61 69 75 71 96 72 63 73 47 74 48 75 56 76 49 77 55 78
REMARK SMILES IDX 57 79 54 80 50 81 51 82 52 83 53 84 79 85 80 86 88 87 81 88
REMARK SMILES IDX 87 89 89 90 86 91 82 92 83 93 84 94 85 95 64 96 65 97 73 98
REMARK SMILES IDX 66 99 72 100 74 101 71 102 67 103 68 104 69 105 70 106
REMARK H PARENT 31 5 17 10 7 25 35 40 94 59 62 70
REMARK Flexibility Score: inf
ROOT
ATOM      1  C   UNL     1       3.194   6.782  -4.429  1.00  0.00     0.117 C 
ENDROOT
BRANCH   1   2
ATOM      2  N   UNL     1       2.691   6.687  -3.086  1.00  0.00    -0.354 N 
ATOM      3  C   UNL     1       3.024   5.652  -2.248  1.00  0.00     0.242 C 
ATOM      4  O   UNL     1       3.255   5.940  -1.068  1.00  0.00    -0.273 OA
ATOM      5  H   UNL     1       2.086   7.389  -2.755  1.00  0.00     0.163 HD
BRANCH   3   6
ATOM      6  C   UNL     1       3.174   4.171  -2.732  1.00  0.00     0.175 C 
BRANCH   6   7
ATOM      7  N   UNL     1       2.241   3.668  -3.747  1.00  0.00    -0.344 N 
ATOM      8  C   UNL     1       1.101   2.932  -3.587  1.00  0.00     0.221 C 
ATOM      9  O   UNL     1       0.556   2.463  -4.587  1.00  0.00    -0.275 OA
ATOM     10  H   UNL     1       2.470   3.894  -4.677  1.00  0.00     0.164 HD
BRANCH   8  11
ATOM     11  C   UNL     1       0.493   2.712  -2.210  1.00  0.00     0.116 C 
BRANCH  11  12
ATOM     12  C   UNL     1       0.970   1.423  -1.501  1.00  0.00     0.116 C 
ATOM     13  C   UNL     1       0.405  -0.451   0.144  1.00  0.00     0.014 C 
ATOM     14  C   UNL     1      -0.015   0.912  -0.424  1.00  0.00     0.034 C 
ATOM     15  C   UNL     1      -0.101   1.940   0.678  1.00  0.00    -0.001 A 
ATOM     16  C   UNL     1      -1.263   2.130   1.429  1.00  0.00     0.011 A 
ATOM     17  C   UNL     1       1.000   2.765   0.924  1.00  0.00     0.138 A 
ATOM     18  C   UNL     1       2.280   1.641  -0.782  1.00  0.00     0.315 C 
ATOM     19  C   UNL     1      -1.333   3.174   2.357  1.00  0.00     0.047 A 
ATOM     20  C   UNL     1       0.936   3.827   1.819  1.00  0.00     0.093 A 
ATOM     21  O   UNL     1       2.229   2.531   0.283  1.00  0.00    -0.426 OA
ATOM     22  O   UNL     1       3.330   1.115  -1.133  1.00  0.00    -0.251 OA
ATOM     23  C   UNL     1      -0.243   4.028   2.523  1.00  0.00     0.119 A 
BRANCH  23  24
ATOM     24  O   UNL     1      -0.297   5.083   3.386  1.00  0.00    -0.508 OA
ATOM     25  H   UNL     1      -1.078   5.248   3.877  1.00  0.00     0.293 HD
ENDBRANCH  23  24
ENDBRANCH  11  12
ENDBRANCH   8  11
ENDBRANCH   6   7
BRANCH   6  26
ATOM     26  C   UNL     1       4.605   3.542  -2.852  1.00  0.00     0.068 C 
BRANCH  26  27
ATOM     27  C   UNL     1       5.495   3.765  -4.066  1.00  0.00    -0.037 C 
ATOM     28  C   UNL     1       5.246   3.205  -5.263  1.00  0.00     0.001 A 
ATOM     29  C   UNL     1       6.053   5.139  -4.252  1.00  0.00     0.174 C 
ATOM     30  C   UNL     1       6.171   2.413  -6.078  1.00  0.00     0.010 A 
ATOM     31  C   UNL     1       5.011   4.471  -6.024  1.00  0.00     0.065 A 
ATOM     32  N   UNL     1       5.474   5.576  -5.538  1.00  0.00    -0.280 NA
ATOM     33  C   UNL     1       6.004   2.443  -7.418  1.00  0.00     0.001 A 
ATOM     34  C   UNL     1       4.376   4.250  -7.335  1.00  0.00     0.028 A 
ATOM     35  C   UNL     1       4.900   3.206  -8.000  1.00  0.00     0.002 A 
ENDBRANCH  26  27
ENDBRANCH   6  26
ENDBRANCH   3   6
ENDBRANCH   1   2
BRANCH   1  36
ATOM     36  C   UNL     1       2.750   7.935  -5.309  1.00  0.00     0.042 C 
BRANCH  36  37
ATOM     37  C   UNL     1       3.564   9.211  -5.079  1.00  0.00     0.118 C 
BRANCH  37  38
ATOM     38  N   UNL     1       5.000   9.117  -5.378  1.00  0.00    -0.352 N 
ATOM     39  C   UNL     1       5.797   9.367  -6.481  1.00  0.00     0.251 C 
ATOM     40  H   UNL     1       5.521   8.798  -4.606  1.00  0.00     0.163 HD
ATOM     41  O   UNL     1       7.001   9.180  -6.389  1.00  0.00    -0.269 OA
BRANCH  39  42
ATOM     42  C   UNL     1       5.226   9.794  -7.783  1.00  0.00     0.039 A 
ATOM     43  C   UNL     1       4.095  10.586  -7.852  1.00  0.00     0.014 A 
ATOM     44  C   UNL     1       5.829   9.373  -8.977  1.00  0.00     0.014 A 
ATOM     45  C   UNL     1       3.395  10.684  -9.044  1.00  0.00     0.010 A 
ATOM     46  C   UNL     1       5.209   9.627 -10.211  1.00  0.00     0.010 A 
ATOM     47  C   UNL     1       3.933  10.205 -10.249  1.00  0.00    -0.014 A 
BRANCH  47  48
ATOM     48  C   UNL     1       3.113  10.304 -11.494  1.00  0.00     0.031 A 
ATOM     49  C   UNL     1       2.773   9.073 -12.300  1.00  0.00     0.074 A 
ATOM     50  C   UNL     1       2.568  11.493 -11.832  1.00  0.00     0.049 A 
ATOM     51  N   UNL     1       2.028   8.975 -13.373  1.00  0.00    -0.248 NA
ATOM     52  C   UNL     1       3.344   7.789 -11.861  1.00  0.00     0.031 C 
ATOM     53  C   UNL     1       2.812  12.752 -11.124  1.00  0.00     0.029 A 
ATOM     54  N   UNL     1       1.654  11.836 -12.799  1.00  0.00    -0.354 N 
ATOM     55  C   UNL     1       2.078   7.638 -13.758  1.00  0.00     0.074 A 
ATOM     56  C   UNL     1       2.944   6.964 -12.820  1.00  0.00     0.031 C 
ATOM     57  C   UNL     1       1.977  13.689 -11.588  1.00  0.00     0.029 A 
ATOM     58  C   UNL     1       1.230  13.145 -12.717  1.00  0.00     0.049 A 
ATOM     59  H   UNL     1       1.333  11.207 -13.485  1.00  0.00     0.167 HD
ATOM     60  C   UNL     1       1.447   7.030 -14.791  1.00  0.00     0.034 A 
ATOM     61  C   UNL     1       0.353  13.843 -13.469  1.00  0.00     0.034 A 
ATOM     62  C   UNL     1       0.538   7.704 -15.683  1.00  0.00     0.049 A 
ATOM     63  C   UNL     1      -0.323  13.145 -14.617  1.00  0.00     0.074 A 
ATOM     64  C   UNL     1      -0.167   7.167 -16.746  1.00  0.00     0.029 A 
ATOM     65  N   UNL     1       0.189   9.044 -15.610  1.00  0.00    -0.354 N 
ATOM     66  N   UNL     1      -0.254  11.882 -14.966  1.00  0.00    -0.248 NA
ATOM     67  C   UNL     1      -1.179  13.962 -15.487  1.00  0.00     0.031 C 
ATOM     68  C   UNL     1      -0.894   8.191 -17.350  1.00  0.00     0.029 A 
ATOM     69  C   UNL     1      -0.703   9.355 -16.623  1.00  0.00     0.049 A 
ATOM     70  H   UNL     1       0.525   9.680 -14.938  1.00  0.00     0.167 HD
ATOM     71  C   UNL     1      -1.060  11.752 -16.092  1.00  0.00     0.074 A 
ATOM     72  C   UNL     1      -1.637  13.056 -16.342  1.00  0.00     0.031 C 
ATOM     73  C   UNL     1      -1.287  10.655 -16.855  1.00  0.00     0.034 A 
BRANCH  60  74
ATOM     74  C   UNL     1       1.691   5.559 -15.035  1.00  0.00     0.023 A 
ATOM     75  C   UNL     1       2.290   5.142 -16.240  1.00  0.00     0.031 A 
ATOM     76  C   UNL     1       1.203   4.573 -14.161  1.00  0.00     0.131 A 
ATOM     77  C   UNL     1       2.344   3.779 -16.558  1.00  0.00     0.055 A 
ATOM     78  C   UNL     1       1.299   3.213 -14.462  1.00  0.00     0.041 A 
ATOM     79  F   UNL     1       0.627   4.917 -12.998  1.00  0.00    -0.206 F 
ATOM     80  C   UNL     1       1.858   2.812 -15.672  1.00  0.00     0.022 A 
BRANCH  77  81
ATOM     81  S   UNL     1       2.980   3.212 -18.159  1.00  0.00     0.124 S 
ATOM     82  O   UNL     1       4.062   2.318 -17.752  1.00  0.00    -0.237 OA
ATOM     83  O   UNL     1       1.812   2.554 -18.736  1.00  0.00    -0.237 OA
ATOM     84  O   UNL     1       3.407   4.439 -18.822  1.00  0.00    -0.744 OA
ENDBRANCH  77  81
ENDBRANCH  60  74
BRANCH  61  85
ATOM     85  C   UNL     1       0.068  15.271 -13.130  1.00  0.00     0.023 A 
ATOM     86  C   UNL     1       1.102  16.225 -13.088  1.00  0.00     0.031 A 
ATOM     87  C   UNL     1      -1.216  15.676 -12.729  1.00  0.00     0.131 A 
ATOM     88  C   UNL     1       0.858  17.499 -12.561  1.00  0.00     0.055 A 
ATOM     89  C   UNL     1      -1.474  16.976 -12.287  1.00  0.00     0.041 A 
ATOM     90  F   UNL     1      -2.237  14.805 -12.744  1.00  0.00    -0.206 F 
ATOM     91  C   UNL     1      -0.429  17.888 -12.178  1.00  0.00     0.022 A 
BRANCH  88  92
ATOM     92  S   UNL     1       2.232  18.627 -12.196  1.00  0.00     0.124 S 
ATOM     93  O   UNL     1       1.947  19.750 -13.082  1.00  0.00    -0.237 OA
ATOM     94  O   UNL     1       2.040  18.882 -10.769  1.00  0.00    -0.237 OA
ATOM     95  O   UNL     1       3.417  17.843 -12.527  1.00  0.00    -0.744 OA
ENDBRANCH  88  92
ENDBRANCH  61  85
BRANCH  73  96
ATOM     96  C   UNL     1      -2.202  10.784 -18.047  1.00  0.00     0.023 A 
ATOM     97  C   UNL     1      -3.400  10.046 -18.097  1.00  0.00     0.031 A 
ATOM     98  C   UNL     1      -1.816  11.507 -19.189  1.00  0.00     0.131 A 
ATOM     99  C   UNL     1      -4.146  10.011 -19.281  1.00  0.00     0.055 A 
ATOM    100  C   UNL     1      -2.588  11.508 -20.350  1.00  0.00     0.041 A 
ATOM    101  F   UNL     1      -0.676  12.218 -19.192  1.00  0.00    -0.206 F 
ATOM    102  C   UNL     1      -3.752  10.744 -20.405  1.00  0.00     0.022 A 
BRANCH  99 103
ATOM    103  S   UNL     1      -5.603   8.941 -19.436  1.00  0.00     0.124 S 
ATOM    104  O   UNL     1      -6.661   9.910 -19.710  1.00  0.00    -0.237 OA
ATOM    105  O   UNL     1      -5.236   8.084 -20.560  1.00  0.00    -0.237 OA
ATOM    106  O   UNL     1      -5.691   8.274 -18.141  1.00  0.00    -0.744 OA
ENDBRANCH  99 103
ENDBRANCH  73  96
ENDBRANCH  47  48
ENDBRANCH  39  42
ENDBRANCH  37  38
ENDBRANCH  36  37
ENDBRANCH   1  36
TORSDOF 19
