REMARK SMILES C=CCn1nc(C(=O)NCCCNC(=O)c2ccc(-c3c4nc(c(-c5cc(S(=O)(=O)[O-])ccc5F)c5ccc([nH]5)c(-c5cc(S(=O)(=O)[O-])ccc5F)c5nc(c(-c6cc(S(=O)(=O)[O-])ccc6F)c6ccc3[nH]6)C=C5)C=C4)cc2)c2c1CC[C@@H]([NH2+]Cc1nc(C)cc(=O)[nH]1)C2
REMARK SMILES IDX 11 1 10 2 9 3 7 4 8 5 6 7 4 8 5 9 80 10 79 11 81 12 94 13
REMARK SMILES IDX 82 14 83 15 3 16 2 17 1 18 84 19 85 22 86 23 87 24 93 25
REMARK SMILES IDX 88 26 91 27 89 29 90 30 92 31 12 32 13 33 14 34 15 36 16 37
REMARK SMILES IDX 17 38 78 39 18 40 77 41 19 42 20 43 21 44 71 45 22 46 76 47
REMARK SMILES IDX 70 48 72 49 23 50 75 51 69 52 68 53 24 55 56 56 36 57 55 58
REMARK SMILES IDX 37 59 40 60 54 61 73 62 38 63 39 64 53 66 74 67 41 68 25 69
REMARK SMILES IDX 26 70 34 71 27 72 33 73 35 74 32 75 28 76 29 77 30 78 31 79
REMARK SMILES IDX 57 80 58 81 66 82 59 83 65 84 67 85 64 86 60 87 61 88 62 89
REMARK SMILES IDX 63 90 42 91 43 92 51 93 44 94 50 95 52 96 49 97 45 98 46 99
REMARK SMILES IDX 47 100 48 101
REMARK H PARENT 9 6 84 20 84 21 93 28 13 35 72 54 40 65
REMARK Flexibility Score: inf
ROOT
ATOM      1  C   UNL     1      -3.719  -3.426   6.825  1.00  0.00     0.042 C 
ENDROOT
BRANCH   1   2
ATOM      2  C   UNL     1      -2.226  -3.677   6.563  1.00  0.00     0.118 C 
BRANCH   2   3
ATOM      3  N   UNL     1      -1.958  -4.156   5.217  1.00  0.00    -0.351 N 
ATOM      4  C   UNL     1      -1.621  -3.571   4.013  1.00  0.00     0.272 C 
ATOM      5  O   UNL     1      -1.280  -4.391   3.151  1.00  0.00    -0.267 OA
ATOM      6  H   UNL     1      -2.037  -5.135   5.147  1.00  0.00     0.163 HD
BRANCH   4   7
ATOM      7  C   UNL     1      -1.657  -2.109   3.707  1.00  0.00     0.153 A 
ATOM      8  N   UNL     1      -1.396  -0.391   2.415  1.00  0.00    -0.265 N 
ATOM      9  N   UNL     1      -1.121  -1.702   2.530  1.00  0.00    -0.167 NA
ATOM     10  C   UNL     1      -2.052   0.103   3.496  1.00  0.00     0.043 A 
ATOM     11  C   UNL     1      -2.225  -0.964   4.349  1.00  0.00     0.012 A 
ATOM     12  C   UNL     1      -2.612   1.472   3.676  1.00  0.00     0.062 C 
ATOM     13  C   UNL     1      -2.998  -0.800   5.588  1.00  0.00     0.105 C 
ATOM     14  C   UNL     1      -3.079   1.663   5.131  1.00  0.00     0.072 C 
ATOM     15  C   UNL     1      -3.876   0.461   5.671  1.00  0.00     0.187 C 
BRANCH   8  16
ATOM     16  C   UNL     1      -1.044   0.311   1.186  1.00  0.00     0.171 C 
BRANCH  16  17
ATOM     17  C   UNL     1       0.443   0.446   1.022  1.00  0.00    -0.011 C 
ATOM     18  C   UNL     1       1.119   0.038  -0.061  1.00  0.00     0.006 C 
ENDBRANCH  16  17
ENDBRANCH   8  16
BRANCH  15  19
ATOM     19  N   UNL     1      -5.152   0.162   4.981  1.00  0.00    -0.337 N 
ATOM     20  H   UNL     1      -5.524  -0.713   5.350  1.00  0.00     0.346 HD
ATOM     21  H   UNL     1      -4.953   0.097   3.982  1.00  0.00     0.346 HD
BRANCH  19  22
ATOM     22  C   UNL     1      -6.154   1.210   5.163  1.00  0.00     0.337 C 
BRANCH  22  23
ATOM     23  C   UNL     1      -7.346   0.976   4.247  1.00  0.00     0.164 A 
ATOM     24  N   UNL     1      -8.225   1.917   4.117  1.00  0.00    -0.234 NA
ATOM     25  N   UNL     1      -7.439  -0.227   3.606  1.00  0.00    -0.306 N 
ATOM     26  C   UNL     1      -9.275   1.688   3.265  1.00  0.00     0.045 A 
ATOM     27  C   UNL     1      -8.482  -0.538   2.788  1.00  0.00     0.251 A 
ATOM     28  H   UNL     1      -6.727  -0.893   3.740  1.00  0.00     0.171 HD
ATOM     29  C   UNL     1     -10.201   2.851   3.075  1.00  0.00     0.067 C 
ATOM     30  C   UNL     1      -9.470   0.535   2.611  1.00  0.00     0.095 A 
ATOM     31  O   UNL     1      -8.598  -1.616   2.218  1.00  0.00    -0.270 OA
ENDBRANCH  22  23
ENDBRANCH  19  22
ENDBRANCH  15  19
ENDBRANCH   4   7
ENDBRANCH   2   3
ENDBRANCH   1   2
BRANCH   1  32
ATOM     32  C   UNL     1      -4.434  -4.454   7.650  1.00  0.00     0.118 C 
BRANCH  32  33
ATOM     33  N   UNL     1      -4.117  -4.350   9.073  1.00  0.00    -0.352 N 
ATOM     34  C   UNL     1      -4.558  -5.198  10.078  1.00  0.00     0.251 C 
ATOM     35  H   UNL     1      -3.533  -3.605   9.344  1.00  0.00     0.163 HD
ATOM     36  O   UNL     1      -4.636  -4.808  11.230  1.00  0.00    -0.269 OA
BRANCH  34  37
ATOM     37  C   UNL     1      -4.959  -6.562   9.679  1.00  0.00     0.039 A 
ATOM     38  C   UNL     1      -6.088  -7.181  10.203  1.00  0.00     0.014 A 
ATOM     39  C   UNL     1      -4.247  -7.151   8.638  1.00  0.00     0.014 A 
ATOM     40  C   UNL     1      -6.541  -8.340   9.578  1.00  0.00     0.010 A 
ATOM     41  C   UNL     1      -4.852  -8.108   7.867  1.00  0.00     0.010 A 
ATOM     42  C   UNL     1      -5.956  -8.770   8.363  1.00  0.00    -0.014 A 
BRANCH  42  43
ATOM     43  C   UNL     1      -6.569  -9.819   7.546  1.00  0.00     0.031 A 
ATOM     44  C   UNL     1      -8.045  -9.734   7.526  1.00  0.00     0.074 A 
ATOM     45  C   UNL     1      -5.924 -10.746   6.798  1.00  0.00     0.049 A 
ATOM     46  N   UNL     1      -8.831 -10.379   8.318  1.00  0.00    -0.248 NA
ATOM     47  C   UNL     1      -8.714  -8.669   6.764  1.00  0.00     0.031 C 
ATOM     48  C   UNL     1      -4.492 -10.875   6.505  1.00  0.00     0.029 A 
ATOM     49  N   UNL     1      -6.454 -11.789   6.091  1.00  0.00    -0.354 N 
ATOM     50  C   UNL     1     -10.114 -10.031   7.943  1.00  0.00     0.074 A 
ATOM     51  C   UNL     1      -9.978  -8.821   7.174  1.00  0.00     0.031 C 
ATOM     52  C   UNL     1      -4.295 -11.796   5.533  1.00  0.00     0.029 A 
ATOM     53  C   UNL     1      -5.558 -12.458   5.254  1.00  0.00     0.049 A 
ATOM     54  H   UNL     1      -7.400 -12.050   6.167  1.00  0.00     0.167 HD
ATOM     55  C   UNL     1     -11.115 -10.944   8.063  1.00  0.00     0.034 A 
ATOM     56  C   UNL     1      -5.805 -13.523   4.439  1.00  0.00     0.034 A 
ATOM     57  C   UNL     1     -10.713 -12.037   8.934  1.00  0.00     0.049 A 
ATOM     58  C   UNL     1      -6.968 -14.231   5.024  1.00  0.00     0.074 A 
ATOM     59  C   UNL     1     -10.232 -12.109  10.231  1.00  0.00     0.029 A 
ATOM     60  N   UNL     1     -10.350 -13.232   8.349  1.00  0.00    -0.354 N 
ATOM     61  N   UNL     1      -6.915 -14.842   6.175  1.00  0.00    -0.248 NA
ATOM     62  C   UNL     1      -8.298 -13.827   4.599  1.00  0.00     0.031 C 
ATOM     63  C   UNL     1      -9.182 -13.078  10.182  1.00  0.00     0.029 A 
ATOM     64  C   UNL     1      -9.151 -13.626   8.899  1.00  0.00     0.049 A 
ATOM     65  H   UNL     1     -10.859 -13.718   7.661  1.00  0.00     0.167 HD
ATOM     66  C   UNL     1      -8.085 -14.480   6.822  1.00  0.00     0.074 A 
ATOM     67  C   UNL     1      -8.941 -13.935   5.767  1.00  0.00     0.031 C 
ATOM     68  C   UNL     1      -8.144 -14.394   8.185  1.00  0.00     0.034 A 
BRANCH  55  69
ATOM     69  C   UNL     1     -12.257 -11.073   7.083  1.00  0.00     0.023 A 
ATOM     70  C   UNL     1     -13.204 -12.078   7.344  1.00  0.00     0.031 A 
ATOM     71  C   UNL     1     -12.307 -10.499   5.792  1.00  0.00     0.131 A 
ATOM     72  C   UNL     1     -14.047 -12.553   6.328  1.00  0.00     0.055 A 
ATOM     73  C   UNL     1     -13.196 -10.928   4.804  1.00  0.00     0.041 A 
ATOM     74  F   UNL     1     -11.447  -9.564   5.374  1.00  0.00    -0.206 F 
ATOM     75  C   UNL     1     -14.050 -11.985   5.057  1.00  0.00     0.022 A 
BRANCH  72  76
ATOM     76  S   UNL     1     -15.005 -14.052   6.652  1.00  0.00     0.124 S 
ATOM     77  O   UNL     1     -13.953 -14.992   7.021  1.00  0.00    -0.237 OA
ATOM     78  O   UNL     1     -15.888 -13.615   7.729  1.00  0.00    -0.237 OA
ATOM     79  O   UNL     1     -15.663 -14.315   5.374  1.00  0.00    -0.744 OA
ENDBRANCH  72  76
ENDBRANCH  55  69
BRANCH  56  80
ATOM     80  C   UNL     1      -5.326 -13.766   3.044  1.00  0.00     0.023 A 
ATOM     81  C   UNL     1      -5.470 -15.010   2.378  1.00  0.00     0.031 A 
ATOM     82  C   UNL     1      -4.968 -12.663   2.239  1.00  0.00     0.131 A 
ATOM     83  C   UNL     1      -5.279 -15.102   0.975  1.00  0.00     0.055 A 
ATOM     84  C   UNL     1      -4.793 -12.758   0.856  1.00  0.00     0.041 A 
ATOM     85  F   UNL     1      -4.868 -11.429   2.759  1.00  0.00    -0.206 F 
ATOM     86  C   UNL     1      -4.961 -13.975   0.215  1.00  0.00     0.022 A 
BRANCH  83  87
ATOM     87  S   UNL     1      -5.534 -16.678   0.083  1.00  0.00     0.124 S 
ATOM     88  O   UNL     1      -4.393 -17.473   0.522  1.00  0.00    -0.237 OA
ATOM     89  O   UNL     1      -6.845 -17.105   0.557  1.00  0.00    -0.237 OA
ATOM     90  O   UNL     1      -5.497 -16.284  -1.327  1.00  0.00    -0.744 OA
ENDBRANCH  83  87
ENDBRANCH  56  80
BRANCH  68  91
ATOM     91  C   UNL     1      -7.000 -14.995   8.993  1.00  0.00     0.023 A 
ATOM     92  C   UNL     1      -5.624 -14.705   8.818  1.00  0.00     0.031 A 
ATOM     93  C   UNL     1      -7.343 -15.868  10.041  1.00  0.00     0.131 A 
ATOM     94  C   UNL     1      -4.658 -15.306   9.654  1.00  0.00     0.055 A 
ATOM     95  C   UNL     1      -6.388 -16.439  10.882  1.00  0.00     0.041 A 
ATOM     96  F   UNL     1      -8.629 -16.175  10.280  1.00  0.00    -0.206 F 
ATOM     97  C   UNL     1      -5.040 -16.169  10.685  1.00  0.00     0.022 A 
BRANCH  94  98
ATOM     98  S   UNL     1      -2.876 -15.016   9.389  1.00  0.00     0.124 S 
ATOM     99  O   UNL     1      -2.712 -15.170   7.949  1.00  0.00    -0.237 OA
ATOM    100  O   UNL     1      -2.694 -13.664   9.911  1.00  0.00    -0.237 OA
ATOM    101  O   UNL     1      -2.239 -16.065  10.189  1.00  0.00    -0.744 OA
ENDBRANCH  94  98
ENDBRANCH  68  91
ENDBRANCH  42  43
ENDBRANCH  34  37
ENDBRANCH  32  33
ENDBRANCH   1  32
TORSDOF 18
