REMARK SMILES C[C@H](c1ccccc1)N1C(=O)c2ccc(C(=O)NCCCNC(=O)c3ccc(-c4c5nc(c(-c6cc(S(=O)(=O)[O-])ccc6F)c6ccc([nH]6)c(-c6cc(S(=O)(=O)[O-])ccc6F)c6nc(c(-c7cc(S(=O)(=O)[O-])ccc7F)c7ccc4[nH]7)C=C6)C=C5)cc3)cc2C1=O
REMARK SMILES IDX 20 1 19 2 18 3 16 4 17 5 15 7 9 8 10 9 90 10 11 11 12 12
REMARK SMILES IDX 89 13 91 14 13 15 88 16 14 17 2 18 1 19 3 20 4 21 8 22 5 23
REMARK SMILES IDX 7 24 6 25 21 26 22 27 23 28 24 30 25 31 26 32 87 33 27 34
REMARK SMILES IDX 86 35 28 36 29 37 30 38 80 39 31 40 85 41 79 42 81 43 32 44
REMARK SMILES IDX 84 45 78 46 77 47 33 49 65 50 45 51 64 52 46 53 49 54 63 55
REMARK SMILES IDX 82 56 47 57 48 58 62 60 83 61 50 62 34 63 35 64 43 65 36 66
REMARK SMILES IDX 42 67 44 68 41 69 37 70 38 71 39 72 40 73 66 74 67 75 75 76
REMARK SMILES IDX 68 77 74 78 76 79 73 80 69 81 70 82 71 83 72 84 51 85 52 86
REMARK SMILES IDX 60 87 53 88 59 89 61 90 58 91 54 92 55 93 56 94 57 95
REMARK H PARENT 18 6 22 29 81 48 49 59
REMARK Flexibility Score: inf
ROOT
ATOM      1  C   UNL     1      -7.703  -3.570   2.886  1.00  0.00     0.042 C 
ENDROOT
BRANCH   1   2
ATOM      2  C   UNL     1      -7.235  -3.065   1.524  1.00  0.00     0.118 C 
BRANCH   2   3
ATOM      3  N   UNL     1      -7.731  -1.738   1.196  1.00  0.00    -0.352 N 
ATOM      4  C   UNL     1      -7.133  -0.512   1.081  1.00  0.00     0.251 C 
ATOM      5  O   UNL     1      -7.852   0.464   0.863  1.00  0.00    -0.269 OA
ATOM      6  H   UNL     1      -8.699  -1.717   1.019  1.00  0.00     0.163 HD
BRANCH   4   7
ATOM      7  C   UNL     1      -5.674  -0.287   1.238  1.00  0.00     0.040 A 
ATOM      8  N   UNL     1      -1.091  -0.700   1.018  1.00  0.00    -0.267 N 
ATOM      9  C   UNL     1      -1.558   0.408   1.672  1.00  0.00     0.262 C 
ATOM     10  C   UNL     1      -2.126  -1.500   0.605  1.00  0.00     0.262 C 
ATOM     11  O   UNL     1      -0.966   1.288   2.267  1.00  0.00    -0.269 OA
ATOM     12  C   UNL     1      -3.012   0.364   1.592  1.00  0.00     0.053 A 
ATOM     13  C   UNL     1      -3.367  -0.814   0.966  1.00  0.00     0.054 A 
ATOM     14  O   UNL     1      -2.093  -2.584   0.054  1.00  0.00    -0.269 OA
ATOM     15  C   UNL     1      -3.947   1.282   2.016  1.00  0.00     0.015 A 
ATOM     16  C   UNL     1      -4.692  -1.162   0.753  1.00  0.00     0.028 A 
ATOM     17  C   UNL     1      -5.290   0.946   1.832  1.00  0.00     0.015 A 
BRANCH   8  18
ATOM     18  C   UNL     1       0.319  -1.029   0.794  1.00  0.00     0.121 C 
ATOM     19  C   UNL     1       1.101  -1.185   2.101  1.00  0.00     0.037 C 
BRANCH  18  20
ATOM     20  C   UNL     1       0.977  -0.063  -0.187  1.00  0.00    -0.025 A 
ATOM     21  C   UNL     1       1.280   1.264   0.162  1.00  0.00     0.006 A 
ATOM     22  C   UNL     1       1.267  -0.483  -1.495  1.00  0.00     0.006 A 
ATOM     23  C   UNL     1       1.810   2.153  -0.774  1.00  0.00     0.000 A 
ATOM     24  C   UNL     1       1.822   0.401  -2.425  1.00  0.00     0.000 A 
ATOM     25  C   UNL     1       2.080   1.722  -2.069  1.00  0.00     0.000 A 
ENDBRANCH  18  20
ENDBRANCH   8  18
ENDBRANCH   4   7
ENDBRANCH   2   3
ENDBRANCH   1   2
BRANCH   1  26
ATOM     26  C   UNL     1      -9.215  -3.692   3.059  1.00  0.00     0.118 C 
BRANCH  26  27
ATOM     27  N   UNL     1      -9.825  -4.601   2.101  1.00  0.00    -0.352 N 
ATOM     28  C   UNL     1     -10.440  -5.817   2.268  1.00  0.00     0.251 C 
ATOM     29  H   UNL     1      -9.790  -4.289   1.168  1.00  0.00     0.163 HD
ATOM     30  O   UNL     1     -10.693  -6.483   1.265  1.00  0.00    -0.269 OA
BRANCH  28  31
ATOM     31  C   UNL     1     -10.790  -6.346   3.609  1.00  0.00     0.039 A 
ATOM     32  C   UNL     1     -10.699  -7.726   3.825  1.00  0.00     0.014 A 
ATOM     33  C   UNL     1     -11.281  -5.525   4.627  1.00  0.00     0.014 A 
ATOM     34  C   UNL     1     -11.053  -8.270   5.065  1.00  0.00     0.010 A 
ATOM     35  C   UNL     1     -11.559  -6.057   5.887  1.00  0.00     0.010 A 
ATOM     36  C   UNL     1     -11.464  -7.438   6.117  1.00  0.00    -0.014 A 
BRANCH  36  37
ATOM     37  C   UNL     1     -11.831  -8.002   7.445  1.00  0.00     0.031 A 
ATOM     38  C   UNL     1     -13.243  -7.880   7.956  1.00  0.00     0.074 A 
ATOM     39  C   UNL     1     -10.886  -8.584   8.210  1.00  0.00     0.049 A 
ATOM     40  N   UNL     1     -13.747  -8.258   9.104  1.00  0.00    -0.248 NA
ATOM     41  C   UNL     1     -14.209  -7.217   7.068  1.00  0.00     0.031 C 
ATOM     42  C   UNL     1      -9.474  -8.723   7.848  1.00  0.00     0.029 A 
ATOM     43  N   UNL     1     -10.967  -9.162   9.452  1.00  0.00    -0.354 N 
ATOM     44  C   UNL     1     -15.081  -7.862   9.084  1.00  0.00     0.074 A 
ATOM     45  C   UNL     1     -15.288  -7.162   7.834  1.00  0.00     0.031 C 
ATOM     46  C   UNL     1      -8.828  -9.368   8.833  1.00  0.00     0.029 A 
ATOM     47  C   UNL     1      -9.768  -9.657   9.911  1.00  0.00     0.049 A 
ATOM     48  H   UNL     1     -11.805  -9.218   9.966  1.00  0.00     0.167 HD
ATOM     49  C   UNL     1     -16.050  -8.082  10.010  1.00  0.00     0.034 A 
ATOM     50  C   UNL     1      -9.460 -10.273  11.070  1.00  0.00     0.034 A 
ATOM     51  C   UNL     1     -15.833  -8.798  11.244  1.00  0.00     0.049 A 
ATOM     52  C   UNL     1     -10.555 -10.524  12.075  1.00  0.00     0.074 A 
ATOM     53  C   UNL     1     -16.749  -9.114  12.234  1.00  0.00     0.029 A 
ATOM     54  N   UNL     1     -14.611  -9.313  11.661  1.00  0.00    -0.354 N 
ATOM     55  N   UNL     1     -11.822 -10.180  12.021  1.00  0.00    -0.248 NA
ATOM     56  C   UNL     1     -10.182 -11.265  13.286  1.00  0.00     0.031 C 
ATOM     57  C   UNL     1     -16.072  -9.770  13.269  1.00  0.00     0.029 A 
ATOM     58  C   UNL     1     -14.746  -9.927  12.897  1.00  0.00     0.049 A 
ATOM     59  H   UNL     1     -13.771  -9.250  11.152  1.00  0.00     0.167 HD
ATOM     60  C   UNL     1     -12.402 -10.692  13.179  1.00  0.00     0.074 A 
ATOM     61  C   UNL     1     -11.350 -11.383  13.898  1.00  0.00     0.031 C 
ATOM     62  C   UNL     1     -13.687 -10.603  13.608  1.00  0.00     0.034 A 
BRANCH  49  63
ATOM     63  C   UNL     1     -17.422  -7.515   9.723  1.00  0.00     0.023 A 
ATOM     64  C   UNL     1     -18.176  -7.933   8.611  1.00  0.00     0.031 A 
ATOM     65  C   UNL     1     -17.969  -6.516  10.547  1.00  0.00     0.131 A 
ATOM     66  C   UNL     1     -19.389  -7.296   8.306  1.00  0.00     0.055 A 
ATOM     67  C   UNL     1     -19.218  -5.946  10.286  1.00  0.00     0.041 A 
ATOM     68  F   UNL     1     -17.291  -6.061  11.613  1.00  0.00    -0.206 F 
ATOM     69  C   UNL     1     -19.927  -6.322   9.149  1.00  0.00     0.022 A 
BRANCH  66  70
ATOM     70  S   UNL     1     -20.174  -7.649   6.709  1.00  0.00     0.124 S 
ATOM     71  O   UNL     1     -19.128  -7.245   5.772  1.00  0.00    -0.237 OA
ATOM     72  O   UNL     1     -20.436  -9.081   6.796  1.00  0.00    -0.237 OA
ATOM     73  O   UNL     1     -21.360  -6.796   6.714  1.00  0.00    -0.744 OA
ENDBRANCH  66  70
ENDBRANCH  49  63
BRANCH  50  74
ATOM     74  C   UNL     1      -8.061 -10.706  11.346  1.00  0.00     0.023 A 
ATOM     75  C   UNL     1      -7.733 -12.067  11.449  1.00  0.00     0.031 A 
ATOM     76  C   UNL     1      -7.039  -9.763  11.548  1.00  0.00     0.131 A 
ATOM     77  C   UNL     1      -6.427 -12.448  11.794  1.00  0.00     0.055 A 
ATOM     78  C   UNL     1      -5.729 -10.148  11.843  1.00  0.00     0.041 A 
ATOM     79  F   UNL     1      -7.298  -8.449  11.451  1.00  0.00    -0.206 F 
ATOM     80  C   UNL     1      -5.421 -11.498  11.980  1.00  0.00     0.022 A 
BRANCH  77  81
ATOM     81  S   UNL     1      -6.080 -14.206  12.070  1.00  0.00     0.124 S 
ATOM     82  O   UNL     1      -7.024 -14.533  13.132  1.00  0.00    -0.237 OA
ATOM     83  O   UNL     1      -6.364 -14.780  10.759  1.00  0.00    -0.237 OA
ATOM     84  O   UNL     1      -4.672 -14.217  12.461  1.00  0.00    -0.744 OA
ENDBRANCH  77  81
ENDBRANCH  50  74
BRANCH  62  85
ATOM     85  C   UNL     1     -14.024 -11.317  14.895  1.00  0.00     0.023 A 
ATOM     86  C   UNL     1     -13.483 -10.914  16.129  1.00  0.00     0.031 A 
ATOM     87  C   UNL     1     -14.869 -12.441  14.878  1.00  0.00     0.131 A 
ATOM     88  C   UNL     1     -13.735 -11.671  17.283  1.00  0.00     0.055 A 
ATOM     89  C   UNL     1     -15.166 -13.153  16.041  1.00  0.00     0.041 A 
ATOM     90  F   UNL     1     -15.413 -12.870  13.728  1.00  0.00    -0.206 F 
ATOM     91  C   UNL     1     -14.585 -12.780  17.249  1.00  0.00     0.022 A 
BRANCH  88  92
ATOM     92  S   UNL     1     -12.844 -11.257  18.807  1.00  0.00     0.124 S 
ATOM     93  O   UNL     1     -11.452 -11.315  18.372  1.00  0.00    -0.237 OA
ATOM     94  O   UNL     1     -13.359  -9.927  19.116  1.00  0.00    -0.237 OA
ATOM     95  O   UNL     1     -13.246 -12.309  19.738  1.00  0.00    -0.744 OA
ENDBRANCH  88  92
ENDBRANCH  62  85
ENDBRANCH  36  37
ENDBRANCH  28  31
ENDBRANCH  26  27
ENDBRANCH   1  26
TORSDOF 15
