REMARK SMILES CC[C@@H]1CCC[C@@](Cc2cccc(O)c2)(C(=O)NCCCNC(=O)c2ccc(-c3c4nc(c(-c5cc(S(=O)(=O)[O-])ccc5F)c5ccc([nH]5)c(-c5cc(S(=O)(=O)[O-])ccc5F)c5nc(c(-c6cc(S(=O)(=O)[O-])ccc6F)c6ccc3[nH]6)C=C5)C=C4)cc2)C1
REMARK SMILES IDX 20 1 19 2 18 3 16 4 17 5 7 7 3 8 4 9 88 10 5 11 6 12 2 13
REMARK SMILES IDX 1 14 8 15 9 16 10 17 15 18 11 19 13 20 12 21 14 22 21 24
REMARK SMILES IDX 22 25 23 26 24 28 25 29 26 30 87 31 27 32 86 33 28 34 29 35
REMARK SMILES IDX 30 36 80 37 31 38 85 39 79 40 81 41 32 42 84 43 78 44 77 45
REMARK SMILES IDX 33 47 65 48 45 49 64 50 46 51 49 52 63 53 82 54 47 55 48 56
REMARK SMILES IDX 62 58 83 59 50 60 34 61 35 62 43 63 36 64 42 65 44 66 41 67
REMARK SMILES IDX 37 68 38 69 39 70 40 71 66 72 67 73 75 74 68 75 74 76 76 77
REMARK SMILES IDX 73 78 69 79 70 80 71 81 72 82 51 83 52 84 60 85 53 86 59 87
REMARK SMILES IDX 61 88 58 89 54 90 55 91 56 92 57 93
REMARK H PARENT 18 6 14 23 22 27 81 46 49 57
REMARK Flexibility Score: inf
ROOT
ATOM      1  C   UNL     1       2.592  -4.282   6.755  1.00  0.00     0.042 C 
ENDROOT
BRANCH   1   2
ATOM      2  C   UNL     1       1.970  -2.933   6.480  1.00  0.00     0.117 C 
BRANCH   2   3
ATOM      3  N   UNL     1       2.489  -2.251   5.315  1.00  0.00    -0.356 N 
ATOM      4  C   UNL     1       1.848  -1.478   4.399  1.00  0.00     0.226 C 
ATOM      5  O   UNL     1       2.565  -0.662   3.806  1.00  0.00    -0.274 OA
ATOM      6  H   UNL     1       3.455  -2.365   5.162  1.00  0.00     0.163 HD
BRANCH   4   7
ATOM      7  C   UNL     1       0.326  -1.570   4.101  1.00  0.00     0.053 C 
ATOM      8  C   UNL     1       0.743  -1.822   1.523  1.00  0.00    -0.010 C 
ATOM      9  C   UNL     1       0.300  -3.290   1.601  1.00  0.00     0.003 C 
ATOM     10  C   UNL     1       0.107  -0.983   2.655  1.00  0.00     0.020 C 
ATOM     11  C   UNL     1       0.462  -3.873   2.996  1.00  0.00     0.001 C 
ATOM     12  C   UNL     1      -0.243  -3.007   4.040  1.00  0.00     0.017 C 
BRANCH   8  13
ATOM     13  C   UNL     1       0.400  -1.264   0.127  1.00  0.00     0.000 C 
ATOM     14  C   UNL     1       0.947   0.133  -0.128  1.00  0.00     0.004 C 
ENDBRANCH   8  13
BRANCH   7  15
ATOM     15  C   UNL     1      -0.474  -0.620   5.058  1.00  0.00     0.052 C 
BRANCH  15  16
ATOM     16  C   UNL     1      -0.453  -0.879   6.548  1.00  0.00    -0.043 A 
ATOM     17  C   UNL     1       0.458  -0.204   7.377  1.00  0.00     0.004 A 
ATOM     18  C   UNL     1      -1.302  -1.837   7.122  1.00  0.00     0.049 A 
ATOM     19  C   UNL     1       0.574  -0.539   8.731  1.00  0.00     0.004 A 
ATOM     20  C   UNL     1      -1.165  -2.176   8.467  1.00  0.00     0.115 A 
ATOM     21  C   UNL     1      -0.225  -1.545   9.275  1.00  0.00     0.046 A 
BRANCH  20  22
ATOM     22  O   UNL     1      -1.956  -3.176   8.950  1.00  0.00    -0.508 OA
ATOM     23  H   UNL     1      -1.892  -3.432   9.850  1.00  0.00     0.293 HD
ENDBRANCH  20  22
ENDBRANCH  15  16
ENDBRANCH   7  15
ENDBRANCH   4   7
ENDBRANCH   2   3
ENDBRANCH   1   2
BRANCH   1  24
ATOM     24  C   UNL     1       3.997  -4.172   7.325  1.00  0.00     0.118 C 
BRANCH  24  25
ATOM     25  N   UNL     1       4.046  -3.428   8.587  1.00  0.00    -0.352 N 
ATOM     26  C   UNL     1       4.271  -3.853   9.875  1.00  0.00     0.251 C 
ATOM     27  H   UNL     1       3.893  -2.460   8.497  1.00  0.00     0.163 HD
ATOM     28  O   UNL     1       4.041  -3.093  10.813  1.00  0.00    -0.269 OA
BRANCH  26  29
ATOM     29  C   UNL     1       4.755  -5.226  10.122  1.00  0.00     0.039 A 
ATOM     30  C   UNL     1       4.246  -5.959  11.196  1.00  0.00     0.014 A 
ATOM     31  C   UNL     1       5.692  -5.800   9.265  1.00  0.00     0.014 A 
ATOM     32  C   UNL     1       4.599  -7.304  11.339  1.00  0.00     0.010 A 
ATOM     33  C   UNL     1       5.933  -7.163   9.328  1.00  0.00     0.010 A 
ATOM     34  C   UNL     1       5.396  -7.932  10.370  1.00  0.00    -0.014 A 
BRANCH  34  35
ATOM     35  C   UNL     1       5.710  -9.383  10.415  1.00  0.00     0.031 A 
ATOM     36  C   UNL     1       7.149  -9.828  10.435  1.00  0.00     0.074 A 
ATOM     37  C   UNL     1       4.716 -10.289  10.320  1.00  0.00     0.049 A 
ATOM     38  N   UNL     1       7.650 -11.028  10.294  1.00  0.00    -0.248 NA
ATOM     39  C   UNL     1       8.162  -8.769  10.572  1.00  0.00     0.031 C 
ATOM     40  C   UNL     1       3.287  -9.976  10.230  1.00  0.00     0.029 A 
ATOM     41  N   UNL     1       4.755 -11.659  10.265  1.00  0.00    -0.354 N 
ATOM     42  C   UNL     1       9.031 -10.861  10.287  1.00  0.00     0.074 A 
ATOM     43  C   UNL     1       9.283  -9.438  10.358  1.00  0.00     0.031 C 
ATOM     44  C   UNL     1       2.587 -11.120  10.166  1.00  0.00     0.029 A 
ATOM     45  C   UNL     1       3.515 -12.245  10.154  1.00  0.00     0.049 A 
ATOM     46  H   UNL     1       5.593 -12.175  10.303  1.00  0.00     0.167 HD
ATOM     47  C   UNL     1      10.000 -11.808  10.254  1.00  0.00     0.034 A 
ATOM     48  C   UNL     1       3.168 -13.542  10.043  1.00  0.00     0.034 A 
ATOM     49  C   UNL     1       9.724 -13.223  10.229  1.00  0.00     0.049 A 
ATOM     50  C   UNL     1       4.260 -14.582  10.037  1.00  0.00     0.074 A 
ATOM     51  C   UNL     1      10.617 -14.278  10.267  1.00  0.00     0.029 A 
ATOM     52  N   UNL     1       8.452 -13.780  10.167  1.00  0.00    -0.354 N 
ATOM     53  N   UNL     1       5.562 -14.412  10.077  1.00  0.00    -0.248 NA
ATOM     54  C   UNL     1       3.836 -15.986   9.982  1.00  0.00     0.031 C 
ATOM     55  C   UNL     1       9.890 -15.470  10.172  1.00  0.00     0.029 A 
ATOM     56  C   UNL     1       8.539 -15.162  10.147  1.00  0.00     0.049 A 
ATOM     57  H   UNL     1       7.612 -13.267  10.140  1.00  0.00     0.167 HD
ATOM     58  C   UNL     1       6.110 -15.691  10.087  1.00  0.00     0.074 A 
ATOM     59  C   UNL     1       4.997 -16.619  10.059  1.00  0.00     0.031 C 
ATOM     60  C   UNL     1       7.414 -16.067  10.120  1.00  0.00     0.034 A 
BRANCH  47  61
ATOM     61  C   UNL     1      11.435 -11.335  10.234  1.00  0.00     0.023 A 
ATOM     62  C   UNL     1      11.975 -10.568  11.282  1.00  0.00     0.031 A 
ATOM     63  C   UNL     1      12.264 -11.611   9.132  1.00  0.00     0.131 A 
ATOM     64  C   UNL     1      13.263 -10.026  11.165  1.00  0.00     0.055 A 
ATOM     65  C   UNL     1      13.579 -11.146   9.064  1.00  0.00     0.041 A 
ATOM     66  F   UNL     1      11.803 -12.322   8.091  1.00  0.00    -0.206 F 
ATOM     67  C   UNL     1      14.080 -10.332  10.076  1.00  0.00     0.022 A 
BRANCH  64  68
ATOM     68  S   UNL     1      13.790  -8.785  12.380  1.00  0.00     0.124 S 
ATOM     69  O   UNL     1      12.781  -7.745  12.193  1.00  0.00    -0.237 OA
ATOM     70  O   UNL     1      13.721  -9.523  13.635  1.00  0.00    -0.237 OA
ATOM     71  O   UNL     1      15.136  -8.424  11.939  1.00  0.00    -0.744 OA
ENDBRANCH  64  68
ENDBRANCH  47  61
BRANCH  48  72
ATOM     72  C   UNL     1       1.734 -13.937   9.937  1.00  0.00     0.023 A 
ATOM     73  C   UNL     1       1.117 -14.682  10.955  1.00  0.00     0.031 A 
ATOM     74  C   UNL     1       0.968 -13.604   8.807  1.00  0.00     0.131 A 
ATOM     75  C   UNL     1      -0.211 -15.111  10.802  1.00  0.00     0.055 A 
ATOM     76  C   UNL     1      -0.369 -13.990   8.682  1.00  0.00     0.041 A 
ATOM     77  F   UNL     1       1.506 -12.884   7.809  1.00  0.00    -0.206 F 
ATOM     78  C   UNL     1      -0.961 -14.760   9.678  1.00  0.00     0.022 A 
BRANCH  75  79
ATOM     79  S   UNL     1      -0.918 -16.206  12.063  1.00  0.00     0.124 S 
ATOM     80  O   UNL     1       0.015 -17.327  12.041  1.00  0.00    -0.237 OA
ATOM     81  O   UNL     1      -0.880 -15.362  13.252  1.00  0.00    -0.237 OA
ATOM     82  O   UNL     1      -2.255 -16.497  11.550  1.00  0.00    -0.744 OA
ENDBRANCH  75  79
ENDBRANCH  48  72
BRANCH  60  83
ATOM     83  C   UNL     1       7.697 -17.546  10.186  1.00  0.00     0.023 A 
ATOM     84  C   UNL     1       7.420 -18.402   9.106  1.00  0.00     0.031 A 
ATOM     85  C   UNL     1       8.250 -18.104  11.352  1.00  0.00     0.131 A 
ATOM     86  C   UNL     1       7.650 -19.780   9.234  1.00  0.00     0.055 A 
ATOM     87  C   UNL     1       8.530 -19.466  11.452  1.00  0.00     0.041 A 
ATOM     88  F   UNL     1       8.531 -17.330  12.412  1.00  0.00    -0.206 F 
ATOM     89  C   UNL     1       8.219 -20.315  10.393  1.00  0.00     0.022 A 
BRANCH  86  90
ATOM     90  S   UNL     1       7.118 -20.878   7.893  1.00  0.00     0.124 S 
ATOM     91  O   UNL     1       5.685 -20.606   7.829  1.00  0.00    -0.237 OA
ATOM     92  O   UNL     1       7.909 -20.399   6.764  1.00  0.00    -0.237 OA
ATOM     93  O   UNL     1       7.475 -22.210   8.378  1.00  0.00    -0.744 OA
ENDBRANCH  86  90
ENDBRANCH  60  83
ENDBRANCH  34  35
ENDBRANCH  26  29
ENDBRANCH  24  25
ENDBRANCH   1  24
TORSDOF 17
