REMARK SMILES C[C@@H]1CCCN(C(=O)NC2(CC(=O)NCCCNC(=O)c3ccc(-c4c5nc(c(-c6cc(S(=O)(=O)[O-])ccc6F)c6ccc([nH]6)c(-c6cc(S(=O)(=O)[O-])ccc6F)c6nc(c(-c7cc(S(=O)(=O)[O-])ccc7F)c7ccc4[nH]7)C=C6)C=C5)cc3)CCC2)[C@@H]1C
REMARK SMILES IDX 16 1 15 2 14 3 12 4 13 5 11 7 10 8 84 9 86 10 85 11 9 12
REMARK SMILES IDX 7 13 8 14 6 16 1 17 2 18 3 19 87 20 4 21 88 22 5 23 17 24
REMARK SMILES IDX 18 25 19 26 20 28 21 29 22 30 83 31 23 32 82 33 24 34 25 35
REMARK SMILES IDX 26 36 76 37 27 38 81 39 75 40 77 41 28 42 80 43 74 44 73 45
REMARK SMILES IDX 29 47 61 48 41 49 60 50 42 51 45 52 59 53 78 54 43 55 44 56
REMARK SMILES IDX 58 58 79 59 46 60 30 61 31 62 39 63 32 64 38 65 40 66 37 67
REMARK SMILES IDX 33 68 34 69 35 70 36 71 62 72 63 73 71 74 64 75 70 76 72 77
REMARK SMILES IDX 69 78 65 79 66 80 67 81 68 82 47 83 48 84 56 85 49 86 55 87
REMARK SMILES IDX 57 88 54 89 50 90 51 91 52 92 53 93
REMARK H PARENT 14 6 9 15 18 27 77 46 45 57
REMARK Flexibility Score: inf
ROOT
ATOM      1  C   UNL     1       0.786   7.933  -3.423  1.00  0.00     0.042 C 
ENDROOT
BRANCH   1   2
ATOM      2  C   UNL     1       0.911   7.322  -4.819  1.00  0.00     0.117 C 
BRANCH   2   3
ATOM      3  N   UNL     1       2.075   6.462  -4.894  1.00  0.00    -0.356 N 
ATOM      4  C   UNL     1       2.178   5.134  -4.623  1.00  0.00     0.222 C 
ATOM      5  O   UNL     1       3.303   4.651  -4.484  1.00  0.00    -0.275 OA
ATOM      6  H   UNL     1       2.908   6.901  -5.182  1.00  0.00     0.163 HD
BRANCH   4   7
ATOM      7  C   UNL     1       0.953   4.253  -4.523  1.00  0.00     0.128 C 
BRANCH   7   8
ATOM      8  C   UNL     1       0.396   3.957  -3.104  1.00  0.00     0.051 C 
ATOM      9  C   UNL     1      -0.714   2.890  -3.235  1.00  0.00     0.029 C 
ATOM     10  C   UNL     1      -0.666   4.982  -2.653  1.00  0.00     0.029 C 
ATOM     11  C   UNL     1      -1.777   3.974  -2.998  1.00  0.00     0.005 C 
BRANCH   8  12
ATOM     12  N   UNL     1       1.507   3.625  -2.182  1.00  0.00    -0.332 N 
ATOM     13  C   UNL     1       1.810   3.076  -0.987  1.00  0.00     0.318 C 
ATOM     14  O   UNL     1       3.023   2.849  -0.897  1.00  0.00    -0.249 OA
ATOM     15  H   UNL     1       2.348   3.918  -2.602  1.00  0.00     0.165 HD
BRANCH  13  16
ATOM     16  N   UNL     1       0.951   2.784   0.032  1.00  0.00    -0.322 N 
ATOM     17  C   UNL     1       1.178  -0.260   0.281  1.00  0.00     0.010 C 
ATOM     18  C   UNL     1       0.735   0.708   1.385  1.00  0.00     0.008 C 
ATOM     19  C   UNL     1      -0.796   0.885   1.388  1.00  0.00     0.007 C 
ATOM     20  C   UNL     1       1.414   2.099   1.274  1.00  0.00     0.086 C 
ATOM     21  C   UNL     1      -1.282   1.748   0.228  1.00  0.00     0.022 C 
ATOM     22  C   UNL     1       2.910   2.033   1.599  1.00  0.00     0.031 C 
ATOM     23  C   UNL     1      -0.477   3.042   0.110  1.00  0.00     0.121 C 
ENDBRANCH  13  16
ENDBRANCH   8  12
ENDBRANCH   7   8
ENDBRANCH   4   7
ENDBRANCH   2   3
ENDBRANCH   1   2
BRANCH   1  24
ATOM     24  C   UNL     1       1.704   9.127  -3.201  1.00  0.00     0.118 C 
BRANCH  24  25
ATOM     25  N   UNL     1       1.235  10.290  -3.933  1.00  0.00    -0.352 N 
ATOM     26  C   UNL     1       0.834  11.520  -3.477  1.00  0.00     0.251 C 
ATOM     27  H   UNL     1       1.199  10.179  -4.910  1.00  0.00     0.163 HD
ATOM     28  O   UNL     1       0.198  12.244  -4.239  1.00  0.00    -0.269 OA
BRANCH  26  29
ATOM     29  C   UNL     1       1.151  11.982  -2.102  1.00  0.00     0.039 A 
ATOM     30  C   UNL     1       0.264  12.865  -1.478  1.00  0.00     0.014 A 
ATOM     31  C   UNL     1       2.343  11.636  -1.458  1.00  0.00     0.014 A 
ATOM     32  C   UNL     1       0.566  13.390  -0.219  1.00  0.00     0.010 A 
ATOM     33  C   UNL     1       2.603  12.091  -0.165  1.00  0.00     0.010 A 
ATOM     34  C   UNL     1       1.735  13.001   0.453  1.00  0.00    -0.014 A 
BRANCH  34  35
ATOM     35  C   UNL     1       2.091  13.596   1.768  1.00  0.00     0.031 A 
ATOM     36  C   UNL     1       3.324  14.455   1.896  1.00  0.00     0.074 A 
ATOM     37  C   UNL     1       1.324  13.346   2.847  1.00  0.00     0.049 A 
ATOM     38  N   UNL     1       3.821  15.042   2.955  1.00  0.00    -0.248 NA
ATOM     39  C   UNL     1       4.122  14.651   0.676  1.00  0.00     0.031 C 
ATOM     40  C   UNL     1       0.134  12.491   2.857  1.00  0.00     0.029 A 
ATOM     41  N   UNL     1       1.428  13.783   4.143  1.00  0.00    -0.354 N 
ATOM     42  C   UNL     1       4.996  15.658   2.534  1.00  0.00     0.074 A 
ATOM     43  C   UNL     1       5.168  15.319   1.138  1.00  0.00     0.031 C 
ATOM     44  C   UNL     1      -0.395  12.490   4.090  1.00  0.00     0.029 A 
ATOM     45  C   UNL     1       0.432  13.313   4.966  1.00  0.00     0.049 A 
ATOM     46  H   UNL     1       2.148  14.378   4.454  1.00  0.00     0.167 HD
ATOM     47  C   UNL     1       5.841  16.452   3.238  1.00  0.00     0.034 A 
ATOM     48  C   UNL     1       0.211  13.523   6.279  1.00  0.00     0.034 A 
ATOM     49  C   UNL     1       5.641  16.801   4.624  1.00  0.00     0.049 A 
ATOM     50  C   UNL     1       1.145  14.436   7.033  1.00  0.00     0.074 A 
ATOM     51  C   UNL     1       6.401  17.636   5.425  1.00  0.00     0.029 A 
ATOM     52  N   UNL     1       4.600  16.333   5.418  1.00  0.00    -0.354 N 
ATOM     53  N   UNL     1       2.223  15.053   6.606  1.00  0.00    -0.248 NA
ATOM     54  C   UNL     1       0.815  14.699   8.439  1.00  0.00     0.031 C 
ATOM     55  C   UNL     1       5.853  17.629   6.713  1.00  0.00     0.029 A 
ATOM     56  C   UNL     1       4.709  16.847   6.701  1.00  0.00     0.049 A 
ATOM     57  H   UNL     1       3.889  15.725   5.113  1.00  0.00     0.167 HD
ATOM     58  C   UNL     1       2.683  15.801   7.686  1.00  0.00     0.074 A 
ATOM     59  C   UNL     1       1.750  15.576   8.772  1.00  0.00     0.031 C 
ATOM     60  C   UNL     1       3.776  16.603   7.775  1.00  0.00     0.034 A 
BRANCH  47  61
ATOM     61  C   UNL     1       7.067  16.972   2.522  1.00  0.00     0.023 A 
ATOM     62  C   UNL     1       6.969  17.823   1.407  1.00  0.00     0.031 A 
ATOM     63  C   UNL     1       8.353  16.586   2.939  1.00  0.00     0.131 A 
ATOM     64  C   UNL     1       8.124  18.194   0.701  1.00  0.00     0.055 A 
ATOM     65  C   UNL     1       9.505  17.025   2.282  1.00  0.00     0.041 A 
ATOM     66  F   UNL     1       8.513  15.759   3.985  1.00  0.00    -0.206 F 
ATOM     67  C   UNL     1       9.394  17.821   1.146  1.00  0.00     0.022 A 
BRANCH  64  68
ATOM     68  S   UNL     1       7.933  19.049  -0.888  1.00  0.00     0.124 S 
ATOM     69  O   UNL     1       7.167  18.071  -1.658  1.00  0.00    -0.237 OA
ATOM     70  O   UNL     1       7.222  20.264  -0.510  1.00  0.00    -0.237 OA
ATOM     71  O   UNL     1       9.309  19.246  -1.339  1.00  0.00    -0.744 OA
ENDBRANCH  64  68
ENDBRANCH  47  61
BRANCH  48  72
ATOM     72  C   UNL     1      -0.939  12.871   6.966  1.00  0.00     0.023 A 
ATOM     73  C   UNL     1      -1.997  13.631   7.489  1.00  0.00     0.031 A 
ATOM     74  C   UNL     1      -0.977  11.477   7.146  1.00  0.00     0.131 A 
ATOM     75  C   UNL     1      -3.022  13.000   8.212  1.00  0.00     0.055 A 
ATOM     76  C   UNL     1      -2.024  10.848   7.822  1.00  0.00     0.041 A 
ATOM     77  F   UNL     1       0.004  10.702   6.656  1.00  0.00    -0.206 F 
ATOM     78  C   UNL     1      -3.048  11.613   8.372  1.00  0.00     0.022 A 
BRANCH  75  79
ATOM     79  S   UNL     1      -4.281  14.031   9.014  1.00  0.00     0.124 S 
ATOM     80  O   UNL     1      -3.465  14.894   9.861  1.00  0.00    -0.237 OA
ATOM     81  O   UNL     1      -4.919  14.672   7.869  1.00  0.00    -0.237 OA
ATOM     82  O   UNL     1      -5.111  13.061   9.725  1.00  0.00    -0.744 OA
ENDBRANCH  75  79
ENDBRANCH  48  72
BRANCH  60  83
ATOM     83  C   UNL     1       3.982  17.325   9.085  1.00  0.00     0.023 A 
ATOM     84  C   UNL     1       4.259  16.631  10.276  1.00  0.00     0.031 A 
ATOM     85  C   UNL     1       3.859  18.724   9.148  1.00  0.00     0.131 A 
ATOM     86  C   UNL     1       4.327  17.328  11.491  1.00  0.00     0.055 A 
ATOM     87  C   UNL     1       3.995  19.419  10.350  1.00  0.00     0.041 A 
ATOM     88  F   UNL     1       3.595  19.438   8.042  1.00  0.00    -0.206 F 
ATOM     89  C   UNL     1       4.212  18.719  11.534  1.00  0.00     0.022 A 
BRANCH  86  90
ATOM     90  S   UNL     1       4.444  16.378  13.032  1.00  0.00     0.124 S 
ATOM     91  O   UNL     1       3.289  15.491  12.931  1.00  0.00    -0.237 OA
ATOM     92  O   UNL     1       5.750  15.740  12.906  1.00  0.00    -0.237 OA
ATOM     93  O   UNL     1       4.350  17.400  14.073  1.00  0.00    -0.744 OA
ENDBRANCH  86  90
ENDBRANCH  60  83
ENDBRANCH  34  35
ENDBRANCH  26  29
ENDBRANCH  24  25
ENDBRANCH   1  24
TORSDOF 16
