REMARK SMILES Cc1ccc2[nH]cc([C@@H](C(=O)NCCCNC(=O)c3ccc(-c4c5nc(c(-c6cc(S(=O)(=O)[O-])ccc6F)c6ccc([nH]6)c(-c6cc(S(=O)(=O)[O-])ccc6F)c6nc(c(-c7cc(S(=O)(=O)[O-])ccc7F)c7ccc4[nH]7)C=C6)C=C5)cc3)[NH+]3CCN(c4cccc(Cl)c4)CC3)c2c1
REMARK SMILES IDX 14 1 13 2 12 3 10 4 11 5 9 7 8 8 1 9 2 10 3 11 96 12 4 13
REMARK SMILES IDX 95 14 5 15 6 16 7 17 82 19 83 20 94 21 84 23 93 24 85 25
REMARK SMILES IDX 86 26 87 27 92 28 88 29 90 30 89 31 91 32 15 33 16 34 17 35
REMARK SMILES IDX 18 37 19 38 20 39 81 40 21 41 80 42 22 43 23 44 24 45 74 46
REMARK SMILES IDX 25 47 79 48 73 49 75 50 26 51 78 52 72 53 71 54 27 56 59 57
REMARK SMILES IDX 39 58 58 59 40 60 43 61 57 62 76 63 41 64 42 65 56 67 77 68
REMARK SMILES IDX 44 69 28 70 29 71 37 72 30 73 36 74 38 75 35 76 31 77 32 78
REMARK SMILES IDX 33 79 34 80 60 81 61 82 69 83 62 84 68 85 70 86 67 87 63 88
REMARK SMILES IDX 64 89 65 90 66 91 45 92 46 93 54 94 47 95 53 96 55 97 52 98
REMARK SMILES IDX 48 99 49 100 50 101 51 102
REMARK H PARENT 12 6 6 18 82 22 16 36 75 55 43 66
REMARK Flexibility Score: inf
ROOT
ATOM      1  C   UNL     1      -0.633  -1.452   3.591  1.00  0.00     0.042 C 
ENDROOT
BRANCH   1   2
ATOM      2  C   UNL     1      -0.624  -2.819   2.911  1.00  0.00     0.118 C 
BRANCH   2   3
ATOM      3  N   UNL     1      -1.955  -3.294   2.585  1.00  0.00    -0.351 N 
ATOM      4  C   UNL     1      -2.649  -3.234   1.402  1.00  0.00     0.283 C 
ATOM      5  O   UNL     1      -3.785  -3.720   1.427  1.00  0.00    -0.268 OA
ATOM      6  H   UNL     1      -2.436  -3.726   3.328  1.00  0.00     0.163 HD
BRANCH   4   7
ATOM      7  C   UNL     1      -1.970  -2.635   0.126  1.00  0.00     0.307 C 
BRANCH   7   8
ATOM      8  C   UNL     1      -1.699  -1.157   0.253  1.00  0.00     0.044 A 
ATOM      9  C   UNL     1       3.382  -0.631  -0.255  1.00  0.00     0.044 C 
ATOM     10  C   UNL     1       1.983  -0.101  -0.132  1.00  0.00    -0.050 A 
ATOM     11  C   UNL     1       1.749   1.267   0.031  1.00  0.00     0.005 A 
ATOM     12  C   UNL     1       0.899  -0.996  -0.123  1.00  0.00     0.014 A 
ATOM     13  C   UNL     1       0.460   1.766   0.239  1.00  0.00     0.027 A 
ATOM     14  C   UNL     1      -0.411  -0.522   0.114  1.00  0.00     0.009 A 
ATOM     15  C   UNL     1      -0.591   0.846   0.305  1.00  0.00     0.046 A 
ATOM     16  N   UNL     1      -1.923   1.046   0.579  1.00  0.00    -0.361 N 
ATOM     17  C   UNL     1      -2.580  -0.153   0.618  1.00  0.00     0.094 A 
ATOM     18  H   UNL     1      -2.342   1.925   0.725  1.00  0.00     0.166 HD
ENDBRANCH   7   8
BRANCH   7  19
ATOM     19  N   UNL     1      -2.664  -3.011  -1.132  1.00  0.00    -0.318 N 
ATOM     20  C   UNL     1      -4.063  -2.593  -1.320  1.00  0.00     0.284 C 
ATOM     21  C   UNL     1      -1.890  -2.782  -2.364  1.00  0.00     0.284 C 
ATOM     22  H   UNL     1      -2.726  -4.015  -0.962  1.00  0.00     0.349 HD
ATOM     23  C   UNL     1      -4.325  -1.246  -2.026  1.00  0.00     0.178 C 
ATOM     24  C   UNL     1      -2.055  -1.401  -3.043  1.00  0.00     0.178 C 
ATOM     25  N   UNL     1      -3.475  -1.055  -3.209  1.00  0.00    -0.360 N 
BRANCH  25  26
ATOM     26  C   UNL     1      -3.709   0.099  -3.961  1.00  0.00     0.038 A 
ATOM     27  C   UNL     1      -3.837   1.369  -3.378  1.00  0.00     0.026 A 
ATOM     28  C   UNL     1      -3.818  -0.006  -5.352  1.00  0.00     0.046 A 
ATOM     29  C   UNL     1      -4.103   2.499  -4.156  1.00  0.00     0.004 A 
ATOM     30  C   UNL     1      -4.087   1.121  -6.129  1.00  0.00     0.043 A 
ATOM     31  C   UNL     1      -4.236   2.373  -5.536  1.00  0.00     0.020 A 
ATOM     32  Cl  UNL     1      -4.249   0.963  -7.835  1.00  0.00    -0.084 Cl
ENDBRANCH  25  26
ENDBRANCH   7  19
ENDBRANCH   4   7
ENDBRANCH   2   3
ENDBRANCH   1   2
BRANCH   1  33
ATOM     33  C   UNL     1      -1.347  -1.422   4.936  1.00  0.00     0.118 C 
BRANCH  33  34
ATOM     34  N   UNL     1      -0.670  -2.227   5.937  1.00  0.00    -0.352 N 
ATOM     35  C   UNL     1      -0.136  -1.870   7.150  1.00  0.00     0.251 C 
ATOM     36  H   UNL     1      -0.579  -3.181   5.709  1.00  0.00     0.163 HD
ATOM     37  O   UNL     1       0.597  -2.668   7.727  1.00  0.00    -0.269 OA
BRANCH  35  38
ATOM     38  C   UNL     1      -0.418  -0.547   7.755  1.00  0.00     0.039 A 
ATOM     39  C   UNL     1       0.602   0.087   8.471  1.00  0.00     0.014 A 
ATOM     40  C   UNL     1      -1.682   0.048   7.681  1.00  0.00     0.014 A 
ATOM     41  C   UNL     1       0.368   1.324   9.075  1.00  0.00     0.010 A 
ATOM     42  C   UNL     1      -1.892   1.319   8.218  1.00  0.00     0.010 A 
ATOM     43  C   UNL     1      -0.874   1.964   8.934  1.00  0.00    -0.014 A 
BRANCH  43  44
ATOM     44  C   UNL     1      -1.109   3.300   9.544  1.00  0.00     0.031 A 
ATOM     45  C   UNL     1      -2.121   3.473  10.645  1.00  0.00     0.074 A 
ATOM     46  C   UNL     1      -0.426   4.366   9.081  1.00  0.00     0.049 A 
ATOM     47  N   UNL     1      -2.446   4.554  11.308  1.00  0.00    -0.248 NA
ATOM     48  C   UNL     1      -2.890   2.281  11.029  1.00  0.00     0.031 C 
ATOM     49  C   UNL     1       0.533   4.336   7.975  1.00  0.00     0.029 A 
ATOM     50  N   UNL     1      -0.431   5.679   9.480  1.00  0.00    -0.354 N 
ATOM     51  C   UNL     1      -3.464   4.176  12.179  1.00  0.00     0.074 A 
ATOM     52  C   UNL     1      -3.743   2.781  11.909  1.00  0.00     0.031 C 
ATOM     53  C   UNL     1       1.048   5.564   7.807  1.00  0.00     0.029 A 
ATOM     54  C   UNL     1       0.436   6.475   8.768  1.00  0.00     0.049 A 
ATOM     55  H   UNL     1      -1.000   6.019  10.207  1.00  0.00     0.167 HD
ATOM     56  C   UNL     1      -4.088   4.915  13.131  1.00  0.00     0.034 A 
ATOM     57  C   UNL     1       0.711   7.789   8.879  1.00  0.00     0.034 A 
ATOM     58  C   UNL     1      -3.787   6.303  13.393  1.00  0.00     0.049 A 
ATOM     59  C   UNL     1       0.027   8.586   9.958  1.00  0.00     0.074 A 
ATOM     60  C   UNL     1      -4.310   7.131  14.371  1.00  0.00     0.029 A 
ATOM     61  N   UNL     1      -2.885   7.072  12.666  1.00  0.00    -0.354 N 
ATOM     62  N   UNL     1      -0.881   8.197  10.823  1.00  0.00    -0.248 NA
ATOM     63  C   UNL     1       0.423   9.993  10.091  1.00  0.00     0.031 C 
ATOM     64  C   UNL     1      -3.775   8.413  14.195  1.00  0.00     0.029 A 
ATOM     65  C   UNL     1      -2.859   8.370  13.156  1.00  0.00     0.049 A 
ATOM     66  H   UNL     1      -2.343   6.743  11.913  1.00  0.00     0.167 HD
ATOM     67  C   UNL     1      -1.143   9.305  11.623  1.00  0.00     0.074 A 
ATOM     68  C   UNL     1      -0.285  10.371  11.146  1.00  0.00     0.031 C 
ATOM     69  C   UNL     1      -2.010   9.429  12.661  1.00  0.00     0.034 A 
BRANCH  56  70
ATOM     70  C   UNL     1      -5.176   4.237  13.934  1.00  0.00     0.023 A 
ATOM     71  C   UNL     1      -4.911   3.119  14.745  1.00  0.00     0.031 A 
ATOM     72  C   UNL     1      -6.506   4.690  13.860  1.00  0.00     0.131 A 
ATOM     73  C   UNL     1      -5.966   2.442  15.376  1.00  0.00     0.055 A 
ATOM     74  C   UNL     1      -7.539   4.064  14.561  1.00  0.00     0.041 A 
ATOM     75  F   UNL     1      -6.828   5.741  13.089  1.00  0.00    -0.206 F 
ATOM     76  C   UNL     1      -7.275   2.921  15.310  1.00  0.00     0.022 A 
BRANCH  73  77
ATOM     77  S   UNL     1      -5.624   0.836  16.148  1.00  0.00     0.124 S 
ATOM     78  O   UNL     1      -5.078   0.078  15.024  1.00  0.00    -0.237 OA
ATOM     79  O   UNL     1      -4.679   1.187  17.201  1.00  0.00    -0.237 OA
ATOM     80  O   UNL     1      -6.938   0.391  16.610  1.00  0.00    -0.744 OA
ENDBRANCH  73  77
ENDBRANCH  56  70
BRANCH  57  81
ATOM     81  C   UNL     1       1.688   8.428   7.953  1.00  0.00     0.023 A 
ATOM     82  C   UNL     1       2.918   8.918   8.419  1.00  0.00     0.031 A 
ATOM     83  C   UNL     1       1.396   8.569   6.585  1.00  0.00     0.131 A 
ATOM     84  C   UNL     1       3.796   9.558   7.532  1.00  0.00     0.055 A 
ATOM     85  C   UNL     1       2.293   9.165   5.697  1.00  0.00     0.041 A 
ATOM     86  F   UNL     1       0.239   8.105   6.086  1.00  0.00    -0.206 F 
ATOM     87  C   UNL     1       3.498   9.674   6.172  1.00  0.00     0.022 A 
BRANCH  84  88
ATOM     88  S   UNL     1       5.317  10.294   8.193  1.00  0.00     0.124 S 
ATOM     89  O   UNL     1       4.789  11.249   9.161  1.00  0.00    -0.237 OA
ATOM     90  O   UNL     1       6.000   9.130   8.746  1.00  0.00    -0.237 OA
ATOM     91  O   UNL     1       5.949  10.883   7.014  1.00  0.00    -0.744 OA
ENDBRANCH  84  88
ENDBRANCH  57  81
BRANCH  69  92
ATOM     92  C   UNL     1      -2.037  10.761  13.372  1.00  0.00     0.023 A 
ATOM     93  C   UNL     1      -2.484  11.932  12.736  1.00  0.00     0.031 A 
ATOM     94  C   UNL     1      -1.580  10.862  14.698  1.00  0.00     0.131 A 
ATOM     95  C   UNL     1      -2.405  13.164  13.403  1.00  0.00     0.055 A 
ATOM     96  C   UNL     1      -1.562  12.080  15.378  1.00  0.00     0.041 A 
ATOM     97  F   UNL     1      -1.139   9.777  15.354  1.00  0.00    -0.206 F 
ATOM     98  C   UNL     1      -1.962  13.243  14.725  1.00  0.00     0.022 A 
BRANCH  95  99
ATOM     99  S   UNL     1      -2.787  14.679  12.481  1.00  0.00     0.124 S 
ATOM    100  O   UNL     1      -1.860  14.593  11.357  1.00  0.00    -0.237 OA
ATOM    101  O   UNL     1      -4.199  14.499  12.158  1.00  0.00    -0.237 OA
ATOM    102  O   UNL     1      -2.502  15.745  13.440  1.00  0.00    -0.744 OA
ENDBRANCH  95  99
ENDBRANCH  69  92
ENDBRANCH  43  44
ENDBRANCH  35  38
ENDBRANCH  33  34
ENDBRANCH   1  33
TORSDOF 16
