REMARK SMILES O=C(COc1ccc(/C=N/NC(=O)c2cc3cc([N+](=O)[O-])ccc3o2)cc1)NCCCNC(=O)c1ccc(-c2c3nc(c(-c4cc(S(=O)(=O)[O-])ccc4F)c4ccc([nH]4)c(-c4cc(S(=O)(=O)[O-])ccc4F)c4nc(c(-c5cc(S(=O)(=O)[O-])ccc5F)c5ccc2[nH]5)C=C4)C=C3)cc1
REMARK SMILES IDX 1 1 2 2 28 3 3 5 4 6 5 7 6 8 27 9 7 10 26 11 8 12 9 13 10 14
REMARK SMILES IDX 11 15 12 16 13 18 14 19 15 20 25 21 16 22 24 23 17 24 23 25
REMARK SMILES IDX 18 26 22 27 19 28 20 29 21 30 29 31 30 32 31 33 32 34 33 35
REMARK SMILES IDX 34 37 35 38 36 39 97 40 37 41 96 42 38 43 39 44 40 45 90 46
REMARK SMILES IDX 41 47 95 48 89 49 91 50 42 51 94 52 88 53 87 54 43 56 75 57
REMARK SMILES IDX 55 58 74 59 56 60 59 61 73 62 92 63 57 64 58 65 72 67 93 68
REMARK SMILES IDX 60 69 44 70 45 71 53 72 46 73 52 74 54 75 51 76 47 77 48 78
REMARK SMILES IDX 49 79 50 80 76 81 77 82 85 83 78 84 84 85 86 86 83 87 79 88
REMARK SMILES IDX 80 89 81 90 82 91 61 92 62 93 70 94 63 95 69 96 71 97 68 98
REMARK SMILES IDX 64 99 65 100 66 101 67 102
REMARK H PARENT 28 4 11 17 32 36 91 55 59 66
REMARK Flexibility Score: inf
ROOT
ATOM      1  O   UNL     1       1.045   0.595   0.668  1.00  0.00    -0.271 OA
ATOM      2  C   UNL     1       2.180   0.312   0.301  1.00  0.00     0.257 C 
ATOM      3  N   UNL     1       2.839   0.958  -0.728  1.00  0.00    -0.353 N 
ATOM      4  H   UNL     1       3.813   0.844  -0.816  1.00  0.00     0.163 HD
ENDROOT
BRANCH   2   5
ATOM      5  C   UNL     1       2.977  -0.849   0.905  1.00  0.00     0.329 C 
BRANCH   5   6
ATOM      6  O   UNL     1       3.771  -1.591  -0.025  1.00  0.00    -0.484 OA
BRANCH   6   7
ATOM      7  C   UNL     1       3.046  -2.457  -0.803  1.00  0.00     0.120 A 
ATOM      8  C   UNL     1       3.378  -3.809  -0.751  1.00  0.00     0.047 A 
ATOM      9  C   UNL     1       2.095  -2.017  -1.726  1.00  0.00     0.047 A 
ATOM     10  C   UNL     1       2.728  -4.719  -1.593  1.00  0.00     0.013 A 
ATOM     11  C   UNL     1       1.451  -2.913  -2.574  1.00  0.00     0.013 A 
ATOM     12  C   UNL     1       1.766  -4.263  -2.504  1.00  0.00    -0.005 A 
BRANCH  12  13
ATOM     13  C   UNL     1       1.144  -5.160  -3.496  1.00  0.00     0.141 C 
ATOM     14  N   UNL     1       1.241  -6.438  -3.377  1.00  0.00    -0.180 NA
BRANCH  14  15
ATOM     15  N   UNL     1       0.839  -7.255  -4.381  1.00  0.00    -0.240 N 
ATOM     16  C   UNL     1       0.027  -7.113  -5.482  1.00  0.00     0.307 C 
ATOM     17  H   UNL     1       1.216  -8.161  -4.304  1.00  0.00     0.194 HD
ATOM     18  O   UNL     1       0.231  -7.896  -6.416  1.00  0.00    -0.264 OA
BRANCH  16  19
ATOM     19  C   UNL     1      -1.105  -6.208  -5.540  1.00  0.00     0.194 A 
ATOM     20  C   UNL     1      -1.266  -5.059  -6.307  1.00  0.00     0.065 A 
ATOM     21  O   UNL     1      -2.332  -6.818  -5.403  1.00  0.00    -0.451 OA
ATOM     22  C   UNL     1      -2.507  -5.235  -6.994  1.00  0.00     0.028 A 
ATOM     23  C   UNL     1      -3.118  -6.328  -6.397  1.00  0.00     0.135 A 
ATOM     24  C   UNL     1      -3.089  -4.681  -8.151  1.00  0.00     0.097 A 
ATOM     25  C   UNL     1      -4.290  -6.929  -6.851  1.00  0.00     0.055 A 
ATOM     26  C   UNL     1      -4.199  -5.352  -8.705  1.00  0.00     0.270 A 
ATOM     27  C   UNL     1      -4.799  -6.448  -8.062  1.00  0.00     0.089 A 
BRANCH  26  28
ATOM     28  N   UNL     1      -4.671  -4.963 -10.043  1.00  0.00     0.062 N 
ATOM     29  O   UNL     1      -4.219  -3.919 -10.532  1.00  0.00    -0.258 OA
ATOM     30  O   UNL     1      -5.476  -5.715 -10.611  1.00  0.00    -0.258 OA
ENDBRANCH  26  28
ENDBRANCH  16  19
ENDBRANCH  14  15
ENDBRANCH  12  13
ENDBRANCH   6   7
ENDBRANCH   5   6
ENDBRANCH   2   5
BRANCH   3  31
ATOM     31  C   UNL     1       2.141   1.797  -1.680  1.00  0.00     0.117 C 
BRANCH  31  32
ATOM     32  C   UNL     1       2.452   3.272  -1.525  1.00  0.00     0.042 C 
BRANCH  32  33
ATOM     33  C   UNL     1       3.924   3.614  -1.709  1.00  0.00     0.118 C 
BRANCH  33  34
ATOM     34  N   UNL     1       4.416   3.335  -3.052  1.00  0.00    -0.352 N 
ATOM     35  C   UNL     1       5.075   4.154  -3.936  1.00  0.00     0.251 C 
ATOM     36  H   UNL     1       4.251   2.420  -3.375  1.00  0.00     0.163 HD
ATOM     37  O   UNL     1       5.267   3.755  -5.085  1.00  0.00    -0.269 OA
BRANCH  35  38
ATOM     38  C   UNL     1       5.522   5.507  -3.531  1.00  0.00     0.039 A 
ATOM     39  C   UNL     1       5.409   6.556  -4.447  1.00  0.00     0.014 A 
ATOM     40  C   UNL     1       6.068   5.748  -2.267  1.00  0.00     0.014 A 
ATOM     41  C   UNL     1       5.793   7.848  -4.078  1.00  0.00     0.010 A 
ATOM     42  C   UNL     1       6.359   7.050  -1.869  1.00  0.00     0.010 A 
ATOM     43  C   UNL     1       6.243   8.114  -2.775  1.00  0.00    -0.014 A 
BRANCH  43  44
ATOM     44  C   UNL     1       6.639   9.488  -2.361  1.00  0.00     0.031 A 
ATOM     45  C   UNL     1       8.059   9.767  -1.941  1.00  0.00     0.074 A 
ATOM     46  C   UNL     1       5.719  10.473  -2.327  1.00  0.00     0.049 A 
ATOM     47  N   UNL     1       8.591  10.880  -1.504  1.00  0.00    -0.248 NA
ATOM     48  C   UNL     1       8.997   8.635  -1.989  1.00  0.00     0.031 C 
ATOM     49  C   UNL     1       4.304  10.321  -2.673  1.00  0.00     0.029 A 
ATOM     50  N   UNL     1       5.834  11.797  -1.984  1.00  0.00    -0.354 N 
ATOM     51  C   UNL     1       9.919  10.579  -1.217  1.00  0.00     0.074 A 
ATOM     52  C   UNL     1      10.088   9.162  -1.458  1.00  0.00     0.031 C 
ATOM     53  C   UNL     1       3.693  11.511  -2.559  1.00  0.00     0.029 A 
ATOM     54  C   UNL     1       4.655  12.501  -2.085  1.00  0.00     0.049 A 
ATOM     55  H   UNL     1       6.681  12.206  -1.693  1.00  0.00     0.167 HD
ATOM     56  C   UNL     1      10.914  11.411  -0.818  1.00  0.00     0.034 A 
ATOM     57  C   UNL     1       4.379  13.794  -1.820  1.00  0.00     0.034 A 
ATOM     58  C   UNL     1      10.733  12.825  -0.594  1.00  0.00     0.049 A 
ATOM     59  C   UNL     1       5.495  14.695  -1.350  1.00  0.00     0.074 A 
ATOM     60  C   UNL     1      11.679  13.768  -0.232  1.00  0.00     0.029 A 
ATOM     61  N   UNL     1       9.523  13.500  -0.703  1.00  0.00    -0.354 N 
ATOM     62  N   UNL     1       6.757  14.404  -1.129  1.00  0.00    -0.248 NA
ATOM     63  C   UNL     1       5.152  16.102  -1.110  1.00  0.00     0.031 C 
ATOM     64  C   UNL     1      11.030  14.994  -0.049  1.00  0.00     0.029 A 
ATOM     65  C   UNL     1       9.695  14.840  -0.386  1.00  0.00     0.049 A 
ATOM     66  H   UNL     1       8.669  13.088  -0.967  1.00  0.00     0.167 HD
ATOM     67  C   UNL     1       7.364  15.604  -0.764  1.00  0.00     0.074 A 
ATOM     68  C   UNL     1       6.333  16.620  -0.808  1.00  0.00     0.031 C 
ATOM     69  C   UNL     1       8.658  15.845  -0.430  1.00  0.00     0.034 A 
BRANCH  56  70
ATOM     70  C   UNL     1      12.276  10.801  -0.577  1.00  0.00     0.023 A 
ATOM     71  C   UNL     1      12.995  10.166  -1.606  1.00  0.00     0.031 A 
ATOM     72  C   UNL     1      12.853  10.827   0.705  1.00  0.00     0.131 A 
ATOM     73  C   UNL     1      14.203   9.513  -1.319  1.00  0.00     0.055 A 
ATOM     74  C   UNL     1      14.100  10.254   0.964  1.00  0.00     0.041 A 
ATOM     75  F   UNL     1      12.208  11.397   1.734  1.00  0.00    -0.206 F 
ATOM     76  C   UNL     1      14.775   9.577  -0.048  1.00  0.00     0.022 A 
BRANCH  73  77
ATOM     77  S   UNL     1      14.931   8.444  -2.591  1.00  0.00     0.124 S 
ATOM     78  O   UNL     1      13.850   7.491  -2.829  1.00  0.00    -0.237 OA
ATOM     79  O   UNL     1      15.206   9.382  -3.673  1.00  0.00    -0.237 OA
ATOM     80  O   UNL     1      16.111   7.884  -1.934  1.00  0.00    -0.744 OA
ENDBRANCH  73  77
ENDBRANCH  56  70
BRANCH  57  81
ATOM     81  C   UNL     1       2.994  14.323  -1.986  1.00  0.00     0.023 A 
ATOM     82  C   UNL     1       2.709  15.330  -2.921  1.00  0.00     0.031 A 
ATOM     83  C   UNL     1       1.942  13.865  -1.172  1.00  0.00     0.131 A 
ATOM     84  C   UNL     1       1.421  15.886  -2.984  1.00  0.00     0.055 A 
ATOM     85  C   UNL     1       0.647  14.378  -1.280  1.00  0.00     0.041 A 
ATOM     86  F   UNL     1       2.156  12.901  -0.262  1.00  0.00    -0.206 F 
ATOM     87  C   UNL     1       0.385  15.406  -2.180  1.00  0.00     0.022 A 
BRANCH  84  88
ATOM     88  S   UNL     1       1.143  17.316  -4.064  1.00  0.00     0.124 S 
ATOM     89  O   UNL     1       2.116  18.272  -3.546  1.00  0.00    -0.237 OA
ATOM     90  O   UNL     1       1.429  16.760  -5.382  1.00  0.00    -0.237 OA
ATOM     91  O   UNL     1      -0.257  17.657  -3.823  1.00  0.00    -0.744 OA
ENDBRANCH  84  88
ENDBRANCH  57  81
BRANCH  69  92
ATOM     92  C   UNL     1       9.042  17.279  -0.147  1.00  0.00     0.023 A 
ATOM     93  C   UNL     1       8.520  17.990   0.947  1.00  0.00     0.031 A 
ATOM     94  C   UNL     1       9.938  17.948  -1.001  1.00  0.00     0.131 A 
ATOM     95  C   UNL     1       8.845  19.344   1.121  1.00  0.00     0.055 A 
ATOM     96  C   UNL     1      10.313  19.274  -0.783  1.00  0.00     0.041 A 
ATOM     97  F   UNL     1      10.467  17.322  -2.065  1.00  0.00    -0.206 F 
ATOM     98  C   UNL     1       9.753  19.985   0.275  1.00  0.00     0.022 A 
BRANCH  95  99
ATOM     99  S   UNL     1       7.979  20.290   2.404  1.00  0.00     0.124 S 
ATOM    100  O   UNL     1       6.582  20.103   2.028  1.00  0.00    -0.237 OA
ATOM    101  O   UNL     1       8.405  19.619   3.627  1.00  0.00    -0.237 OA
ATOM    102  O   UNL     1       8.491  21.649   2.233  1.00  0.00    -0.744 OA
ENDBRANCH  95  99
ENDBRANCH  69  92
ENDBRANCH  43  44
ENDBRANCH  35  38
ENDBRANCH  33  34
ENDBRANCH  32  33
ENDBRANCH  31  32
ENDBRANCH   3  31
TORSDOF 19
