REMARK SMILES CC(C)CCn1nc(C(=O)NCCCNC(=O)c2ccc(-c3c4nc(c(-c5cc(S(=O)(=O)[O-])ccc5F)c5ccc([nH]5)c(-c5cc(S(=O)(=O)[O-])ccc5F)c5nc(c(-c6cc(S(=O)(=O)[O-])ccc6F)c6ccc3[nH]6)C=C5)C=C4)cc2)c2c1CCN(C(=O)[C@@H]1CCc3nn(C)c(=O)n3C1)C2
REMARK SMILES IDX 13 1 12 2 11 3 9 4 10 5 8 7 6 8 7 9 82 10 81 11 83 12 99 13
REMARK SMILES IDX 84 14 85 15 5 16 4 17 2 18 1 19 3 20 86 21 87 22 88 23 89 24
REMARK SMILES IDX 98 25 90 26 97 27 91 28 95 29 92 30 93 31 96 32 94 33 14 34
REMARK SMILES IDX 15 35 16 36 17 38 18 39 19 40 80 41 20 42 79 43 21 44 22 45
REMARK SMILES IDX 23 46 73 47 24 48 78 49 72 50 74 51 25 52 77 53 71 54 70 55
REMARK SMILES IDX 26 57 58 58 38 59 57 60 39 61 42 62 56 63 75 64 40 65 41 66
REMARK SMILES IDX 55 68 76 69 43 70 27 71 28 72 36 73 29 74 35 75 37 76 34 77
REMARK SMILES IDX 30 78 31 79 32 80 33 81 59 82 60 83 68 84 61 85 67 86 69 87
REMARK SMILES IDX 66 88 62 89 63 90 64 91 65 92 44 93 45 94 53 95 46 96 52 97
REMARK SMILES IDX 54 98 51 99 47 100 48 101 49 102 50 103
REMARK H PARENT 11 6 15 37 74 56 42 67
REMARK Flexibility Score: inf
ROOT
ATOM      1  C   UNL     1       0.021  -2.871  -8.074  1.00  0.00     0.042 C 
ENDROOT
BRANCH   1   2
ATOM      2  C   UNL     1       1.093  -1.923  -7.513  1.00  0.00     0.118 C 
BRANCH   2   3
ATOM      3  N   UNL     1       0.557  -0.599  -7.199  1.00  0.00    -0.351 N 
ATOM      4  C   UNL     1       0.024   0.003  -6.073  1.00  0.00     0.272 C 
ATOM      5  O   UNL     1      -0.152   1.222  -6.177  1.00  0.00    -0.267 OA
ATOM      6  H   UNL     1       0.582   0.009  -7.974  1.00  0.00     0.163 HD
BRANCH   4   7
ATOM      7  C   UNL     1      -0.310  -0.712  -4.809  1.00  0.00     0.155 A 
ATOM      8  N   UNL     1      -0.789  -0.905  -2.713  1.00  0.00    -0.268 N 
ATOM      9  N   UNL     1      -0.391  -0.019  -3.647  1.00  0.00    -0.167 NA
ATOM     10  C   UNL     1      -0.767  -2.181  -3.175  1.00  0.00     0.046 A 
ATOM     11  C   UNL     1      -0.676  -2.057  -4.539  1.00  0.00     0.026 A 
ATOM     12  C   UNL     1      -0.937  -3.481  -2.471  1.00  0.00     0.078 C 
ATOM     13  C   UNL     1      -0.915  -3.192  -5.427  1.00  0.00     0.159 C 
ATOM     14  C   UNL     1      -0.701  -4.624  -3.492  1.00  0.00     0.126 C 
ATOM     15  N   UNL     1      -1.401  -4.388  -4.762  1.00  0.00    -0.338 N 
BRANCH   8  16
ATOM     16  C   UNL     1      -1.331  -0.407  -1.463  1.00  0.00     0.145 C 
BRANCH  16  17
ATOM     17  C   UNL     1      -0.851  -1.132  -0.206  1.00  0.00     0.027 C 
BRANCH  17  18
ATOM     18  C   UNL     1       0.680  -1.206  -0.081  1.00  0.00    -0.016 C 
ATOM     19  C   UNL     1       1.275   0.163   0.241  1.00  0.00     0.007 C 
ATOM     20  C   UNL     1       1.068  -2.232   0.981  1.00  0.00     0.007 C 
ENDBRANCH  17  18
ENDBRANCH  16  17
ENDBRANCH   8  16
BRANCH  15  21
ATOM     21  C   UNL     1      -2.018  -5.279  -5.626  1.00  0.00     0.227 C 
ATOM     22  O   UNL     1      -1.943  -5.096  -6.851  1.00  0.00    -0.274 OA
BRANCH  21  23
ATOM     23  C   UNL     1      -2.887  -6.454  -5.193  1.00  0.00     0.099 C 
ATOM     24  C   UNL     1      -4.073  -6.095  -4.301  1.00  0.00     0.023 C 
ATOM     25  C   UNL     1      -2.131  -7.677  -4.723  1.00  0.00     0.142 C 
ATOM     26  C   UNL     1      -3.735  -6.007  -2.823  1.00  0.00     0.078 C 
ATOM     27  N   UNL     1      -1.978  -7.694  -3.293  1.00  0.00    -0.278 N 
ATOM     28  C   UNL     1      -2.649  -6.950  -2.391  1.00  0.00     0.133 A 
ATOM     29  C   UNL     1      -0.953  -8.295  -2.619  1.00  0.00     0.345 A 
ATOM     30  N   UNL     1      -2.162  -6.996  -1.184  1.00  0.00    -0.155 NA
ATOM     31  N   UNL     1      -1.073  -7.837  -1.307  1.00  0.00    -0.216 N 
ATOM     32  O   UNL     1      -0.069  -9.001  -3.088  1.00  0.00    -0.246 OA
ATOM     33  C   UNL     1      -0.085  -7.993  -0.279  1.00  0.00     0.179 C 
ENDBRANCH  21  23
ENDBRANCH  15  21
ENDBRANCH   4   7
ENDBRANCH   2   3
ENDBRANCH   1   2
BRANCH   1  34
ATOM     34  C   UNL     1       0.069  -3.199  -9.532  1.00  0.00     0.118 C 
BRANCH  34  35
ATOM     35  N   UNL     1       1.000  -4.295  -9.844  1.00  0.00    -0.352 N 
ATOM     36  C   UNL     1       1.212  -4.863 -11.096  1.00  0.00     0.251 C 
ATOM     37  H   UNL     1       1.524  -4.661  -9.095  1.00  0.00     0.163 HD
ATOM     38  O   UNL     1       1.633  -6.010 -11.207  1.00  0.00    -0.269 OA
BRANCH  36  39
ATOM     39  C   UNL     1       0.878  -4.036 -12.271  1.00  0.00     0.039 A 
ATOM     40  C   UNL     1       0.251  -4.516 -13.417  1.00  0.00     0.014 A 
ATOM     41  C   UNL     1       1.053  -2.677 -12.088  1.00  0.00     0.014 A 
ATOM     42  C   UNL     1      -0.269  -3.576 -14.308  1.00  0.00     0.010 A 
ATOM     43  C   UNL     1       0.163  -1.847 -12.688  1.00  0.00     0.010 A 
ATOM     44  C   UNL     1      -0.337  -2.228 -13.908  1.00  0.00    -0.014 A 
BRANCH  44  45
ATOM     45  C   UNL     1      -0.990  -1.171 -14.666  1.00  0.00     0.031 A 
ATOM     46  C   UNL     1      -2.350  -1.534 -15.093  1.00  0.00     0.074 A 
ATOM     47  C   UNL     1      -0.507   0.089 -14.795  1.00  0.00     0.049 A 
ATOM     48  N   UNL     1      -2.670  -2.127 -16.193  1.00  0.00    -0.248 NA
ATOM     49  C   UNL     1      -3.436  -1.491 -14.103  1.00  0.00     0.031 C 
ATOM     50  C   UNL     1       0.671   0.699 -14.154  1.00  0.00     0.029 A 
ATOM     51  N   UNL     1      -1.019   1.132 -15.506  1.00  0.00    -0.354 N 
ATOM     52  C   UNL     1      -4.052  -2.205 -16.170  1.00  0.00     0.074 A 
ATOM     53  C   UNL     1      -4.413  -2.098 -14.783  1.00  0.00     0.031 C 
ATOM     54  C   UNL     1       0.673   2.036 -14.354  1.00  0.00     0.029 A 
ATOM     55  C   UNL     1      -0.380   2.355 -15.299  1.00  0.00     0.049 A 
ATOM     56  H   UNL     1      -1.782   1.030 -16.119  1.00  0.00     0.167 HD
ATOM     57  C   UNL     1      -4.759  -1.989 -17.314  1.00  0.00     0.034 A 
ATOM     58  C   UNL     1      -0.645   3.541 -15.909  1.00  0.00     0.034 A 
ATOM     59  C   UNL     1      -3.856  -1.953 -18.454  1.00  0.00     0.049 A 
ATOM     60  C   UNL     1      -1.296   3.200 -17.193  1.00  0.00     0.074 A 
ATOM     61  C   UNL     1      -2.988  -2.842 -19.056  1.00  0.00     0.029 A 
ATOM     62  N   UNL     1      -3.464  -0.695 -18.860  1.00  0.00    -0.354 N 
ATOM     63  N   UNL     1      -0.686   2.552 -18.148  1.00  0.00    -0.248 NA
ATOM     64  C   UNL     1      -2.749   3.166 -17.258  1.00  0.00     0.031 C 
ATOM     65  C   UNL     1      -1.877  -2.055 -19.489  1.00  0.00     0.029 A 
ATOM     66  C   UNL     1      -2.138  -0.709 -19.217  1.00  0.00     0.049 A 
ATOM     67  H   UNL     1      -4.048   0.097 -18.890  1.00  0.00     0.167 HD
ATOM     68  C   UNL     1      -1.636   1.678 -18.650  1.00  0.00     0.074 A 
ATOM     69  C   UNL     1      -2.912   2.209 -18.177  1.00  0.00     0.031 C 
ATOM     70  C   UNL     1      -1.270   0.460 -19.151  1.00  0.00     0.034 A 
BRANCH  57  71
ATOM     71  C   UNL     1      -6.132  -1.347 -17.387  1.00  0.00     0.023 A 
ATOM     72  C   UNL     1      -6.657  -1.136 -18.678  1.00  0.00     0.031 A 
ATOM     73  C   UNL     1      -6.818  -0.691 -16.340  1.00  0.00     0.131 A 
ATOM     74  C   UNL     1      -7.708  -0.231 -18.897  1.00  0.00     0.055 A 
ATOM     75  C   UNL     1      -7.899   0.169 -16.557  1.00  0.00     0.041 A 
ATOM     76  F   UNL     1      -6.449  -0.770 -15.059  1.00  0.00    -0.206 F 
ATOM     77  C   UNL     1      -8.329   0.431 -17.844  1.00  0.00     0.022 A 
BRANCH  74  78
ATOM     78  S   UNL     1      -8.134   0.191 -20.604  1.00  0.00     0.124 S 
ATOM     79  O   UNL     1      -6.851   0.654 -21.120  1.00  0.00    -0.237 OA
ATOM     80  O   UNL     1      -8.614  -1.088 -21.117  1.00  0.00    -0.237 OA
ATOM     81  O   UNL     1      -9.156   1.223 -20.451  1.00  0.00    -0.744 OA
ENDBRANCH  74  78
ENDBRANCH  57  71
BRANCH  58  82
ATOM     82  C   UNL     1      -0.670   4.902 -15.306  1.00  0.00     0.023 A 
ATOM     83  C   UNL     1      -0.564   6.091 -16.062  1.00  0.00     0.031 A 
ATOM     84  C   UNL     1      -1.082   5.039 -13.962  1.00  0.00     0.131 A 
ATOM     85  C   UNL     1      -0.882   7.341 -15.474  1.00  0.00     0.055 A 
ATOM     86  C   UNL     1      -1.402   6.273 -13.390  1.00  0.00     0.041 A 
ATOM     87  F   UNL     1      -1.276   3.959 -13.187  1.00  0.00    -0.206 F 
ATOM     88  C   UNL     1      -1.314   7.430 -14.148  1.00  0.00     0.022 A 
BRANCH  85  89
ATOM     89  S   UNL     1      -0.815   8.880 -16.455  1.00  0.00     0.124 S 
ATOM     90  O   UNL     1       0.600   8.975 -16.792  1.00  0.00    -0.237 OA
ATOM     91  O   UNL     1      -1.727   8.589 -17.555  1.00  0.00    -0.237 OA
ATOM     92  O   UNL     1      -1.291   9.903 -15.522  1.00  0.00    -0.744 OA
ENDBRANCH  85  89
ENDBRANCH  58  82
BRANCH  70  93
ATOM     93  C   UNL     1       0.184   0.276 -19.553  1.00  0.00     0.023 A 
ATOM     94  C   UNL     1       1.303   0.378 -18.692  1.00  0.00     0.031 A 
ATOM     95  C   UNL     1       0.425  -0.088 -20.890  1.00  0.00     0.131 A 
ATOM     96  C   UNL     1       2.600   0.125 -19.189  1.00  0.00     0.055 A 
ATOM     97  C   UNL     1       1.705  -0.360 -21.370  1.00  0.00     0.041 A 
ATOM     98  F   UNL     1      -0.595  -0.213 -21.755  1.00  0.00    -0.206 F 
ATOM     99  C   UNL     1       2.799  -0.248 -20.523  1.00  0.00     0.022 A 
BRANCH  96 100
ATOM    100  S   UNL     1       4.068   0.304 -18.119  1.00  0.00     0.124 S 
ATOM    101  O   UNL     1       3.869   1.598 -17.478  1.00  0.00    -0.237 OA
ATOM    102  O   UNL     1       3.969  -0.863 -17.247  1.00  0.00    -0.237 OA
ATOM    103  O   UNL     1       5.186   0.259 -19.065  1.00  0.00    -0.744 OA
ENDBRANCH  96 100
ENDBRANCH  70  93
ENDBRANCH  44  45
ENDBRANCH  36  39
ENDBRANCH  34  35
ENDBRANCH   1  34
TORSDOF 18
