REMARK SMILES O=C(/C=C/C(=O)c1ccc(F)c(Br)c1)NCCCNC(=O)c1ccc(-c2c3nc(c(-c4cc(S(=O)(=O)[O-])ccc4F)c4ccc([nH]4)c(-c4cc(S(=O)(=O)[O-])ccc4F)c4nc(c(-c5cc(S(=O)(=O)[O-])ccc5F)c5ccc2[nH]5)C=C4)C=C3)cc1
REMARK SMILES IDX 17 1 16 2 15 3 1 4 2 5 3 7 4 8 5 9 6 10 7 11 8 12 14 13 9 14
REMARK SMILES IDX 12 15 10 16 13 17 11 18 18 19 19 20 20 21 21 23 22 24 23 25
REMARK SMILES IDX 84 26 24 27 83 28 25 29 26 30 27 31 77 32 28 33 82 34 76 35
REMARK SMILES IDX 78 36 29 37 81 38 75 39 74 40 30 42 62 43 42 44 61 45 43 46
REMARK SMILES IDX 46 47 60 48 79 49 44 50 45 51 59 53 80 54 47 55 31 56 32 57
REMARK SMILES IDX 40 58 33 59 39 60 41 61 38 62 34 63 35 64 36 65 37 66 63 67
REMARK SMILES IDX 64 68 72 69 65 70 71 71 73 72 70 73 66 74 67 75 68 76 69 77
REMARK SMILES IDX 48 78 49 79 57 80 50 81 56 82 58 83 55 84 51 85 52 86 53 87
REMARK SMILES IDX 54 88
REMARK H PARENT 15 6 19 22 78 41 46 52
REMARK Flexibility Score: inf
ROOT
ATOM      1  C   UNL     1       2.427   2.885  -2.063  1.00  0.00     0.042 C 
ENDROOT
BRANCH   1   2
ATOM      2  C   UNL     1       2.165   1.384  -2.137  1.00  0.00     0.118 C 
BRANCH   2   3
ATOM      3  N   UNL     1       2.850   0.654  -1.086  1.00  0.00    -0.352 N 
ATOM      4  O   UNL     1       0.977   0.242   0.173  1.00  0.00    -0.270 OA
ATOM      5  C   UNL     1       2.191   0.155   0.000  1.00  0.00     0.244 C 
ATOM      6  H   UNL     1       3.822   0.514  -1.159  1.00  0.00     0.163 HD
BRANCH   5   7
ATOM      7  C   UNL     1       3.002  -0.538   1.032  1.00  0.00     0.075 C 
ATOM      8  C   UNL     1       4.310  -0.823   0.975  1.00  0.00     0.058 C 
BRANCH   8   9
ATOM      9  C   UNL     1       5.062  -1.514   2.055  1.00  0.00     0.186 C 
ATOM     10  O   UNL     1       6.274  -1.342   2.143  1.00  0.00    -0.289 OA
BRANCH   9  11
ATOM     11  C   UNL     1       4.383  -2.411   3.021  1.00  0.00     0.023 A 
ATOM     12  C   UNL     1       3.371  -3.296   2.622  1.00  0.00     0.015 A 
ATOM     13  C   UNL     1       4.821  -2.398   4.352  1.00  0.00     0.031 A 
ATOM     14  C   UNL     1       2.763  -4.126   3.566  1.00  0.00     0.041 A 
ATOM     15  C   UNL     1       4.213  -3.237   5.287  1.00  0.00     0.054 A 
ATOM     16  C   UNL     1       3.183  -4.090   4.892  1.00  0.00     0.137 A 
ATOM     17  Br  UNL     1       4.800  -3.208   7.084  1.00  0.00    -0.048 Br
ATOM     18  F   UNL     1       2.583  -4.898   5.777  1.00  0.00    -0.206 F 
ENDBRANCH   9  11
ENDBRANCH   8   9
ENDBRANCH   5   7
ENDBRANCH   2   3
ENDBRANCH   1   2
BRANCH   1  19
ATOM     19  C   UNL     1       3.893   3.279  -2.227  1.00  0.00     0.118 C 
BRANCH  19  20
ATOM     20  N   UNL     1       4.445   2.898  -3.518  1.00  0.00    -0.352 N 
ATOM     21  C   UNL     1       5.113   3.649  -4.453  1.00  0.00     0.251 C 
ATOM     22  H   UNL     1       4.320   1.951  -3.759  1.00  0.00     0.163 HD
ATOM     23  O   UNL     1       5.350   3.150  -5.552  1.00  0.00    -0.269 OA
BRANCH  21  24
ATOM     24  C   UNL     1       5.521   5.044  -4.167  1.00  0.00     0.039 A 
ATOM     25  C   UNL     1       5.404   5.997  -5.183  1.00  0.00     0.014 A 
ATOM     26  C   UNL     1       6.049   5.415  -2.927  1.00  0.00     0.014 A 
ATOM     27  C   UNL     1       5.765   7.326  -4.940  1.00  0.00     0.010 A 
ATOM     28  C   UNL     1       6.333   6.755  -2.662  1.00  0.00     0.010 A 
ATOM     29  C   UNL     1       6.205   7.725  -3.667  1.00  0.00    -0.014 A 
BRANCH  29  30
ATOM     30  C   UNL     1       6.560   9.143  -3.385  1.00  0.00     0.031 A 
ATOM     31  C   UNL     1       7.972   9.506  -3.005  1.00  0.00     0.074 A 
ATOM     32  C   UNL     1       5.609  10.097  -3.429  1.00  0.00     0.049 A 
ATOM     33  N   UNL     1       8.466  10.670  -2.664  1.00  0.00    -0.248 NA
ATOM     34  C   UNL     1       8.950   8.409  -2.977  1.00  0.00     0.031 C 
ATOM     35  C   UNL     1       4.199   9.869  -3.753  1.00  0.00     0.029 A 
ATOM     36  N   UNL     1       5.679  11.448  -3.197  1.00  0.00    -0.354 N 
ATOM     37  C   UNL     1       9.807  10.443  -2.371  1.00  0.00     0.074 A 
ATOM     38  C   UNL     1      10.028   9.019  -2.508  1.00  0.00     0.031 C 
ATOM     39  C   UNL     1       3.546  11.042  -3.727  1.00  0.00     0.029 A 
ATOM     40  C   UNL     1       4.474  12.099  -3.337  1.00  0.00     0.049 A 
ATOM     41  H   UNL     1       6.514  11.909  -2.953  1.00  0.00     0.167 HD
ATOM     42  C   UNL     1      10.771  11.339  -2.042  1.00  0.00     0.034 A 
ATOM     43  C   UNL     1       4.150  13.396  -3.160  1.00  0.00     0.034 A 
ATOM     44  C   UNL     1      10.538  12.758  -1.919  1.00  0.00     0.049 A 
ATOM     45  C   UNL     1       5.231  14.370  -2.763  1.00  0.00     0.074 A 
ATOM     46  C   UNL     1      11.450  13.761  -1.636  1.00  0.00     0.029 A 
ATOM     47  N   UNL     1       9.303  13.379  -2.062  1.00  0.00    -0.354 N 
ATOM     48  N   UNL     1       6.505  14.145  -2.533  1.00  0.00    -0.248 NA
ATOM     49  C   UNL     1       4.833  15.776  -2.614  1.00  0.00     0.031 C 
ATOM     50  C   UNL     1      10.757  14.972  -1.536  1.00  0.00     0.029 A 
ATOM     51  C   UNL     1       9.425  14.743  -1.843  1.00  0.00     0.049 A 
ATOM     52  H   UNL     1       8.463  12.917  -2.287  1.00  0.00     0.167 HD
ATOM     53  C   UNL     1       7.064  15.389  -2.250  1.00  0.00     0.074 A 
ATOM     54  C   UNL     1       5.993  16.358  -2.352  1.00  0.00     0.031 C 
ATOM     55  C   UNL     1       8.349  15.702  -1.941  1.00  0.00     0.034 A 
BRANCH  42  56
ATOM     56  C   UNL     1      12.157  10.802  -1.768  1.00  0.00     0.023 A 
ATOM     57  C   UNL     1      12.898  10.129  -2.756  1.00  0.00     0.031 A 
ATOM     58  C   UNL     1      12.737  10.940  -0.494  1.00  0.00     0.131 A 
ATOM     59  C   UNL     1      14.134   9.548  -2.433  1.00  0.00     0.055 A 
ATOM     60  C   UNL     1      14.008  10.437  -0.204  1.00  0.00     0.041 A 
ATOM     61  F   UNL     1      12.073  11.553   0.497  1.00  0.00    -0.206 F 
ATOM     62  C   UNL     1      14.707   9.721  -1.172  1.00  0.00     0.022 A 
BRANCH  59  63
ATOM     63  S   UNL     1      14.906   8.432  -3.637  1.00  0.00     0.124 S 
ATOM     64  O   UNL     1      13.866   7.420  -3.808  1.00  0.00    -0.237 OA
ATOM     65  O   UNL     1      15.137   9.309  -4.778  1.00  0.00    -0.237 OA
ATOM     66  O   UNL     1      16.110   7.968  -2.951  1.00  0.00    -0.744 OA
ENDBRANCH  59  63
ENDBRANCH  42  56
BRANCH  43  67
ATOM     67  C   UNL     1       2.743  13.857  -3.347  1.00  0.00     0.023 A 
ATOM     68  C   UNL     1       2.411  14.781  -4.351  1.00  0.00     0.031 A 
ATOM     69  C   UNL     1       1.717  13.420  -2.490  1.00  0.00     0.131 A 
ATOM     70  C   UNL     1       1.101  15.278  -4.441  1.00  0.00     0.055 A 
ATOM     71  C   UNL     1       0.403  13.873  -2.620  1.00  0.00     0.041 A 
ATOM     72  F   UNL     1       1.978  12.536  -1.514  1.00  0.00    -0.206 F 
ATOM     73  C   UNL     1       0.092  14.819  -3.591  1.00  0.00     0.022 A 
BRANCH  70  74
ATOM     74  S   UNL     1       0.756  16.609  -5.624  1.00  0.00     0.124 S 
ATOM     75  O   UNL     1       1.690  17.641  -5.190  1.00  0.00    -0.237 OA
ATOM     76  O   UNL     1       1.055  15.966  -6.899  1.00  0.00    -0.237 OA
ATOM     77  O   UNL     1      -0.656  16.908  -5.396  1.00  0.00    -0.744 OA
ENDBRANCH  70  74
ENDBRANCH  43  67
BRANCH  55  78
ATOM     78  C   UNL     1       8.676  17.165  -1.748  1.00  0.00     0.023 A 
ATOM     79  C   UNL     1       8.139  17.915  -0.687  1.00  0.00     0.031 A 
ATOM     80  C   UNL     1       9.531  17.820  -2.653  1.00  0.00     0.131 A 
ATOM     81  C   UNL     1       8.414  19.288  -0.592  1.00  0.00     0.055 A 
ATOM     82  C   UNL     1       9.855  19.170  -2.514  1.00  0.00     0.041 A 
ATOM     83  F   UNL     1      10.071  17.156  -3.687  1.00  0.00    -0.206 F 
ATOM     84  C   UNL     1       9.284  19.916  -1.488  1.00  0.00     0.022 A 
BRANCH  81  85
ATOM     85  S   UNL     1       7.538  20.268   0.658  1.00  0.00     0.124 S 
ATOM     86  O   UNL     1       6.142  20.022   0.313  1.00  0.00    -0.237 OA
ATOM     87  O   UNL     1       8.001  19.669   1.905  1.00  0.00    -0.237 OA
ATOM     88  O   UNL     1       8.006  21.632   0.415  1.00  0.00    -0.744 OA
ENDBRANCH  81  85
ENDBRANCH  55  78
ENDBRANCH  29  30
ENDBRANCH  21  24
ENDBRANCH  19  20
ENDBRANCH   1  19
TORSDOF 15
