REMARK SMILES O=C(NCCCNC(=O)[C@@H]1CCCC[C@H]1C(=O)Nc1ccccc1C(=O)N1CCOCC1)c1ccc(-c2c3nc(c(-c4cc(S(=O)(=O)[O-])ccc4F)c4ccc([nH]4)c(-c4cc(S(=O)(=O)[O-])ccc4F)c4nc(c(-c5cc(S(=O)(=O)[O-])ccc5F)c5ccc2[nH]5)C=C4)C=C3)cc1
REMARK SMILES IDX 5 1 4 2 3 3 1 4 2 5 33 7 34 8 95 9 35 10 94 11 36 12 37 13
REMARK SMILES IDX 38 14 88 15 39 16 93 17 87 18 89 19 40 20 92 21 86 22 85 23
REMARK SMILES IDX 41 25 73 26 53 27 72 28 54 29 57 30 71 31 90 32 55 33 56 34
REMARK SMILES IDX 70 36 91 37 58 38 42 39 43 40 51 41 44 42 50 43 52 44 49 45
REMARK SMILES IDX 45 46 46 47 47 48 48 49 74 50 75 51 83 52 76 53 82 54 84 55
REMARK SMILES IDX 81 56 77 57 78 58 79 59 80 60 59 61 60 62 68 63 61 64 67 65
REMARK SMILES IDX 69 66 66 67 62 68 63 69 64 70 65 71 6 72 7 73 8 74 9 76
REMARK SMILES IDX 10 77 11 78 15 79 12 80 14 81 13 82 16 83 17 84 18 85 19 87
REMARK SMILES IDX 20 88 24 89 21 90 23 91 22 92 25 93 26 94 27 95 28 96 32 97
REMARK SMILES IDX 29 98 31 99 30 100
REMARK H PARENT 3 6 89 24 57 35 7 75 18 86
REMARK Flexibility Score: inf
ROOT
ATOM      1  C   UNL     1       4.327   0.302  -2.415  1.00  0.00     0.042 C 
ENDROOT
BRANCH   1   2
ATOM      2  C   UNL     1       4.212   0.988  -1.060  1.00  0.00     0.118 C 
BRANCH   2   3
ATOM      3  N   UNL     1       2.837   0.958  -0.558  1.00  0.00    -0.352 N 
ATOM      4  O   UNL     1       0.982   0.004   0.299  1.00  0.00    -0.269 OA
ATOM      5  C   UNL     1       2.204   0.022   0.233  1.00  0.00     0.251 C 
ATOM      6  H   UNL     1       2.279   1.723  -0.826  1.00  0.00     0.163 HD
BRANCH   5   7
ATOM      7  C   UNL     1       3.008  -0.955   1.002  1.00  0.00     0.039 A 
ATOM      8  C   UNL     1       4.175  -0.536   1.634  1.00  0.00     0.014 A 
ATOM      9  C   UNL     1       2.584  -2.282   1.132  1.00  0.00     0.014 A 
ATOM     10  C   UNL     1       5.011  -1.466   2.228  1.00  0.00     0.010 A 
ATOM     11  C   UNL     1       3.365  -3.196   1.856  1.00  0.00     0.010 A 
ATOM     12  C   UNL     1       4.599  -2.799   2.392  1.00  0.00    -0.014 A 
BRANCH  12  13
ATOM     13  C   UNL     1       5.456  -3.691   3.219  1.00  0.00     0.031 A 
ATOM     14  C   UNL     1       6.103  -4.920   2.647  1.00  0.00     0.074 A 
ATOM     15  C   UNL     1       5.718  -3.309   4.487  1.00  0.00     0.049 A 
ATOM     16  N   UNL     1       6.938  -5.750   3.221  1.00  0.00    -0.248 NA
ATOM     17  C   UNL     1       5.768  -5.272   1.260  1.00  0.00     0.031 C 
ATOM     18  C   UNL     1       5.130  -2.135   5.145  1.00  0.00     0.029 A 
ATOM     19  N   UNL     1       6.567  -3.820   5.433  1.00  0.00    -0.354 N 
ATOM     20  C   UNL     1       7.229  -6.722   2.271  1.00  0.00     0.074 A 
ATOM     21  C   UNL     1       6.444  -6.402   1.096  1.00  0.00     0.031 C 
ATOM     22  C   UNL     1       5.699  -1.969   6.345  1.00  0.00     0.029 A 
ATOM     23  C   UNL     1       6.608  -3.078   6.592  1.00  0.00     0.049 A 
ATOM     24  H   UNL     1       7.097  -4.638   5.297  1.00  0.00     0.167 HD
ATOM     25  C   UNL     1       8.082  -7.773   2.371  1.00  0.00     0.034 A 
ATOM     26  C   UNL     1       7.278  -3.280   7.743  1.00  0.00     0.034 A 
ATOM     27  C   UNL     1       8.848  -8.075   3.560  1.00  0.00     0.049 A 
ATOM     28  C   UNL     1       8.177  -4.481   7.838  1.00  0.00     0.074 A 
ATOM     29  C   UNL     1       9.735  -9.117   3.773  1.00  0.00     0.029 A 
ATOM     30  N   UNL     1       8.818  -7.339   4.739  1.00  0.00    -0.354 N 
ATOM     31  N   UNL     1       8.438  -5.390   6.926  1.00  0.00    -0.248 NA
ATOM     32  C   UNL     1       8.875  -4.682   9.111  1.00  0.00     0.031 C 
ATOM     33  C   UNL     1      10.184  -9.052   5.096  1.00  0.00     0.029 A 
ATOM     34  C   UNL     1       9.649  -7.920   5.688  1.00  0.00     0.049 A 
ATOM     35  H   UNL     1       8.286  -6.523   4.881  1.00  0.00     0.167 HD
ATOM     36  C   UNL     1       9.342  -6.266   7.516  1.00  0.00     0.074 A 
ATOM     37  C   UNL     1       9.613  -5.746   8.842  1.00  0.00     0.031 C 
ATOM     38  C   UNL     1       9.890  -7.403   7.016  1.00  0.00     0.034 A 
BRANCH  25  39
ATOM     39  C   UNL     1       8.204  -8.694   1.179  1.00  0.00     0.023 A 
ATOM     40  C   UNL     1       8.723  -8.250  -0.050  1.00  0.00     0.031 A 
ATOM     41  C   UNL     1       7.801 -10.039   1.273  1.00  0.00     0.131 A 
ATOM     42  C   UNL     1       8.776  -9.125  -1.147  1.00  0.00     0.055 A 
ATOM     43  C   UNL     1       7.928 -10.925   0.200  1.00  0.00     0.041 A 
ATOM     44  F   UNL     1       7.276 -10.518   2.412  1.00  0.00    -0.206 F 
ATOM     45  C   UNL     1       8.408 -10.466  -1.023  1.00  0.00     0.022 A 
BRANCH  42  46
ATOM     46  S   UNL     1       9.219  -8.455  -2.774  1.00  0.00     0.124 S 
ATOM     47  O   UNL     1       8.182  -7.445  -2.970  1.00  0.00    -0.237 OA
ATOM     48  O   UNL     1      10.569  -7.949  -2.552  1.00  0.00    -0.237 OA
ATOM     49  O   UNL     1       9.125  -9.613  -3.660  1.00  0.00    -0.744 OA
ENDBRANCH  42  46
ENDBRANCH  25  39
BRANCH  26  50
ATOM     50  C   UNL     1       7.073  -2.369   8.907  1.00  0.00     0.023 A 
ATOM     51  C   UNL     1       8.140  -1.667   9.487  1.00  0.00     0.031 A 
ATOM     52  C   UNL     1       5.800  -2.231   9.495  1.00  0.00     0.131 A 
ATOM     53  C   UNL     1       7.928  -0.910  10.651  1.00  0.00     0.055 A 
ATOM     54  C   UNL     1       5.580  -1.416  10.604  1.00  0.00     0.041 A 
ATOM     55  F   UNL     1       4.742  -2.883   8.987  1.00  0.00    -0.206 F 
ATOM     56  C   UNL     1       6.652  -0.764  11.201  1.00  0.00     0.022 A 
BRANCH  53  57
ATOM     57  S   UNL     1       9.368  -0.222  11.513  1.00  0.00     0.124 S 
ATOM     58  O   UNL     1      10.189  -1.411  11.713  1.00  0.00    -0.237 OA
ATOM     59  O   UNL     1       9.867   0.747  10.543  1.00  0.00    -0.237 OA
ATOM     60  O   UNL     1       8.793   0.353  12.727  1.00  0.00    -0.744 OA
ENDBRANCH  53  57
ENDBRANCH  26  50
BRANCH  38  61
ATOM     61  C   UNL     1      10.860  -8.133   7.914  1.00  0.00     0.023 A 
ATOM     62  C   UNL     1      10.450  -8.689   9.140  1.00  0.00     0.031 A 
ATOM     63  C   UNL     1      12.220  -8.221   7.571  1.00  0.00     0.131 A 
ATOM     64  C   UNL     1      11.403  -9.227  10.016  1.00  0.00     0.055 A 
ATOM     65  C   UNL     1      13.151  -8.830   8.413  1.00  0.00     0.041 A 
ATOM     66  F   UNL     1      12.670  -7.704   6.417  1.00  0.00    -0.206 F 
ATOM     67  C   UNL     1      12.748  -9.319   9.653  1.00  0.00     0.022 A 
BRANCH  64  68
ATOM     68  S   UNL     1      10.881  -9.674  11.695  1.00  0.00     0.124 S 
ATOM     69  O   UNL     1      10.324  -8.416  12.183  1.00  0.00    -0.237 OA
ATOM     70  O   UNL     1       9.919 -10.743  11.448  1.00  0.00    -0.237 OA
ATOM     71  O   UNL     1      12.124 -10.094  12.339  1.00  0.00    -0.744 OA
ENDBRANCH  64  68
ENDBRANCH  38  61
ENDBRANCH  12  13
ENDBRANCH   5   7
ENDBRANCH   2   3
ENDBRANCH   1   2
BRANCH   1  72
ATOM     72  C   UNL     1       3.741   1.151  -3.543  1.00  0.00     0.117 C 
BRANCH  72  73
ATOM     73  N   UNL     1       4.564   2.300  -3.908  1.00  0.00    -0.356 N 
ATOM     74  C   UNL     1       5.905   2.203  -4.216  1.00  0.00     0.223 C 
ATOM     75  H   UNL     1       4.141   3.189  -3.936  1.00  0.00     0.163 HD
ATOM     76  O   UNL     1       6.742   2.248  -3.320  1.00  0.00    -0.275 OA
BRANCH  74  77
ATOM     77  C   UNL     1       6.245   1.932  -5.690  1.00  0.00     0.091 C 
ATOM     78  C   UNL     1       6.186   0.386  -5.752  1.00  0.00     0.014 C 
ATOM     79  C   UNL     1       7.637   2.443  -6.199  1.00  0.00     0.091 C 
ATOM     80  C   UNL     1       6.540  -0.181  -7.107  1.00  0.00     0.001 C 
ATOM     81  C   UNL     1       7.988   1.768  -7.551  1.00  0.00     0.014 C 
ATOM     82  C   UNL     1       7.935   0.258  -7.488  1.00  0.00     0.001 C 
BRANCH  79  83
ATOM     83  C   UNL     1       8.109   3.900  -6.485  1.00  0.00     0.228 C 
ATOM     84  O   UNL     1       9.299   4.184  -6.273  1.00  0.00    -0.274 OA
ATOM     85  N   UNL     1       7.437   4.816  -7.239  1.00  0.00    -0.325 N 
ATOM     86  H   UNL     1       7.984   5.537  -7.625  1.00  0.00     0.169 HD
BRANCH  85  87
ATOM     87  C   UNL     1       6.082   4.863  -7.533  1.00  0.00     0.054 A 
ATOM     88  C   UNL     1       5.754   4.821  -8.895  1.00  0.00     0.027 A 
ATOM     89  C   UNL     1       5.089   4.849  -6.548  1.00  0.00     0.063 A 
ATOM     90  C   UNL     1       4.461   4.487  -9.280  1.00  0.00     0.002 A 
ATOM     91  C   UNL     1       3.795   4.477  -6.950  1.00  0.00     0.016 A 
ATOM     92  C   UNL     1       3.498   4.250  -8.303  1.00  0.00     0.001 A 
BRANCH  89  93
ATOM     93  C   UNL     1       5.330   5.207  -5.097  1.00  0.00     0.256 C 
ATOM     94  O   UNL     1       4.451   5.012  -4.261  1.00  0.00    -0.269 OA
ATOM     95  N   UNL     1       6.551   5.800  -4.756  1.00  0.00    -0.334 N 
ATOM     96  C   UNL     1       6.585   7.253  -4.694  1.00  0.00     0.148 C 
ATOM     97  C   UNL     1       7.371   5.190  -3.700  1.00  0.00     0.148 C 
ATOM     98  C   UNL     1       8.030   7.756  -4.651  1.00  0.00     0.181 C 
ATOM     99  C   UNL     1       8.766   5.813  -3.561  1.00  0.00     0.181 C 
ATOM    100  O   UNL     1       8.702   7.243  -3.491  1.00  0.00    -0.378 OA
ENDBRANCH  89  93
ENDBRANCH  85  87
ENDBRANCH  79  83
ENDBRANCH  74  77
ENDBRANCH  72  73
ENDBRANCH   1  72
TORSDOF 16
