REMARK SMILES CCCCCCNC(=O)Oc1cccc(-c2ccc(CC(=O)NCCCNC(=O)c3ccc(-c4c5nc(c(-c6cc(S(=O)(=O)[O-])ccc6F)c6ccc([nH]6)c(-c6cc(S(=O)(=O)[O-])ccc6F)c6nc(c(-c7cc(S(=O)(=O)[O-])ccc7F)c7ccc4[nH]7)C=C6)C=C5)cc3)cc2F)c1
REMARK SMILES IDX 20 1 19 2 16 3 17 4 94 5 18 6 93 7 95 8 15 9 11 10 12 11
REMARK SMILES IDX 96 12 13 13 14 14 10 15 8 16 7 17 9 19 6 20 5 21 4 22 3 23
REMARK SMILES IDX 2 24 1 25 21 26 22 27 23 28 24 30 25 31 26 32 27 33 28 34
REMARK SMILES IDX 29 36 30 37 31 38 92 39 32 40 91 41 33 42 34 43 35 44 85 45
REMARK SMILES IDX 36 46 90 47 84 48 86 49 37 50 89 51 83 52 82 53 38 55 70 56
REMARK SMILES IDX 50 57 69 58 51 59 54 60 68 61 87 62 52 63 53 64 67 66 88 67
REMARK SMILES IDX 55 68 39 69 40 70 48 71 41 72 47 73 49 74 46 75 42 76 43 77
REMARK SMILES IDX 44 78 45 79 71 80 72 81 80 82 73 83 79 84 81 85 78 86 74 87
REMARK SMILES IDX 75 88 76 89 77 90 56 91 57 92 65 93 58 94 64 95 66 96 63 97
REMARK SMILES IDX 59 98 60 99 61 100 62 101
REMARK H PARENT 7 18 23 29 27 35 86 54 54 65
REMARK Flexibility Score: inf
ROOT
ATOM      1  C   UNL     1      -4.658  11.144   7.774  1.00  0.00     0.135 C 
ENDROOT
BRANCH   1   2
ATOM      2  C   UNL     1      -4.723   9.650   7.577  1.00  0.00    -0.036 A 
ATOM      3  C   UNL     1      -4.955   6.852   7.154  1.00  0.00     0.018 A 
ATOM      4  C   UNL     1      -5.173   7.415   8.423  1.00  0.00     0.012 A 
ATOM      5  C   UNL     1      -4.587   7.723   6.118  1.00  0.00     0.131 A 
ATOM      6  C   UNL     1      -5.056   8.794   8.634  1.00  0.00     0.005 A 
ATOM      7  C   UNL     1      -4.460   9.095   6.321  1.00  0.00     0.044 A 
ATOM      8  F   UNL     1      -4.371   7.256   4.878  1.00  0.00    -0.206 F 
BRANCH   3   9
ATOM      9  C   UNL     1      -5.109   5.407   6.921  1.00  0.00    -0.012 A 
ATOM     10  C   UNL     1      -4.271   3.314   6.014  1.00  0.00     0.133 A 
ATOM     11  C   UNL     1      -5.433   2.651   6.397  1.00  0.00     0.047 A 
ATOM     12  C   UNL     1      -4.109   4.678   6.258  1.00  0.00     0.056 A 
ATOM     13  C   UNL     1      -6.433   3.357   7.060  1.00  0.00     0.004 A 
ATOM     14  C   UNL     1      -6.270   4.722   7.322  1.00  0.00     0.009 A 
BRANCH  10  15
ATOM     15  O   UNL     1      -3.337   2.584   5.260  1.00  0.00    -0.410 OA
BRANCH  15  16
ATOM     16  C   UNL     1      -1.989   2.692   5.560  1.00  0.00     0.412 C 
ATOM     17  N   UNL     1      -1.184   2.036   4.672  1.00  0.00    -0.321 N 
ATOM     18  H   UNL     1      -0.216   2.066   4.849  1.00  0.00     0.167 HD
ATOM     19  O   UNL     1      -1.501   3.295   6.515  1.00  0.00    -0.224 OA
BRANCH  17  20
ATOM     20  C   UNL     1      -1.608   1.301   3.497  1.00  0.00     0.119 C 
BRANCH  20  21
ATOM     21  C   UNL     1      -0.998   1.873   2.217  1.00  0.00     0.021 C 
BRANCH  21  22
ATOM     22  C   UNL     1       0.532   1.797   2.141  1.00  0.00     0.002 C 
BRANCH  22  23
ATOM     23  C   UNL     1       1.131   0.391   2.252  1.00  0.00    -0.000 C 
BRANCH  23  24
ATOM     24  C   UNL     1       0.658  -0.610   1.194  1.00  0.00    -0.003 C 
ATOM     25  C   UNL     1       1.039  -0.211  -0.224  1.00  0.00     0.004 C 
ENDBRANCH  23  24
ENDBRANCH  22  23
ENDBRANCH  21  22
ENDBRANCH  20  21
ENDBRANCH  17  20
ENDBRANCH  15  16
ENDBRANCH  10  15
ENDBRANCH   3   9
ENDBRANCH   1   2
BRANCH   1  26
ATOM     26  C   UNL     1      -5.946  11.752   8.302  1.00  0.00     0.224 C 
ATOM     27  O   UNL     1      -6.014  12.216   9.442  1.00  0.00    -0.275 OA
ATOM     28  N   UNL     1      -7.048  11.829   7.499  1.00  0.00    -0.356 N 
ATOM     29  H   UNL     1      -7.825  12.290   7.891  1.00  0.00     0.163 HD
BRANCH  28  30
ATOM     30  C   UNL     1      -7.237  11.327   6.149  1.00  0.00     0.117 C 
BRANCH  30  31
ATOM     31  C   UNL     1      -8.051  10.035   6.117  1.00  0.00     0.042 C 
BRANCH  31  32
ATOM     32  C   UNL     1      -9.510  10.205   6.532  1.00  0.00     0.118 C 
BRANCH  32  33
ATOM     33  N   UNL     1     -10.249  11.076   5.628  1.00  0.00    -0.352 N 
ATOM     34  C   UNL     1     -11.397  10.845   4.911  1.00  0.00     0.251 C 
ATOM     35  H   UNL     1      -9.863  11.974   5.513  1.00  0.00     0.163 HD
ATOM     36  O   UNL     1     -11.733  11.658   4.053  1.00  0.00    -0.269 OA
BRANCH  34  37
ATOM     37  C   UNL     1     -12.214   9.633   5.148  1.00  0.00     0.039 A 
ATOM     38  C   UNL     1     -12.791   8.986   4.050  1.00  0.00     0.014 A 
ATOM     39  C   UNL     1     -12.453   9.156   6.439  1.00  0.00     0.014 A 
ATOM     40  C   UNL     1     -13.557   7.833   4.243  1.00  0.00     0.010 A 
ATOM     41  C   UNL     1     -13.155   7.966   6.624  1.00  0.00     0.010 A 
ATOM     42  C   UNL     1     -13.720   7.294   5.529  1.00  0.00    -0.014 A 
BRANCH  42  43
ATOM     43  C   UNL     1     -14.488   6.040   5.749  1.00  0.00     0.031 A 
ATOM     44  C   UNL     1     -15.753   6.062   6.564  1.00  0.00     0.074 A 
ATOM     45  C   UNL     1     -14.018   4.873   5.265  1.00  0.00     0.049 A 
ATOM     46  N   UNL     1     -16.517   5.067   6.938  1.00  0.00    -0.248 NA
ATOM     47  C   UNL     1     -16.199   7.377   7.046  1.00  0.00     0.031 C 
ATOM     48  C   UNL     1     -12.790   4.718   4.483  1.00  0.00     0.029 A 
ATOM     49  N   UNL     1     -14.512   3.597   5.364  1.00  0.00    -0.354 N 
ATOM     50  C   UNL     1     -17.528   5.634   7.708  1.00  0.00     0.074 A 
ATOM     51  C   UNL     1     -17.235   7.049   7.802  1.00  0.00     0.031 C 
ATOM     52  C   UNL     1     -12.643   3.426   4.148  1.00  0.00     0.029 A 
ATOM     53  C   UNL     1     -13.735   2.653   4.732  1.00  0.00     0.049 A 
ATOM     54  H   UNL     1     -15.344   3.377   5.842  1.00  0.00     0.167 HD
ATOM     55  C   UNL     1     -18.614   5.036   8.262  1.00  0.00     0.034 A 
ATOM     56  C   UNL     1     -13.880   1.316   4.643  1.00  0.00     0.034 A 
ATOM     57  C   UNL     1     -18.892   3.623   8.157  1.00  0.00     0.049 A 
ATOM     58  C   UNL     1     -15.067   0.664   5.307  1.00  0.00     0.074 A 
ATOM     59  C   UNL     1     -19.977   2.917   8.648  1.00  0.00     0.029 A 
ATOM     60  N   UNL     1     -18.074   2.696   7.522  1.00  0.00    -0.354 N 
ATOM     61  N   UNL     1     -16.032   1.218   6.004  1.00  0.00    -0.248 NA
ATOM     62  C   UNL     1     -15.186  -0.792   5.162  1.00  0.00     0.031 C 
ATOM     63  C   UNL     1     -19.781   1.559   8.371  1.00  0.00     0.029 A 
ATOM     64  C   UNL     1     -18.614   1.423   7.636  1.00  0.00     0.049 A 
ATOM     65  H   UNL     1     -17.232   2.911   7.059  1.00  0.00     0.167 HD
ATOM     66  C   UNL     1     -16.893   0.179   6.350  1.00  0.00     0.074 A 
ATOM     67  C   UNL     1     -16.336  -1.029   5.777  1.00  0.00     0.031 C 
ATOM     68  C   UNL     1     -18.043   0.223   7.070  1.00  0.00     0.034 A 
BRANCH  55  69
ATOM     69  C   UNL     1     -19.556   5.915   9.053  1.00  0.00     0.023 A 
ATOM     70  C   UNL     1     -20.230   6.996   8.457  1.00  0.00     0.031 A 
ATOM     71  C   UNL     1     -19.747   5.706  10.431  1.00  0.00     0.131 A 
ATOM     72  C   UNL     1     -20.979   7.880   9.248  1.00  0.00     0.055 A 
ATOM     73  C   UNL     1     -20.571   6.535  11.196  1.00  0.00     0.041 A 
ATOM     74  F   UNL     1     -19.118   4.704  11.064  1.00  0.00    -0.206 F 
ATOM     75  C   UNL     1     -21.176   7.643  10.609  1.00  0.00     0.022 A 
BRANCH  72  76
ATOM     76  S   UNL     1     -21.541   9.438   8.505  1.00  0.00     0.124 S 
ATOM     77  O   UNL     1     -20.278  10.024   8.062  1.00  0.00    -0.237 OA
ATOM     78  O   UNL     1     -22.438   8.979   7.451  1.00  0.00    -0.237 OA
ATOM     79  O   UNL     1     -22.186  10.134   9.616  1.00  0.00    -0.744 OA
ENDBRANCH  72  76
ENDBRANCH  55  69
BRANCH  56  80
ATOM     80  C   UNL     1     -12.881   0.499   3.897  1.00  0.00     0.023 A 
ATOM     81  C   UNL     1     -13.244  -0.191   2.730  1.00  0.00     0.031 A 
ATOM     82  C   UNL     1     -11.559   0.369   4.357  1.00  0.00     0.131 A 
ATOM     83  C   UNL     1     -12.309  -1.014   2.084  1.00  0.00     0.055 A 
ATOM     84  C   UNL     1     -10.617  -0.410   3.682  1.00  0.00     0.041 A 
ATOM     85  F   UNL     1     -11.158   1.011   5.466  1.00  0.00    -0.206 F 
ATOM     86  C   UNL     1     -10.994  -1.117   2.545  1.00  0.00     0.022 A 
BRANCH  83  87
ATOM     87  S   UNL     1     -12.858  -2.011   0.672  1.00  0.00     0.124 S 
ATOM     88  O   UNL     1     -13.914  -2.818   1.271  1.00  0.00    -0.237 OA
ATOM     89  O   UNL     1     -13.289  -0.986  -0.273  1.00  0.00    -0.237 OA
ATOM     90  O   UNL     1     -11.654  -2.744   0.285  1.00  0.00    -0.744 OA
ENDBRANCH  83  87
ENDBRANCH  56  80
BRANCH  68  91
ATOM     91  C   UNL     1     -18.801  -1.074   7.230  1.00  0.00     0.023 A 
ATOM     92  C   UNL     1     -18.285  -2.151   7.971  1.00  0.00     0.031 A 
ATOM     93  C   UNL     1     -20.057  -1.236   6.616  1.00  0.00     0.131 A 
ATOM     94  C   UNL     1     -18.993  -3.361   8.032  1.00  0.00     0.055 A 
ATOM     95  C   UNL     1     -20.785  -2.421   6.732  1.00  0.00     0.041 A 
ATOM     96  F   UNL     1     -20.597  -0.242   5.893  1.00  0.00    -0.206 F 
ATOM     97  C   UNL     1     -20.248  -3.497   7.432  1.00  0.00     0.022 A 
BRANCH  94  98
ATOM     98  S   UNL     1     -18.209  -4.791   8.828  1.00  0.00     0.124 S 
ATOM     99  O   UNL     1     -16.986  -4.941   8.046  1.00  0.00    -0.237 OA
ATOM    100  O   UNL     1     -18.036  -4.329  10.201  1.00  0.00    -0.237 OA
ATOM    101  O   UNL     1     -19.191  -5.861   8.654  1.00  0.00    -0.744 OA
ENDBRANCH  94  98
ENDBRANCH  68  91
ENDBRANCH  42  43
ENDBRANCH  34  37
ENDBRANCH  32  33
ENDBRANCH  31  32
ENDBRANCH  30  31
ENDBRANCH  28  30
ENDBRANCH   1  26
TORSDOF 22
