REMARK SMILES CC(C)N1C[C@@]2(CCCN(c3ccc(C(=O)NCCCNC(=O)c4ccc(-c5c6nc(c(-c7cc(S(=O)(=O)[O-])ccc7F)c7ccc([nH]7)c(-c7cc(S(=O)(=O)[O-])ccc7F)c7nc(c(-c8cc(S(=O)(=O)[O-])ccc8F)c8ccc5[nH]8)C=C7)C=C6)cc4)cn3)C2)CCC1=O
REMARK SMILES IDX 19 1 18 2 17 3 15 4 16 5 14 7 11 8 12 9 88 10 13 11 87 12
REMARK SMILES IDX 10 13 4 14 5 15 92 16 6 17 91 18 93 19 7 20 89 21 90 22 8 23
REMARK SMILES IDX 9 24 2 25 1 26 3 27 20 28 21 29 22 30 23 32 24 33 25 34
REMARK SMILES IDX 86 35 26 36 85 37 27 38 28 39 29 40 79 41 30 42 84 43 78 44
REMARK SMILES IDX 80 45 31 46 83 47 77 48 76 49 32 51 64 52 44 53 63 54 45 55
REMARK SMILES IDX 48 56 62 57 81 58 46 59 47 60 61 62 82 63 49 64 33 65 34 66
REMARK SMILES IDX 42 67 35 68 41 69 43 70 40 71 36 72 37 73 38 74 39 75 65 76
REMARK SMILES IDX 66 77 74 78 67 79 73 80 75 81 72 82 68 83 69 84 70 85 71 86
REMARK SMILES IDX 50 87 51 88 59 89 52 90 58 91 60 92 57 93 53 94 54 95 55 96
REMARK SMILES IDX 56 97
REMARK H PARENT 17 6 21 31 80 50 48 61
REMARK Flexibility Score: inf
ROOT
ATOM      1  C   UNL     1      -6.884   2.754   0.509  1.00  0.00     0.042 C 
ENDROOT
BRANCH   1   2
ATOM      2  C   UNL     1      -7.238   1.665  -0.498  1.00  0.00     0.118 C 
BRANCH   2   3
ATOM      3  N   UNL     1      -7.176   2.109  -1.886  1.00  0.00    -0.352 N 
ATOM      4  C   UNL     1      -6.520   1.535  -2.958  1.00  0.00     0.252 C 
ATOM      5  O   UNL     1      -6.506   2.070  -4.051  1.00  0.00    -0.269 OA
ATOM      6  H   UNL     1      -7.671   2.935  -2.088  1.00  0.00     0.163 HD
BRANCH   4   7
ATOM      7  C   UNL     1      -5.786   0.280  -2.747  1.00  0.00     0.058 A 
ATOM      8  C   UNL     1      -4.190  -1.767  -1.816  1.00  0.00     0.128 A 
ATOM      9  C   UNL     1      -5.580  -1.909  -1.802  1.00  0.00     0.048 A 
ATOM     10  N   UNL     1      -3.628  -0.728  -2.475  1.00  0.00    -0.239 NA
ATOM     11  C   UNL     1      -6.390  -0.867  -2.253  1.00  0.00     0.019 A 
ATOM     12  C   UNL     1      -4.422   0.271  -2.933  1.00  0.00     0.127 A 
BRANCH   8  13
ATOM     13  N   UNL     1      -3.356  -2.563  -1.046  1.00  0.00    -0.356 N 
ATOM     14  N   UNL     1      -0.881   0.351   1.309  1.00  0.00    -0.340 N 
ATOM     15  C   UNL     1      -1.459  -0.882   1.833  1.00  0.00     0.128 C 
ATOM     16  C   UNL     1      -1.661   1.365   0.771  1.00  0.00     0.222 C 
ATOM     17  C   UNL     1      -2.684  -1.393   1.053  1.00  0.00     0.006 C 
ATOM     18  C   UNL     1      -3.103   1.044   0.442  1.00  0.00     0.101 C 
ATOM     19  O   UNL     1      -1.216   2.466   0.444  1.00  0.00    -0.275 OA
ATOM     20  C   UNL     1      -3.284  -2.606   1.823  1.00  0.00     0.012 C 
ATOM     21  C   UNL     1      -2.247  -1.863  -0.371  1.00  0.00     0.127 C 
ATOM     22  C   UNL     1      -3.680  -0.217   1.060  1.00  0.00     0.020 C 
ATOM     23  C   UNL     1      -4.327  -3.399   1.025  1.00  0.00     0.022 C 
ATOM     24  C   UNL     1      -3.808  -3.767  -0.364  1.00  0.00     0.118 C 
BRANCH  14  25
ATOM     25  C   UNL     1       0.586   0.483   1.383  1.00  0.00     0.078 C 
ATOM     26  C   UNL     1       1.196   0.192   0.012  1.00  0.00     0.031 C 
ATOM     27  C   UNL     1       1.099   1.806   1.953  1.00  0.00     0.031 C 
ENDBRANCH  14  25
ENDBRANCH   8  13
ENDBRANCH   4   7
ENDBRANCH   2   3
ENDBRANCH   1   2
BRANCH   1  28
ATOM     28  C   UNL     1      -7.879   3.905   0.595  1.00  0.00     0.118 C 
BRANCH  28  29
ATOM     29  N   UNL     1      -9.190   3.497   1.079  1.00  0.00    -0.352 N 
ATOM     30  C   UNL     1      -9.923   3.928   2.160  1.00  0.00     0.251 C 
ATOM     31  H   UNL     1      -9.625   2.795   0.542  1.00  0.00     0.163 HD
ATOM     32  O   UNL     1     -10.951   3.322   2.455  1.00  0.00    -0.269 OA
BRANCH  30  33
ATOM     33  C   UNL     1      -9.477   5.077   2.987  1.00  0.00     0.039 A 
ATOM     34  C   UNL     1      -9.660   5.019   4.373  1.00  0.00     0.014 A 
ATOM     35  C   UNL     1      -8.906   6.216   2.417  1.00  0.00     0.014 A 
ATOM     36  C   UNL     1      -9.198   6.060   5.186  1.00  0.00     0.010 A 
ATOM     37  C   UNL     1      -8.369   7.212   3.233  1.00  0.00     0.010 A 
ATOM     38  C   UNL     1      -8.506   7.146   4.628  1.00  0.00    -0.014 A 
BRANCH  38  39
ATOM     39  C   UNL     1      -7.920   8.219   5.478  1.00  0.00     0.031 A 
ATOM     40  C   UNL     1      -8.385   9.644   5.330  1.00  0.00     0.074 A 
ATOM     41  C   UNL     1      -6.913   7.926   6.327  1.00  0.00     0.049 A 
ATOM     42  N   UNL     1      -7.925  10.731   5.896  1.00  0.00    -0.248 NA
ATOM     43  C   UNL     1      -9.495   9.879   4.394  1.00  0.00     0.031 C 
ATOM     44  C   UNL     1      -6.343   6.593   6.535  1.00  0.00     0.029 A 
ATOM     45  N   UNL     1      -6.181   8.731   7.165  1.00  0.00    -0.354 N 
ATOM     46  C   UNL     1      -8.670  11.781   5.366  1.00  0.00     0.074 A 
ATOM     47  C   UNL     1      -9.573  11.201   4.394  1.00  0.00     0.031 C 
ATOM     48  C   UNL     1      -5.369   6.669   7.456  1.00  0.00     0.029 A 
ATOM     49  C   UNL     1      -5.208   8.059   7.870  1.00  0.00     0.049 A 
ATOM     50  H   UNL     1      -6.338   9.699   7.253  1.00  0.00     0.167 HD
ATOM     51  C   UNL     1      -8.619  13.101   5.675  1.00  0.00     0.034 A 
ATOM     52  C   UNL     1      -4.282   8.511   8.738  1.00  0.00     0.034 A 
ATOM     53  C   UNL     1      -7.730  13.661   6.665  1.00  0.00     0.049 A 
ATOM     54  C   UNL     1      -4.234   9.984   9.055  1.00  0.00     0.074 A 
ATOM     55  C   UNL     1      -7.646  14.971   7.106  1.00  0.00     0.029 A 
ATOM     56  N   UNL     1      -6.763  12.947   7.362  1.00  0.00    -0.354 N 
ATOM     57  N   UNL     1      -4.981  10.956   8.584  1.00  0.00    -0.248 NA
ATOM     58  C   UNL     1      -3.224  10.419  10.028  1.00  0.00     0.031 C 
ATOM     59  C   UNL     1      -6.589  15.061   8.019  1.00  0.00     0.029 A 
ATOM     60  C   UNL     1      -6.060  13.794   8.206  1.00  0.00     0.049 A 
ATOM     61  H   UNL     1      -6.601  11.980   7.271  1.00  0.00     0.167 HD
ATOM     62  C   UNL     1      -4.550  12.112   9.229  1.00  0.00     0.074 A 
ATOM     63  C   UNL     1      -3.489  11.713  10.130  1.00  0.00     0.031 C 
ATOM     64  C   UNL     1      -4.996  13.387   9.093  1.00  0.00     0.034 A 
BRANCH  51  65
ATOM     65  C   UNL     1      -9.536  14.029   4.912  1.00  0.00     0.023 A 
ATOM     66  C   UNL     1     -10.936  13.915   4.987  1.00  0.00     0.031 A 
ATOM     67  C   UNL     1      -9.004  15.025   4.074  1.00  0.00     0.131 A 
ATOM     68  C   UNL     1     -11.750  14.720   4.178  1.00  0.00     0.055 A 
ATOM     69  C   UNL     1      -9.823  15.882   3.335  1.00  0.00     0.041 A 
ATOM     70  F   UNL     1      -7.676  15.173   3.946  1.00  0.00    -0.206 F 
ATOM     71  C   UNL     1     -11.205  15.721   3.371  1.00  0.00     0.022 A 
BRANCH  68  72
ATOM     72  S   UNL     1     -13.521  14.339   4.081  1.00  0.00     0.124 S 
ATOM     73  O   UNL     1     -13.499  12.958   3.606  1.00  0.00    -0.237 OA
ATOM     74  O   UNL     1     -13.961  14.534   5.458  1.00  0.00    -0.237 OA
ATOM     75  O   UNL     1     -14.030  15.314   3.118  1.00  0.00    -0.744 OA
ENDBRANCH  68  72
ENDBRANCH  51  65
BRANCH  52  76
ATOM     76  C   UNL     1      -3.312   7.569   9.369  1.00  0.00     0.023 A 
ATOM     77  C   UNL     1      -3.330   7.338  10.753  1.00  0.00     0.031 A 
ATOM     78  C   UNL     1      -2.328   6.920   8.603  1.00  0.00     0.131 A 
ATOM     79  C   UNL     1      -2.354   6.516  11.338  1.00  0.00     0.055 A 
ATOM     80  C   UNL     1      -1.391   6.063   9.183  1.00  0.00     0.041 A 
ATOM     81  F   UNL     1      -2.272   7.101   7.274  1.00  0.00    -0.206 F 
ATOM     82  C   UNL     1      -1.392   5.867  10.560  1.00  0.00     0.022 A 
BRANCH  79  83
ATOM     83  S   UNL     1      -2.311   6.369  13.145  1.00  0.00     0.124 S 
ATOM     84  O   UNL     1      -2.136   7.758  13.553  1.00  0.00    -0.237 OA
ATOM     85  O   UNL     1      -3.613   5.776  13.431  1.00  0.00    -0.237 OA
ATOM     86  O   UNL     1      -1.165   5.496  13.389  1.00  0.00    -0.744 OA
ENDBRANCH  79  83
ENDBRANCH  52  76
BRANCH  64  87
ATOM     87  C   UNL     1      -4.365  14.431   9.982  1.00  0.00     0.023 A 
ATOM     88  C   UNL     1      -3.021  14.815   9.838  1.00  0.00     0.031 A 
ATOM     89  C   UNL     1      -5.122  15.039  11.000  1.00  0.00     0.131 A 
ATOM     90  C   UNL     1      -2.458  15.738  10.732  1.00  0.00     0.055 A 
ATOM     91  C   UNL     1      -4.573  16.001  11.849  1.00  0.00     0.041 A 
ATOM     92  F   UNL     1      -6.410  14.709  11.184  1.00  0.00    -0.206 F 
ATOM     93  C   UNL     1      -3.230  16.346  11.726  1.00  0.00     0.022 A 
BRANCH  90  94
ATOM     94  S   UNL     1      -0.677  16.071  10.638  1.00  0.00     0.124 S 
ATOM     95  O   UNL     1      -0.109  14.743  10.848  1.00  0.00    -0.237 OA
ATOM     96  O   UNL     1      -0.533  16.621   9.294  1.00  0.00    -0.237 OA
ATOM     97  O   UNL     1      -0.448  17.022  11.724  1.00  0.00    -0.744 OA
ENDBRANCH  90  94
ENDBRANCH  64  87
ENDBRANCH  38  39
ENDBRANCH  30  33
ENDBRANCH  28  29
ENDBRANCH   1  28
TORSDOF 15
