REMARK SMILES C[C@H](CC(=O)NCCCNC(=O)c1ccc(-c2c3nc(c(-c4cc(S(=O)(=O)[O-])ccc4F)c4ccc([nH]4)c(-c4cc(S(=O)(=O)[O-])ccc4F)c4nc(c(-c5cc(S(=O)(=O)[O-])ccc5F)c5ccc2[nH]5)C=C4)C=C3)cc1)NC(=O)Cc1cn2ccsc2n1
REMARK SMILES IDX 7 1 6 2 4 3 5 4 3 6 2 7 1 8 76 9 77 10 78 12 79 13 80 14
REMARK SMILES IDX 81 15 87 16 82 17 86 18 83 19 85 20 84 21 8 22 9 23 10 24
REMARK SMILES IDX 11 25 12 27 13 28 14 29 75 30 15 31 74 32 16 33 17 34 18 35
REMARK SMILES IDX 68 36 19 37 73 38 67 39 69 40 20 41 72 42 66 43 65 44 21 46
REMARK SMILES IDX 53 47 33 48 52 49 34 50 37 51 51 52 70 53 35 54 36 55 50 57
REMARK SMILES IDX 71 58 38 59 22 60 23 61 31 62 24 63 30 64 32 65 29 66 25 67
REMARK SMILES IDX 26 68 27 69 28 70 54 71 55 72 63 73 56 74 62 75 64 76 61 77
REMARK SMILES IDX 57 78 58 79 59 80 60 81 39 82 40 83 48 84 41 85 47 86 49 87
REMARK SMILES IDX 46 88 42 89 43 90 44 91 45 92
REMARK H PARENT 6 5 76 11 10 26 69 45 37 56
REMARK Flexibility Score: inf
ROOT
ATOM      1  C   UNL     1      -1.944   0.910  -0.586  1.00  0.00     0.117 C 
ENDROOT
BRANCH   1   2
ATOM      2  N   UNL     1      -0.814   1.825  -0.613  1.00  0.00    -0.356 N 
ATOM      3  C   UNL     1       0.452   1.659  -0.145  1.00  0.00     0.222 C 
ATOM      4  O   UNL     1       1.212   2.628  -0.140  1.00  0.00    -0.275 OA
ATOM      5  H   UNL     1      -0.992   2.697  -1.034  1.00  0.00     0.163 HD
BRANCH   3   6
ATOM      6  C   UNL     1       0.933   0.294   0.293  1.00  0.00     0.124 C 
BRANCH   6   7
ATOM      7  C   UNL     1       0.803  -0.061   1.787  1.00  0.00     0.088 C 
ATOM      8  C   UNL     1       1.207   1.093   2.700  1.00  0.00     0.031 C 
BRANCH   7   9
ATOM      9  N   UNL     1      -0.533  -0.537   2.125  1.00  0.00    -0.353 N 
ATOM     10  C   UNL     1      -1.104  -1.774   2.030  1.00  0.00     0.226 C 
ATOM     11  H   UNL     1      -1.130   0.157   2.487  1.00  0.00     0.163 HD
ATOM     12  O   UNL     1      -2.336  -1.813   1.978  1.00  0.00    -0.275 OA
BRANCH  10  13
ATOM     13  C   UNL     1      -0.269  -3.036   2.109  1.00  0.00     0.157 C 
BRANCH  13  14
ATOM     14  C   UNL     1       0.315  -3.515   0.824  1.00  0.00     0.070 A 
ATOM     15  C   UNL     1       1.357  -2.975   0.082  1.00  0.00     0.118 A 
ATOM     16  N   UNL     1      -0.064  -4.746   0.285  1.00  0.00    -0.223 NA
ATOM     17  N   UNL     1       1.536  -3.828  -0.957  1.00  0.00    -0.297 N 
ATOM     18  C   UNL     1       0.702  -4.881  -0.762  1.00  0.00     0.193 A 
ATOM     19  C   UNL     1       2.344  -3.884  -2.065  1.00  0.00     0.104 A 
ATOM     20  S   UNL     1       0.944  -6.087  -1.989  1.00  0.00    -0.105 S 
ATOM     21  C   UNL     1       2.163  -5.032  -2.740  1.00  0.00     0.087 A 
ENDBRANCH  13  14
ENDBRANCH  10  13
ENDBRANCH   7   9
ENDBRANCH   6   7
ENDBRANCH   3   6
ENDBRANCH   1   2
BRANCH   1  22
ATOM     22  C   UNL     1      -2.901   1.271   0.542  1.00  0.00     0.042 C 
BRANCH  22  23
ATOM     23  C   UNL     1      -3.633   2.583   0.326  1.00  0.00     0.118 C 
BRANCH  23  24
ATOM     24  N   UNL     1      -4.690   2.471  -0.663  1.00  0.00    -0.352 N 
ATOM     25  C   UNL     1      -6.050   2.532  -0.489  1.00  0.00     0.251 C 
ATOM     26  H   UNL     1      -4.388   2.331  -1.589  1.00  0.00     0.163 HD
ATOM     27  O   UNL     1      -6.789   2.191  -1.415  1.00  0.00    -0.269 OA
BRANCH  25  28
ATOM     28  C   UNL     1      -6.625   2.977   0.801  1.00  0.00     0.039 A 
ATOM     29  C   UNL     1      -7.746   2.318   1.310  1.00  0.00     0.014 A 
ATOM     30  C   UNL     1      -6.069   4.047   1.509  1.00  0.00     0.014 A 
ATOM     31  C   UNL     1      -8.270   2.694   2.550  1.00  0.00     0.010 A 
ATOM     32  C   UNL     1      -6.521   4.345   2.790  1.00  0.00     0.010 A 
ATOM     33  C   UNL     1      -7.641   3.686   3.319  1.00  0.00    -0.014 A 
BRANCH  33  34
ATOM     34  C   UNL     1      -8.156   4.084   4.657  1.00  0.00     0.031 A 
ATOM     35  C   UNL     1      -8.600   5.505   4.894  1.00  0.00     0.074 A 
ATOM     36  C   UNL     1      -8.170   3.194   5.670  1.00  0.00     0.049 A 
ATOM     37  N   UNL     1      -8.979   6.082   6.005  1.00  0.00    -0.248 NA
ATOM     38  C   UNL     1      -8.580   6.405   3.730  1.00  0.00     0.031 C 
ATOM     39  C   UNL     1      -7.737   1.798   5.574  1.00  0.00     0.029 A 
ATOM     40  N   UNL     1      -8.553   3.331   6.981  1.00  0.00    -0.354 N 
ATOM     41  C   UNL     1      -9.221   7.413   5.678  1.00  0.00     0.074 A 
ATOM     42  C   UNL     1      -8.879   7.570   4.282  1.00  0.00     0.031 C 
ATOM     43  C   UNL     1      -7.907   1.202   6.765  1.00  0.00     0.029 A 
ATOM     44  C   UNL     1      -8.402   2.182   7.725  1.00  0.00     0.049 A 
ATOM     45  H   UNL     1      -8.903   4.172   7.354  1.00  0.00     0.167 HD
ATOM     46  C   UNL     1      -9.709   8.405   6.463  1.00  0.00     0.034 A 
ATOM     47  C   UNL     1      -8.620   1.951   9.036  1.00  0.00     0.034 A 
ATOM     48  C   UNL     1     -10.063   8.225   7.849  1.00  0.00     0.049 A 
ATOM     49  C   UNL     1      -9.127   3.079   9.900  1.00  0.00     0.074 A 
ATOM     50  C   UNL     1     -10.617   9.144   8.723  1.00  0.00     0.029 A 
ATOM     51  N   UNL     1      -9.891   7.049   8.569  1.00  0.00    -0.354 N 
ATOM     52  N   UNL     1      -9.391   4.322   9.565  1.00  0.00    -0.248 NA
ATOM     53  C   UNL     1      -9.373   2.774  11.315  1.00  0.00     0.031 C 
ATOM     54  C   UNL     1     -10.705   8.551   9.986  1.00  0.00     0.029 A 
ATOM     55  C   UNL     1     -10.294   7.231   9.883  1.00  0.00     0.049 A 
ATOM     56  H   UNL     1      -9.536   6.208   8.199  1.00  0.00     0.167 HD
ATOM     57  C   UNL     1      -9.869   4.934  10.721  1.00  0.00     0.074 A 
ATOM     58  C   UNL     1      -9.866   3.922  11.757  1.00  0.00     0.031 C 
ATOM     59  C   UNL     1     -10.280   6.214  10.908  1.00  0.00     0.034 A 
BRANCH  46  60
ATOM     60  C   UNL     1      -9.859   9.776   5.844  1.00  0.00     0.023 A 
ATOM     61  C   UNL     1     -10.714  10.007   4.751  1.00  0.00     0.031 A 
ATOM     62  C   UNL     1      -9.119  10.865   6.338  1.00  0.00     0.131 A 
ATOM     63  C   UNL     1     -10.746  11.270   4.140  1.00  0.00     0.055 A 
ATOM     64  C   UNL     1      -9.224  12.142   5.782  1.00  0.00     0.041 A 
ATOM     65  F   UNL     1      -8.268  10.705   7.365  1.00  0.00    -0.206 F 
ATOM     66  C   UNL     1     -10.029  12.346   4.666  1.00  0.00     0.022 A 
BRANCH  63  67
ATOM     67  S   UNL     1     -11.617  11.444   2.558  1.00  0.00     0.124 S 
ATOM     68  O   UNL     1     -10.918  10.464   1.729  1.00  0.00    -0.237 OA
ATOM     69  O   UNL     1     -12.991  11.114   2.917  1.00  0.00    -0.237 OA
ATOM     70  O   UNL     1     -11.383  12.839   2.191  1.00  0.00    -0.744 OA
ENDBRANCH  63  67
ENDBRANCH  46  60
BRANCH  47  71
ATOM     71  C   UNL     1      -8.345   0.606   9.623  1.00  0.00     0.023 A 
ATOM     72  C   UNL     1      -9.376  -0.165  10.183  1.00  0.00     0.031 A 
ATOM     73  C   UNL     1      -7.037   0.090   9.673  1.00  0.00     0.131 A 
ATOM     74  C   UNL     1      -9.077  -1.383  10.814  1.00  0.00     0.055 A 
ATOM     75  C   UNL     1      -6.754  -1.151  10.246  1.00  0.00     0.041 A 
ATOM     76  F   UNL     1      -6.012   0.785   9.154  1.00  0.00    -0.206 F 
ATOM     77  C   UNL     1      -7.775  -1.889  10.834  1.00  0.00     0.022 A 
BRANCH  74  78
ATOM     78  S   UNL     1     -10.402  -2.252  11.698  1.00  0.00     0.124 S 
ATOM     79  O   UNL     1     -10.830  -1.240  12.657  1.00  0.00    -0.237 OA
ATOM     80  O   UNL     1     -11.338  -2.554  10.621  1.00  0.00    -0.237 OA
ATOM     81  O   UNL     1      -9.723  -3.411  12.274  1.00  0.00    -0.744 OA
ENDBRANCH  74  78
ENDBRANCH  47  71
BRANCH  59  82
ATOM     82  C   UNL     1     -10.815   6.577  12.272  1.00  0.00     0.023 A 
ATOM     83  C   UNL     1      -9.995   6.598  13.413  1.00  0.00     0.031 A 
ATOM     84  C   UNL     1     -12.171   6.918  12.427  1.00  0.00     0.131 A 
ATOM     85  C   UNL     1     -10.549   6.904  14.666  1.00  0.00     0.055 A 
ATOM     86  C   UNL     1     -12.702   7.285  13.664  1.00  0.00     0.041 A 
ATOM     87  F   UNL     1     -13.002   6.912  11.372  1.00  0.00    -0.206 F 
ATOM     88  C   UNL     1     -11.892   7.267  14.795  1.00  0.00     0.022 A 
BRANCH  85  89
ATOM     89  S   UNL     1      -9.509   6.737  16.143  1.00  0.00     0.124 S 
ATOM     90  O   UNL     1      -9.123   5.331  16.085  1.00  0.00    -0.237 OA
ATOM     91  O   UNL     1      -8.445   7.702  15.888  1.00  0.00    -0.237 OA
ATOM     92  O   UNL     1     -10.412   7.087  17.239  1.00  0.00    -0.744 OA
ENDBRANCH  85  89
ENDBRANCH  59  82
ENDBRANCH  33  34
ENDBRANCH  25  28
ENDBRANCH  23  24
ENDBRANCH  22  23
ENDBRANCH   1  22
TORSDOF 17
