REMARK SMILES COc1ccc(C(=O)N2CC[C@@H](C(=O)NCCCNC(=O)c3ccc(-c4c5nc(c(-c6cc(S(=O)(=O)[O-])ccc6F)c6ccc([nH]6)c(-c6cc(S(=O)(=O)[O-])ccc6F)c6nc(c(-c7cc(S(=O)(=O)[O-])ccc7F)c7ccc4[nH]7)C=C6)C=C5)cc3)[C@H]2C)cc1O
REMARK SMILES IDX 17 1 16 2 15 3 13 4 14 5 12 7 9 8 10 9 85 10 11 11 86 12
REMARK SMILES IDX 7 13 8 14 6 15 3 16 4 17 88 18 5 19 87 20 2 21 1 22 89 23
REMARK SMILES IDX 18 25 19 26 20 27 21 29 22 30 23 31 84 32 24 33 83 34 25 35
REMARK SMILES IDX 26 36 27 37 77 38 28 39 82 40 76 41 78 42 29 43 81 44 75 45
REMARK SMILES IDX 74 46 30 48 62 49 42 50 61 51 43 52 46 53 60 54 79 55 44 56
REMARK SMILES IDX 45 57 59 59 80 60 47 61 31 62 32 63 40 64 33 65 39 66 41 67
REMARK SMILES IDX 38 68 34 69 35 70 36 71 37 72 63 73 64 74 72 75 65 76 71 77
REMARK SMILES IDX 73 78 70 79 66 80 67 81 68 82 69 83 48 84 49 85 57 86 50 87
REMARK SMILES IDX 56 88 58 89 55 90 51 91 52 92 53 93 54 94
REMARK H PARENT 15 6 89 24 19 28 78 47 46 58
REMARK Flexibility Score: inf
ROOT
ATOM      1  C   UNL     1       6.591  -1.147   2.925  1.00  0.00     0.042 C 
ENDROOT
BRANCH   1   2
ATOM      2  C   UNL     1       7.374  -2.445   2.729  1.00  0.00     0.117 C 
BRANCH   2   3
ATOM      3  N   UNL     1       7.571  -3.176   3.972  1.00  0.00    -0.356 N 
ATOM      4  C   UNL     1       7.262  -4.435   4.364  1.00  0.00     0.225 C 
ATOM      5  O   UNL     1       7.569  -4.740   5.522  1.00  0.00    -0.275 OA
ATOM      6  H   UNL     1       8.021  -2.647   4.671  1.00  0.00     0.163 HD
BRANCH   4   7
ATOM      7  C   UNL     1       6.592  -5.474   3.480  1.00  0.00     0.102 C 
ATOM      8  N   UNL     1       5.094  -5.405   1.625  1.00  0.00    -0.335 N 
ATOM      9  C   UNL     1       6.244  -6.186   1.217  1.00  0.00     0.121 C 
ATOM     10  C   UNL     1       5.109  -5.284   3.092  1.00  0.00     0.094 C 
ATOM     11  C   UNL     1       7.341  -5.780   2.178  1.00  0.00     0.037 C 
ATOM     12  C   UNL     1       4.382  -4.103   3.708  1.00  0.00     0.032 C 
BRANCH   8  13
ATOM     13  C   UNL     1       3.927  -5.567   0.881  1.00  0.00     0.254 C 
ATOM     14  O   UNL     1       3.665  -6.606   0.280  1.00  0.00    -0.269 OA
BRANCH  13  15
ATOM     15  C   UNL     1       3.033  -4.389   0.718  1.00  0.00     0.043 A 
ATOM     16  C   UNL     1       1.322  -2.176   0.380  1.00  0.00     0.160 A 
ATOM     17  C   UNL     1       0.830  -3.484   0.284  1.00  0.00     0.051 A 
ATOM     18  C   UNL     1       2.680  -1.995   0.649  1.00  0.00     0.158 A 
ATOM     19  C   UNL     1       1.675  -4.587   0.454  1.00  0.00     0.018 A 
ATOM     20  C   UNL     1       3.539  -3.088   0.760  1.00  0.00     0.064 A 
BRANCH  16  21
ATOM     21  O   UNL     1       0.368  -1.208   0.242  1.00  0.00    -0.493 OA
ATOM     22  C   UNL     1       0.757   0.046  -0.310  1.00  0.00     0.278 C 
ENDBRANCH  16  21
BRANCH  18  23
ATOM     23  O   UNL     1       3.250  -0.779   0.895  1.00  0.00    -0.504 OA
ATOM     24  H   UNL     1       2.734   0.001   0.839  1.00  0.00     0.293 HD
ENDBRANCH  18  23
ENDBRANCH  13  15
ENDBRANCH   8  13
ENDBRANCH   4   7
ENDBRANCH   2   3
ENDBRANCH   1   2
BRANCH   1  25
ATOM     25  C   UNL     1       7.240  -0.132   3.858  1.00  0.00     0.118 C 
BRANCH  25  26
ATOM     26  N   UNL     1       8.298   0.628   3.219  1.00  0.00    -0.352 N 
ATOM     27  C   UNL     1       8.319   1.933   2.781  1.00  0.00     0.251 C 
ATOM     28  H   UNL     1       9.136   0.131   3.076  1.00  0.00     0.163 HD
ATOM     29  O   UNL     1       9.263   2.306   2.090  1.00  0.00    -0.269 OA
BRANCH  27  30
ATOM     30  C   UNL     1       7.217   2.877   3.099  1.00  0.00     0.039 A 
ATOM     31  C   UNL     1       6.813   3.789   2.118  1.00  0.00     0.014 A 
ATOM     32  C   UNL     1       6.612   2.916   4.358  1.00  0.00     0.014 A 
ATOM     33  C   UNL     1       5.771   4.687   2.378  1.00  0.00     0.010 A 
ATOM     34  C   UNL     1       5.512   3.745   4.584  1.00  0.00     0.010 A 
ATOM     35  C   UNL     1       5.086   4.651   3.602  1.00  0.00    -0.014 A 
BRANCH  35  36
ATOM     36  C   UNL     1       3.943   5.566   3.878  1.00  0.00     0.031 A 
ATOM     37  C   UNL     1       4.022   6.565   5.004  1.00  0.00     0.074 A 
ATOM     38  C   UNL     1       2.808   5.458   3.159  1.00  0.00     0.049 A 
ATOM     39  N   UNL     1       3.111   7.397   5.442  1.00  0.00    -0.248 NA
ATOM     40  C   UNL     1       5.282   6.606   5.759  1.00  0.00     0.031 C 
ATOM     41  C   UNL     1       2.581   4.498   2.076  1.00  0.00     0.029 A 
ATOM     42  N   UNL     1       1.627   6.154   3.235  1.00  0.00    -0.354 N 
ATOM     43  C   UNL     1       3.679   8.041   6.538  1.00  0.00     0.074 A 
ATOM     44  C   UNL     1       4.988   7.454   6.732  1.00  0.00     0.031 C 
ATOM     45  C   UNL     1       1.348   4.680   1.578  1.00  0.00     0.029 A 
ATOM     46  C   UNL     1       0.679   5.739   2.329  1.00  0.00     0.049 A 
ATOM     47  H   UNL     1       1.473   6.883   3.879  1.00  0.00     0.167 HD
ATOM     48  C   UNL     1       3.169   9.046   7.296  1.00  0.00     0.034 A 
ATOM     49  C   UNL     1      -0.587   6.153   2.128  1.00  0.00     0.034 A 
ATOM     50  C   UNL     1       1.872   9.639   7.075  1.00  0.00     0.049 A 
ATOM     51  C   UNL     1      -1.134   7.275   2.973  1.00  0.00     0.074 A 
ATOM     52  C   UNL     1       1.292  10.715   7.726  1.00  0.00     0.029 A 
ATOM     53  N   UNL     1       0.946   9.202   6.135  1.00  0.00    -0.354 N 
ATOM     54  N   UNL     1      -0.558   7.921   3.960  1.00  0.00    -0.248 NA
ATOM     55  C   UNL     1      -2.495   7.732   2.664  1.00  0.00     0.031 C 
ATOM     56  C   UNL     1      -0.006  10.884   7.228  1.00  0.00     0.029 A 
ATOM     57  C   UNL     1      -0.212   9.962   6.214  1.00  0.00     0.049 A 
ATOM     58  H   UNL     1       1.091   8.460   5.505  1.00  0.00     0.167 HD
ATOM     59  C   UNL     1      -1.481   8.876   4.378  1.00  0.00     0.074 A 
ATOM     60  C   UNL     1      -2.643   8.731   3.523  1.00  0.00     0.031 C 
ATOM     61  C   UNL     1      -1.375   9.793   5.374  1.00  0.00     0.034 A 
BRANCH  48  62
ATOM     62  C   UNL     1       4.013   9.539   8.451  1.00  0.00     0.023 A 
ATOM     63  C   UNL     1       5.284  10.107   8.249  1.00  0.00     0.031 A 
ATOM     64  C   UNL     1       3.562   9.396   9.775  1.00  0.00     0.131 A 
ATOM     65  C   UNL     1       6.096  10.418   9.350  1.00  0.00     0.055 A 
ATOM     66  C   UNL     1       4.340   9.793  10.866  1.00  0.00     0.041 A 
ATOM     67  F   UNL     1       2.366   8.847  10.036  1.00  0.00    -0.206 F 
ATOM     68  C   UNL     1       5.624  10.288  10.658  1.00  0.00     0.022 A 
BRANCH  65  69
ATOM     69  S   UNL     1       7.838  10.826   9.048  1.00  0.00     0.124 S 
ATOM     70  O   UNL     1       8.296   9.645   8.320  1.00  0.00    -0.237 OA
ATOM     71  O   UNL     1       7.743  12.058   8.274  1.00  0.00    -0.237 OA
ATOM     72  O   UNL     1       8.394  10.973  10.393  1.00  0.00    -0.744 OA
ENDBRANCH  65  69
ENDBRANCH  48  62
BRANCH  49  73
ATOM     73  C   UNL     1      -1.428   5.499   1.087  1.00  0.00     0.023 A 
ATOM     74  C   UNL     1      -1.818   6.190  -0.070  1.00  0.00     0.031 A 
ATOM     75  C   UNL     1      -1.857   4.168   1.240  1.00  0.00     0.131 A 
ATOM     76  C   UNL     1      -2.640   5.559  -1.016  1.00  0.00     0.055 A 
ATOM     77  C   UNL     1      -2.642   3.532   0.276  1.00  0.00     0.041 A 
ATOM     78  F   UNL     1      -1.495   3.458   2.320  1.00  0.00    -0.206 F 
ATOM     79  C   UNL     1      -3.045   4.232  -0.856  1.00  0.00     0.022 A 
BRANCH  76  80
ATOM     80  S   UNL     1      -3.212   6.517  -2.447  1.00  0.00     0.124 S 
ATOM     81  O   UNL     1      -3.958   7.593  -1.806  1.00  0.00    -0.237 OA
ATOM     82  O   UNL     1      -1.952   6.895  -3.078  1.00  0.00    -0.237 OA
ATOM     83  O   UNL     1      -4.017   5.556  -3.198  1.00  0.00    -0.744 OA
ENDBRANCH  76  80
ENDBRANCH  49  73
BRANCH  61  84
ATOM     84  C   UNL     1      -2.543  10.728   5.569  1.00  0.00     0.023 A 
ATOM     85  C   UNL     1      -3.789  10.268   6.030  1.00  0.00     0.031 A 
ATOM     86  C   UNL     1      -2.411  12.097   5.276  1.00  0.00     0.131 A 
ATOM     87  C   UNL     1      -4.869  11.158   6.134  1.00  0.00     0.055 A 
ATOM     88  C   UNL     1      -3.473  12.989   5.436  1.00  0.00     0.041 A 
ATOM     89  F   UNL     1      -1.245  12.591   4.830  1.00  0.00    -0.206 F 
ATOM     90  C   UNL     1      -4.714  12.518   5.855  1.00  0.00     0.022 A 
BRANCH  87  91
ATOM     91  S   UNL     1      -6.506  10.498   6.552  1.00  0.00     0.124 S 
ATOM     92  O   UNL     1      -6.728   9.536   5.478  1.00  0.00    -0.237 OA
ATOM     93  O   UNL     1      -6.284   9.932   7.879  1.00  0.00    -0.237 OA
ATOM     94  O   UNL     1      -7.370  11.676   6.518  1.00  0.00    -0.744 OA
ENDBRANCH  87  91
ENDBRANCH  61  84
ENDBRANCH  35  36
ENDBRANCH  27  30
ENDBRANCH  25  26
ENDBRANCH   1  25
TORSDOF 17
