REMARK SMILES CC(C)CCn1cc(C(=O)NCCCNC(=O)c2ccc(-c3c4nc(c(-c5cc(S(=O)(=O)[O-])ccc5F)c5ccc([nH]5)c(-c5cc(S(=O)(=O)[O-])ccc5F)c5nc(c(-c6cc(S(=O)(=O)[O-])ccc6F)c6ccc3[nH]6)C=C5)C=C4)cc2)c(-c2ccoc2)n1
REMARK SMILES IDX 13 1 12 2 11 3 9 4 10 5 8 7 6 8 7 9 87 10 81 11 5 12 4 13
REMARK SMILES IDX 2 14 1 15 3 16 82 17 83 18 86 19 84 20 85 21 14 22 15 23
REMARK SMILES IDX 16 24 17 26 18 27 19 28 80 29 20 30 79 31 21 32 22 33 23 34
REMARK SMILES IDX 73 35 24 36 78 37 72 38 74 39 25 40 77 41 71 42 70 43 26 45
REMARK SMILES IDX 58 46 38 47 57 48 39 49 42 50 56 51 75 52 40 53 41 54 55 56
REMARK SMILES IDX 76 57 43 58 27 59 28 60 36 61 29 62 35 63 37 64 34 65 30 66
REMARK SMILES IDX 31 67 32 68 33 69 59 70 60 71 68 72 61 73 67 74 69 75 66 76
REMARK SMILES IDX 62 77 63 78 64 79 65 80 44 81 45 82 53 83 46 84 52 85 54 86
REMARK SMILES IDX 51 87 47 88 48 89 49 90 50 91
REMARK H PARENT 11 6 15 25 74 44 42 55
REMARK Flexibility Score: inf
ROOT
ATOM      1  C   UNL     1       2.063  -2.517   4.008  1.00  0.00     0.042 C 
ENDROOT
BRANCH   1   2
ATOM      2  C   UNL     1       2.396  -3.423   2.816  1.00  0.00     0.118 C 
BRANCH   2   3
ATOM      3  N   UNL     1       1.871  -4.769   2.973  1.00  0.00    -0.352 N 
ATOM      4  C   UNL     1       0.728  -5.368   2.482  1.00  0.00     0.255 C 
ATOM      5  O   UNL     1       0.618  -6.574   2.648  1.00  0.00    -0.269 OA
ATOM      6  H   UNL     1       2.429  -5.358   3.529  1.00  0.00     0.163 HD
BRANCH   4   7
ATOM      7  C   UNL     1      -0.257  -4.583   1.750  1.00  0.00     0.085 A 
ATOM      8  N   UNL     1      -1.342  -2.892   0.842  1.00  0.00    -0.271 N 
ATOM      9  C   UNL     1      -0.558  -3.245   1.896  1.00  0.00     0.123 A 
ATOM     10  N   UNL     1      -1.798  -3.961   0.163  1.00  0.00    -0.172 NA
ATOM     11  C   UNL     1      -1.202  -5.002   0.771  1.00  0.00     0.108 A 
BRANCH   8  12
ATOM     12  C   UNL     1      -1.700  -1.554   0.403  1.00  0.00     0.144 C 
BRANCH  12  13
ATOM     13  C   UNL     1      -1.137  -0.376   1.223  1.00  0.00     0.027 C 
BRANCH  13  14
ATOM     14  C   UNL     1       0.394  -0.174   1.163  1.00  0.00    -0.016 C 
ATOM     15  C   UNL     1       0.883   0.270  -0.213  1.00  0.00     0.007 C 
ATOM     16  C   UNL     1       0.835   0.832   2.230  1.00  0.00     0.007 C 
ENDBRANCH  13  14
ENDBRANCH  12  13
ENDBRANCH   8  12
BRANCH  11  17
ATOM     17  C   UNL     1      -1.546  -6.383   0.454  1.00  0.00     0.041 A 
ATOM     18  C   UNL     1      -1.625  -6.958  -0.837  1.00  0.00     0.052 A 
ATOM     19  C   UNL     1      -1.909  -7.373   1.339  1.00  0.00     0.205 A 
ATOM     20  C   UNL     1      -2.000  -8.270  -0.644  1.00  0.00     0.195 A 
ATOM     21  O   UNL     1      -2.188  -8.525   0.676  1.00  0.00    -0.472 OA
ENDBRANCH  11  17
ENDBRANCH   4   7
ENDBRANCH   2   3
ENDBRANCH   1   2
BRANCH   1  22
ATOM     22  C   UNL     1       2.988  -2.742   5.193  1.00  0.00     0.118 C 
BRANCH  22  23
ATOM     23  N   UNL     1       4.344  -2.252   4.937  1.00  0.00    -0.352 N 
ATOM     24  C   UNL     1       5.476  -2.407   5.715  1.00  0.00     0.251 C 
ATOM     25  H   UNL     1       4.465  -1.744   4.102  1.00  0.00     0.163 HD
ATOM     26  O   UNL     1       6.426  -1.645   5.576  1.00  0.00    -0.269 OA
BRANCH  24  27
ATOM     27  C   UNL     1       5.512  -3.490   6.714  1.00  0.00     0.039 A 
ATOM     28  C   UNL     1       6.067  -3.296   7.983  1.00  0.00     0.014 A 
ATOM     29  C   UNL     1       4.931  -4.706   6.373  1.00  0.00     0.014 A 
ATOM     30  C   UNL     1       5.943  -4.306   8.936  1.00  0.00     0.010 A 
ATOM     31  C   UNL     1       4.664  -5.625   7.354  1.00  0.00     0.010 A 
ATOM     32  C   UNL     1       5.213  -5.463   8.623  1.00  0.00    -0.014 A 
BRANCH  32  33
ATOM     33  C   UNL     1       4.871  -6.456   9.644  1.00  0.00     0.031 A 
ATOM     34  C   UNL     1       4.142  -5.906  10.823  1.00  0.00     0.074 A 
ATOM     35  C   UNL     1       4.939  -7.785   9.396  1.00  0.00     0.049 A 
ATOM     36  N   UNL     1       4.507  -5.922  12.062  1.00  0.00    -0.248 NA
ATOM     37  C   UNL     1       2.925  -5.109  10.583  1.00  0.00     0.031 C 
ATOM     38  C   UNL     1       5.365  -8.438   8.151  1.00  0.00     0.029 A 
ATOM     39  N   UNL     1       4.488  -8.837  10.136  1.00  0.00    -0.354 N 
ATOM     40  C   UNL     1       3.450  -5.369  12.782  1.00  0.00     0.074 A 
ATOM     41  C   UNL     1       2.632  -4.690  11.815  1.00  0.00     0.031 C 
ATOM     42  C   UNL     1       4.904  -9.706   8.122  1.00  0.00     0.029 A 
ATOM     43  C   UNL     1       4.299 -10.013   9.405  1.00  0.00     0.049 A 
ATOM     44  H   UNL     1       4.311  -8.774  11.102  1.00  0.00     0.167 HD
ATOM     45  C   UNL     1       3.200  -5.743  14.069  1.00  0.00     0.034 A 
ATOM     46  C   UNL     1       3.659 -11.148   9.798  1.00  0.00     0.034 A 
ATOM     47  C   UNL     1       4.344  -6.429  14.634  1.00  0.00     0.049 A 
ATOM     48  C   UNL     1       3.632 -11.126  11.281  1.00  0.00     0.074 A 
ATOM     49  C   UNL     1       5.675  -6.099  14.810  1.00  0.00     0.029 A 
ATOM     50  N   UNL     1       4.286  -7.801  14.749  1.00  0.00    -0.354 N 
ATOM     51  N   UNL     1       4.710 -11.194  12.014  1.00  0.00    -0.248 NA
ATOM     52  C   UNL     1       2.480 -10.524  11.936  1.00  0.00     0.031 C 
ATOM     53  C   UNL     1       6.389  -7.292  14.493  1.00  0.00     0.029 A 
ATOM     54  C   UNL     1       5.460  -8.306  14.245  1.00  0.00     0.049 A 
ATOM     55  H   UNL     1       3.540  -8.324  15.123  1.00  0.00     0.167 HD
ATOM     56  C   UNL     1       4.519 -10.254  13.015  1.00  0.00     0.074 A 
ATOM     57  C   UNL     1       3.087  -9.958  12.984  1.00  0.00     0.031 C 
ATOM     58  C   UNL     1       5.575  -9.585  13.569  1.00  0.00     0.034 A 
BRANCH  45  59
ATOM     59  C   UNL     1       1.823  -5.842  14.700  1.00  0.00     0.023 A 
ATOM     60  C   UNL     1       1.763  -6.287  16.036  1.00  0.00     0.031 A 
ATOM     61  C   UNL     1       0.589  -5.817  14.012  1.00  0.00     0.131 A 
ATOM     62  C   UNL     1       0.570  -6.795  16.579  1.00  0.00     0.055 A 
ATOM     63  C   UNL     1      -0.611  -6.255  14.582  1.00  0.00     0.041 A 
ATOM     64  F   UNL     1       0.475  -5.457  12.729  1.00  0.00    -0.206 F 
ATOM     65  C   UNL     1      -0.620  -6.785  15.860  1.00  0.00     0.022 A 
BRANCH  62  66
ATOM     66  S   UNL     1       0.653  -7.654  18.172  1.00  0.00     0.124 S 
ATOM     67  O   UNL     1       1.707  -8.632  17.920  1.00  0.00    -0.237 OA
ATOM     68  O   UNL     1       0.988  -6.564  19.081  1.00  0.00    -0.237 OA
ATOM     69  O   UNL     1      -0.689  -8.208  18.327  1.00  0.00    -0.744 OA
ENDBRANCH  62  66
ENDBRANCH  45  59
BRANCH  46  70
ATOM     70  C   UNL     1       2.855 -12.089   8.963  1.00  0.00     0.023 A 
ATOM     71  C   UNL     1       2.544 -13.408   9.364  1.00  0.00     0.031 A 
ATOM     72  C   UNL     1       2.173 -11.603   7.823  1.00  0.00     0.131 A 
ATOM     73  C   UNL     1       1.597 -14.174   8.637  1.00  0.00     0.055 A 
ATOM     74  C   UNL     1       1.246 -12.365   7.107  1.00  0.00     0.041 A 
ATOM     75  F   UNL     1       2.321 -10.333   7.414  1.00  0.00    -0.206 F 
ATOM     76  C   UNL     1       0.947 -13.653   7.517  1.00  0.00     0.022 A 
BRANCH  73  77
ATOM     77  S   UNL     1       1.119 -15.843   9.199  1.00  0.00     0.124 S 
ATOM     78  O   UNL     1       2.321 -16.621   8.928  1.00  0.00    -0.237 OA
ATOM     79  O   UNL     1       0.792 -15.621  10.603  1.00  0.00    -0.237 OA
ATOM     80  O   UNL     1      -0.029 -16.174   8.353  1.00  0.00    -0.744 OA
ENDBRANCH  73  77
ENDBRANCH  46  70
BRANCH  58  81
ATOM     81  C   UNL     1       6.981 -10.082  13.284  1.00  0.00     0.023 A 
ATOM     82  C   UNL     1       7.547 -10.225  11.995  1.00  0.00     0.031 A 
ATOM     83  C   UNL     1       7.824 -10.293  14.389  1.00  0.00     0.131 A 
ATOM     84  C   UNL     1       8.905 -10.577  11.854  1.00  0.00     0.055 A 
ATOM     85  C   UNL     1       9.172 -10.617  14.246  1.00  0.00     0.041 A 
ATOM     86  F   UNL     1       7.356 -10.146  15.640  1.00  0.00    -0.206 F 
ATOM     87  C   UNL     1       9.716 -10.766  12.977  1.00  0.00     0.022 A 
BRANCH  84  88
ATOM     88  S   UNL     1       9.643 -10.813  10.204  1.00  0.00     0.124 S 
ATOM     89  O   UNL     1       8.680 -11.663   9.515  1.00  0.00    -0.237 OA
ATOM     90  O   UNL     1       9.758  -9.443   9.709  1.00  0.00    -0.237 OA
ATOM     91  O   UNL     1      10.925 -11.459  10.495  1.00  0.00    -0.744 OA
ENDBRANCH  84  88
ENDBRANCH  58  81
ENDBRANCH  32  33
ENDBRANCH  24  27
ENDBRANCH  22  23
ENDBRANCH   1  22
TORSDOF 17
