REMARK SMILES O=C(CSc1nnc(Cc2ccncc2)n1-c1ccccc1Cl)NCCCNC(=O)c1ccc(-c2c3nc(c(-c4cc(S(=O)(=O)[O-])ccc4F)c4ccc([nH]4)c(-c4cc(S(=O)(=O)[O-])ccc4F)c4nc(c(-c5cc(S(=O)(=O)[O-])ccc5F)c5ccc2[nH]5)C=C4)C=C3)cc1
REMARK SMILES IDX 25 1 24 2 1 3 2 4 3 6 4 7 5 8 6 9 16 10 7 11 8 12 17 13
REMARK SMILES IDX 18 14 22 15 19 16 21 17 23 18 20 19 9 20 10 21 11 22 15 23
REMARK SMILES IDX 12 24 14 25 13 26 26 27 27 28 28 29 29 30 30 32 31 33 32 34
REMARK SMILES IDX 93 35 33 36 92 37 34 38 35 39 36 40 86 41 37 42 91 43 85 44
REMARK SMILES IDX 87 45 38 46 90 47 84 48 83 49 39 51 71 52 51 53 70 54 52 55
REMARK SMILES IDX 55 56 69 57 88 58 53 59 54 60 68 62 89 63 56 64 40 65 41 66
REMARK SMILES IDX 49 67 42 68 48 69 50 70 47 71 43 72 44 73 45 74 46 75 72 76
REMARK SMILES IDX 73 77 81 78 74 79 80 80 82 81 79 82 75 83 76 84 77 85 78 86
REMARK SMILES IDX 57 87 58 88 66 89 59 90 65 91 67 92 64 93 60 94 61 95 62 96
REMARK SMILES IDX 63 97
REMARK H PARENT 24 5 28 31 87 50 55 61
REMARK Flexibility Score: inf
ROOT
ATOM      1  C   UNL     1       2.017  -1.857   1.851  1.00  0.00     0.117 C 
ENDROOT
BRANCH   1   2
ATOM      2  N   UNL     1       2.728  -0.860   1.069  1.00  0.00    -0.355 N 
ATOM      3  O   UNL     1       0.882  -0.072  -0.039  1.00  0.00    -0.274 OA
ATOM      4  C   UNL     1       2.081   0.018   0.225  1.00  0.00     0.230 C 
ATOM      5  H   UNL     1       3.708  -0.809   1.145  1.00  0.00     0.163 HD
BRANCH   4   6
ATOM      6  C   UNL     1       2.965   1.034  -0.476  1.00  0.00     0.178 C 
BRANCH   6   7
ATOM      7  S   UNL     1       4.121   1.896   0.619  1.00  0.00    -0.076 SA
BRANCH   7   8
ATOM      8  C   UNL     1       3.054   2.872   1.579  1.00  0.00     0.196 A 
ATOM      9  N   UNL     1       2.234   2.402   2.489  1.00  0.00    -0.123 NA
ATOM     10  N   UNL     1       3.152   4.247   1.694  1.00  0.00    -0.272 N 
ATOM     11  N   UNL     1       1.801   3.460   3.249  1.00  0.00    -0.134 NA
ATOM     12  C   UNL     1       2.365   4.564   2.790  1.00  0.00     0.142 A 
BRANCH  10  13
ATOM     13  C   UNL     1       3.954   5.123   0.933  1.00  0.00     0.068 A 
ATOM     14  C   UNL     1       5.020   5.777   1.567  1.00  0.00     0.028 A 
ATOM     15  C   UNL     1       3.716   5.316  -0.434  1.00  0.00     0.065 A 
ATOM     16  C   UNL     1       5.861   6.605   0.823  1.00  0.00     0.002 A 
ATOM     17  C   UNL     1       4.569   6.142  -1.169  1.00  0.00     0.023 A 
ATOM     18  Cl  UNL     1       2.333   4.677  -1.245  1.00  0.00    -0.082 Cl
ATOM     19  C   UNL     1       5.641   6.780  -0.543  1.00  0.00     0.002 A 
ENDBRANCH  10  13
BRANCH  12  20
ATOM     20  C   UNL     1       2.163   5.934   3.351  1.00  0.00     0.113 C 
BRANCH  20  21
ATOM     21  C   UNL     1       0.760   6.466   3.169  1.00  0.00    -0.037 A 
ATOM     22  C   UNL     1      -0.305   5.934   3.904  1.00  0.00     0.024 A 
ATOM     23  C   UNL     1       0.493   7.509   2.278  1.00  0.00     0.024 A 
ATOM     24  C   UNL     1      -1.571   6.471   3.729  1.00  0.00     0.111 A 
ATOM     25  C   UNL     1      -0.809   7.981   2.177  1.00  0.00     0.111 A 
ATOM     26  N   UNL     1      -1.846   7.492   2.889  1.00  0.00    -0.265 NA
ENDBRANCH  20  21
ENDBRANCH  12  20
ENDBRANCH   7   8
ENDBRANCH   6   7
ENDBRANCH   4   6
ENDBRANCH   1   2
BRANCH   1  27
ATOM     27  C   UNL     1       2.217  -3.289   1.351  1.00  0.00     0.042 C 
BRANCH  27  28
ATOM     28  C   UNL     1       3.653  -3.775   1.484  1.00  0.00     0.118 C 
BRANCH  28  29
ATOM     29  N   UNL     1       4.082  -3.960   2.869  1.00  0.00    -0.352 N 
ATOM     30  C   UNL     1       5.257  -4.527   3.335  1.00  0.00     0.251 C 
ATOM     31  H   UNL     1       3.456  -3.641   3.559  1.00  0.00     0.163 HD
ATOM     32  O   UNL     1       5.347  -4.887   4.497  1.00  0.00    -0.269 OA
BRANCH  30  33
ATOM     33  C   UNL     1       6.390  -4.703   2.400  1.00  0.00     0.039 A 
ATOM     34  C   UNL     1       7.180  -5.856   2.439  1.00  0.00     0.014 A 
ATOM     35  C   UNL     1       6.652  -3.704   1.465  1.00  0.00     0.014 A 
ATOM     36  C   UNL     1       8.172  -6.034   1.474  1.00  0.00     0.010 A 
ATOM     37  C   UNL     1       7.538  -3.936   0.440  1.00  0.00     0.010 A 
ATOM     38  C   UNL     1       8.331  -5.080   0.457  1.00  0.00    -0.014 A 
BRANCH  38  39
ATOM     39  C   UNL     1       9.218  -5.330  -0.680  1.00  0.00     0.031 A 
ATOM     40  C   UNL     1       8.930  -6.583  -1.435  1.00  0.00     0.074 A 
ATOM     41  C   UNL     1      10.050  -4.392  -1.185  1.00  0.00     0.049 A 
ATOM     42  N   UNL     1       9.705  -7.603  -1.601  1.00  0.00    -0.248 NA
ATOM     43  C   UNL     1       7.573  -6.787  -1.968  1.00  0.00     0.031 C 
ATOM     44  C   UNL     1      10.220  -3.004  -0.742  1.00  0.00     0.029 A 
ATOM     45  N   UNL     1      10.819  -4.439  -2.308  1.00  0.00    -0.354 N 
ATOM     46  C   UNL     1       9.027  -8.479  -2.447  1.00  0.00     0.074 A 
ATOM     47  C   UNL     1       7.666  -8.018  -2.475  1.00  0.00     0.031 C 
ATOM     48  C   UNL     1      10.815  -2.289  -1.721  1.00  0.00     0.029 A 
ATOM     49  C   UNL     1      11.208  -3.190  -2.790  1.00  0.00     0.049 A 
ATOM     50  H   UNL     1      11.078  -5.283  -2.742  1.00  0.00     0.167 HD
ATOM     51  C   UNL     1       9.701  -9.375  -3.225  1.00  0.00     0.034 A 
ATOM     52  C   UNL     1      11.767  -2.908  -3.999  1.00  0.00     0.034 A 
ATOM     53  C   UNL     1      11.067  -9.525  -2.771  1.00  0.00     0.049 A 
ATOM     54  C   UNL     1      12.381  -4.172  -4.482  1.00  0.00     0.074 A 
ATOM     55  C   UNL     1      11.648  -9.866  -1.563  1.00  0.00     0.029 A 
ATOM     56  N   UNL     1      12.070  -8.915  -3.496  1.00  0.00    -0.354 N 
ATOM     57  N   UNL     1      13.381  -4.755  -3.877  1.00  0.00    -0.248 NA
ATOM     58  C   UNL     1      11.574  -5.046  -5.322  1.00  0.00     0.031 C 
ATOM     59  C   UNL     1      12.747  -8.967  -1.427  1.00  0.00     0.029 A 
ATOM     60  C   UNL     1      12.835  -8.211  -2.598  1.00  0.00     0.049 A 
ATOM     61  H   UNL     1      12.211  -8.974  -4.468  1.00  0.00     0.167 HD
ATOM     62  C   UNL     1      13.068  -6.106  -3.890  1.00  0.00     0.074 A 
ATOM     63  C   UNL     1      11.997  -6.235  -4.880  1.00  0.00     0.031 C 
ATOM     64  C   UNL     1      13.487  -6.950  -2.899  1.00  0.00     0.034 A 
BRANCH  51  65
ATOM     65  C   UNL     1       9.265  -9.852  -4.597  1.00  0.00     0.023 A 
ATOM     66  C   UNL     1      10.128 -10.743  -5.268  1.00  0.00     0.031 A 
ATOM     67  C   UNL     1       8.248  -9.277  -5.391  1.00  0.00     0.131 A 
ATOM     68  C   UNL     1      10.051 -10.920  -6.660  1.00  0.00     0.055 A 
ATOM     69  C   UNL     1       8.128  -9.518  -6.765  1.00  0.00     0.041 A 
ATOM     70  F   UNL     1       7.371  -8.387  -4.917  1.00  0.00    -0.206 F 
ATOM     71  C   UNL     1       9.056 -10.311  -7.416  1.00  0.00     0.022 A 
BRANCH  68  72
ATOM     72  S   UNL     1      11.405 -11.796  -7.485  1.00  0.00     0.124 S 
ATOM     73  O   UNL     1      12.566 -11.054  -7.003  1.00  0.00    -0.237 OA
ATOM     74  O   UNL     1      11.246 -13.150  -6.967  1.00  0.00    -0.237 OA
ATOM     75  O   UNL     1      11.101 -11.629  -8.904  1.00  0.00    -0.744 OA
ENDBRANCH  68  72
ENDBRANCH  51  65
BRANCH  52  76
ATOM     76  C   UNL     1      11.539  -1.704  -4.853  1.00  0.00     0.023 A 
ATOM     77  C   UNL     1      12.375  -1.360  -5.940  1.00  0.00     0.031 A 
ATOM     78  C   UNL     1      10.328  -0.980  -4.745  1.00  0.00     0.131 A 
ATOM     79  C   UNL     1      11.991  -0.340  -6.847  1.00  0.00     0.055 A 
ATOM     80  C   UNL     1       9.957   0.029  -5.638  1.00  0.00     0.041 A 
ATOM     81  F   UNL     1       9.413  -1.284  -3.811  1.00  0.00    -0.206 F 
ATOM     82  C   UNL     1      10.784   0.347  -6.701  1.00  0.00     0.022 A 
BRANCH  79  83
ATOM     83  S   UNL     1      13.014   0.048  -8.307  1.00  0.00     0.124 S 
ATOM     84  O   UNL     1      14.144   0.753  -7.714  1.00  0.00    -0.237 OA
ATOM     85  O   UNL     1      13.288  -1.272  -8.862  1.00  0.00    -0.237 OA
ATOM     86  O   UNL     1      12.133   0.882  -9.127  1.00  0.00    -0.744 OA
ENDBRANCH  79  83
ENDBRANCH  52  76
BRANCH  64  87
ATOM     87  C   UNL     1      14.530  -6.472  -1.905  1.00  0.00     0.023 A 
ATOM     88  C   UNL     1      14.415  -5.315  -1.100  1.00  0.00     0.031 A 
ATOM     89  C   UNL     1      15.620  -7.327  -1.659  1.00  0.00     0.131 A 
ATOM     90  C   UNL     1      15.374  -5.051  -0.101  1.00  0.00     0.055 A 
ATOM     91  C   UNL     1      16.552  -7.076  -0.653  1.00  0.00     0.041 A 
ATOM     92  F   UNL     1      15.775  -8.456  -2.370  1.00  0.00    -0.206 F 
ATOM     93  C   UNL     1      16.435  -5.934   0.128  1.00  0.00     0.022 A 
BRANCH  90  94
ATOM     94  S   UNL     1      15.271  -3.543   0.918  1.00  0.00     0.124 S 
ATOM     95  O   UNL     1      15.041  -2.485  -0.058  1.00  0.00    -0.237 OA
ATOM     96  O   UNL     1      14.158  -3.840   1.815  1.00  0.00    -0.237 OA
ATOM     97  O   UNL     1      16.579  -3.487   1.575  1.00  0.00    -0.744 OA
ENDBRANCH  90  94
ENDBRANCH  64  87
ENDBRANCH  38  39
ENDBRANCH  30  33
ENDBRANCH  28  29
ENDBRANCH  27  28
ENDBRANCH   1  27
TORSDOF 18
