REMARK SMILES C[NH+]1CCC(NC(=O)N[C@@H]2C=C[C@H](C(=O)NCCCNC(=O)c3ccc(-c4c5nc(c(-c6cc(S(=O)(=O)[O-])ccc6F)c6ccc([nH]6)c(-c6cc(S(=O)(=O)[O-])ccc6F)c6nc(c(-c7cc(S(=O)(=O)[O-])ccc7F)c7ccc4[nH]7)C=C6)C=C5)cc3)C2)CC1
REMARK SMILES IDX 18 1 17 2 16 3 14 4 15 5 13 7 10 8 11 9 86 10 12 11 9 12
REMARK SMILES IDX 6 13 7 14 8 16 5 18 1 19 2 20 3 21 88 22 4 24 87 25 19 26
REMARK SMILES IDX 20 27 21 28 22 30 23 31 24 32 85 33 25 34 84 35 26 36 27 37
REMARK SMILES IDX 28 38 78 39 29 40 83 41 77 42 79 43 30 44 82 45 76 46 75 47
REMARK SMILES IDX 31 49 63 50 43 51 62 52 44 53 47 54 61 55 80 56 45 57 46 58
REMARK SMILES IDX 60 60 81 61 48 62 32 63 33 64 41 65 34 66 40 67 42 68 39 69
REMARK SMILES IDX 35 70 36 71 37 72 38 73 64 74 65 75 73 76 66 77 72 78 74 79
REMARK SMILES IDX 71 80 67 81 68 82 69 83 70 84 49 85 50 86 58 87 51 88 57 89
REMARK SMILES IDX 59 90 56 91 52 92 53 93 54 94 55 95
REMARK H PARENT 16 6 6 15 9 17 2 23 20 29 79 48 47 59
REMARK Flexibility Score: inf
ROOT
ATOM      1  C   UNL     1      -2.677   2.194   0.077  1.00  0.00     0.042 C 
ENDROOT
BRANCH   1   2
ATOM      2  C   UNL     1      -2.362   0.808  -0.473  1.00  0.00     0.117 C 
BRANCH   2   3
ATOM      3  N   UNL     1      -2.123   0.841  -1.904  1.00  0.00    -0.356 N 
ATOM      4  C   UNL     1      -0.933   0.912  -2.569  1.00  0.00     0.227 C 
ATOM      5  O   UNL     1      -0.943   0.966  -3.799  1.00  0.00    -0.274 OA
ATOM      6  H   UNL     1      -2.927   0.806  -2.472  1.00  0.00     0.163 HD
BRANCH   4   7
ATOM      7  C   UNL     1       0.351   0.854  -1.752  1.00  0.00     0.103 C 
ATOM      8  C   UNL     1       2.597   0.463  -2.684  1.00  0.00     0.107 C 
ATOM      9  C   UNL     1       1.967  -0.794  -2.180  1.00  0.00    -0.006 C 
ATOM     10  C   UNL     1       1.526   1.535  -2.467  1.00  0.00     0.047 C 
ATOM     11  C   UNL     1       0.762  -0.583  -1.649  1.00  0.00    -0.016 C 
BRANCH   8  12
ATOM     12  N   UNL     1       2.980   0.265  -4.061  1.00  0.00    -0.332 N 
ATOM     13  N   UNL     1       5.171  -0.641  -3.967  1.00  0.00    -0.335 N 
ATOM     14  C   UNL     1       4.098  -0.196  -4.650  1.00  0.00     0.315 C 
ATOM     15  H   UNL     1       5.914  -0.943  -4.540  1.00  0.00     0.165 HD
ATOM     16  O   UNL     1       4.148  -0.223  -5.882  1.00  0.00    -0.249 OA
ATOM     17  H   UNL     1       2.277   0.519  -4.702  1.00  0.00     0.165 HD
BRANCH  13  18
ATOM     18  C   UNL     1       5.436  -0.759  -2.548  1.00  0.00     0.095 C 
ATOM     19  C   UNL     1       6.622  -0.976   1.471  1.00  0.00     0.332 C 
ATOM     20  N   UNL     1       6.763  -0.914   0.012  1.00  0.00    -0.337 N 
ATOM     21  C   UNL     1       6.208   0.361  -0.474  1.00  0.00     0.264 C 
ATOM     22  C   UNL     1       6.137  -2.096  -0.605  1.00  0.00     0.264 C 
ATOM     23  H   UNL     1       7.747  -0.936  -0.257  1.00  0.00     0.347 HD
ATOM     24  C   UNL     1       6.190   0.447  -1.999  1.00  0.00     0.086 C 
ATOM     25  C   UNL     1       6.161  -2.033  -2.139  1.00  0.00     0.086 C 
ENDBRANCH  13  18
ENDBRANCH   8  12
ENDBRANCH   4   7
ENDBRANCH   2   3
ENDBRANCH   1   2
BRANCH   1  26
ATOM     26  C   UNL     1      -3.927   2.821  -0.536  1.00  0.00     0.118 C 
BRANCH  26  27
ATOM     27  N   UNL     1      -5.109   1.989  -0.354  1.00  0.00    -0.352 N 
ATOM     28  C   UNL     1      -6.299   2.266   0.271  1.00  0.00     0.251 C 
ATOM     29  H   UNL     1      -5.044   1.086  -0.740  1.00  0.00     0.163 HD
ATOM     30  O   UNL     1      -7.074   1.348   0.515  1.00  0.00    -0.269 OA
BRANCH  28  31
ATOM     31  C   UNL     1      -6.629   3.653   0.661  1.00  0.00     0.039 A 
ATOM     32  C   UNL     1      -7.251   3.878   1.891  1.00  0.00     0.014 A 
ATOM     33  C   UNL     1      -6.347   4.725  -0.190  1.00  0.00     0.014 A 
ATOM     34  C   UNL     1      -7.529   5.186   2.295  1.00  0.00     0.010 A 
ATOM     35  C   UNL     1      -6.546   6.029   0.250  1.00  0.00     0.010 A 
ATOM     36  C   UNL     1      -7.144   6.274   1.495  1.00  0.00    -0.014 A 
BRANCH  36  37
ATOM     37  C   UNL     1      -7.364   7.674   1.941  1.00  0.00     0.031 A 
ATOM     38  C   UNL     1      -8.264   8.586   1.154  1.00  0.00     0.074 A 
ATOM     39  C   UNL     1      -6.706   8.139   3.021  1.00  0.00     0.049 A 
ATOM     40  N   UNL     1      -8.529   9.853   1.342  1.00  0.00    -0.248 NA
ATOM     41  C   UNL     1      -8.930   7.999  -0.018  1.00  0.00     0.031 C 
ATOM     42  C   UNL     1      -5.781   7.358   3.846  1.00  0.00     0.029 A 
ATOM     43  N   UNL     1      -6.710   9.377   3.610  1.00  0.00    -0.354 N 
ATOM     44  C   UNL     1      -9.383  10.219   0.307  1.00  0.00     0.074 A 
ATOM     45  C   UNL     1      -9.527   9.057  -0.544  1.00  0.00     0.031 C 
ATOM     46  C   UNL     1      -5.337   8.126   4.853  1.00  0.00     0.029 A 
ATOM     47  C   UNL     1      -5.899   9.466   4.717  1.00  0.00     0.049 A 
ATOM     48  H   UNL     1      -7.244  10.132   3.273  1.00  0.00     0.167 HD
ATOM     49  C   UNL     1     -10.011  11.404   0.102  1.00  0.00     0.034 A 
ATOM     50  C   UNL     1      -5.628  10.510   5.525  1.00  0.00     0.034 A 
ATOM     51  C   UNL     1      -9.850  12.553   0.961  1.00  0.00     0.049 A 
ATOM     52  C   UNL     1      -6.292  11.835   5.247  1.00  0.00     0.074 A 
ATOM     53  C   UNL     1     -10.468  13.788   0.875  1.00  0.00     0.029 A 
ATOM     54  N   UNL     1      -8.999  12.614   2.059  1.00  0.00    -0.354 N 
ATOM     55  N   UNL     1      -7.134  12.154   4.291  1.00  0.00    -0.248 NA
ATOM     56  C   UNL     1      -5.973  12.937   6.163  1.00  0.00     0.031 C 
ATOM     57  C   UNL     1      -9.931  14.618   1.865  1.00  0.00     0.029 A 
ATOM     58  C   UNL     1      -9.047  13.876   2.632  1.00  0.00     0.049 A 
ATOM     59  H   UNL     1      -8.443  11.868   2.383  1.00  0.00     0.167 HD
ATOM     60  C   UNL     1      -7.472  13.486   4.513  1.00  0.00     0.074 A 
ATOM     61  C   UNL     1      -6.751  13.903   5.699  1.00  0.00     0.031 C 
ATOM     62  C   UNL     1      -8.310  14.288   3.806  1.00  0.00     0.034 A 
BRANCH  49  63
ATOM     63  C   UNL     1     -10.897  11.514  -1.119  1.00  0.00     0.023 A 
ATOM     64  C   UNL     1     -12.009  10.672  -1.302  1.00  0.00     0.031 A 
ATOM     65  C   UNL     1     -10.600  12.435  -2.140  1.00  0.00     0.131 A 
ATOM     66  C   UNL     1     -12.716  10.695  -2.513  1.00  0.00     0.055 A 
ATOM     67  C   UNL     1     -11.370  12.521  -3.302  1.00  0.00     0.041 A 
ATOM     68  F   UNL     1      -9.541  13.253  -2.038  1.00  0.00    -0.206 F 
ATOM     69  C   UNL     1     -12.423  11.633  -3.504  1.00  0.00     0.022 A 
BRANCH  66  70
ATOM     70  S   UNL     1     -13.897   9.358  -2.847  1.00  0.00     0.124 S 
ATOM     71  O   UNL     1     -13.050   8.175  -2.702  1.00  0.00    -0.237 OA
ATOM     72  O   UNL     1     -14.900   9.557  -1.808  1.00  0.00    -0.237 OA
ATOM     73  O   UNL     1     -14.345   9.629  -4.211  1.00  0.00    -0.744 OA
ENDBRANCH  66  70
ENDBRANCH  49  63
BRANCH  50  74
ATOM     74  C   UNL     1      -4.688  10.350   6.670  1.00  0.00     0.023 A 
ATOM     75  C   UNL     1      -5.135  10.485   7.994  1.00  0.00     0.031 A 
ATOM     76  C   UNL     1      -3.324  10.082   6.459  1.00  0.00     0.131 A 
ATOM     77  C   UNL     1      -4.220  10.392   9.054  1.00  0.00     0.055 A 
ATOM     78  C   UNL     1      -2.428   9.937   7.519  1.00  0.00     0.041 A 
ATOM     79  F   UNL     1      -2.844   9.938   5.213  1.00  0.00    -0.206 F 
ATOM     80  C   UNL     1      -2.873  10.103   8.826  1.00  0.00     0.022 A 
BRANCH  77  81
ATOM     81  S   UNL     1      -4.805  10.729  10.737  1.00  0.00     0.124 S 
ATOM     82  O   UNL     1      -5.293  12.098  10.613  1.00  0.00    -0.237 OA
ATOM     83  O   UNL     1      -5.821   9.698  10.917  1.00  0.00    -0.237 OA
ATOM     84  O   UNL     1      -3.603  10.566  11.553  1.00  0.00    -0.744 OA
ENDBRANCH  77  81
ENDBRANCH  50  74
BRANCH  62  85
ATOM     85  C   UNL     1      -8.525  15.689   4.329  1.00  0.00     0.023 A 
ATOM     86  C   UNL     1      -7.488  16.638   4.366  1.00  0.00     0.031 A 
ATOM     87  C   UNL     1      -9.790  16.077   4.807  1.00  0.00     0.131 A 
ATOM     88  C   UNL     1      -7.718  17.904   4.925  1.00  0.00     0.055 A 
ATOM     89  C   UNL     1     -10.031  17.361   5.297  1.00  0.00     0.041 A 
ATOM     90  F   UNL     1     -10.817  15.212   4.802  1.00  0.00    -0.206 F 
ATOM     91  C   UNL     1      -8.988  18.279   5.372  1.00  0.00     0.022 A 
BRANCH  88  92
ATOM     92  S   UNL     1      -6.309  19.023   5.158  1.00  0.00     0.124 S 
ATOM     93  O   UNL     1      -5.425  18.224   6.000  1.00  0.00    -0.237 OA
ATOM     94  O   UNL     1      -5.856  19.245   3.789  1.00  0.00    -0.237 OA
ATOM     95  O   UNL     1      -6.901  20.189   5.811  1.00  0.00    -0.744 OA
ENDBRANCH  88  92
ENDBRANCH  62  85
ENDBRANCH  36  37
ENDBRANCH  28  31
ENDBRANCH  26  27
ENDBRANCH   1  26
TORSDOF 15
