REMARK SMILES CC1([C@](C)(Nc2cccc(Cl)c2)C(=O)NCCCNC(=O)c2ccc(-c3c4nc(c(-c5cc(S(=O)(=O)[O-])ccc5F)c5ccc([nH]5)c(-c5cc(S(=O)(=O)[O-])ccc5F)c5nc(c(-c6cc(S(=O)(=O)[O-])ccc6F)c6ccc3[nH]6)C=C5)C=C4)cc2)CC1
REMARK SMILES IDX 17 1 16 2 15 3 13 4 14 5 3 7 4 8 2 9 1 10 85 11 86 12 5 13
REMARK SMILES IDX 6 15 7 16 12 17 8 18 10 19 9 20 11 21 18 22 19 23 20 24
REMARK SMILES IDX 21 26 22 27 23 28 84 29 24 30 83 31 25 32 26 33 27 34 77 35
REMARK SMILES IDX 28 36 82 37 76 38 78 39 29 40 81 41 75 42 74 43 30 45 62 46
REMARK SMILES IDX 42 47 61 48 43 49 46 50 60 51 79 52 44 53 45 54 59 56 80 57
REMARK SMILES IDX 47 58 31 59 32 60 40 61 33 62 39 63 41 64 38 65 34 66 35 67
REMARK SMILES IDX 36 68 37 69 63 70 64 71 72 72 65 73 71 74 73 75 70 76 66 77
REMARK SMILES IDX 67 78 68 79 69 80 48 81 49 82 57 83 50 84 56 85 58 86 55 87
REMARK SMILES IDX 51 88 52 89 53 90 54 91
REMARK H PARENT 15 6 5 14 19 25 78 44 46 55
REMARK Flexibility Score: inf
ROOT
ATOM      1  C   UNL     1      -0.064  -0.051   5.963  1.00  0.00     0.042 C 
ENDROOT
BRANCH   1   2
ATOM      2  C   UNL     1       1.089  -0.555   5.111  1.00  0.00     0.117 C 
BRANCH   2   3
ATOM      3  N   UNL     1       0.888  -1.826   4.430  1.00  0.00    -0.354 N 
ATOM      4  C   UNL     1       0.756  -2.134   3.101  1.00  0.00     0.245 C 
ATOM      5  O   UNL     1       0.735  -3.342   2.826  1.00  0.00    -0.272 OA
ATOM      6  H   UNL     1       0.839  -2.604   5.032  1.00  0.00     0.163 HD
BRANCH   4   7
ATOM      7  C   UNL     1       0.655  -1.043   1.978  1.00  0.00     0.119 C 
ATOM      8  C   UNL     1      -0.039  -1.670   0.725  1.00  0.00     0.046 C 
BRANCH   7   9
ATOM      9  C   UNL     1       2.132  -0.557   1.565  1.00  0.00    -0.001 C 
ATOM     10  C   UNL     1       2.693  -1.166   0.289  1.00  0.00     0.014 C 
ATOM     11  C   UNL     1       3.238  -0.303   2.591  1.00  0.00     0.010 C 
ATOM     12  C   UNL     1       2.584   0.860   1.921  1.00  0.00     0.010 C 
ENDBRANCH   7   9
BRANCH   7  13
ATOM     13  N   UNL     1      -0.217   0.113   2.336  1.00  0.00    -0.371 N 
ATOM     14  H   UNL     1       0.192   1.007   2.287  1.00  0.00     0.161 HD
BRANCH  13  15
ATOM     15  C   UNL     1      -1.555   0.054   2.733  1.00  0.00     0.036 A 
ATOM     16  C   UNL     1      -2.144  -1.026   3.410  1.00  0.00     0.026 A 
ATOM     17  C   UNL     1      -2.371   1.176   2.520  1.00  0.00     0.046 A 
ATOM     18  C   UNL     1      -3.449  -0.967   3.921  1.00  0.00     0.004 A 
ATOM     19  C   UNL     1      -3.694   1.219   2.983  1.00  0.00     0.043 A 
ATOM     20  C   UNL     1      -4.228   0.162   3.709  1.00  0.00     0.020 A 
ATOM     21  Cl  UNL     1      -4.671   2.595   2.647  1.00  0.00    -0.084 Cl
ENDBRANCH  13  15
ENDBRANCH   7  13
ENDBRANCH   4   7
ENDBRANCH   2   3
ENDBRANCH   1   2
BRANCH   1  22
ATOM     22  C   UNL     1      -0.724  -1.095   6.842  1.00  0.00     0.118 C 
BRANCH  22  23
ATOM     23  N   UNL     1       0.125  -1.489   7.953  1.00  0.00    -0.352 N 
ATOM     24  C   UNL     1       0.002  -1.204   9.292  1.00  0.00     0.251 C 
ATOM     25  H   UNL     1       0.904  -2.041   7.711  1.00  0.00     0.163 HD
ATOM     26  O   UNL     1       0.954  -1.415  10.038  1.00  0.00    -0.269 OA
BRANCH  24  27
ATOM     27  C   UNL     1      -1.254  -0.626   9.829  1.00  0.00     0.039 A 
ATOM     28  C   UNL     1      -1.173   0.371  10.804  1.00  0.00     0.014 A 
ATOM     29  C   UNL     1      -2.505  -1.082   9.404  1.00  0.00     0.014 A 
ATOM     30  C   UNL     1      -2.343   0.943  11.313  1.00  0.00     0.010 A 
ATOM     31  C   UNL     1      -3.666  -0.450   9.845  1.00  0.00     0.010 A 
ATOM     32  C   UNL     1      -3.600   0.557  10.818  1.00  0.00    -0.014 A 
BRANCH  32  33
ATOM     33  C   UNL     1      -4.849   1.178  11.334  1.00  0.00     0.031 A 
ATOM     34  C   UNL     1      -5.864   0.341  12.066  1.00  0.00     0.074 A 
ATOM     35  C   UNL     1      -5.094   2.482  11.101  1.00  0.00     0.049 A 
ATOM     36  N   UNL     1      -7.023   0.689  12.564  1.00  0.00    -0.248 NA
ATOM     37  C   UNL     1      -5.547  -1.085  12.228  1.00  0.00     0.031 C 
ATOM     38  C   UNL     1      -4.218   3.383  10.349  1.00  0.00     0.029 A 
ATOM     39  N   UNL     1      -6.155   3.275  11.461  1.00  0.00    -0.354 N 
ATOM     40  C   UNL     1      -7.578  -0.475  13.086  1.00  0.00     0.074 A 
ATOM     41  C   UNL     1      -6.658  -1.549  12.778  1.00  0.00     0.031 C 
ATOM     42  C   UNL     1      -4.769   4.607  10.318  1.00  0.00     0.029 A 
ATOM     43  C   UNL     1      -6.052   4.571  11.014  1.00  0.00     0.049 A 
ATOM     44  H   UNL     1      -6.917   2.946  11.990  1.00  0.00     0.167 HD
ATOM     45  C   UNL     1      -8.734  -0.630  13.781  1.00  0.00     0.034 A 
ATOM     46  C   UNL     1      -6.899   5.612  11.139  1.00  0.00     0.034 A 
ATOM     47  C   UNL     1      -9.635   0.456  14.086  1.00  0.00     0.049 A 
ATOM     48  C   UNL     1      -8.177   5.423  11.913  1.00  0.00     0.074 A 
ATOM     49  C   UNL     1     -10.791   0.430  14.848  1.00  0.00     0.029 A 
ATOM     50  N   UNL     1      -9.492   1.762  13.631  1.00  0.00    -0.354 N 
ATOM     51  N   UNL     1      -8.649   4.334  12.475  1.00  0.00    -0.248 NA
ATOM     52  C   UNL     1      -9.027   6.608  12.085  1.00  0.00     0.031 C 
ATOM     53  C   UNL     1     -11.383   1.698  14.791  1.00  0.00     0.029 A 
ATOM     54  C   UNL     1     -10.558   2.539  14.061  1.00  0.00     0.049 A 
ATOM     55  H   UNL     1      -8.743   2.087  13.082  1.00  0.00     0.167 HD
ATOM     56  C   UNL     1      -9.845   4.708  13.083  1.00  0.00     0.074 A 
ATOM     57  C   UNL     1     -10.007   6.127  12.837  1.00  0.00     0.031 C 
ATOM     58  C   UNL     1     -10.725   3.948  13.785  1.00  0.00     0.034 A 
BRANCH  45  59
ATOM     59  C   UNL     1      -9.091  -2.031  14.226  1.00  0.00     0.023 A 
ATOM     60  C   UNL     1      -8.259  -2.769  15.089  1.00  0.00     0.031 A 
ATOM     61  C   UNL     1     -10.252  -2.659  13.742  1.00  0.00     0.131 A 
ATOM     62  C   UNL     1      -8.546  -4.115  15.359  1.00  0.00     0.055 A 
ATOM     63  C   UNL     1     -10.580  -3.972  14.090  1.00  0.00     0.041 A 
ATOM     64  F   UNL     1     -11.077  -2.017  12.900  1.00  0.00    -0.206 F 
ATOM     65  C   UNL     1      -9.714  -4.715  14.886  1.00  0.00     0.022 A 
BRANCH  62  66
ATOM     66  S   UNL     1      -7.280  -5.119  16.187  1.00  0.00     0.124 S 
ATOM     67  O   UNL     1      -6.134  -4.940  15.298  1.00  0.00    -0.237 OA
ATOM     68  O   UNL     1      -7.180  -4.483  17.495  1.00  0.00    -0.237 OA
ATOM     69  O   UNL     1      -7.854  -6.463  16.187  1.00  0.00    -0.744 OA
ENDBRANCH  62  66
ENDBRANCH  45  59
BRANCH  46  70
ATOM     70  C   UNL     1      -6.572   6.919  10.501  1.00  0.00     0.023 A 
ATOM     71  C   UNL     1      -6.289   8.058  11.269  1.00  0.00     0.031 A 
ATOM     72  C   UNL     1      -6.548   7.043   9.099  1.00  0.00     0.131 A 
ATOM     73  C   UNL     1      -6.025   9.282  10.632  1.00  0.00     0.055 A 
ATOM     74  C   UNL     1      -6.239   8.250   8.471  1.00  0.00     0.041 A 
ATOM     75  F   UNL     1      -6.803   5.980   8.320  1.00  0.00    -0.206 F 
ATOM     76  C   UNL     1      -5.985   9.382   9.239  1.00  0.00     0.022 A 
BRANCH  73  77
ATOM     77  S   UNL     1      -5.787  10.762  11.653  1.00  0.00     0.124 S 
ATOM     78  O   UNL     1      -7.058  10.841  12.364  1.00  0.00    -0.237 OA
ATOM     79  O   UNL     1      -4.625  10.394  12.455  1.00  0.00    -0.237 OA
ATOM     80  O   UNL     1      -5.553  11.819  10.672  1.00  0.00    -0.744 OA
ENDBRANCH  73  77
ENDBRANCH  46  70
BRANCH  58  81
ATOM     81  C   UNL     1     -11.933   4.653  14.356  1.00  0.00     0.023 A 
ATOM     82  C   UNL     1     -12.927   5.205  13.528  1.00  0.00     0.031 A 
ATOM     83  C   UNL     1     -12.082   4.789  15.748  1.00  0.00     0.131 A 
ATOM     84  C   UNL     1     -13.993   5.918  14.097  1.00  0.00     0.055 A 
ATOM     85  C   UNL     1     -13.178   5.446  16.310  1.00  0.00     0.041 A 
ATOM     86  F   UNL     1     -11.162   4.286  16.587  1.00  0.00    -0.206 F 
ATOM     87  C   UNL     1     -14.134   6.027  15.483  1.00  0.00     0.022 A 
BRANCH  84  88
ATOM     88  S   UNL     1     -15.143   6.790  12.997  1.00  0.00     0.124 S 
ATOM     89  O   UNL     1     -14.247   7.676  12.261  1.00  0.00    -0.237 OA
ATOM     90  O   UNL     1     -15.732   5.697  12.231  1.00  0.00    -0.237 OA
ATOM     91  O   UNL     1     -16.057   7.461  13.920  1.00  0.00    -0.744 OA
ENDBRANCH  84  88
ENDBRANCH  58  81
ENDBRANCH  32  33
ENDBRANCH  24  27
ENDBRANCH  22  23
ENDBRANCH   1  22
TORSDOF 16
