REMARK SMILES O=C(CNC(=O)N1CC(NCCCNC(=O)c2ccc(-c3c4nc(c(-c5cc(S(=O)(=O)[O-])ccc5F)c5ccc([nH]5)c(-c5cc(S(=O)(=O)[O-])ccc5F)c5nc(c(-c6cc(S(=O)(=O)[O-])ccc6F)c6ccc3[nH]6)C=C5)C=C4)cc2)=[NH+]c2ccccc21)N[C@H](C(=O)[O-])c1ccccc1
REMARK SMILES IDX 11 1 10 2 7 3 8 4 86 5 9 6 81 7 85 8 80 9 82 10 84 11 83 14
REMARK SMILES IDX 5 15 4 16 6 18 3 19 2 20 1 21 87 22 88 24 92 25 93 26 97 27
REMARK SMILES IDX 94 28 96 29 95 30 89 31 90 32 91 33 12 34 13 35 14 36 15 37
REMARK SMILES IDX 16 39 17 40 18 41 79 42 19 43 78 44 20 45 21 46 22 47 72 48
REMARK SMILES IDX 23 49 77 50 71 51 73 52 24 53 76 54 70 55 69 56 25 58 57 59
REMARK SMILES IDX 37 60 56 61 38 62 41 63 55 64 74 65 39 66 40 67 54 69 75 70
REMARK SMILES IDX 42 71 26 72 27 73 35 74 28 75 34 76 36 77 33 78 29 79 30 80
REMARK SMILES IDX 31 81 32 82 58 83 59 84 67 85 60 86 66 87 68 88 65 89 61 90
REMARK SMILES IDX 62 91 63 92 64 93 43 94 44 95 52 96 45 97 51 98 53 99 50 100
REMARK SMILES IDX 46 101 47 102 48 103 49 104
REMARK H PARENT 10 12 80 13 4 17 87 23 14 38 73 57 41 68
REMARK Flexibility Score: inf
ROOT
ATOM      1  C   UNL     1      -1.085   6.852  -0.060  1.00  0.00     0.235 C 
ENDROOT
BRANCH   1   2
ATOM      2  N   UNL     1      -0.150   6.499   0.980  1.00  0.00    -0.277 N 
ATOM      3  N   UNL     1       3.290   7.123  -0.125  1.00  0.00    -0.278 N 
ATOM      4  C   UNL     1       1.911   7.566  -0.045  1.00  0.00     0.255 C 
ATOM      5  C   UNL     1       3.963   7.019   1.117  1.00  0.00     0.093 A 
ATOM      6  C   UNL     1       1.187   6.795   1.068  1.00  0.00     0.268 C 
ATOM      7  C   UNL     1       3.194   6.667   2.241  1.00  0.00     0.148 A 
ATOM      8  C   UNL     1       5.351   7.176   1.221  1.00  0.00     0.031 A 
ATOM      9  N   UNL     1       1.806   6.432   2.161  1.00  0.00    -0.241 N 
ATOM     10  C   UNL     1       3.853   6.397   3.442  1.00  0.00     0.054 A 
ATOM     11  C   UNL     1       5.990   6.921   2.433  1.00  0.00     0.002 A 
ATOM     12  H   UNL     1      -0.520   5.975   1.727  1.00  0.00     0.304 HD
ATOM     13  H   UNL     1       1.318   6.008   2.904  1.00  0.00     0.312 HD
ATOM     14  C   UNL     1       5.244   6.516   3.538  1.00  0.00     0.005 A 
BRANCH   3  15
ATOM     15  C   UNL     1       3.808   6.800  -1.354  1.00  0.00     0.323 C 
ATOM     16  N   UNL     1       4.664   5.746  -1.447  1.00  0.00    -0.329 N 
ATOM     17  H   UNL     1       5.258   5.739  -2.231  1.00  0.00     0.165 HD
ATOM     18  O   UNL     1       3.467   7.378  -2.387  1.00  0.00    -0.248 OA
BRANCH  16  19
ATOM     19  C   UNL     1       4.807   4.620  -0.519  1.00  0.00     0.218 C 
BRANCH  19  20
ATOM     20  C   UNL     1       4.473   3.330  -1.244  1.00  0.00     0.240 C 
ATOM     21  O   UNL     1       5.347   2.702  -1.833  1.00  0.00    -0.273 OA
ATOM     22  N   UNL     1       3.117   3.076  -1.283  1.00  0.00    -0.342 N 
ATOM     23  H   UNL     1       2.491   3.778  -0.991  1.00  0.00     0.164 HD
BRANCH  22  24
ATOM     24  C   UNL     1       2.572   1.778  -1.751  1.00  0.00     0.158 C 
BRANCH  24  25
ATOM     25  C   UNL     1       2.847   1.534  -3.231  1.00  0.00    -0.020 A 
ATOM     26  C   UNL     1       2.763   0.260  -3.808  1.00  0.00     0.006 A 
ATOM     27  C   UNL     1       3.101   2.615  -4.102  1.00  0.00     0.006 A 
ATOM     28  C   UNL     1       3.013   0.062  -5.170  1.00  0.00     0.000 A 
ATOM     29  C   UNL     1       3.362   2.422  -5.460  1.00  0.00     0.000 A 
ATOM     30  C   UNL     1       3.329   1.140  -5.993  1.00  0.00     0.000 A 
ENDBRANCH  24  25
BRANCH  24  31
ATOM     31  C   UNL     1       2.817   0.683  -0.648  1.00  0.00     0.068 C 
ATOM     32  O   UNL     1       3.251  -0.453  -0.976  1.00  0.00    -0.548 OA
ATOM     33  O   UNL     1       2.525   1.098   0.528  1.00  0.00    -0.548 OA
ENDBRANCH  24  31
ENDBRANCH  22  24
ENDBRANCH  19  20
ENDBRANCH  16  19
ENDBRANCH   3  15
ENDBRANCH   1   2
BRANCH   1  34
ATOM     34  C   UNL     1      -1.438   5.657  -0.937  1.00  0.00     0.067 C 
BRANCH  34  35
ATOM     35  C   UNL     1      -2.219   4.555  -0.223  1.00  0.00     0.120 C 
BRANCH  35  36
ATOM     36  N   UNL     1      -3.494   5.021   0.316  1.00  0.00    -0.352 N 
ATOM     37  C   UNL     1      -4.781   4.628   0.042  1.00  0.00     0.251 C 
ATOM     38  H   UNL     1      -3.419   5.738   0.987  1.00  0.00     0.163 HD
ATOM     39  O   UNL     1      -5.716   5.297   0.484  1.00  0.00    -0.269 OA
BRANCH  37  40
ATOM     40  C   UNL     1      -5.054   3.436  -0.792  1.00  0.00     0.039 A 
ATOM     41  C   UNL     1      -6.100   3.487  -1.720  1.00  0.00     0.014 A 
ATOM     42  C   UNL     1      -4.307   2.264  -0.653  1.00  0.00     0.014 A 
ATOM     43  C   UNL     1      -6.339   2.396  -2.561  1.00  0.00     0.010 A 
ATOM     44  C   UNL     1      -4.493   1.211  -1.546  1.00  0.00     0.010 A 
ATOM     45  C   UNL     1      -5.507   1.266  -2.514  1.00  0.00    -0.014 A 
BRANCH  45  46
ATOM     46  C   UNL     1      -5.669   0.145  -3.479  1.00  0.00     0.031 A 
ATOM     47  C   UNL     1      -6.026  -1.233  -2.994  1.00  0.00     0.074 A 
ATOM     48  C   UNL     1      -5.431   0.356  -4.788  1.00  0.00     0.049 A 
ATOM     49  N   UNL     1      -6.155  -2.345  -3.674  1.00  0.00    -0.248 NA
ATOM     50  C   UNL     1      -6.249  -1.382  -1.550  1.00  0.00     0.031 C 
ATOM     51  C   UNL     1      -5.051   1.640  -5.381  1.00  0.00     0.029 A 
ATOM     52  N   UNL     1      -5.465  -0.504  -5.858  1.00  0.00    -0.354 N 
ATOM     53  C   UNL     1      -6.458  -3.329  -2.739  1.00  0.00     0.074 A 
ATOM     54  C   UNL     1      -6.432  -2.688  -1.440  1.00  0.00     0.031 C 
ATOM     55  C   UNL     1      -4.925   1.491  -6.709  1.00  0.00     0.029 A 
ATOM     56  C   UNL     1      -5.153   0.093  -7.058  1.00  0.00     0.049 A 
ATOM     57  H   UNL     1      -5.692  -1.458  -5.775  1.00  0.00     0.167 HD
ATOM     58  C   UNL     1      -6.752  -4.638  -2.944  1.00  0.00     0.034 A 
ATOM     59  C   UNL     1      -5.047  -0.429  -8.296  1.00  0.00     0.034 A 
ATOM     60  C   UNL     1      -6.744  -5.267  -4.245  1.00  0.00     0.049 A 
ATOM     61  C   UNL     1      -5.285  -1.905  -8.489  1.00  0.00     0.074 A 
ATOM     62  C   UNL     1      -7.064  -6.573  -4.575  1.00  0.00     0.029 A 
ATOM     63  N   UNL     1      -6.368  -4.643  -5.430  1.00  0.00    -0.354 N 
ATOM     64  N   UNL     1      -5.633  -2.812  -7.607  1.00  0.00    -0.248 NA
ATOM     65  C   UNL     1      -5.118  -2.425  -9.852  1.00  0.00     0.031 C 
ATOM     66  C   UNL     1      -6.805  -6.759  -5.938  1.00  0.00     0.029 A 
ATOM     67  C   UNL     1      -6.412  -5.547  -6.484  1.00  0.00     0.049 A 
ATOM     68  H   UNL     1      -6.109  -3.697  -5.511  1.00  0.00     0.167 HD
ATOM     69  C   UNL     1      -5.759  -4.004  -8.316  1.00  0.00     0.074 A 
ATOM     70  C   UNL     1      -5.463  -3.695  -9.700  1.00  0.00     0.031 C 
ATOM     71  C   UNL     1      -6.100  -5.238  -7.862  1.00  0.00     0.034 A 
BRANCH  58  72
ATOM     72  C   UNL     1      -7.063  -5.472  -1.720  1.00  0.00     0.023 A 
ATOM     73  C   UNL     1      -8.139  -5.157  -0.867  1.00  0.00     0.031 A 
ATOM     74  C   UNL     1      -6.244  -6.558  -1.364  1.00  0.00     0.131 A 
ATOM     75  C   UNL     1      -8.302  -5.847   0.344  1.00  0.00     0.055 A 
ATOM     76  C   UNL     1      -6.468  -7.300  -0.202  1.00  0.00     0.041 A 
ATOM     77  F   UNL     1      -5.197  -6.906  -2.127  1.00  0.00    -0.206 F 
ATOM     78  C   UNL     1      -7.488  -6.933   0.672  1.00  0.00     0.022 A 
BRANCH  75  79
ATOM     79  S   UNL     1      -9.479  -5.193   1.561  1.00  0.00     0.124 S 
ATOM     80  O   UNL     1      -8.997  -3.825   1.740  1.00  0.00    -0.237 OA
ATOM     81  O   UNL     1     -10.757  -5.334   0.873  1.00  0.00    -0.237 OA
ATOM     82  O   UNL     1      -9.297  -6.066   2.720  1.00  0.00    -0.744 OA
ENDBRANCH  75  79
ENDBRANCH  58  72
BRANCH  59  83
ATOM     83  C   UNL     1      -4.701   0.443  -9.455  1.00  0.00     0.023 A 
ATOM     84  C   UNL     1      -5.619   0.644 -10.499  1.00  0.00     0.031 A 
ATOM     85  C   UNL     1      -3.443   1.063  -9.555  1.00  0.00     0.131 A 
ATOM     86  C   UNL     1      -5.255   1.413 -11.614  1.00  0.00     0.055 A 
ATOM     87  C   UNL     1      -3.104   1.872 -10.641  1.00  0.00     0.041 A 
ATOM     88  F   UNL     1      -2.528   0.904  -8.586  1.00  0.00    -0.206 F 
ATOM     89  C   UNL     1      -4.009   2.042 -11.685  1.00  0.00     0.022 A 
BRANCH  86  90
ATOM     90  S   UNL     1      -6.408   1.522 -13.010  1.00  0.00     0.124 S 
ATOM     91  O   UNL     1      -6.540   0.123 -13.400  1.00  0.00    -0.237 OA
ATOM     92  O   UNL     1      -7.583   2.128 -12.392  1.00  0.00    -0.237 OA
ATOM     93  O   UNL     1      -5.706   2.372 -13.970  1.00  0.00    -0.744 OA
ENDBRANCH  86  90
ENDBRANCH  59  83
BRANCH  71  94
ATOM     94  C   UNL     1      -6.230  -6.339  -8.892  1.00  0.00     0.023 A 
ATOM     95  C   UNL     1      -5.128  -6.815  -9.625  1.00  0.00     0.031 A 
ATOM     96  C   UNL     1      -7.489  -6.912  -9.149  1.00  0.00     0.131 A 
ATOM     97  C   UNL     1      -5.316  -7.794 -10.615  1.00  0.00     0.055 A 
ATOM     98  C   UNL     1      -7.658  -7.933 -10.086  1.00  0.00     0.041 A 
ATOM     99  F   UNL     1      -8.581  -6.493  -8.489  1.00  0.00    -0.206 F 
ATOM    100  C   UNL     1      -6.570  -8.370 -10.834  1.00  0.00     0.022 A 
BRANCH  97 101
ATOM    101  S   UNL     1      -3.922  -8.240 -11.689  1.00  0.00     0.124 S 
ATOM    102  O   UNL     1      -3.583  -6.958 -12.297  1.00  0.00    -0.237 OA
ATOM    103  O   UNL     1      -2.952  -8.776 -10.740  1.00  0.00    -0.237 OA
ATOM    104  O   UNL     1      -4.496  -9.225 -12.605  1.00  0.00    -0.744 OA
ENDBRANCH  97 101
ENDBRANCH  71  94
ENDBRANCH  45  46
ENDBRANCH  37  40
ENDBRANCH  35  36
ENDBRANCH  34  35
ENDBRANCH   1  34
TORSDOF 18
