REMARK SMILES Cc1cc(C(=O)NCCCNC(=O)c2ccc(-c3c4nc(c(-c5cc(S(=O)(=O)[O-])ccc5F)c5ccc([nH]5)c(-c5cc(S(=O)(=O)[O-])ccc5F)c5nc(c(-c6cc(S(=O)(=O)[O-])ccc6F)c6ccc3[nH]6)C=C5)C=C4)cc2)cc(C)c1OC[C@H]1C[N@@H+](C)CCO1
REMARK SMILES IDX 9 1 8 2 7 3 5 4 6 5 4 7 1 8 2 9 3 10 80 11 78 12 77 13 79 14
REMARK SMILES IDX 81 15 82 16 83 17 84 18 89 19 85 20 88 21 86 22 87 23 10 25
REMARK SMILES IDX 11 26 12 27 13 29 14 30 15 31 76 32 16 33 75 34 17 35 18 36
REMARK SMILES IDX 19 37 69 38 20 39 74 40 68 41 70 42 21 43 73 44 67 45 66 46
REMARK SMILES IDX 22 48 54 49 34 50 53 51 35 52 38 53 52 54 71 55 36 56 37 57
REMARK SMILES IDX 51 59 72 60 39 61 23 62 24 63 32 64 25 65 31 66 33 67 30 68
REMARK SMILES IDX 26 69 27 70 28 71 29 72 55 73 56 74 64 75 57 76 63 77 65 78
REMARK SMILES IDX 62 79 58 80 59 81 60 82 61 83 40 84 41 85 49 86 42 87 48 88
REMARK SMILES IDX 50 89 47 90 43 91 44 92 45 93 46 94
REMARK H PARENT 7 6 85 24 11 28 70 47 38 58
REMARK Flexibility Score: inf
ROOT
ATOM      1  C   UNL     1       9.550  -6.450   1.541  1.00  0.00     0.042 C 
ENDROOT
BRANCH   1   2
ATOM      2  C   UNL     1       8.262  -5.804   2.027  1.00  0.00     0.118 C 
BRANCH   2   3
ATOM      3  N   UNL     1       8.472  -4.541   2.716  1.00  0.00    -0.352 N 
ATOM      4  C   UNL     1       8.065  -3.263   2.437  1.00  0.00     0.251 C 
ATOM      5  O   UNL     1       8.473  -2.348   3.154  1.00  0.00    -0.269 OA
ATOM      6  H   UNL     1       9.009  -4.618   3.538  1.00  0.00     0.163 HD
BRANCH   4   7
ATOM      7  C   UNL     1       7.196  -2.937   1.281  1.00  0.00     0.040 A 
ATOM      8  C   UNL     1       7.206  -0.100  -1.183  1.00  0.00     0.048 C 
ATOM      9  C   UNL     1       6.716  -1.363  -0.545  1.00  0.00    -0.008 A 
ATOM     10  C   UNL     1       7.442  -1.741   0.608  1.00  0.00     0.021 A 
ATOM     11  C   UNL     1       5.682  -2.195  -1.004  1.00  0.00     0.125 A 
ATOM     12  C   UNL     1       5.457  -3.428  -0.343  1.00  0.00    -0.008 A 
ATOM     13  C   UNL     1       6.165  -3.750   0.830  1.00  0.00     0.021 A 
ATOM     14  C   UNL     1       4.582  -4.509  -0.928  1.00  0.00     0.048 C 
BRANCH  11  15
ATOM     15  O   UNL     1       4.878  -2.002  -2.091  1.00  0.00    -0.490 OA
BRANCH  15  16
ATOM     16  C   UNL     1       4.307  -0.730  -2.438  1.00  0.00     0.267 C 
BRANCH  16  17
ATOM     17  C   UNL     1       3.685   0.099  -1.297  1.00  0.00     0.210 C 
ATOM     18  C   UNL     1       4.207   1.549  -1.342  1.00  0.00     0.298 C 
ATOM     19  O   UNL     1       2.242   0.179  -1.456  1.00  0.00    -0.363 OA
ATOM     20  N   UNL     1       3.762   2.224  -0.113  1.00  0.00    -0.333 N 
ATOM     21  C   UNL     1       1.655   0.935  -0.375  1.00  0.00     0.222 C 
ATOM     22  C   UNL     1       4.433   3.498   0.082  1.00  0.00     0.332 C 
ATOM     23  C   UNL     1       2.297   2.329  -0.173  1.00  0.00     0.290 C 
ATOM     24  H   UNL     1       4.021   1.680   0.711  1.00  0.00     0.348 HD
ENDBRANCH  16  17
ENDBRANCH  15  16
ENDBRANCH  11  15
ENDBRANCH   4   7
ENDBRANCH   2   3
ENDBRANCH   1   2
BRANCH   1  25
ATOM     25  C   UNL     1      10.555  -6.760   2.638  1.00  0.00     0.118 C 
BRANCH  25  26
ATOM     26  N   UNL     1      10.016  -7.642   3.665  1.00  0.00    -0.352 N 
ATOM     27  C   UNL     1      10.216  -8.978   3.897  1.00  0.00     0.251 C 
ATOM     28  H   UNL     1       9.404  -7.204   4.300  1.00  0.00     0.163 HD
ATOM     29  O   UNL     1       9.461  -9.564   4.683  1.00  0.00    -0.269 OA
BRANCH  27  30
ATOM     30  C   UNL     1      11.292  -9.725   3.213  1.00  0.00     0.039 A 
ATOM     31  C   UNL     1      11.071 -11.053   2.835  1.00  0.00     0.014 A 
ATOM     32  C   UNL     1      12.535  -9.139   2.972  1.00  0.00     0.014 A 
ATOM     33  C   UNL     1      12.070 -11.762   2.162  1.00  0.00     0.010 A 
ATOM     34  C   UNL     1      13.482  -9.802   2.200  1.00  0.00     0.010 A 
ATOM     35  C   UNL     1      13.272 -11.130   1.804  1.00  0.00    -0.014 A 
BRANCH  35  36
ATOM     36  C   UNL     1      14.341 -11.847   1.060  1.00  0.00     0.031 A 
ATOM     37  C   UNL     1      15.708 -12.001   1.677  1.00  0.00     0.074 A 
ATOM     38  C   UNL     1      14.105 -12.294  -0.189  1.00  0.00     0.049 A 
ATOM     39  N   UNL     1      16.801 -12.502   1.161  1.00  0.00    -0.248 NA
ATOM     40  C   UNL     1      15.877 -11.483   3.044  1.00  0.00     0.031 C 
ATOM     41  C   UNL     1      12.838 -12.157  -0.913  1.00  0.00     0.029 A 
ATOM     42  N   UNL     1      14.921 -12.949  -1.077  1.00  0.00    -0.354 N 
ATOM     43  C   UNL     1      17.788 -12.336   2.128  1.00  0.00     0.074 A 
ATOM     44  C   UNL     1      17.180 -11.620   3.228  1.00  0.00     0.031 C 
ATOM     45  C   UNL     1      12.953 -12.741  -2.116  1.00  0.00     0.029 A 
ATOM     46  C   UNL     1      14.311 -13.250  -2.273  1.00  0.00     0.049 A 
ATOM     47  H   UNL     1      15.857 -13.182  -0.877  1.00  0.00     0.167 HD
ATOM     48  C   UNL     1      19.074 -12.767   2.114  1.00  0.00     0.034 A 
ATOM     49  C   UNL     1      14.794 -13.861  -3.373  1.00  0.00     0.034 A 
ATOM     50  C   UNL     1      19.654 -13.505   1.018  1.00  0.00     0.049 A 
ATOM     51  C   UNL     1      16.225 -14.337  -3.365  1.00  0.00     0.074 A 
ATOM     52  C   UNL     1      20.925 -14.041   0.914  1.00  0.00     0.029 A 
ATOM     53  N   UNL     1      18.997 -13.811  -0.168  1.00  0.00    -0.354 N 
ATOM     54  N   UNL     1      17.132 -14.215  -2.423  1.00  0.00    -0.248 NA
ATOM     55  C   UNL     1      16.691 -15.047  -4.562  1.00  0.00     0.031 C 
ATOM     56  C   UNL     1      21.057 -14.614  -0.355  1.00  0.00     0.029 A 
ATOM     57  C   UNL     1      19.844 -14.507  -1.016  1.00  0.00     0.049 A 
ATOM     58  H   UNL     1      18.065 -13.569  -0.376  1.00  0.00     0.167 HD
ATOM     59  C   UNL     1      18.266 -14.864  -2.903  1.00  0.00     0.074 A 
ATOM     60  C   UNL     1      17.920 -15.389  -4.208  1.00  0.00     0.031 C 
ATOM     61  C   UNL     1      19.483 -15.017  -2.319  1.00  0.00     0.034 A 
BRANCH  48  62
ATOM     62  C   UNL     1      19.934 -12.432   3.312  1.00  0.00     0.023 A 
ATOM     63  C   UNL     1      19.616 -12.893   4.603  1.00  0.00     0.031 A 
ATOM     64  C   UNL     1      21.066 -11.610   3.172  1.00  0.00     0.131 A 
ATOM     65  C   UNL     1      20.364 -12.459   5.708  1.00  0.00     0.055 A 
ATOM     66  C   UNL     1      21.860 -11.255   4.265  1.00  0.00     0.041 A 
ATOM     67  F   UNL     1      21.411 -11.120   1.970  1.00  0.00    -0.206 F 
ATOM     68  C   UNL     1      21.500 -11.665   5.545  1.00  0.00     0.022 A 
BRANCH  65  69
ATOM     69  S   UNL     1      19.736 -12.818   7.372  1.00  0.00     0.124 S 
ATOM     70  O   UNL     1      18.429 -12.166   7.340  1.00  0.00    -0.237 OA
ATOM     71  O   UNL     1      19.722 -14.276   7.396  1.00  0.00    -0.237 OA
ATOM     72  O   UNL     1      20.717 -12.187   8.252  1.00  0.00    -0.744 OA
ENDBRANCH  65  69
ENDBRANCH  48  62
BRANCH  49  73
ATOM     73  C   UNL     1      13.927 -14.066  -4.569  1.00  0.00     0.023 A 
ATOM     74  C   UNL     1      13.584 -15.357  -5.000  1.00  0.00     0.031 A 
ATOM     75  C   UNL     1      13.458 -12.974  -5.322  1.00  0.00     0.131 A 
ATOM     76  C   UNL     1      12.841 -15.528  -6.179  1.00  0.00     0.055 A 
ATOM     77  C   UNL     1      12.672 -13.148  -6.463  1.00  0.00     0.041 A 
ATOM     78  F   UNL     1      13.750 -11.717  -4.951  1.00  0.00    -0.206 F 
ATOM     79  C   UNL     1      12.372 -14.432  -6.906  1.00  0.00     0.022 A 
BRANCH  76  80
ATOM     80  S   UNL     1      12.570 -17.212  -6.798  1.00  0.00     0.124 S 
ATOM     81  O   UNL     1      13.938 -17.697  -6.947  1.00  0.00    -0.237 OA
ATOM     82  O   UNL     1      11.791 -17.809  -5.718  1.00  0.00    -0.237 OA
ATOM     83  O   UNL     1      11.842 -17.002  -8.047  1.00  0.00    -0.744 OA
ENDBRANCH  76  80
ENDBRANCH  49  73
BRANCH  61  84
ATOM     84  C   UNL     1      20.506 -15.829  -3.075  1.00  0.00     0.023 A 
ATOM     85  C   UNL     1      21.039 -15.395  -4.301  1.00  0.00     0.031 A 
ATOM     86  C   UNL     1      20.935 -17.069  -2.569  1.00  0.00     0.131 A 
ATOM     87  C   UNL     1      21.920 -16.223  -5.012  1.00  0.00     0.055 A 
ATOM     88  C   UNL     1      21.863 -17.859  -3.249  1.00  0.00     0.041 A 
ATOM     89  F   UNL     1      20.458 -17.535  -1.404  1.00  0.00    -0.206 F 
ATOM     90  C   UNL     1      22.349 -17.444  -4.486  1.00  0.00     0.022 A 
BRANCH  87  91
ATOM     91  S   UNL     1      22.411 -15.733  -6.688  1.00  0.00     0.124 S 
ATOM     92  O   UNL     1      21.121 -15.602  -7.356  1.00  0.00    -0.237 OA
ATOM     93  O   UNL     1      23.134 -14.489  -6.449  1.00  0.00    -0.237 OA
ATOM     94  O   UNL     1      23.235 -16.851  -7.144  1.00  0.00    -0.744 OA
ENDBRANCH  87  91
ENDBRANCH  61  84
ENDBRANCH  35  36
ENDBRANCH  27  30
ENDBRANCH  25  26
ENDBRANCH   1  25
TORSDOF 16
