REMARK SMILES CC(C)c1cc(O)cc(C(C)C)c1O[C@@H]1O[C@@H](C(=O)NCCCNC(=O)c2ccc(-c3c4nc(c(-c5cc(S(=O)(=O)[O-])ccc5F)c5ccc([nH]5)c(-c5cc(S(=O)(=O)[O-])ccc5F)c5nc(c(-c6cc(S(=O)(=O)[O-])ccc6F)c6ccc3[nH]6)C=C5)C=C4)cc2)[C@@H](O)[C@H](O)[C@@H]1O
REMARK SMILES IDX 22 1 21 2 20 3 18 4 19 5 17 7 15 8 16 9 94 10 92 11 90 12
REMARK SMILES IDX 14 13 13 14 4 15 5 16 6 17 9 18 8 19 2 20 1 21 3 22 7 23
REMARK SMILES IDX 10 25 11 26 12 27 95 28 93 30 91 32 23 34 24 35 25 36 26 38
REMARK SMILES IDX 27 39 28 40 89 41 29 42 88 43 30 44 31 45 32 46 82 47 33 48
REMARK SMILES IDX 87 49 81 50 83 51 34 52 86 53 80 54 79 55 35 57 67 58 47 59
REMARK SMILES IDX 66 60 48 61 51 62 65 63 84 64 49 65 50 66 64 68 85 69 52 70
REMARK SMILES IDX 36 71 37 72 45 73 38 74 44 75 46 76 43 77 39 78 40 79 41 80
REMARK SMILES IDX 42 81 68 82 69 83 77 84 70 85 76 86 78 87 75 88 71 89 72 90
REMARK SMILES IDX 73 91 74 92 53 93 54 94 62 95 55 96 61 97 63 98 60 99 56 100
REMARK SMILES IDX 57 101 58 102 59 103
REMARK H PARENT 20 6 7 24 95 29 93 31 91 33 24 37 83 56 51 67
REMARK Flexibility Score: inf
ROOT
ATOM      1  C   UNL     1      -2.438   2.210   1.602  1.00  0.00     0.042 C 
ENDROOT
BRANCH   1   2
ATOM      2  C   UNL     1      -2.099   0.782   1.979  1.00  0.00     0.117 C 
BRANCH   2   3
ATOM      3  N   UNL     1      -2.185  -0.167   0.877  1.00  0.00    -0.354 N 
ATOM      4  C   UNL     1      -1.294  -0.968   0.239  1.00  0.00     0.252 C 
ATOM      5  O   UNL     1      -1.805  -1.863  -0.452  1.00  0.00    -0.272 OA
ATOM      6  H   UNL     1      -3.097  -0.246   0.513  1.00  0.00     0.163 HD
BRANCH   4   7
ATOM      7  C   UNL     1       0.260  -0.829   0.267  1.00  0.00     0.242 C 
ATOM      8  C   UNL     1       0.806  -2.997   1.181  1.00  0.00     0.339 C 
ATOM      9  O   UNL     1       0.942  -2.086   0.085  1.00  0.00    -0.324 OA
ATOM     10  C   UNL     1       0.922  -2.421   2.630  1.00  0.00     0.214 C 
ATOM     11  C   UNL     1       0.621  -0.914   2.731  1.00  0.00     0.181 C 
ATOM     12  C   UNL     1       0.931  -0.127   1.437  1.00  0.00     0.184 C 
BRANCH   8  13
ATOM     13  O   UNL     1       1.555  -4.213   1.017  1.00  0.00    -0.461 OA
BRANCH  13  14
ATOM     14  C   UNL     1       2.902  -4.442   0.963  1.00  0.00     0.130 A 
ATOM     15  C   UNL     1       3.199  -5.840   1.026  1.00  0.00     0.001 A 
ATOM     16  C   UNL     1       4.538  -6.283   0.991  1.00  0.00     0.054 A 
ATOM     17  C   UNL     1       5.574  -5.375   0.907  1.00  0.00     0.116 A 
ATOM     18  C   UNL     1       3.982  -3.526   0.883  1.00  0.00     0.001 A 
ATOM     19  C   UNL     1       5.304  -4.023   0.845  1.00  0.00     0.054 A 
BRANCH  15  20
ATOM     20  C   UNL     1       2.092  -6.898   1.113  1.00  0.00     0.017 C 
ATOM     21  C   UNL     1       1.981  -7.669  -0.205  1.00  0.00     0.012 C 
ATOM     22  C   UNL     1       2.296  -7.861   2.291  1.00  0.00     0.012 C 
ENDBRANCH  15  20
BRANCH  17  23
ATOM     23  O   UNL     1       6.878  -5.765   0.885  1.00  0.00    -0.508 OA
ATOM     24  H   UNL     1       7.095  -6.676   0.925  1.00  0.00     0.293 HD
ENDBRANCH  17  23
BRANCH  18  25
ATOM     25  C   UNL     1       3.871  -2.019   0.830  1.00  0.00     0.017 C 
ATOM     26  C   UNL     1       4.706  -1.267   1.878  1.00  0.00     0.012 C 
ATOM     27  C   UNL     1       4.103  -1.457  -0.570  1.00  0.00     0.012 C 
ENDBRANCH  18  25
ENDBRANCH  13  14
ENDBRANCH   8  13
BRANCH  10  28
ATOM     28  O   UNL     1       2.182  -2.656   3.285  1.00  0.00    -0.384 OA
ATOM     29  H   UNL     1       2.880  -2.155   2.834  1.00  0.00     0.211 HD
ENDBRANCH  10  28
BRANCH  11  30
ATOM     30  O   UNL     1       1.325  -0.341   3.840  1.00  0.00    -0.387 OA
ATOM     31  H   UNL     1       2.281  -0.420   3.693  1.00  0.00     0.211 HD
ENDBRANCH  11  30
BRANCH  12  32
ATOM     32  O   UNL     1       0.649   1.272   1.458  1.00  0.00    -0.387 OA
ATOM     33  H   UNL     1      -0.307   1.408   1.552  1.00  0.00     0.211 HD
ENDBRANCH  12  32
ENDBRANCH   4   7
ENDBRANCH   2   3
ENDBRANCH   1   2
BRANCH   1  34
ATOM     34  C   UNL     1      -3.932   2.466   1.686  1.00  0.00     0.118 C 
BRANCH  34  35
ATOM     35  N   UNL     1      -4.449   2.235   3.038  1.00  0.00    -0.352 N 
ATOM     36  C   UNL     1      -4.676   3.114   4.071  1.00  0.00     0.251 C 
ATOM     37  H   UNL     1      -4.669   1.297   3.240  1.00  0.00     0.163 HD
ATOM     38  O   UNL     1      -4.782   2.688   5.215  1.00  0.00    -0.269 OA
BRANCH  36  39
ATOM     39  C   UNL     1      -4.798   4.556   3.789  1.00  0.00     0.039 A 
ATOM     40  C   UNL     1      -4.289   5.494   4.691  1.00  0.00     0.014 A 
ATOM     41  C   UNL     1      -5.439   4.979   2.625  1.00  0.00     0.014 A 
ATOM     42  C   UNL     1      -4.351   6.853   4.374  1.00  0.00     0.010 A 
ATOM     43  C   UNL     1      -5.384   6.310   2.253  1.00  0.00     0.010 A 
ATOM     44  C   UNL     1      -4.853   7.266   3.129  1.00  0.00    -0.014 A 
BRANCH  44  45
ATOM     45  C   UNL     1      -4.859   8.687   2.706  1.00  0.00     0.031 A 
ATOM     46  C   UNL     1      -6.166   9.344   2.342  1.00  0.00     0.074 A 
ATOM     47  C   UNL     1      -3.688   9.334   2.538  1.00  0.00     0.049 A 
ATOM     48  N   UNL     1      -6.380  10.510   1.793  1.00  0.00    -0.248 NA
ATOM     49  C   UNL     1      -7.391   8.562   2.580  1.00  0.00     0.031 C 
ATOM     50  C   UNL     1      -2.361   8.768   2.799  1.00  0.00     0.029 A 
ATOM     51  N   UNL     1      -3.421  10.601   2.089  1.00  0.00    -0.354 N 
ATOM     52  C   UNL     1      -7.755  10.585   1.588  1.00  0.00     0.074 A 
ATOM     53  C   UNL     1      -8.316   9.323   2.015  1.00  0.00     0.031 C 
ATOM     54  C   UNL     1      -1.426   9.693   2.533  1.00  0.00     0.029 A 
ATOM     55  C   UNL     1      -2.077  10.896   2.030  1.00  0.00     0.049 A 
ATOM     56  H   UNL     1      -4.123  11.241   1.833  1.00  0.00     0.167 HD
ATOM     57  C   UNL     1      -8.482  11.623   1.110  1.00  0.00     0.034 A 
ATOM     58  C   UNL     1      -1.446  12.006   1.600  1.00  0.00     0.034 A 
ATOM     59  C   UNL     1      -7.903  12.890   0.742  1.00  0.00     0.049 A 
ATOM     60  C   UNL     1      -2.283  13.153   1.093  1.00  0.00     0.074 A 
ATOM     61  C   UNL     1      -8.547  14.047   0.344  1.00  0.00     0.029 A 
ATOM     62  N   UNL     1      -6.542  13.165   0.728  1.00  0.00    -0.354 N 
ATOM     63  N   UNL     1      -3.590  13.234   0.977  1.00  0.00    -0.248 NA
ATOM     64  C   UNL     1      -1.564  14.360   0.668  1.00  0.00     0.031 C 
ATOM     65  C   UNL     1      -7.574  15.001   0.030  1.00  0.00     0.029 A 
ATOM     66  C   UNL     1      -6.325  14.463   0.297  1.00  0.00     0.049 A 
ATOM     67  H   UNL     1      -5.835  12.530   0.988  1.00  0.00     0.167 HD
ATOM     68  C   UNL     1      -3.847  14.511   0.488  1.00  0.00     0.074 A 
ATOM     69  C   UNL     1      -2.564  15.171   0.358  1.00  0.00     0.031 C 
ATOM     70  C   UNL     1      -5.033  15.090   0.170  1.00  0.00     0.034 A 
BRANCH  57  71
ATOM     71  C   UNL     1      -9.969  11.429   0.951  1.00  0.00     0.023 A 
ATOM     72  C   UNL     1     -10.811  11.208   2.055  1.00  0.00     0.031 A 
ATOM     73  C   UNL     1     -10.556  11.470  -0.326  1.00  0.00     0.131 A 
ATOM     74  C   UNL     1     -12.181  10.977   1.857  1.00  0.00     0.055 A 
ATOM     75  C   UNL     1     -11.931  11.313  -0.510  1.00  0.00     0.041 A 
ATOM     76  F   UNL     1      -9.800  11.656  -1.419  1.00  0.00    -0.206 F 
ATOM     77  C   UNL     1     -12.751  11.054   0.585  1.00  0.00     0.022 A 
BRANCH  74  78
ATOM     78  S   UNL     1     -13.189  10.468   3.276  1.00  0.00     0.124 S 
ATOM     79  O   UNL     1     -12.563   9.200   3.642  1.00  0.00    -0.237 OA
ATOM     80  O   UNL     1     -12.997  11.569   4.212  1.00  0.00    -0.237 OA
ATOM     81  O   UNL     1     -14.534  10.352   2.716  1.00  0.00    -0.744 OA
ENDBRANCH  74  78
ENDBRANCH  57  71
BRANCH  58  82
ATOM     82  C   UNL     1       0.044  12.095   1.612  1.00  0.00     0.023 A 
ATOM     83  C   UNL     1       0.700  13.058   2.395  1.00  0.00     0.031 A 
ATOM     84  C   UNL     1       0.832  11.264   0.795  1.00  0.00     0.131 A 
ATOM     85  C   UNL     1       2.091  13.212   2.298  1.00  0.00     0.055 A 
ATOM     86  C   UNL     1       2.223  11.380   0.749  1.00  0.00     0.041 A 
ATOM     87  F   UNL     1       0.260  10.322   0.029  1.00  0.00    -0.206 F 
ATOM     88  C   UNL     1       2.859  12.371   1.490  1.00  0.00     0.022 A 
BRANCH  85  89
ATOM     89  S   UNL     1       2.869  14.608   3.156  1.00  0.00     0.124 S 
ATOM     90  O   UNL     1       2.103  15.738   2.641  1.00  0.00    -0.237 OA
ATOM     91  O   UNL     1       2.643  14.265   4.556  1.00  0.00    -0.237 OA
ATOM     92  O   UNL     1       4.261  14.544   2.716  1.00  0.00    -0.744 OA
ENDBRANCH  85  89
ENDBRANCH  58  82
BRANCH  70  93
ATOM     93  C   UNL     1      -4.981  16.515  -0.317  1.00  0.00     0.023 A 
ATOM     94  C   UNL     1      -4.402  16.846  -1.553  1.00  0.00     0.031 A 
ATOM     95  C   UNL     1      -5.507  17.553   0.472  1.00  0.00     0.131 A 
ATOM     96  C   UNL     1      -4.309  18.190  -1.940  1.00  0.00     0.055 A 
ATOM     97  C   UNL     1      -5.468  18.882   0.053  1.00  0.00     0.041 A 
ATOM     98  F   UNL     1      -6.072  17.289   1.662  1.00  0.00    -0.206 F 
ATOM     99  C   UNL     1      -4.854  19.208  -1.153  1.00  0.00     0.022 A 
BRANCH  96 100
ATOM    100  S   UNL     1      -3.385  18.596  -3.446  1.00  0.00     0.124 S 
ATOM    101  O   UNL     1      -2.057  18.076  -3.137  1.00  0.00    -0.237 OA
ATOM    102  O   UNL     1      -4.128  17.873  -4.473  1.00  0.00    -0.237 OA
ATOM    103  O   UNL     1      -3.480  20.053  -3.523  1.00  0.00    -0.744 OA
ENDBRANCH  96 100
ENDBRANCH  70  93
ENDBRANCH  44  45
ENDBRANCH  36  39
ENDBRANCH  34  35
ENDBRANCH   1  34
TORSDOF 21
