REMARK SMILES CC(=O)Nc1cccc(-c2cc(F)ccc2C(=O)NCCCNC(=O)c2ccc(-c3c4nc(c(-c5cc(S(=O)(=O)[O-])ccc5F)c5ccc([nH]5)c(-c5cc(S(=O)(=O)[O-])ccc5F)c5nc(c(-c6cc(S(=O)(=O)[O-])ccc6F)c6ccc3[nH]6)C=C5)C=C4)cc2)c1
REMARK SMILES IDX 21 1 20 2 19 3 17 4 18 5 16 7 10 8 11 9 12 10 15 11 13 12
REMARK SMILES IDX 14 13 9 14 5 15 6 16 89 17 7 18 8 19 4 20 1 21 2 22 3 23
REMARK SMILES IDX 22 25 23 26 24 27 25 29 26 30 27 31 88 32 28 33 87 34 29 35
REMARK SMILES IDX 30 36 31 37 81 38 32 39 86 40 80 41 82 42 33 43 85 44 79 45
REMARK SMILES IDX 78 46 34 48 66 49 46 50 65 51 47 52 50 53 64 54 83 55 48 56
REMARK SMILES IDX 49 57 63 59 84 60 51 61 35 62 36 63 44 64 37 65 43 66 45 67
REMARK SMILES IDX 42 68 38 69 39 70 40 71 41 72 67 73 68 74 76 75 69 76 75 77
REMARK SMILES IDX 77 78 74 79 70 80 71 81 72 82 73 83 52 84 53 85 61 86 54 87
REMARK SMILES IDX 60 88 62 89 59 90 55 91 56 92 57 93 58 94
REMARK H PARENT 19 6 4 24 23 28 82 47 50 58
REMARK Flexibility Score: inf
ROOT
ATOM      1  C   UNL     1       3.491  -3.607   3.768  1.00  0.00     0.042 C 
ENDROOT
BRANCH   1   2
ATOM      2  C   UNL     1       3.799  -2.829   2.513  1.00  0.00     0.118 C 
BRANCH   2   3
ATOM      3  N   UNL     1       4.853  -1.865   2.515  1.00  0.00    -0.352 N 
ATOM      4  C   UNL     1       5.564  -1.395   1.434  1.00  0.00     0.251 C 
ATOM      5  O   UNL     1       6.222  -0.367   1.631  1.00  0.00    -0.269 OA
ATOM      6  H   UNL     1       5.100  -1.492   3.393  1.00  0.00     0.163 HD
BRANCH   4   7
ATOM      7  C   UNL     1       5.706  -2.073   0.083  1.00  0.00     0.047 A 
ATOM      8  C   UNL     1       4.765  -2.760  -0.744  1.00  0.00    -0.003 A 
ATOM      9  C   UNL     1       5.217  -3.255  -1.996  1.00  0.00     0.048 A 
ATOM     10  C   UNL     1       6.526  -3.091  -2.428  1.00  0.00     0.123 A 
ATOM     11  C   UNL     1       7.035  -1.928  -0.407  1.00  0.00     0.017 A 
ATOM     12  F   UNL     1       6.898  -3.581  -3.617  1.00  0.00    -0.207 F 
ATOM     13  C   UNL     1       7.444  -2.429  -1.642  1.00  0.00     0.040 A 
BRANCH   8  14
ATOM     14  C   UNL     1       3.348  -3.065  -0.438  1.00  0.00    -0.015 A 
ATOM     15  C   UNL     1       1.146  -2.385   0.373  1.00  0.00     0.041 A 
ATOM     16  C   UNL     1       0.808  -3.730   0.568  1.00  0.00     0.026 A 
ATOM     17  C   UNL     1       2.401  -2.061  -0.174  1.00  0.00     0.034 A 
ATOM     18  C   UNL     1       1.689  -4.744   0.202  1.00  0.00     0.003 A 
ATOM     19  C   UNL     1       2.946  -4.413  -0.301  1.00  0.00     0.009 A 
BRANCH  15  20
ATOM     20  N   UNL     1       0.284  -1.430   0.948  1.00  0.00    -0.326 N 
ATOM     21  C   UNL     1       0.765   0.565  -0.449  1.00  0.00     0.114 C 
ATOM     22  C   UNL     1       0.204  -0.078   0.788  1.00  0.00     0.221 C 
ATOM     23  O   UNL     1      -0.365   0.611   1.636  1.00  0.00    -0.275 OA
ATOM     24  H   UNL     1      -0.376  -1.805   1.574  1.00  0.00     0.169 HD
ENDBRANCH  15  20
ENDBRANCH   8  14
ENDBRANCH   4   7
ENDBRANCH   2   3
ENDBRANCH   1   2
BRANCH   1  25
ATOM     25  C   UNL     1       2.634  -2.879   4.792  1.00  0.00     0.118 C 
BRANCH  25  26
ATOM     26  N   UNL     1       1.357  -2.381   4.273  1.00  0.00    -0.352 N 
ATOM     27  C   UNL     1       0.062  -2.851   4.293  1.00  0.00     0.251 C 
ATOM     28  H   UNL     1       1.444  -1.518   3.807  1.00  0.00     0.163 HD
ATOM     29  O   UNL     1      -0.745  -2.332   3.524  1.00  0.00    -0.269 OA
BRANCH  27  30
ATOM     30  C   UNL     1      -0.370  -3.990   5.145  1.00  0.00     0.039 A 
ATOM     31  C   UNL     1      -1.528  -4.702   4.801  1.00  0.00     0.014 A 
ATOM     32  C   UNL     1       0.321  -4.366   6.289  1.00  0.00     0.014 A 
ATOM     33  C   UNL     1      -1.911  -5.826   5.542  1.00  0.00     0.010 A 
ATOM     34  C   UNL     1       0.052  -5.578   6.909  1.00  0.00     0.010 A 
ATOM     35  C   UNL     1      -1.088  -6.312   6.568  1.00  0.00    -0.014 A 
BRANCH  35  36
ATOM     36  C   UNL     1      -1.411  -7.544   7.338  1.00  0.00     0.031 A 
ATOM     37  C   UNL     1      -1.502  -7.486   8.844  1.00  0.00     0.074 A 
ATOM     38  C   UNL     1      -1.534  -8.722   6.695  1.00  0.00     0.049 A 
ATOM     39  N   UNL     1      -1.640  -8.460   9.707  1.00  0.00    -0.248 NA
ATOM     40  C   UNL     1      -1.361  -6.159   9.466  1.00  0.00     0.031 C 
ATOM     41  C   UNL     1      -1.396  -8.918   5.249  1.00  0.00     0.029 A 
ATOM     42  N   UNL     1      -1.795  -9.981   7.172  1.00  0.00    -0.354 N 
ATOM     43  C   UNL     1      -1.573  -7.864  10.964  1.00  0.00     0.074 A 
ATOM     44  C   UNL     1      -1.277  -6.466  10.749  1.00  0.00     0.031 C 
ATOM     45  C   UNL     1      -1.618 -10.208   4.955  1.00  0.00     0.029 A 
ATOM     46  C   UNL     1      -1.857 -10.943   6.191  1.00  0.00     0.049 A 
ATOM     47  H   UNL     1      -1.926 -10.178   8.128  1.00  0.00     0.167 HD
ATOM     48  C   UNL     1      -1.782  -8.419  12.184  1.00  0.00     0.034 A 
ATOM     49  C   UNL     1      -2.074 -12.270   6.278  1.00  0.00     0.034 A 
ATOM     50  C   UNL     1      -2.104  -9.812  12.373  1.00  0.00     0.049 A 
ATOM     51  C   UNL     1      -2.319 -12.867   7.640  1.00  0.00     0.074 A 
ATOM     52  C   UNL     1      -2.382 -10.485  13.549  1.00  0.00     0.029 A 
ATOM     53  N   UNL     1      -2.197 -10.749  11.349  1.00  0.00    -0.354 N 
ATOM     54  N   UNL     1      -2.296 -12.282   8.817  1.00  0.00    -0.248 NA
ATOM     55  C   UNL     1      -2.641 -14.297   7.682  1.00  0.00     0.031 C 
ATOM     56  C   UNL     1      -2.576 -11.837  13.245  1.00  0.00     0.029 A 
ATOM     57  C   UNL     1      -2.509 -11.996  11.870  1.00  0.00     0.049 A 
ATOM     58  H   UNL     1      -2.061 -10.556  10.394  1.00  0.00     0.167 HD
ATOM     59  C   UNL     1      -2.635 -13.270   9.737  1.00  0.00     0.074 A 
ATOM     60  C   UNL     1      -2.880 -14.477   8.971  1.00  0.00     0.031 C 
ATOM     61  C   UNL     1      -2.735 -13.191  11.090  1.00  0.00     0.034 A 
BRANCH  48  62
ATOM     62  C   UNL     1      -1.655  -7.513  13.390  1.00  0.00     0.023 A 
ATOM     63  C   UNL     1      -2.463  -6.371  13.543  1.00  0.00     0.031 A 
ATOM     64  C   UNL     1      -0.681  -7.758  14.374  1.00  0.00     0.131 A 
ATOM     65  C   UNL     1      -2.216  -5.467  14.587  1.00  0.00     0.055 A 
ATOM     66  C   UNL     1      -0.507  -6.906  15.468  1.00  0.00     0.041 A 
ATOM     67  F   UNL     1       0.138  -8.817  14.278  1.00  0.00    -0.206 F 
ATOM     68  C   UNL     1      -1.262  -5.741  15.569  1.00  0.00     0.022 A 
BRANCH  65  69
ATOM     69  S   UNL     1      -3.031  -3.846  14.537  1.00  0.00     0.124 S 
ATOM     70  O   UNL     1      -2.562  -3.322  13.256  1.00  0.00    -0.237 OA
ATOM     71  O   UNL     1      -4.443  -4.200  14.605  1.00  0.00    -0.237 OA
ATOM     72  O   UNL     1      -2.500  -3.160  15.714  1.00  0.00    -0.744 OA
ENDBRANCH  65  69
ENDBRANCH  48  62
BRANCH  49  73
ATOM     73  C   UNL     1      -2.079 -13.117   5.050  1.00  0.00     0.023 A 
ATOM     74  C   UNL     1      -3.244 -13.778   4.628  1.00  0.00     0.031 A 
ATOM     75  C   UNL     1      -0.909 -13.298   4.290  1.00  0.00     0.131 A 
ATOM     76  C   UNL     1      -3.204 -14.625   3.509  1.00  0.00     0.055 A 
ATOM     77  C   UNL     1      -0.888 -14.096   3.145  1.00  0.00     0.041 A 
ATOM     78  F   UNL     1       0.231 -12.682   4.642  1.00  0.00    -0.206 F 
ATOM     79  C   UNL     1      -2.038 -14.777   2.756  1.00  0.00     0.022 A 
BRANCH  76  80
ATOM     80  S   UNL     1      -4.682 -15.593   3.097  1.00  0.00     0.124 S 
ATOM     81  O   UNL     1      -4.894 -16.348   4.327  1.00  0.00    -0.237 OA
ATOM     82  O   UNL     1      -5.657 -14.548   2.808  1.00  0.00    -0.237 OA
ATOM     83  O   UNL     1      -4.259 -16.384   1.943  1.00  0.00    -0.744 OA
ENDBRANCH  76  80
ENDBRANCH  49  73
BRANCH  61  84
ATOM     84  C   UNL     1      -3.177 -14.442  11.812  1.00  0.00     0.023 A 
ATOM     85  C   UNL     1      -2.408 -15.619  11.792  1.00  0.00     0.031 A 
ATOM     86  C   UNL     1      -4.407 -14.469  12.493  1.00  0.00     0.131 A 
ATOM     87  C   UNL     1      -2.919 -16.796  12.359  1.00  0.00     0.055 A 
ATOM     88  C   UNL     1      -4.871 -15.622  13.128  1.00  0.00     0.041 A 
ATOM     89  F   UNL     1      -5.185 -13.376  12.545  1.00  0.00    -0.206 F 
ATOM     90  C   UNL     1      -4.136 -16.800  13.044  1.00  0.00     0.022 A 
BRANCH  87  91
ATOM     91  S   UNL     1      -2.041 -18.353  12.054  1.00  0.00     0.124 S 
ATOM     92  O   UNL     1      -1.970 -18.380  10.597  1.00  0.00    -0.237 OA
ATOM     93  O   UNL     1      -0.776 -18.138  12.749  1.00  0.00    -0.237 OA
ATOM     94  O   UNL     1      -2.914 -19.361  12.652  1.00  0.00    -0.744 OA
ENDBRANCH  87  91
ENDBRANCH  61  84
ENDBRANCH  35  36
ENDBRANCH  27  30
ENDBRANCH  25  26
ENDBRANCH   1  25
TORSDOF 15
