REMARK SMILES O=C(NCCCNC(=O)c1ccc(-c2c3nc(c(-c4cc(S(=O)(=O)[O-])ccc4F)c4ccc([nH]4)c(-c4cc(S(=O)(=O)[O-])ccc4F)c4nc(c(-c5cc(S(=O)(=O)[O-])ccc5F)c5ccc2[nH]5)C=C4)C=C3)cc1)c1ccc(N/C=C\C(=O)c2ccco2)cc1
REMARK SMILES IDX 4 1 3 2 1 3 2 4 73 6 74 7 88 8 75 9 87 10 76 11 77 12 78 14
REMARK SMILES IDX 79 15 80 16 81 17 82 18 83 19 86 20 84 21 85 22 5 23 6 24
REMARK SMILES IDX 7 25 8 26 9 28 10 29 11 30 72 31 12 32 71 33 13 34 14 35
REMARK SMILES IDX 15 36 65 37 16 38 70 39 64 40 66 41 17 42 69 43 63 44 62 45
REMARK SMILES IDX 18 47 50 48 30 49 49 50 31 51 34 52 48 53 67 54 32 55 33 56
REMARK SMILES IDX 47 58 68 59 35 60 19 61 20 62 28 63 21 64 27 65 29 66 26 67
REMARK SMILES IDX 22 68 23 69 24 70 25 71 51 72 52 73 60 74 53 75 59 76 61 77
REMARK SMILES IDX 58 78 54 79 55 80 56 81 57 82 36 83 37 84 45 85 38 86 44 87
REMARK SMILES IDX 46 88 43 89 39 90 40 91 41 92 42 93
REMARK H PARENT 3 5 77 13 7 27 66 46 34 57
REMARK Flexibility Score: inf
ROOT
ATOM      1  C   UNL     1       4.529  -0.317  -1.348  1.00  0.00     0.118 C 
ENDROOT
BRANCH   1   2
ATOM      2  N   UNL     1       3.090  -0.118  -1.245  1.00  0.00    -0.352 N 
ATOM      3  O   UNL     1       1.117   0.289  -0.226  1.00  0.00    -0.269 OA
ATOM      4  C   UNL     1       2.344   0.335  -0.188  1.00  0.00     0.251 C 
ATOM      5  H   UNL     1       2.577  -0.343  -2.054  1.00  0.00     0.163 HD
BRANCH   4   6
ATOM      6  C   UNL     1       3.016   0.857   1.018  1.00  0.00     0.039 A 
ATOM      7  C   UNL     1       4.011   1.834   0.927  1.00  0.00     0.016 A 
ATOM      8  C   UNL     1       2.633   0.360   2.262  1.00  0.00     0.016 A 
ATOM      9  C   UNL     1       4.701   2.235   2.073  1.00  0.00     0.027 A 
ATOM     10  C   UNL     1       3.301   0.794   3.406  1.00  0.00     0.027 A 
ATOM     11  C   UNL     1       4.354   1.722   3.326  1.00  0.00     0.038 A 
BRANCH  11  12
ATOM     12  N   UNL     1       5.069   2.008   4.499  1.00  0.00    -0.362 N 
ATOM     13  H   UNL     1       4.549   1.971   5.334  1.00  0.00     0.166 HD
BRANCH  12  14
ATOM     14  C   UNL     1       6.393   2.332   4.640  1.00  0.00     0.087 C 
ATOM     15  C   UNL     1       7.135   2.431   5.753  1.00  0.00     0.074 C 
BRANCH  15  16
ATOM     16  C   UNL     1       6.687   2.188   7.157  1.00  0.00     0.222 C 
ATOM     17  O   UNL     1       7.258   2.815   8.050  1.00  0.00    -0.286 OA
BRANCH  16  18
ATOM     18  C   UNL     1       5.619   1.242   7.398  1.00  0.00     0.173 A 
ATOM     19  C   UNL     1       5.393  -0.046   6.944  1.00  0.00     0.054 A 
ATOM     20  O   UNL     1       4.548   1.653   8.144  1.00  0.00    -0.461 OA
ATOM     21  C   UNL     1       4.110  -0.423   7.411  1.00  0.00     0.043 A 
ATOM     22  C   UNL     1       3.638   0.646   8.135  1.00  0.00     0.196 A 
ENDBRANCH  16  18
ENDBRANCH  15  16
ENDBRANCH  12  14
ENDBRANCH  11  12
ENDBRANCH   4   6
ENDBRANCH   1   2
BRANCH   1  23
ATOM     23  C   UNL     1       4.912  -1.778  -1.529  1.00  0.00     0.042 C 
BRANCH  23  24
ATOM     24  C   UNL     1       4.375  -2.418  -2.801  1.00  0.00     0.118 C 
BRANCH  24  25
ATOM     25  N   UNL     1       4.840  -1.753  -4.010  1.00  0.00    -0.352 N 
ATOM     26  C   UNL     1       5.630  -2.214  -5.036  1.00  0.00     0.251 C 
ATOM     27  H   UNL     1       4.540  -0.821  -4.109  1.00  0.00     0.163 HD
ATOM     28  O   UNL     1       6.053  -1.416  -5.868  1.00  0.00    -0.269 OA
BRANCH  26  29
ATOM     29  C   UNL     1       5.996  -3.646  -5.123  1.00  0.00     0.039 A 
ATOM     30  C   UNL     1       7.298  -3.990  -5.499  1.00  0.00     0.014 A 
ATOM     31  C   UNL     1       5.063  -4.649  -4.853  1.00  0.00     0.014 A 
ATOM     32  C   UNL     1       7.683  -5.334  -5.523  1.00  0.00     0.010 A 
ATOM     33  C   UNL     1       5.471  -5.979  -4.791  1.00  0.00     0.010 A 
ATOM     34  C   UNL     1       6.785  -6.337  -5.125  1.00  0.00    -0.014 A 
BRANCH  34  35
ATOM     35  C   UNL     1       7.191  -7.766  -5.058  1.00  0.00     0.031 A 
ATOM     36  C   UNL     1       6.498  -8.786  -5.922  1.00  0.00     0.074 A 
ATOM     37  C   UNL     1       8.119  -8.157  -4.161  1.00  0.00     0.049 A 
ATOM     38  N   UNL     1       6.616 -10.089  -5.923  1.00  0.00    -0.248 NA
ATOM     39  C   UNL     1       5.516  -8.271  -6.888  1.00  0.00     0.031 C 
ATOM     40  C   UNL     1       8.828  -7.269  -3.236  1.00  0.00     0.029 A 
ATOM     41  N   UNL     1       8.615  -9.402  -3.868  1.00  0.00    -0.354 N 
ATOM     42  C   UNL     1       5.706 -10.551  -6.869  1.00  0.00     0.074 A 
ATOM     43  C   UNL     1       5.006  -9.391  -7.377  1.00  0.00     0.031 C 
ATOM     44  C   UNL     1       9.679  -7.996  -2.493  1.00  0.00     0.029 A 
ATOM     45  C   UNL     1       9.545  -9.403  -2.853  1.00  0.00     0.049 A 
ATOM     46  H   UNL     1       8.332 -10.219  -4.339  1.00  0.00     0.167 HD
ATOM     47  C   UNL     1       5.489 -11.823  -7.289  1.00  0.00     0.034 A 
ATOM     48  C   UNL     1      10.204 -10.424  -2.269  1.00  0.00     0.034 A 
ATOM     49  C   UNL     1       6.216 -12.965  -6.792  1.00  0.00     0.049 A 
ATOM     50  C   UNL     1       9.951 -11.828  -2.755  1.00  0.00     0.074 A 
ATOM     51  C   UNL     1       6.123 -14.287  -7.192  1.00  0.00     0.029 A 
ATOM     52  N   UNL     1       7.172 -12.922  -5.785  1.00  0.00    -0.354 N 
ATOM     53  N   UNL     1       9.118 -12.242  -3.682  1.00  0.00    -0.248 NA
ATOM     54  C   UNL     1      10.735 -12.898  -2.126  1.00  0.00     0.031 C 
ATOM     55  C   UNL     1       6.979 -15.050  -6.390  1.00  0.00     0.029 A 
ATOM     56  C   UNL     1       7.659 -14.196  -5.535  1.00  0.00     0.049 A 
ATOM     57  H   UNL     1       7.462 -12.106  -5.317  1.00  0.00     0.167 HD
ATOM     58  C   UNL     1       9.303 -13.619  -3.767  1.00  0.00     0.074 A 
ATOM     59  C   UNL     1      10.332 -13.961  -2.807  1.00  0.00     0.031 C 
ATOM     60  C   UNL     1       8.682 -14.520  -4.571  1.00  0.00     0.034 A 
BRANCH  47  61
ATOM     61  C   UNL     1       4.408 -12.039  -8.321  1.00  0.00     0.023 A 
ATOM     62  C   UNL     1       4.495 -11.482  -9.609  1.00  0.00     0.031 A 
ATOM     63  C   UNL     1       3.261 -12.788  -8.005  1.00  0.00     0.131 A 
ATOM     64  C   UNL     1       3.423 -11.615 -10.504  1.00  0.00     0.055 A 
ATOM     65  C   UNL     1       2.233 -12.986  -8.929  1.00  0.00     0.041 A 
ATOM     66  F   UNL     1       3.112 -13.328  -6.785  1.00  0.00    -0.206 F 
ATOM     67  C   UNL     1       2.303 -12.385 -10.182  1.00  0.00     0.022 A 
BRANCH  64  68
ATOM     68  S   UNL     1       3.453 -10.649 -12.039  1.00  0.00     0.124 S 
ATOM     69  O   UNL     1       3.515  -9.283 -11.525  1.00  0.00    -0.237 OA
ATOM     70  O   UNL     1       4.658 -11.139 -12.697  1.00  0.00    -0.237 OA
ATOM     71  O   UNL     1       2.195 -11.005 -12.692  1.00  0.00    -0.744 OA
ENDBRANCH  64  68
ENDBRANCH  47  61
BRANCH  48  72
ATOM     72  C   UNL     1      11.159 -10.166  -1.154  1.00  0.00     0.023 A 
ATOM     73  C   UNL     1      12.532 -10.418  -1.308  1.00  0.00     0.031 A 
ATOM     74  C   UNL     1      10.709  -9.702   0.094  1.00  0.00     0.131 A 
ATOM     75  C   UNL     1      13.400 -10.250  -0.218  1.00  0.00     0.055 A 
ATOM     76  C   UNL     1      11.584  -9.489   1.161  1.00  0.00     0.041 A 
ATOM     77  F   UNL     1       9.407  -9.437   0.291  1.00  0.00    -0.206 F 
ATOM     78  C   UNL     1      12.937  -9.776   1.012  1.00  0.00     0.022 A 
BRANCH  75  79
ATOM     79  S   UNL     1      15.136 -10.739  -0.409  1.00  0.00     0.124 S 
ATOM     80  O   UNL     1      15.010 -12.141  -0.788  1.00  0.00    -0.237 OA
ATOM     81  O   UNL     1      15.592  -9.829  -1.454  1.00  0.00    -0.237 OA
ATOM     82  O   UNL     1      15.704 -10.499   0.916  1.00  0.00    -0.744 OA
ENDBRANCH  75  79
ENDBRANCH  48  72
BRANCH  60  83
ATOM     83  C   UNL     1       9.144 -15.952  -4.477  1.00  0.00     0.023 A 
ATOM     84  C   UNL     1       8.901 -16.735  -3.336  1.00  0.00     0.031 A 
ATOM     85  C   UNL     1       9.845 -16.537  -5.547  1.00  0.00     0.131 A 
ATOM     86  C   UNL     1       9.400 -18.045  -3.270  1.00  0.00     0.055 A 
ATOM     87  C   UNL     1      10.291 -17.857  -5.498  1.00  0.00     0.041 A 
ATOM     88  F   UNL     1      10.104 -15.831  -6.660  1.00  0.00    -0.206 F 
ATOM     89  C   UNL     1      10.080 -18.616  -4.350  1.00  0.00     0.022 A 
BRANCH  86  90
ATOM     90  S   UNL     1       9.217 -18.971  -1.721  1.00  0.00     0.124 S 
ATOM     91  O   UNL     1       9.926 -18.118  -0.772  1.00  0.00    -0.237 OA
ATOM     92  O   UNL     1       7.768 -19.032  -1.563  1.00  0.00    -0.237 OA
ATOM     93  O   UNL     1       9.864 -20.250  -2.007  1.00  0.00    -0.744 OA
ENDBRANCH  86  90
ENDBRANCH  60  83
ENDBRANCH  34  35
ENDBRANCH  26  29
ENDBRANCH  24  25
ENDBRANCH  23  24
ENDBRANCH   1  23
TORSDOF 17
