REMARK SMILES O=C(NCCCNC(=O)[C@H](c1ccccc1)C(c1ccccc1)c1ccccc1)c1ccc(-c2c3nc(c(-c4cc(S(=O)(=O)[O-])ccc4F)c4ccc([nH]4)c(-c4cc(S(=O)(=O)[O-])ccc4F)c4nc(c(-c5cc(S(=O)(=O)[O-])ccc5F)c5ccc2[nH]5)C=C4)C=C3)cc1
REMARK SMILES IDX 4 1 3 2 1 3 2 4 30 6 31 7 92 8 32 9 91 10 33 11 34 12 35 13
REMARK SMILES IDX 85 14 36 15 90 16 84 17 86 18 37 19 89 20 83 21 82 22 38 24
REMARK SMILES IDX 70 25 50 26 69 27 51 28 54 29 68 30 87 31 52 32 53 33 67 35
REMARK SMILES IDX 88 36 55 37 39 38 40 39 48 40 41 41 47 42 49 43 46 44 42 45
REMARK SMILES IDX 43 46 44 47 45 48 71 49 72 50 80 51 73 52 79 53 81 54 78 55
REMARK SMILES IDX 74 56 75 57 76 58 77 59 56 60 57 61 65 62 58 63 64 64 66 65
REMARK SMILES IDX 63 66 59 67 60 68 61 69 62 70 5 71 6 72 7 73 8 74 9 76 10 77
REMARK SMILES IDX 17 78 18 79 19 80 23 81 20 82 22 83 21 84 24 85 25 86 29 87
REMARK SMILES IDX 26 88 28 89 27 90 11 91 12 92 16 93 13 94 15 95 14 96
REMARK H PARENT 3 5 86 23 54 34 7 75
REMARK Flexibility Score: inf
ROOT
ATOM      1  C   UNL     1       8.087  -1.387   7.415  1.00  0.00     0.118 C 
ENDROOT
BRANCH   1   2
ATOM      2  N   UNL     1       8.041   0.042   7.670  1.00  0.00    -0.352 N 
ATOM      3  O   UNL     1       7.843   1.958   8.803  1.00  0.00    -0.269 OA
ATOM      4  C   UNL     1       8.085   0.751   8.847  1.00  0.00     0.251 C 
ATOM      5  H   UNL     1       7.965   0.598   6.861  1.00  0.00     0.163 HD
BRANCH   4   6
ATOM      6  C   UNL     1       8.397   0.120  10.158  1.00  0.00     0.039 A 
ATOM      7  C   UNL     1       9.362  -0.879  10.308  1.00  0.00     0.014 A 
ATOM      8  C   UNL     1       7.764   0.624  11.302  1.00  0.00     0.014 A 
ATOM      9  C   UNL     1       9.605  -1.448  11.563  1.00  0.00     0.010 A 
ATOM     10  C   UNL     1       8.067   0.110  12.570  1.00  0.00     0.010 A 
ATOM     11  C   UNL     1       8.975  -0.949  12.714  1.00  0.00    -0.014 A 
BRANCH  11  12
ATOM     12  C   UNL     1       9.309  -1.496  14.060  1.00  0.00     0.031 A 
ATOM     13  C   UNL     1       8.262  -2.184  14.896  1.00  0.00     0.074 A 
ATOM     14  C   UNL     1      10.558  -1.354  14.547  1.00  0.00     0.049 A 
ATOM     15  N   UNL     1       8.354  -2.665  16.111  1.00  0.00    -0.248 NA
ATOM     16  C   UNL     1       6.933  -2.337  14.289  1.00  0.00     0.031 C 
ATOM     17  C   UNL     1      11.664  -0.698  13.848  1.00  0.00     0.029 A 
ATOM     18  N   UNL     1      11.109  -1.744  15.743  1.00  0.00    -0.354 N 
ATOM     19  C   UNL     1       7.093  -3.165  16.423  1.00  0.00     0.074 A 
ATOM     20  C   UNL     1       6.246  -2.888  15.280  1.00  0.00     0.031 C 
ATOM     21  C   UNL     1      12.763  -0.750  14.615  1.00  0.00     0.029 A 
ATOM     22  C   UNL     1      12.430  -1.385  15.886  1.00  0.00     0.049 A 
ATOM     23  H   UNL     1      10.607  -2.235  16.433  1.00  0.00     0.167 HD
ATOM     24  C   UNL     1       6.683  -3.804  17.550  1.00  0.00     0.034 A 
ATOM     25  C   UNL     1      13.274  -1.521  16.927  1.00  0.00     0.034 A 
ATOM     26  C   UNL     1       7.537  -4.072  18.685  1.00  0.00     0.049 A 
ATOM     27  C   UNL     1      12.788  -2.188  18.186  1.00  0.00     0.074 A 
ATOM     28  C   UNL     1       7.230  -4.741  19.858  1.00  0.00     0.029 A 
ATOM     29  N   UNL     1       8.864  -3.672  18.798  1.00  0.00    -0.354 N 
ATOM     30  N   UNL     1      11.598  -2.672  18.456  1.00  0.00    -0.248 NA
ATOM     31  C   UNL     1      13.759  -2.330  19.278  1.00  0.00     0.031 C 
ATOM     32  C   UNL     1       8.344  -4.686  20.704  1.00  0.00     0.029 A 
ATOM     33  C   UNL     1       9.375  -4.052  20.031  1.00  0.00     0.049 A 
ATOM     34  H   UNL     1       9.367  -3.189  18.104  1.00  0.00     0.167 HD
ATOM     35  C   UNL     1      11.687  -3.200  19.741  1.00  0.00     0.074 A 
ATOM     36  C   UNL     1      13.047  -2.982  20.187  1.00  0.00     0.031 C 
ATOM     37  C   UNL     1      10.729  -3.819  20.478  1.00  0.00     0.034 A 
BRANCH  24  38
ATOM     38  C   UNL     1       5.230  -4.216  17.620  1.00  0.00     0.023 A 
ATOM     39  C   UNL     1       4.680  -5.144  16.718  1.00  0.00     0.031 A 
ATOM     40  C   UNL     1       4.372  -3.647  18.578  1.00  0.00     0.131 A 
ATOM     41  C   UNL     1       3.301  -5.405  16.733  1.00  0.00     0.055 A 
ATOM     42  C   UNL     1       3.017  -3.977  18.645  1.00  0.00     0.041 A 
ATOM     43  F   UNL     1       4.833  -2.743  19.457  1.00  0.00    -0.206 F 
ATOM     44  C   UNL     1       2.470  -4.847  17.706  1.00  0.00     0.022 A 
BRANCH  41  45
ATOM     45  S   UNL     1       2.590  -6.353  15.360  1.00  0.00     0.124 S 
ATOM     46  O   UNL     1       3.028  -5.571  14.202  1.00  0.00    -0.237 OA
ATOM     47  O   UNL     1       3.206  -7.657  15.521  1.00  0.00    -0.237 OA
ATOM     48  O   UNL     1       1.148  -6.300  15.620  1.00  0.00    -0.744 OA
ENDBRANCH  41  45
ENDBRANCH  24  38
BRANCH  25  49
ATOM     49  C   UNL     1      14.660  -0.982  16.834  1.00  0.00     0.023 A 
ATOM     50  C   UNL     1      15.774  -1.834  16.827  1.00  0.00     0.031 A 
ATOM     51  C   UNL     1      14.886   0.405  16.758  1.00  0.00     0.131 A 
ATOM     52  C   UNL     1      17.067  -1.291  16.775  1.00  0.00     0.055 A 
ATOM     53  C   UNL     1      16.171   0.938  16.658  1.00  0.00     0.041 A 
ATOM     54  F   UNL     1      13.852   1.262  16.756  1.00  0.00    -0.206 F 
ATOM     55  C   UNL     1      17.273   0.088  16.675  1.00  0.00     0.022 A 
BRANCH  52  56
ATOM     56  S   UNL     1      18.488  -2.412  16.892  1.00  0.00     0.124 S 
ATOM     57  O   UNL     1      18.275  -3.025  18.198  1.00  0.00    -0.237 OA
ATOM     58  O   UNL     1      18.286  -3.279  15.736  1.00  0.00    -0.237 OA
ATOM     59  O   UNL     1      19.638  -1.516  16.802  1.00  0.00    -0.744 OA
ENDBRANCH  52  56
ENDBRANCH  25  49
BRANCH  37  60
ATOM     60  C   UNL     1      11.140  -4.351  21.829  1.00  0.00     0.023 A 
ATOM     61  C   UNL     1      11.472  -3.498  22.896  1.00  0.00     0.031 A 
ATOM     62  C   UNL     1      11.207  -5.739  22.046  1.00  0.00     0.131 A 
ATOM     63  C   UNL     1      11.900  -4.041  24.118  1.00  0.00     0.055 A 
ATOM     64  C   UNL     1      11.582  -6.274  23.279  1.00  0.00     0.041 A 
ATOM     65  F   UNL     1      10.905  -6.599  21.061  1.00  0.00    -0.206 F 
ATOM     66  C   UNL     1      11.941  -5.423  24.321  1.00  0.00     0.022 A 
BRANCH  63  67
ATOM     67  S   UNL     1      12.476  -2.918  25.422  1.00  0.00     0.124 S 
ATOM     68  O   UNL     1      13.588  -2.238  24.766  1.00  0.00    -0.237 OA
ATOM     69  O   UNL     1      11.293  -2.105  25.680  1.00  0.00    -0.237 OA
ATOM     70  O   UNL     1      12.855  -3.820  26.509  1.00  0.00    -0.744 OA
ENDBRANCH  63  67
ENDBRANCH  37  60
ENDBRANCH  11  12
ENDBRANCH   4   6
ENDBRANCH   1   2
BRANCH   1  71
ATOM     71  C   UNL     1       6.734  -1.964   7.009  1.00  0.00     0.042 C 
BRANCH  71  72
ATOM     72  C   UNL     1       6.343  -1.786   5.541  1.00  0.00     0.117 C 
BRANCH  72  73
ATOM     73  N   UNL     1       7.257  -2.482   4.660  1.00  0.00    -0.355 N 
ATOM     74  C   UNL     1       7.319  -3.730   4.153  1.00  0.00     0.228 C 
ATOM     75  H   UNL     1       8.004  -1.914   4.364  1.00  0.00     0.163 HD
ATOM     76  O   UNL     1       8.440  -4.017   3.693  1.00  0.00    -0.274 OA
BRANCH  74  77
ATOM     77  C   UNL     1       6.176  -4.751   3.959  1.00  0.00     0.120 C 
BRANCH  77  78
ATOM     78  C   UNL     1       4.887  -4.844   4.838  1.00  0.00     0.066 C 
BRANCH  78  79
ATOM     79  C   UNL     1       4.025  -6.081   4.472  1.00  0.00    -0.039 A 
ATOM     80  C   UNL     1       2.637  -5.948   4.307  1.00  0.00     0.004 A 
ATOM     81  C   UNL     1       4.583  -7.370   4.367  1.00  0.00     0.004 A 
ATOM     82  C   UNL     1       1.841  -7.064   4.035  1.00  0.00     0.000 A 
ATOM     83  C   UNL     1       3.788  -8.482   4.087  1.00  0.00     0.000 A 
ATOM     84  C   UNL     1       2.416  -8.329   3.923  1.00  0.00     0.000 A 
ENDBRANCH  78  79
BRANCH  78  85
ATOM     85  C   UNL     1       5.046  -4.845   6.356  1.00  0.00    -0.039 A 
ATOM     86  C   UNL     1       5.942  -5.694   7.021  1.00  0.00     0.004 A 
ATOM     87  C   UNL     1       4.175  -4.053   7.135  1.00  0.00     0.004 A 
ATOM     88  C   UNL     1       5.976  -5.738   8.418  1.00  0.00     0.000 A 
ATOM     89  C   UNL     1       4.231  -4.079   8.529  1.00  0.00     0.000 A 
ATOM     90  C   UNL     1       5.130  -4.926   9.170  1.00  0.00     0.000 A 
ENDBRANCH  78  85
ENDBRANCH  77  78
BRANCH  77  91
ATOM     91  C   UNL     1       5.796  -4.751   2.462  1.00  0.00    -0.035 A 
ATOM     92  C   UNL     1       5.033  -3.716   1.898  1.00  0.00     0.004 A 
ATOM     93  C   UNL     1       6.185  -5.824   1.642  1.00  0.00     0.004 A 
ATOM     94  C   UNL     1       4.636  -3.778   0.560  1.00  0.00     0.000 A 
ATOM     95  C   UNL     1       5.785  -5.883   0.307  1.00  0.00     0.000 A 
ATOM     96  C   UNL     1       5.004  -4.865  -0.232  1.00  0.00     0.000 A 
ENDBRANCH  77  91
ENDBRANCH  74  77
ENDBRANCH  72  73
ENDBRANCH  71  72
ENDBRANCH   1  71
TORSDOF 17
