REMARK SMILES CC(C)(C[NH2+]C[C@](C)(O)CO)C(=O)NCCCNC(=O)c1ccc(-c2c3nc(c(-c4cc(S(=O)(=O)[O-])ccc4F)c4ccc([nH]4)c(-c4cc(S(=O)(=O)[O-])ccc4F)c4nc(c(-c5cc(S(=O)(=O)[O-])ccc5F)c5ccc2[nH]5)C=C4)C=C3)cc1
REMARK SMILES IDX 12 1 13 2 14 3 2 5 1 6 3 7 4 8 5 9 6 12 7 13 8 14 9 15 10 17
REMARK SMILES IDX 11 18 15 20 16 21 17 22 18 23 19 24 20 26 21 27 22 28 83 29
REMARK SMILES IDX 23 30 82 31 24 32 25 33 26 34 76 35 27 36 81 37 75 38 77 39
REMARK SMILES IDX 28 40 80 41 74 42 73 43 29 45 61 46 41 47 60 48 42 49 45 50
REMARK SMILES IDX 59 51 78 52 43 53 44 54 58 56 79 57 46 58 30 59 31 60 39 61
REMARK SMILES IDX 32 62 38 63 40 64 37 65 33 66 34 67 35 68 36 69 62 70 63 71
REMARK SMILES IDX 71 72 64 73 70 74 72 75 69 76 65 77 66 78 67 79 68 80 47 81
REMARK SMILES IDX 48 82 56 83 49 84 55 85 57 86 54 87 50 88 51 89 52 90 53 91
REMARK H PARENT 14 4 5 10 5 11 9 16 11 19 18 25 77 44 45 55
REMARK Flexibility Score: inf
ROOT
ATOM      1  C   UNL     1      -5.277   4.706   1.839  1.00  0.00     0.231 C 
ATOM      2  O   UNL     1      -4.839   5.772   1.391  1.00  0.00    -0.274 OA
ATOM      3  N   UNL     1      -5.174   4.547   3.186  1.00  0.00    -0.355 N 
ATOM      4  H   UNL     1      -4.739   5.305   3.639  1.00  0.00     0.163 HD
ENDROOT
BRANCH   1   5
ATOM      5  C   UNL     1      -5.958   3.675   0.918  1.00  0.00     0.092 C 
ATOM      6  C   UNL     1      -5.912   4.200  -0.539  1.00  0.00     0.027 C 
ATOM      7  C   UNL     1      -7.456   3.571   1.279  1.00  0.00     0.027 C 
BRANCH   5   8
ATOM      8  C   UNL     1      -5.288   2.278   0.978  1.00  0.00     0.277 C 
BRANCH   8   9
ATOM      9  N   UNL     1      -3.908   2.239   0.484  1.00  0.00    -0.343 N 
ATOM     10  H   UNL     1      -3.388   3.000   0.920  1.00  0.00     0.346 HD
ATOM     11  H   UNL     1      -3.951   2.328  -0.531  1.00  0.00     0.346 HD
BRANCH   9  12
ATOM     12  C   UNL     1      -3.210   0.974   0.775  1.00  0.00     0.298 C 
BRANCH  12  13
ATOM     13  C   UNL     1      -3.482  -0.230  -0.171  1.00  0.00     0.133 C 
ATOM     14  C   UNL     1      -2.941   0.015  -1.586  1.00  0.00     0.051 C 
BRANCH  13  15
ATOM     15  O   UNL     1      -4.894  -0.497  -0.279  1.00  0.00    -0.382 OA
ATOM     16  H   UNL     1      -5.037  -1.251  -0.873  1.00  0.00     0.211 HD
ENDBRANCH  13  15
BRANCH  13  17
ATOM     17  C   UNL     1      -2.854  -1.504   0.434  1.00  0.00     0.196 C 
BRANCH  17  18
ATOM     18  O   UNL     1      -3.280  -2.648  -0.310  1.00  0.00    -0.393 OA
ATOM     19  H   UNL     1      -4.247  -2.716  -0.272  1.00  0.00     0.210 HD
ENDBRANCH  17  18
ENDBRANCH  13  17
ENDBRANCH  12  13
ENDBRANCH   9  12
ENDBRANCH   8   9
ENDBRANCH   5   8
ENDBRANCH   1   5
BRANCH   3  20
ATOM     20  C   UNL     1      -5.577   3.486   4.091  1.00  0.00     0.117 C 
BRANCH  20  21
ATOM     21  C   UNL     1      -4.386   2.734   4.672  1.00  0.00     0.042 C 
BRANCH  21  22
ATOM     22  C   UNL     1      -3.524   3.573   5.608  1.00  0.00     0.118 C 
BRANCH  22  23
ATOM     23  N   UNL     1      -4.261   4.038   6.776  1.00  0.00    -0.352 N 
ATOM     24  C   UNL     1      -4.095   3.746   8.106  1.00  0.00     0.251 C 
ATOM     25  H   UNL     1      -4.996   4.663   6.579  1.00  0.00     0.163 HD
ATOM     26  O   UNL     1      -4.976   4.069   8.904  1.00  0.00    -0.269 OA
BRANCH  24  27
ATOM     27  C   UNL     1      -2.887   3.036   8.579  1.00  0.00     0.039 A 
ATOM     28  C   UNL     1      -3.016   2.068   9.578  1.00  0.00     0.014 A 
ATOM     29  C   UNL     1      -1.626   3.335   8.059  1.00  0.00     0.014 A 
ATOM     30  C   UNL     1      -1.893   1.353  10.001  1.00  0.00     0.010 A 
ATOM     31  C   UNL     1      -0.525   2.561   8.415  1.00  0.00     0.010 A 
ATOM     32  C   UNL     1      -0.645   1.563   9.393  1.00  0.00    -0.014 A 
BRANCH  32  33
ATOM     33  C   UNL     1       0.546   0.754   9.766  1.00  0.00     0.031 A 
ATOM     34  C   UNL     1       1.760   1.424  10.353  1.00  0.00     0.074 A 
ATOM     35  C   UNL     1       0.556  -0.571   9.517  1.00  0.00     0.049 A 
ATOM     36  N   UNL     1       2.922   0.908  10.661  1.00  0.00    -0.248 NA
ATOM     37  C   UNL     1       1.663   2.872  10.599  1.00  0.00     0.031 C 
ATOM     38  C   UNL     1      -0.547  -1.326   8.918  1.00  0.00     0.029 A 
ATOM     39  N   UNL     1       1.527  -1.519   9.726  1.00  0.00    -0.354 N 
ATOM     40  C   UNL     1       3.698   1.966  11.123  1.00  0.00     0.074 A 
ATOM     41  C   UNL     1       2.893   3.162  10.995  1.00  0.00     0.031 C 
ATOM     42  C   UNL     1      -0.202  -2.620   8.833  1.00  0.00     0.029 A 
ATOM     43  C   UNL     1       1.165  -2.783   9.316  1.00  0.00     0.049 A 
ATOM     44  H   UNL     1       2.400  -1.314  10.132  1.00  0.00     0.167 HD
ATOM     45  C   UNL     1       4.957   1.938  11.626  1.00  0.00     0.034 A 
ATOM     46  C   UNL     1       1.862  -3.937   9.312  1.00  0.00     0.034 A 
ATOM     47  C   UNL     1       5.739   0.734  11.758  1.00  0.00     0.049 A 
ATOM     48  C   UNL     1       3.273  -3.934   9.846  1.00  0.00     0.074 A 
ATOM     49  C   UNL     1       7.002   0.584  12.306  1.00  0.00     0.029 A 
ATOM     50  N   UNL     1       5.342  -0.526  11.329  1.00  0.00    -0.354 N 
ATOM     51  N   UNL     1       3.973  -2.932  10.329  1.00  0.00    -0.248 NA
ATOM     52  C   UNL     1       3.985  -5.219   9.846  1.00  0.00     0.031 C 
ATOM     53  C   UNL     1       7.398  -0.747  12.137  1.00  0.00     0.029 A 
ATOM     54  C   UNL     1       6.349  -1.450  11.567  1.00  0.00     0.049 A 
ATOM     55  H   UNL     1       4.472  -0.734  10.917  1.00  0.00     0.167 HD
ATOM     56  C   UNL     1       5.193  -3.476  10.721  1.00  0.00     0.074 A 
ATOM     57  C   UNL     1       5.126  -4.894  10.435  1.00  0.00     0.031 C 
ATOM     58  C   UNL     1       6.271  -2.861  11.271  1.00  0.00     0.034 A 
BRANCH  45  59
ATOM     59  C   UNL     1       5.572   3.252  12.048  1.00  0.00     0.023 A 
ATOM     60  C   UNL     1       5.028   4.025  13.088  1.00  0.00     0.031 A 
ATOM     61  C   UNL     1       6.719   3.741  11.396  1.00  0.00     0.131 A 
ATOM     62  C   UNL     1       5.589   5.273  13.402  1.00  0.00     0.055 A 
ATOM     63  C   UNL     1       7.321   4.945  11.768  1.00  0.00     0.041 A 
ATOM     64  F   UNL     1       7.271   3.060  10.380  1.00  0.00    -0.206 F 
ATOM     65  C   UNL     1       6.748   5.726  12.768  1.00  0.00     0.022 A 
BRANCH  62  66
ATOM     66  S   UNL     1       4.702   6.356  14.555  1.00  0.00     0.124 S 
ATOM     67  O   UNL     1       3.417   6.517  13.878  1.00  0.00    -0.237 OA
ATOM     68  O   UNL     1       4.684   5.566  15.780  1.00  0.00    -0.237 OA
ATOM     69  O   UNL     1       5.529   7.560  14.599  1.00  0.00    -0.744 OA
ENDBRANCH  62  66
ENDBRANCH  45  59
BRANCH  46  70
ATOM     70  C   UNL     1       1.257  -5.190   8.771  1.00  0.00     0.023 A 
ATOM     71  C   UNL     1       1.066  -6.315   9.589  1.00  0.00     0.031 A 
ATOM     72  C   UNL     1       0.915  -5.302   7.411  1.00  0.00     0.131 A 
ATOM     73  C   UNL     1       0.609  -7.518   9.031  1.00  0.00     0.055 A 
ATOM     74  C   UNL     1       0.399  -6.482   6.873  1.00  0.00     0.041 A 
ATOM     75  F   UNL     1       1.075  -4.258   6.581  1.00  0.00    -0.206 F 
ATOM     76  C   UNL     1       0.259  -7.606   7.682  1.00  0.00     0.022 A 
BRANCH  73  77
ATOM     77  S   UNL     1       0.586  -9.004  10.072  1.00  0.00     0.124 S 
ATOM     78  O   UNL     1       1.975  -9.080  10.509  1.00  0.00    -0.237 OA
ATOM     79  O   UNL     1      -0.389  -8.640  11.095  1.00  0.00    -0.237 OA
ATOM     80  O   UNL     1       0.160 -10.057   9.153  1.00  0.00    -0.744 OA
ENDBRANCH  73  77
ENDBRANCH  46  70
BRANCH  58  81
ATOM     81  C   UNL     1       7.444  -3.734  11.648  1.00  0.00     0.023 A 
ATOM     82  C   UNL     1       8.208  -4.411  10.681  1.00  0.00     0.031 A 
ATOM     83  C   UNL     1       7.798  -3.894  13.000  1.00  0.00     0.131 A 
ATOM     84  C   UNL     1       9.248  -5.262  11.084  1.00  0.00     0.055 A 
ATOM     85  C   UNL     1       8.877  -4.688  13.390  1.00  0.00     0.041 A 
ATOM     86  F   UNL     1       7.102  -3.275  13.967  1.00  0.00    -0.206 F 
ATOM     87  C   UNL     1       9.601  -5.389  12.430  1.00  0.00     0.022 A 
BRANCH  84  88
ATOM     88  S   UNL     1      10.074  -6.280   9.830  1.00  0.00     0.124 S 
ATOM     89  O   UNL     1       8.959  -7.041   9.276  1.00  0.00    -0.237 OA
ATOM     90  O   UNL     1      10.661  -5.276   8.949  1.00  0.00    -0.237 OA
ATOM     91  O   UNL     1      11.036  -7.064  10.604  1.00  0.00    -0.744 OA
ENDBRANCH  84  88
ENDBRANCH  58  81
ENDBRANCH  32  33
ENDBRANCH  24  27
ENDBRANCH  22  23
ENDBRANCH  21  22
ENDBRANCH  20  21
ENDBRANCH   3  20
TORSDOF 20
