REMARK SMILES Cc1c(NC(=O)c2cccc(-c3cc4ccccc4oc3=O)c2)cccc1C(=O)NCCCNC(=O)c1ccc(-c2c3nc(c(-c4cc(S(=O)(=O)[O-])ccc4F)c4ccc([nH]4)c(-c4cc(S(=O)(=O)[O-])ccc4F)c4nc(c(-c5cc(S(=O)(=O)[O-])ccc5F)c5ccc2[nH]5)C=C4)C=C3)cc1
REMARK SMILES IDX 32 1 31 2 30 3 28 4 29 5 27 7 1 8 2 9 3 10 24 11 26 12 25 13
REMARK SMILES IDX 4 14 5 15 6 17 7 18 8 19 23 20 9 21 11 22 10 23 12 24 13 25
REMARK SMILES IDX 21 26 14 27 20 28 22 29 15 30 19 31 16 32 18 33 17 34 33 35
REMARK SMILES IDX 34 36 35 37 36 39 37 40 38 41 99 42 39 43 98 44 40 45 41 46
REMARK SMILES IDX 42 47 92 48 43 49 97 50 91 51 93 52 44 53 96 54 90 55 89 56
REMARK SMILES IDX 45 58 77 59 57 60 76 61 58 62 61 63 75 64 94 65 59 66 60 67
REMARK SMILES IDX 74 69 95 70 62 71 46 72 47 73 55 74 48 75 54 76 56 77 53 78
REMARK SMILES IDX 49 79 50 80 51 81 52 82 78 83 79 84 87 85 80 86 86 87 88 88
REMARK SMILES IDX 85 89 81 90 82 91 83 92 84 93 63 94 64 95 72 96 65 97 71 98
REMARK SMILES IDX 73 99 70 100 66 101 67 102 68 103 69 104
REMARK H PARENT 30 6 4 16 34 38 93 57 61 68
REMARK Flexibility Score: inf
ROOT
ATOM      1  C   UNL     1       4.042   1.250  -1.175  1.00  0.00     0.042 C 
ENDROOT
BRANCH   1   2
ATOM      2  C   UNL     1       3.559   1.866   0.136  1.00  0.00     0.118 C 
BRANCH   2   3
ATOM      3  N   UNL     1       2.239   2.479   0.023  1.00  0.00    -0.352 N 
ATOM      4  C   UNL     1       0.935   2.209   0.324  1.00  0.00     0.251 C 
ATOM      5  O   UNL     1       0.224   3.223   0.220  1.00  0.00    -0.269 OA
ATOM      6  H   UNL     1       2.312   3.363  -0.404  1.00  0.00     0.163 HD
BRANCH   4   7
ATOM      7  C   UNL     1       0.216   0.906   0.646  1.00  0.00     0.044 A 
ATOM      8  C   UNL     1       2.112  -0.792   0.611  1.00  0.00     0.047 C 
ATOM      9  C   UNL     1       0.671  -0.433   0.740  1.00  0.00    -0.015 A 
ATOM     10  C   UNL     1      -0.268  -1.501   0.877  1.00  0.00     0.045 A 
ATOM     11  C   UNL     1      -1.633  -1.244   0.991  1.00  0.00     0.026 A 
ATOM     12  C   UNL     1      -1.188   1.100   0.758  1.00  0.00     0.014 A 
ATOM     13  C   UNL     1      -2.096   0.057   0.926  1.00  0.00     0.003 A 
BRANCH  10  14
ATOM     14  N   UNL     1       0.199  -2.830   0.911  1.00  0.00    -0.322 N 
ATOM     15  C   UNL     1      -0.313  -4.011   0.430  1.00  0.00     0.255 C 
ATOM     16  H   UNL     1       1.064  -2.932   1.369  1.00  0.00     0.170 HD
ATOM     17  O   UNL     1       0.230  -5.065   0.773  1.00  0.00    -0.269 OA
BRANCH  15  18
ATOM     18  C   UNL     1      -1.420  -4.091  -0.565  1.00  0.00     0.040 A 
ATOM     19  C   UNL     1      -2.129  -5.297  -0.642  1.00  0.00     0.014 A 
ATOM     20  C   UNL     1      -1.693  -3.087  -1.503  1.00  0.00     0.022 A 
ATOM     21  C   UNL     1      -3.130  -5.471  -1.596  1.00  0.00     0.001 A 
ATOM     22  C   UNL     1      -2.701  -3.243  -2.471  1.00  0.00    -0.010 A 
ATOM     23  C   UNL     1      -3.423  -4.445  -2.494  1.00  0.00     0.009 A 
BRANCH  22  24
ATOM     24  C   UNL     1      -2.947  -2.277  -3.582  1.00  0.00     0.068 A 
ATOM     25  C   UNL     1      -2.768  -0.939  -3.490  1.00  0.00     0.028 A 
ATOM     26  C   UNL     1      -2.357  -2.744  -4.890  1.00  0.00     0.344 A 
ATOM     27  C   UNL     1      -1.339  -0.559  -3.549  1.00  0.00     0.018 A 
ATOM     28  O   UNL     1      -0.975  -2.517  -4.954  1.00  0.00    -0.422 OA
ATOM     29  O   UNL     1      -2.990  -3.340  -5.725  1.00  0.00    -0.246 OA
ATOM     30  C   UNL     1      -0.839   0.582  -2.936  1.00  0.00     0.012 A 
ATOM     31  C   UNL     1      -0.461  -1.451  -4.185  1.00  0.00     0.138 A 
ATOM     32  C   UNL     1       0.544   0.766  -2.885  1.00  0.00     0.001 A 
ATOM     33  C   UNL     1       0.914  -1.310  -4.080  1.00  0.00     0.048 A 
ATOM     34  C   UNL     1       1.414  -0.199  -3.409  1.00  0.00     0.004 A 
ENDBRANCH  22  24
ENDBRANCH  15  18
ENDBRANCH  10  14
ENDBRANCH   4   7
ENDBRANCH   2   3
ENDBRANCH   1   2
BRANCH   1  35
ATOM     35  C   UNL     1       5.452   1.634  -1.571  1.00  0.00     0.118 C 
BRANCH  35  36
ATOM     36  N   UNL     1       6.525   0.732  -1.155  1.00  0.00    -0.352 N 
ATOM     37  C   UNL     1       7.870   0.790  -1.518  1.00  0.00     0.251 C 
ATOM     38  H   UNL     1       6.269  -0.001  -0.549  1.00  0.00     0.163 HD
ATOM     39  O   UNL     1       8.695  -0.018  -1.107  1.00  0.00    -0.269 OA
BRANCH  37  40
ATOM     40  C   UNL     1       8.334   1.970  -2.298  1.00  0.00     0.039 A 
ATOM     41  C   UNL     1       9.132   2.864  -1.576  1.00  0.00     0.014 A 
ATOM     42  C   UNL     1       7.545   2.414  -3.351  1.00  0.00     0.014 A 
ATOM     43  C   UNL     1       8.811   4.213  -1.610  1.00  0.00     0.010 A 
ATOM     44  C   UNL     1       7.135   3.729  -3.297  1.00  0.00     0.010 A 
ATOM     45  C   UNL     1       7.699   4.595  -2.352  1.00  0.00    -0.014 A 
BRANCH  45  46
ATOM     46  C   UNL     1       7.070   5.898  -2.227  1.00  0.00     0.031 A 
ATOM     47  C   UNL     1       7.431   6.893  -3.244  1.00  0.00     0.074 A 
ATOM     48  C   UNL     1       6.203   6.187  -1.231  1.00  0.00     0.049 A 
ATOM     49  N   UNL     1       7.436   8.162  -3.056  1.00  0.00    -0.248 NA
ATOM     50  C   UNL     1       7.926   6.498  -4.557  1.00  0.00     0.031 C 
ATOM     51  C   UNL     1       5.376   7.383  -1.088  1.00  0.00     0.029 A 
ATOM     52  N   UNL     1       6.050   5.522  -0.017  1.00  0.00    -0.354 N 
ATOM     53  C   UNL     1       7.657   8.756  -4.277  1.00  0.00     0.074 A 
ATOM     54  C   UNL     1       8.066   7.684  -5.146  1.00  0.00     0.031 C 
ATOM     55  C   UNL     1       4.998   7.503   0.196  1.00  0.00     0.029 A 
ATOM     56  C   UNL     1       5.686   6.475   0.957  1.00  0.00     0.049 A 
ATOM     57  H   UNL     1       6.175   4.557   0.135  1.00  0.00     0.167 HD
ATOM     58  C   UNL     1       7.322  10.066  -4.436  1.00  0.00     0.034 A 
ATOM     59  C   UNL     1       6.513   6.707   2.020  1.00  0.00     0.034 A 
ATOM     60  C   UNL     1       6.888  10.641  -3.155  1.00  0.00     0.049 A 
ATOM     61  C   UNL     1       7.202   8.065   1.957  1.00  0.00     0.074 A 
ATOM     62  C   UNL     1       5.651  10.887  -2.582  1.00  0.00     0.029 A 
ATOM     63  N   UNL     1       7.803  10.710  -2.114  1.00  0.00    -0.354 N 
ATOM     64  N   UNL     1       7.031   8.956   1.015  1.00  0.00    -0.248 NA
ATOM     65  C   UNL     1       8.218   8.473   2.923  1.00  0.00     0.031 C 
ATOM     66  C   UNL     1       5.837  11.052  -1.175  1.00  0.00     0.029 A 
ATOM     67  C   UNL     1       7.190  10.961  -0.899  1.00  0.00     0.049 A 
ATOM     68  H   UNL     1       8.774  10.593  -2.227  1.00  0.00     0.167 HD
ATOM     69  C   UNL     1       7.921   9.991   1.181  1.00  0.00     0.074 A 
ATOM     70  C   UNL     1       8.651   9.627   2.388  1.00  0.00     0.031 C 
ATOM     71  C   UNL     1       8.020  11.041   0.301  1.00  0.00     0.034 A 
BRANCH  58  72
ATOM     72  C   UNL     1       7.101  10.722  -5.784  1.00  0.00     0.023 A 
ATOM     73  C   UNL     1       6.257  11.847  -5.849  1.00  0.00     0.031 A 
ATOM     74  C   UNL     1       7.604  10.285  -7.028  1.00  0.00     0.131 A 
ATOM     75  C   UNL     1       5.872  12.409  -7.082  1.00  0.00     0.055 A 
ATOM     76  C   UNL     1       7.178  10.805  -8.258  1.00  0.00     0.041 A 
ATOM     77  F   UNL     1       8.581   9.379  -7.128  1.00  0.00    -0.206 F 
ATOM     78  C   UNL     1       6.298  11.869  -8.291  1.00  0.00     0.022 A 
BRANCH  75  79
ATOM     79  S   UNL     1       4.801  13.868  -7.082  1.00  0.00     0.124 S 
ATOM     80  O   UNL     1       3.597  13.364  -6.431  1.00  0.00    -0.237 OA
ATOM     81  O   UNL     1       5.593  14.831  -6.325  1.00  0.00    -0.237 OA
ATOM     82  O   UNL     1       4.651  14.177  -8.504  1.00  0.00    -0.744 OA
ENDBRANCH  75  79
ENDBRANCH  58  72
BRANCH  59  83
ATOM     83  C   UNL     1       7.142   5.435   2.504  1.00  0.00     0.023 A 
ATOM     84  C   UNL     1       6.290   4.444   3.046  1.00  0.00     0.031 A 
ATOM     85  C   UNL     1       8.377   5.026   1.981  1.00  0.00     0.131 A 
ATOM     86  C   UNL     1       6.592   3.084   2.858  1.00  0.00     0.055 A 
ATOM     87  C   UNL     1       8.676   3.672   1.818  1.00  0.00     0.041 A 
ATOM     88  F   UNL     1       9.234   5.921   1.469  1.00  0.00    -0.206 F 
ATOM     89  C   UNL     1       7.753   2.698   2.188  1.00  0.00     0.022 A 
BRANCH  86  90
ATOM     90  S   UNL     1       5.367   1.810   3.272  1.00  0.00     0.124 S 
ATOM     91  O   UNL     1       5.769   1.413   4.615  1.00  0.00    -0.237 OA
ATOM     92  O   UNL     1       4.100   2.528   3.172  1.00  0.00    -0.237 OA
ATOM     93  O   UNL     1       5.572   0.807   2.226  1.00  0.00    -0.744 OA
ENDBRANCH  86  90
ENDBRANCH  59  83
BRANCH  71  94
ATOM     94  C   UNL     1       8.962  12.226   0.471  1.00  0.00     0.023 A 
ATOM     95  C   UNL     1       9.475  12.606   1.719  1.00  0.00     0.031 A 
ATOM     96  C   UNL     1       9.347  13.060  -0.609  1.00  0.00     0.131 A 
ATOM     97  C   UNL     1      10.436  13.626   1.839  1.00  0.00     0.055 A 
ATOM     98  C   UNL     1      10.243  14.126  -0.479  1.00  0.00     0.041 A 
ATOM     99  F   UNL     1       8.882  12.887  -1.853  1.00  0.00    -0.206 F 
ATOM    100  C   UNL     1      10.822  14.395   0.747  1.00  0.00     0.022 A 
BRANCH  97 101
ATOM    101  S   UNL     1      11.218  13.873   3.451  1.00  0.00     0.124 S 
ATOM    102  O   UNL     1      10.070  14.039   4.337  1.00  0.00    -0.237 OA
ATOM    103  O   UNL     1      11.965  12.628   3.610  1.00  0.00    -0.237 OA
ATOM    104  O   UNL     1      12.035  15.069   3.258  1.00  0.00    -0.744 OA
ENDBRANCH  97 101
ENDBRANCH  71  94
ENDBRANCH  45  46
ENDBRANCH  37  40
ENDBRANCH  35  36
ENDBRANCH   1  35
TORSDOF 16
