REMARK SMILES C[C@H](C(=O)NCCCNC(=O)c1ccc(-c2c3nc(c(-c4cc(S(=O)(=O)[O-])ccc4F)c4ccc([nH]4)c(-c4cc(S(=O)(=O)[O-])ccc4F)c4nc(c(-c5cc(S(=O)(=O)[O-])ccc5F)c5ccc2[nH]5)C=C4)C=C3)cc1)c1ccc(-c2ccccc2)c(F)c1
REMARK SMILES IDX 7 1 6 2 5 3 3 4 4 5 2 7 1 8 75 9 76 10 87 11 77 12 85 13
REMARK SMILES IDX 78 14 86 15 79 16 80 17 84 18 81 19 83 20 82 21 8 22 9 23
REMARK SMILES IDX 10 24 11 26 12 27 13 28 74 29 14 30 73 31 15 32 16 33 17 34
REMARK SMILES IDX 67 35 18 36 72 37 66 38 68 39 19 40 71 41 65 42 64 43 20 45
REMARK SMILES IDX 52 46 32 47 51 48 33 49 36 50 50 51 69 52 34 53 35 54 49 56
REMARK SMILES IDX 70 57 37 58 21 59 22 60 30 61 23 62 29 63 31 64 28 65 24 66
REMARK SMILES IDX 25 67 26 68 27 69 53 70 54 71 62 72 55 73 61 74 63 75 60 76
REMARK SMILES IDX 56 77 57 78 58 79 59 80 38 81 39 82 47 83 40 84 46 85 48 86
REMARK SMILES IDX 45 87 41 88 42 89 43 90 44 91
REMARK H PARENT 5 6 9 25 68 44 36 55
REMARK Flexibility Score: inf
ROOT
ATOM      1  C   UNL     1      -1.674  -1.852  -1.761  1.00  0.00     0.042 C 
ENDROOT
BRANCH   1   2
ATOM      2  C   UNL     1      -1.217  -1.079  -0.529  1.00  0.00     0.117 C 
BRANCH   2   3
ATOM      3  N   UNL     1       0.224  -0.920  -0.400  1.00  0.00    -0.356 N 
ATOM      4  C   UNL     1       0.980  -0.041   0.311  1.00  0.00     0.227 C 
ATOM      5  O   UNL     1       2.170  -0.364   0.449  1.00  0.00    -0.274 OA
ATOM      6  H   UNL     1       0.748  -1.569  -0.923  1.00  0.00     0.163 HD
BRANCH   4   7
ATOM      7  C   UNL     1       0.524   1.332   0.839  1.00  0.00     0.105 C 
ATOM      8  C   UNL     1       1.145   2.380  -0.100  1.00  0.00     0.023 C 
BRANCH   7   9
ATOM      9  C   UNL     1      -0.954   1.533   1.130  1.00  0.00    -0.033 A 
ATOM     10  C   UNL     1      -1.713   2.543   0.529  1.00  0.00     0.005 A 
ATOM     11  C   UNL     1      -1.623   0.658   1.995  1.00  0.00     0.044 A 
ATOM     12  C   UNL     1      -3.107   2.573   0.658  1.00  0.00     0.012 A 
ATOM     13  C   UNL     1      -3.022   0.659   2.071  1.00  0.00     0.131 A 
ATOM     14  C   UNL     1      -3.812   1.579   1.360  1.00  0.00     0.017 A 
ATOM     15  F   UNL     1      -3.581  -0.329   2.786  1.00  0.00    -0.206 F 
BRANCH  14  16
ATOM     16  C   UNL     1      -5.296   1.492   1.265  1.00  0.00    -0.015 A 
ATOM     17  C   UNL     1      -5.982   1.994   0.136  1.00  0.00     0.009 A 
ATOM     18  C   UNL     1      -6.086   0.873   2.249  1.00  0.00     0.009 A 
ATOM     19  C   UNL     1      -7.371   1.897   0.004  1.00  0.00     0.001 A 
ATOM     20  C   UNL     1      -7.476   0.754   2.111  1.00  0.00     0.001 A 
ATOM     21  C   UNL     1      -8.118   1.272   0.992  1.00  0.00     0.000 A 
ENDBRANCH  14  16
ENDBRANCH   7   9
ENDBRANCH   4   7
ENDBRANCH   2   3
ENDBRANCH   1   2
BRANCH   1  22
ATOM     22  C   UNL     1      -1.106  -3.257  -1.909  1.00  0.00     0.118 C 
BRANCH  22  23
ATOM     23  N   UNL     1      -1.620  -4.222  -0.947  1.00  0.00    -0.352 N 
ATOM     24  C   UNL     1      -2.611  -5.174  -1.037  1.00  0.00     0.251 C 
ATOM     25  H   UNL     1      -1.176  -4.188  -0.069  1.00  0.00     0.163 HD
ATOM     26  O   UNL     1      -2.898  -5.825  -0.033  1.00  0.00    -0.269 OA
BRANCH  24  27
ATOM     27  C   UNL     1      -3.378  -5.388  -2.289  1.00  0.00     0.039 A 
ATOM     28  C   UNL     1      -4.760  -5.589  -2.203  1.00  0.00     0.014 A 
ATOM     29  C   UNL     1      -2.768  -5.398  -3.542  1.00  0.00     0.014 A 
ATOM     30  C   UNL     1      -5.535  -5.665  -3.366  1.00  0.00     0.010 A 
ATOM     31  C   UNL     1      -3.547  -5.367  -4.698  1.00  0.00     0.010 A 
ATOM     32  C   UNL     1      -4.944  -5.475  -4.625  1.00  0.00    -0.014 A 
BRANCH  32  33
ATOM     33  C   UNL     1      -5.755  -5.330  -5.868  1.00  0.00     0.031 A 
ATOM     34  C   UNL     1      -5.528  -6.253  -7.038  1.00  0.00     0.074 A 
ATOM     35  C   UNL     1      -6.605  -4.287  -5.989  1.00  0.00     0.049 A 
ATOM     36  N   UNL     1      -5.993  -6.171  -8.258  1.00  0.00    -0.248 NA
ATOM     37  C   UNL     1      -4.631  -7.398  -6.816  1.00  0.00     0.031 C 
ATOM     38  C   UNL     1      -6.883  -3.294  -4.947  1.00  0.00     0.029 A 
ATOM     39  N   UNL     1      -7.373  -3.867  -7.049  1.00  0.00    -0.354 N 
ATOM     40  C   UNL     1      -5.415  -7.226  -8.959  1.00  0.00     0.074 A 
ATOM     41  C   UNL     1      -4.541  -7.915  -8.033  1.00  0.00     0.031 C 
ATOM     42  C   UNL     1      -7.760  -2.392  -5.414  1.00  0.00     0.029 A 
ATOM     43  C   UNL     1      -8.062  -2.698  -6.808  1.00  0.00     0.049 A 
ATOM     44  H   UNL     1      -7.426  -4.356  -7.902  1.00  0.00     0.167 HD
ATOM     45  C   UNL     1      -5.606  -7.590 -10.251  1.00  0.00     0.034 A 
ATOM     46  C   UNL     1      -8.821  -1.935  -7.621  1.00  0.00     0.034 A 
ATOM     47  C   UNL     1      -6.523  -6.928 -11.146  1.00  0.00     0.049 A 
ATOM     48  C   UNL     1      -9.005  -2.361  -9.057  1.00  0.00     0.074 A 
ATOM     49  C   UNL     1      -6.886  -7.297 -12.429  1.00  0.00     0.029 A 
ATOM     50  N   UNL     1      -7.209  -5.756 -10.860  1.00  0.00    -0.354 N 
ATOM     51  N   UNL     1      -8.514  -3.410  -9.675  1.00  0.00    -0.248 NA
ATOM     52  C   UNL     1      -9.841  -1.501  -9.905  1.00  0.00     0.031 C 
ATOM     53  C   UNL     1      -7.735  -6.313 -12.945  1.00  0.00     0.029 A 
ATOM     54  C   UNL     1      -7.955  -5.364 -11.960  1.00  0.00     0.049 A 
ATOM     55  H   UNL     1      -7.172  -5.275 -10.001  1.00  0.00     0.167 HD
ATOM     56  C   UNL     1      -9.002  -3.344 -10.977  1.00  0.00     0.074 A 
ATOM     57  C   UNL     1      -9.841  -2.167 -11.050  1.00  0.00     0.031 C 
ATOM     58  C   UNL     1      -8.778  -4.181 -12.020  1.00  0.00     0.034 A 
BRANCH  45  59
ATOM     59  C   UNL     1      -4.797  -8.742 -10.791  1.00  0.00     0.023 A 
ATOM     60  C   UNL     1      -4.976 -10.057 -10.333  1.00  0.00     0.031 A 
ATOM     61  C   UNL     1      -3.851  -8.519 -11.808  1.00  0.00     0.131 A 
ATOM     62  C   UNL     1      -4.186 -11.092 -10.856  1.00  0.00     0.055 A 
ATOM     63  C   UNL     1      -3.116  -9.563 -12.371  1.00  0.00     0.041 A 
ATOM     64  F   UNL     1      -3.628  -7.279 -12.273  1.00  0.00    -0.206 F 
ATOM     65  C   UNL     1      -3.275 -10.858 -11.889  1.00  0.00     0.022 A 
BRANCH  62  66
ATOM     66  S   UNL     1      -4.300 -12.738 -10.103  1.00  0.00     0.124 S 
ATOM     67  O   UNL     1      -3.865 -12.466  -8.735  1.00  0.00    -0.237 OA
ATOM     68  O   UNL     1      -5.712 -13.065 -10.271  1.00  0.00    -0.237 OA
ATOM     69  O   UNL     1      -3.375 -13.544 -10.896  1.00  0.00    -0.744 OA
ENDBRANCH  62  66
ENDBRANCH  45  59
BRANCH  46  70
ATOM     70  C   UNL     1      -9.427  -0.661  -7.132  1.00  0.00     0.023 A 
ATOM     71  C   UNL     1     -10.820  -0.487  -7.108  1.00  0.00     0.031 A 
ATOM     72  C   UNL     1      -8.623   0.430  -6.755  1.00  0.00     0.131 A 
ATOM     73  C   UNL     1     -11.365   0.763  -6.777  1.00  0.00     0.055 A 
ATOM     74  C   UNL     1      -9.172   1.654  -6.367  1.00  0.00     0.041 A 
ATOM     75  F   UNL     1      -7.285   0.322  -6.759  1.00  0.00    -0.206 F 
ATOM     76  C   UNL     1     -10.551   1.831  -6.394  1.00  0.00     0.022 A 
BRANCH  73  77
ATOM     77  S   UNL     1     -13.152   1.010  -6.975  1.00  0.00     0.124 S 
ATOM     78  O   UNL     1     -13.354   0.617  -8.365  1.00  0.00    -0.237 OA
ATOM     79  O   UNL     1     -13.694   0.106  -5.966  1.00  0.00    -0.237 OA
ATOM     80  O   UNL     1     -13.330   2.434  -6.696  1.00  0.00    -0.744 OA
ENDBRANCH  73  77
ENDBRANCH  46  70
BRANCH  58  81
ATOM     81  C   UNL     1      -9.476  -3.863 -13.317  1.00  0.00     0.023 A 
ATOM     82  C   UNL     1      -9.117  -2.745 -14.088  1.00  0.00     0.031 A 
ATOM     83  C   UNL     1     -10.510  -4.692 -13.787  1.00  0.00     0.131 A 
ATOM     84  C   UNL     1      -9.816  -2.460 -15.270  1.00  0.00     0.055 A 
ATOM     85  C   UNL     1     -11.165  -4.434 -14.992  1.00  0.00     0.041 A 
ATOM     86  F   UNL     1     -10.892  -5.772 -13.087  1.00  0.00    -0.206 F 
ATOM     87  C   UNL     1     -10.825  -3.307 -15.736  1.00  0.00     0.022 A 
BRANCH  84  88
ATOM     88  S   UNL     1      -9.428  -0.931 -16.165  1.00  0.00     0.124 S 
ATOM     89  O   UNL     1      -9.786   0.091 -15.187  1.00  0.00    -0.237 OA
ATOM     90  O   UNL     1      -8.002  -1.080 -16.439  1.00  0.00    -0.237 OA
ATOM     91  O   UNL     1     -10.293  -0.994 -17.342  1.00  0.00    -0.744 OA
ENDBRANCH  84  88
ENDBRANCH  58  81
ENDBRANCH  32  33
ENDBRANCH  24  27
ENDBRANCH  22  23
ENDBRANCH   1  22
TORSDOF 15
