REMARK SMILES COCc1cc(-n2cnc(C(=O)NCCCNC(=O)c3ccc(-c4c5nc(c(-c6cc(S(=O)(=O)[O-])ccc6F)c6ccc([nH]6)c(-c6cc(S(=O)(=O)[O-])ccc6F)c6nc(c(-c7cc(S(=O)(=O)[O-])ccc7F)c7ccc4[nH]7)C=C6)C=C5)cc3)c2)nc(-c2cccnc2)n1
REMARK SMILES IDX 15 1 14 2 13 3 11 4 12 5 10 7 7 8 8 9 83 10 9 11 6 12 4 13
REMARK SMILES IDX 5 14 92 15 85 16 84 17 3 18 2 19 1 20 86 21 87 22 91 23
REMARK SMILES IDX 88 24 90 25 89 26 16 27 17 28 18 29 19 31 20 32 21 33 82 34
REMARK SMILES IDX 22 35 81 36 23 37 24 38 25 39 75 40 26 41 80 42 74 43 76 44
REMARK SMILES IDX 27 45 79 46 73 47 72 48 28 50 60 51 40 52 59 53 41 54 44 55
REMARK SMILES IDX 58 56 77 57 42 58 43 59 57 61 78 62 45 63 29 64 30 65 38 66
REMARK SMILES IDX 31 67 37 68 39 69 36 70 32 71 33 72 34 73 35 74 61 75 62 76
REMARK SMILES IDX 70 77 63 78 69 79 71 80 68 81 64 82 65 83 66 84 67 85 46 86
REMARK SMILES IDX 47 87 55 88 48 89 54 90 56 91 53 92 49 93 50 94 51 95 52 96
REMARK H PARENT 13 6 17 30 76 49 44 60
REMARK Flexibility Score: inf
ROOT
ATOM      1  C   UNL     1       2.378  -1.967  -8.675  1.00  0.00     0.042 C 
ENDROOT
BRANCH   1   2
ATOM      2  C   UNL     1       1.098  -1.423  -9.325  1.00  0.00     0.118 C 
BRANCH   2   3
ATOM      3  N   UNL     1       0.125  -2.461  -9.626  1.00  0.00    -0.351 N 
ATOM      4  C   UNL     1      -0.937  -2.982  -8.918  1.00  0.00     0.271 C 
ATOM      5  O   UNL     1      -1.639  -3.805  -9.505  1.00  0.00    -0.267 OA
ATOM      6  H   UNL     1       0.250  -2.874 -10.511  1.00  0.00     0.163 HD
BRANCH   4   7
ATOM      7  C   UNL     1      -1.214  -2.590  -7.526  1.00  0.00     0.146 A 
ATOM      8  N   UNL     1      -1.151  -1.766  -5.476  1.00  0.00    -0.290 N 
ATOM      9  C   UNL     1      -2.191  -2.642  -5.582  1.00  0.00     0.206 A 
ATOM     10  C   UNL     1      -0.529  -1.730  -6.698  1.00  0.00     0.128 A 
ATOM     11  N   UNL     1      -2.275  -3.135  -6.799  1.00  0.00    -0.231 NA
BRANCH   8  12
ATOM     12  C   UNL     1      -0.651  -1.089  -4.350  1.00  0.00     0.142 A 
ATOM     13  C   UNL     1       0.456  -1.191  -2.307  1.00  0.00     0.072 A 
ATOM     14  C   UNL     1      -0.374  -1.819  -3.214  1.00  0.00     0.074 A 
ATOM     15  N   UNL     1       0.886   0.082  -2.481  1.00  0.00    -0.230 NA
ATOM     16  C   UNL     1       0.457   0.744  -3.563  1.00  0.00     0.163 A 
ATOM     17  N   UNL     1      -0.258   0.190  -4.545  1.00  0.00    -0.210 NA
BRANCH  13  18
ATOM     18  C   UNL     1       0.982  -1.921  -1.093  1.00  0.00     0.216 C 
BRANCH  18  19
ATOM     19  O   UNL     1       0.440  -1.427   0.134  1.00  0.00    -0.378 OA
ATOM     20  C   UNL     1       0.945  -0.142   0.487  1.00  0.00     0.195 C 
ENDBRANCH  18  19
ENDBRANCH  13  18
BRANCH  16  21
ATOM     21  C   UNL     1       0.708   2.178  -3.611  1.00  0.00     0.038 A 
ATOM     22  C   UNL     1      -0.316   3.102  -3.866  1.00  0.00     0.015 A 
ATOM     23  C   UNL     1       1.966   2.706  -3.338  1.00  0.00     0.123 A 
ATOM     24  C   UNL     1      -0.055   4.471  -3.821  1.00  0.00     0.021 A 
ATOM     25  N   UNL     1       2.257   4.032  -3.300  1.00  0.00    -0.264 NA
ATOM     26  C   UNL     1       1.236   4.882  -3.538  1.00  0.00     0.111 A 
ENDBRANCH  16  21
ENDBRANCH   8  12
ENDBRANCH   4   7
ENDBRANCH   2   3
ENDBRANCH   1   2
BRANCH   1  27
ATOM     27  C   UNL     1       3.393  -2.392  -9.726  1.00  0.00     0.118 C 
BRANCH  27  28
ATOM     28  N   UNL     1       3.950  -1.247 -10.465  1.00  0.00    -0.352 N 
ATOM     29  C   UNL     1       4.832  -1.238 -11.540  1.00  0.00     0.251 C 
ATOM     30  H   UNL     1       3.655  -0.361 -10.154  1.00  0.00     0.163 HD
ATOM     31  O   UNL     1       5.461  -0.233 -11.816  1.00  0.00    -0.269 OA
BRANCH  29  32
ATOM     32  C   UNL     1       4.978  -2.476 -12.330  1.00  0.00     0.039 A 
ATOM     33  C   UNL     1       6.201  -2.911 -12.847  1.00  0.00     0.014 A 
ATOM     34  C   UNL     1       3.833  -3.240 -12.489  1.00  0.00     0.014 A 
ATOM     35  C   UNL     1       6.253  -4.168 -13.453  1.00  0.00     0.010 A 
ATOM     36  C   UNL     1       3.947  -4.557 -12.818  1.00  0.00     0.010 A 
ATOM     37  C   UNL     1       5.117  -4.994 -13.413  1.00  0.00    -0.014 A 
BRANCH  37  38
ATOM     38  C   UNL     1       5.116  -6.374 -13.879  1.00  0.00     0.031 A 
ATOM     39  C   UNL     1       6.167  -7.206 -13.245  1.00  0.00     0.074 A 
ATOM     40  C   UNL     1       4.100  -6.895 -14.609  1.00  0.00     0.049 A 
ATOM     41  N   UNL     1       7.255  -7.632 -13.789  1.00  0.00    -0.248 NA
ATOM     42  C   UNL     1       6.119  -7.413 -11.787  1.00  0.00     0.031 C 
ATOM     43  C   UNL     1       2.853  -6.247 -15.042  1.00  0.00     0.029 A 
ATOM     44  N   UNL     1       3.916  -8.171 -15.038  1.00  0.00    -0.354 N 
ATOM     45  C   UNL     1       7.883  -8.406 -12.822  1.00  0.00     0.074 A 
ATOM     46  C   UNL     1       7.287  -8.023 -11.572  1.00  0.00     0.031 C 
ATOM     47  C   UNL     1       1.962  -7.181 -15.449  1.00  0.00     0.029 A 
ATOM     48  C   UNL     1       2.626  -8.471 -15.482  1.00  0.00     0.049 A 
ATOM     49  H   UNL     1       4.641  -8.838 -15.037  1.00  0.00     0.167 HD
ATOM     50  C   UNL     1       8.629  -9.489 -13.179  1.00  0.00     0.034 A 
ATOM     51  C   UNL     1       2.137  -9.690 -15.850  1.00  0.00     0.034 A 
ATOM     52  C   UNL     1       8.910  -9.463 -14.601  1.00  0.00     0.049 A 
ATOM     53  C   UNL     1       3.324 -10.516 -16.194  1.00  0.00     0.074 A 
ATOM     54  C   UNL     1       9.540  -8.567 -15.443  1.00  0.00     0.029 A 
ATOM     55  N   UNL     1       8.133 -10.255 -15.420  1.00  0.00    -0.354 N 
ATOM     56  N   UNL     1       4.115 -10.235 -17.196  1.00  0.00    -0.248 NA
ATOM     57  C   UNL     1       3.933 -11.303 -15.131  1.00  0.00     0.031 C 
ATOM     58  C   UNL     1       8.723  -8.531 -16.613  1.00  0.00     0.029 A 
ATOM     59  C   UNL     1       7.709  -9.483 -16.475  1.00  0.00     0.049 A 
ATOM     60  H   UNL     1       7.919 -11.206 -15.275  1.00  0.00     0.167 HD
ATOM     61  C   UNL     1       5.399 -10.405 -16.699  1.00  0.00     0.074 A 
ATOM     62  C   UNL     1       5.223 -11.150 -15.451  1.00  0.00     0.031 C 
ATOM     63  C   UNL     1       6.451  -9.674 -17.179  1.00  0.00     0.034 A 
BRANCH  50  64
ATOM     64  C   UNL     1       8.772 -10.757 -12.365  1.00  0.00     0.023 A 
ATOM     65  C   UNL     1       9.576 -11.776 -12.911  1.00  0.00     0.031 A 
ATOM     66  C   UNL     1       7.969 -11.136 -11.265  1.00  0.00     0.131 A 
ATOM     67  C   UNL     1       9.476 -13.101 -12.455  1.00  0.00     0.055 A 
ATOM     68  C   UNL     1       7.922 -12.443 -10.772  1.00  0.00     0.041 A 
ATOM     69  F   UNL     1       7.118 -10.301 -10.660  1.00  0.00    -0.206 F 
ATOM     70  C   UNL     1       8.651 -13.443 -11.389  1.00  0.00     0.022 A 
BRANCH  67  71
ATOM     71  S   UNL     1      10.306 -14.399 -13.405  1.00  0.00     0.124 S 
ATOM     72  O   UNL     1       9.783 -14.161 -14.746  1.00  0.00    -0.237 OA
ATOM     73  O   UNL     1      11.712 -14.071 -13.194  1.00  0.00    -0.237 OA
ATOM     74  O   UNL     1       9.849 -15.630 -12.765  1.00  0.00    -0.744 OA
ENDBRANCH  67  71
ENDBRANCH  50  64
BRANCH  51  75
ATOM     75  C   UNL     1       0.785 -10.257 -15.546  1.00  0.00     0.023 A 
ATOM     76  C   UNL     1       0.196 -11.332 -16.254  1.00  0.00     0.031 A 
ATOM     77  C   UNL     1       0.143  -9.873 -14.346  1.00  0.00     0.131 A 
ATOM     78  C   UNL     1      -0.977 -11.963 -15.758  1.00  0.00     0.055 A 
ATOM     79  C   UNL     1      -1.008 -10.501 -13.861  1.00  0.00     0.041 A 
ATOM     80  F   UNL     1       0.665  -8.921 -13.557  1.00  0.00    -0.206 F 
ATOM     81  C   UNL     1      -1.569 -11.555 -14.561  1.00  0.00     0.022 A 
BRANCH  78  82
ATOM     82  S   UNL     1      -1.733 -13.382 -16.630  1.00  0.00     0.124 S 
ATOM     83  O   UNL     1      -2.133 -12.793 -17.902  1.00  0.00    -0.237 OA
ATOM     84  O   UNL     1      -0.637 -14.343 -16.675  1.00  0.00    -0.237 OA
ATOM     85  O   UNL     1      -2.846 -13.769 -15.761  1.00  0.00    -0.744 OA
ENDBRANCH  78  82
ENDBRANCH  51  75
BRANCH  63  86
ATOM     86  C   UNL     1       6.250  -8.858 -18.446  1.00  0.00     0.023 A 
ATOM     87  C   UNL     1       5.317  -7.806 -18.611  1.00  0.00     0.031 A 
ATOM     88  C   UNL     1       7.161  -9.087 -19.493  1.00  0.00     0.131 A 
ATOM     89  C   UNL     1       5.325  -7.034 -19.794  1.00  0.00     0.055 A 
ATOM     90  C   UNL     1       7.181  -8.307 -20.647  1.00  0.00     0.041 A 
ATOM     91  F   UNL     1       8.086 -10.056 -19.388  1.00  0.00    -0.206 F 
ATOM     92  C   UNL     1       6.261  -7.280 -20.805  1.00  0.00     0.022 A 
BRANCH  89  93
ATOM     93  S   UNL     1       4.108  -5.699 -20.058  1.00  0.00     0.124 S 
ATOM     94  O   UNL     1       2.833  -6.333 -19.743  1.00  0.00    -0.237 OA
ATOM     95  O   UNL     1       4.557  -4.668 -19.126  1.00  0.00    -0.237 OA
ATOM     96  O   UNL     1       4.282  -5.354 -21.471  1.00  0.00    -0.744 OA
ENDBRANCH  89  93
ENDBRANCH  63  86
ENDBRANCH  37  38
ENDBRANCH  29  32
ENDBRANCH  27  28
ENDBRANCH   1  27
TORSDOF 17
