REMARK SMILES O=C(Cc1cccc(-c2ccn(C(F)F)c(=O)c2)c1)NCCCNC(=O)c1ccc(-c2c3nc(c(-c4cc(S(=O)(=O)[O-])ccc4F)c4ccc([nH]4)c(-c4cc(S(=O)(=O)[O-])ccc4F)c4nc(c(-c5cc(S(=O)(=O)[O-])ccc5F)c5ccc2[nH]5)C=C4)C=C3)cc1
REMARK SMILES IDX 22 1 21 2 20 3 1 4 2 5 3 7 4 8 5 9 19 10 6 11 8 12 7 13 9 14
REMARK SMILES IDX 10 15 18 16 11 17 16 18 12 19 17 20 13 21 14 22 15 23 23 24
REMARK SMILES IDX 24 25 25 26 26 28 27 29 28 30 89 31 29 32 88 33 30 34 31 35
REMARK SMILES IDX 32 36 82 37 33 38 87 39 81 40 83 41 34 42 86 43 80 44 79 45
REMARK SMILES IDX 35 47 67 48 47 49 66 50 48 51 51 52 65 53 84 54 49 55 50 56
REMARK SMILES IDX 64 58 85 59 52 60 36 61 37 62 45 63 38 64 44 65 46 66 43 67
REMARK SMILES IDX 39 68 40 69 41 70 42 71 68 72 69 73 77 74 70 75 76 76 78 77
REMARK SMILES IDX 75 78 71 79 72 80 73 81 74 82 53 83 54 84 62 85 55 86 61 87
REMARK SMILES IDX 63 88 60 89 56 90 57 91 58 92 59 93
REMARK H PARENT 20 6 24 27 83 46 51 57
REMARK Flexibility Score: inf
ROOT
ATOM      1  C   UNL     1       2.536  -0.860   3.345  1.00  0.00     0.042 C 
ENDROOT
BRANCH   1   2
ATOM      2  C   UNL     1       2.226   0.268   2.368  1.00  0.00     0.117 C 
BRANCH   2   3
ATOM      3  N   UNL     1       2.904   0.106   1.098  1.00  0.00    -0.356 N 
ATOM      4  O   UNL     1       1.022  -0.298  -0.160  1.00  0.00    -0.275 OA
ATOM      5  C   UNL     1       2.236  -0.135  -0.085  1.00  0.00     0.224 C 
ATOM      6  H   UNL     1       3.886   0.172   1.078  1.00  0.00     0.163 HD
BRANCH   5   7
ATOM      7  C   UNL     1       3.139  -0.203  -1.310  1.00  0.00     0.135 C 
BRANCH   7   8
ATOM      8  C   UNL     1       4.002   1.028  -1.474  1.00  0.00    -0.038 A 
ATOM      9  C   UNL     1       5.394   0.926  -1.570  1.00  0.00     0.004 A 
ATOM     10  C   UNL     1       3.410   2.300  -1.504  1.00  0.00     0.013 A 
ATOM     11  C   UNL     1       6.179   2.078  -1.663  1.00  0.00     0.001 A 
ATOM     12  C   UNL     1       4.191   3.460  -1.578  1.00  0.00    -0.018 A 
ATOM     13  C   UNL     1       5.582   3.341  -1.658  1.00  0.00     0.009 A 
BRANCH  12  14
ATOM     14  C   UNL     1       3.521   4.773  -1.526  1.00  0.00    -0.011 A 
ATOM     15  C   UNL     1       2.737   5.189  -0.379  1.00  0.00     0.027 A 
ATOM     16  C   UNL     1       3.586   5.578  -2.600  1.00  0.00     0.080 A 
ATOM     17  C   UNL     1       2.048   6.335  -0.404  1.00  0.00     0.095 A 
ATOM     18  C   UNL     1       2.838   6.866  -2.635  1.00  0.00     0.255 A 
ATOM     19  N   UNL     1       2.082   7.160  -1.512  1.00  0.00    -0.258 N 
ATOM     20  O   UNL     1       2.922   7.566  -3.642  1.00  0.00    -0.269 OA
BRANCH  19  21
ATOM     21  C   UNL     1       1.293   8.364  -1.546  1.00  0.00     0.451 C 
ATOM     22  F   UNL     1       2.066   9.458  -1.751  1.00  0.00    -0.185 F 
ATOM     23  F   UNL     1       0.372   8.311  -2.540  1.00  0.00    -0.185 F 
ENDBRANCH  19  21
ENDBRANCH  12  14
ENDBRANCH   7   8
ENDBRANCH   5   7
ENDBRANCH   2   3
ENDBRANCH   1   2
BRANCH   1  24
ATOM     24  C   UNL     1       4.010  -0.993   3.722  1.00  0.00     0.118 C 
BRANCH  24  25
ATOM     25  N   UNL     1       4.537   0.180   4.403  1.00  0.00    -0.352 N 
ATOM     26  C   UNL     1       5.243   0.288   5.577  1.00  0.00     0.251 C 
ATOM     27  H   UNL     1       4.360   1.035   3.948  1.00  0.00     0.163 HD
ATOM     28  O   UNL     1       5.458   1.410   6.031  1.00  0.00    -0.269 OA
BRANCH  26  29
ATOM     29  C   UNL     1       5.714  -0.912   6.312  1.00  0.00     0.039 A 
ATOM     30  C   UNL     1       5.664  -0.896   7.709  1.00  0.00     0.014 A 
ATOM     31  C   UNL     1       6.229  -2.033   5.655  1.00  0.00     0.014 A 
ATOM     32  C   UNL     1       6.066  -2.020   8.436  1.00  0.00     0.010 A 
ATOM     33  C   UNL     1       6.552  -3.184   6.378  1.00  0.00     0.010 A 
ATOM     34  C   UNL     1       6.474  -3.193   7.778  1.00  0.00    -0.014 A 
BRANCH  34  35
ATOM     35  C   UNL     1       6.790  -4.425   8.555  1.00  0.00     0.031 A 
ATOM     36  C   UNL     1       8.171  -5.025   8.532  1.00  0.00     0.074 A 
ATOM     37  C   UNL     1       5.812  -5.020   9.270  1.00  0.00     0.049 A 
ATOM     38  N   UNL     1       8.625  -6.079   9.164  1.00  0.00    -0.248 NA
ATOM     39  C   UNL     1       9.164  -4.373   7.668  1.00  0.00     0.031 C 
ATOM     40  C   UNL     1       4.419  -4.569   9.329  1.00  0.00     0.029 A 
ATOM     41  N   UNL     1       5.836  -6.122  10.088  1.00  0.00    -0.354 N 
ATOM     42  C   UNL     1       9.954  -6.217   8.775  1.00  0.00     0.074 A 
ATOM     43  C   UNL     1      10.208  -5.179   7.798  1.00  0.00     0.031 C 
ATOM     44  C   UNL     1       3.737  -5.356  10.175  1.00  0.00     0.029 A 
ATOM     45  C   UNL     1       4.624  -6.396  10.682  1.00  0.00     0.049 A 
ATOM     46  H   UNL     1       6.643  -6.665  10.236  1.00  0.00     0.167 HD
ATOM     47  C   UNL     1      10.881  -7.109   9.209  1.00  0.00     0.034 A 
ATOM     48  C   UNL     1       4.265  -7.374  11.537  1.00  0.00     0.034 A 
ATOM     49  C   UNL     1      10.611  -8.142  10.183  1.00  0.00     0.049 A 
ATOM     50  C   UNL     1       5.309  -8.361  11.992  1.00  0.00     0.074 A 
ATOM     51  C   UNL     1      11.487  -9.067  10.725  1.00  0.00     0.029 A 
ATOM     52  N   UNL     1       9.370  -8.397  10.755  1.00  0.00    -0.354 N 
ATOM     53  N   UNL     1       6.578  -8.438  11.660  1.00  0.00    -0.248 NA
ATOM     54  C   UNL     1       4.875  -9.380  12.955  1.00  0.00     0.031 C 
ATOM     55  C   UNL     1      10.763  -9.927  11.558  1.00  0.00     0.029 A 
ATOM     56  C   UNL     1       9.452  -9.483  11.615  1.00  0.00     0.049 A 
ATOM     57  H   UNL     1       8.550  -7.882  10.575  1.00  0.00     0.167 HD
ATOM     58  C   UNL     1       7.099  -9.495  12.402  1.00  0.00     0.074 A 
ATOM     59  C   UNL     1       6.014 -10.003  13.216  1.00  0.00     0.031 C 
ATOM     60  C   UNL     1       8.361 -10.000  12.410  1.00  0.00     0.034 A 
BRANCH  47  61
ATOM     61  C   UNL     1      12.268  -7.020   8.611  1.00  0.00     0.023 A 
ATOM     62  C   UNL     1      13.067  -5.872   8.760  1.00  0.00     0.031 A 
ATOM     63  C   UNL     1      12.796  -8.091   7.867  1.00  0.00     0.131 A 
ATOM     64  C   UNL     1      14.311  -5.792   8.114  1.00  0.00     0.055 A 
ATOM     65  C   UNL     1      14.072  -8.039   7.300  1.00  0.00     0.041 A 
ATOM     66  F   UNL     1      12.075  -9.206   7.667  1.00  0.00    -0.206 F 
ATOM     67  C   UNL     1      14.831  -6.878   7.409  1.00  0.00     0.022 A 
BRANCH  64  68
ATOM     68  S   UNL     1      15.168  -4.193   8.081  1.00  0.00     0.124 S 
ATOM     69  O   UNL     1      14.169  -3.336   7.446  1.00  0.00    -0.237 OA
ATOM     70  O   UNL     1      15.422  -3.941   9.494  1.00  0.00    -0.237 OA
ATOM     71  O   UNL     1      16.355  -4.458   7.269  1.00  0.00    -0.744 OA
ENDBRANCH  64  68
ENDBRANCH  47  61
BRANCH  48  72
ATOM     72  C   UNL     1       2.858  -7.474  12.025  1.00  0.00     0.023 A 
ATOM     73  C   UNL     1       2.549  -7.332  13.388  1.00  0.00     0.031 A 
ATOM     74  C   UNL     1       1.804  -7.764  11.139  1.00  0.00     0.131 A 
ATOM     75  C   UNL     1       1.232  -7.532  13.832  1.00  0.00     0.055 A 
ATOM     76  C   UNL     1       0.486  -7.900  11.578  1.00  0.00     0.041 A 
ATOM     77  F   UNL     1       2.042  -7.907   9.825  1.00  0.00    -0.206 F 
ATOM     78  C   UNL     1       0.197  -7.799  12.934  1.00  0.00     0.022 A 
BRANCH  75  79
ATOM     79  S   UNL     1       0.908  -7.535  15.617  1.00  0.00     0.124 S 
ATOM     80  O   UNL     1       1.799  -8.594  16.078  1.00  0.00    -0.237 OA
ATOM     81  O   UNL     1       1.278  -6.175  15.994  1.00  0.00    -0.237 OA
ATOM     82  O   UNL     1      -0.519  -7.837  15.703  1.00  0.00    -0.744 OA
ENDBRANCH  75  79
ENDBRANCH  48  72
BRANCH  60  83
ATOM     83  C   UNL     1       8.634 -11.136  13.371  1.00  0.00     0.023 A 
ATOM     84  C   UNL     1       7.970 -12.371  13.268  1.00  0.00     0.031 A 
ATOM     85  C   UNL     1       9.531 -10.961  14.441  1.00  0.00     0.131 A 
ATOM     86  C   UNL     1       8.138 -13.343  14.266  1.00  0.00     0.055 A 
ATOM     87  C   UNL     1       9.757 -11.964  15.385  1.00  0.00     0.041 A 
ATOM     88  F   UNL     1      10.194  -9.804  14.596  1.00  0.00    -0.206 F 
ATOM     89  C   UNL     1       9.041 -13.155  15.314  1.00  0.00     0.022 A 
BRANCH  86  90
ATOM     90  S   UNL     1       7.043 -14.790  14.261  1.00  0.00     0.124 S 
ATOM     91  O   UNL     1       5.722 -14.170  14.254  1.00  0.00    -0.237 OA
ATOM     92  O   UNL     1       7.434 -15.472  13.031  1.00  0.00    -0.237 OA
ATOM     93  O   UNL     1       7.393 -15.489  15.496  1.00  0.00    -0.744 OA
ENDBRANCH  86  90
ENDBRANCH  60  83
ENDBRANCH  34  35
ENDBRANCH  26  29
ENDBRANCH  24  25
ENDBRANCH   1  24
TORSDOF 16
