REMARK SMILES CC[C@@](CC(F)(F)F)(C(=O)NCCCNC(=O)c1ccc(-c2c3nc(c(-c4cc(S(=O)(=O)[O-])ccc4F)c4ccc([nH]4)c(-c4cc(S(=O)(=O)[O-])ccc4F)c4nc(c(-c5cc(S(=O)(=O)[O-])ccc5F)c5ccc2[nH]5)C=C4)C=C3)cc1)c1ccccc1
REMARK SMILES IDX 13 1 12 2 11 3 9 4 10 5 3 7 2 8 1 9 4 10 5 11 6 12 7 13 8 14
REMARK SMILES IDX 81 15 82 16 86 17 83 18 85 19 84 20 14 21 15 22 16 23 17 25
REMARK SMILES IDX 18 26 19 27 80 28 20 29 79 30 21 31 22 32 23 33 73 34 24 35
REMARK SMILES IDX 78 36 72 37 74 38 25 39 77 40 71 41 70 42 26 44 58 45 38 46
REMARK SMILES IDX 57 47 39 48 42 49 56 50 75 51 40 52 41 53 55 55 76 56 43 57
REMARK SMILES IDX 27 58 28 59 36 60 29 61 35 62 37 63 34 64 30 65 31 66 32 67
REMARK SMILES IDX 33 68 59 69 60 70 68 71 61 72 67 73 69 74 66 75 62 76 63 77
REMARK SMILES IDX 64 78 65 79 44 80 45 81 53 82 46 83 52 84 54 85 51 86 47 87
REMARK SMILES IDX 48 88 49 89 50 90
REMARK H PARENT 11 6 15 24 74 43 42 54
REMARK Flexibility Score: inf
ROOT
ATOM      1  C   UNL     1      -2.797   0.466  -3.029  1.00  0.00     0.042 C 
ENDROOT
BRANCH   1   2
ATOM      2  C   UNL     1      -1.990  -0.813  -2.941  1.00  0.00     0.117 C 
BRANCH   2   3
ATOM      3  N   UNL     1      -0.766  -0.790  -3.721  1.00  0.00    -0.355 N 
ATOM      4  C   UNL     1       0.540  -1.031  -3.428  1.00  0.00     0.230 C 
ATOM      5  O   UNL     1       1.267  -1.160  -4.421  1.00  0.00    -0.274 OA
ATOM      6  H   UNL     1      -0.913  -0.550  -4.664  1.00  0.00     0.163 HD
BRANCH   4   7
ATOM      7  C   UNL     1       1.117  -1.166  -1.976  1.00  0.00     0.082 C 
BRANCH   7   8
ATOM      8  C   UNL     1       0.605   0.004  -1.071  1.00  0.00     0.019 C 
ATOM      9  C   UNL     1       1.136   0.025   0.359  1.00  0.00     0.005 C 
ENDBRANCH   7   8
BRANCH   7  10
ATOM     10  C   UNL     1       0.806  -2.583  -1.397  1.00  0.00     0.137 C 
BRANCH  10  11
ATOM     11  C   UNL     1      -0.576  -3.007  -0.979  1.00  0.00     0.390 C 
ATOM     12  F   UNL     1      -1.381  -3.221  -2.036  1.00  0.00    -0.171 F 
ATOM     13  F   UNL     1      -0.498  -4.190  -0.318  1.00  0.00    -0.171 F 
ATOM     14  F   UNL     1      -1.164  -2.132  -0.144  1.00  0.00    -0.171 F 
ENDBRANCH  10  11
ENDBRANCH   7  10
BRANCH   7  15
ATOM     15  C   UNL     1       2.702  -1.046  -2.083  1.00  0.00    -0.032 A 
ATOM     16  C   UNL     1       3.545  -2.180  -2.076  1.00  0.00     0.005 A 
ATOM     17  C   UNL     1       3.339   0.206  -2.196  1.00  0.00     0.005 A 
ATOM     18  C   UNL     1       4.938  -2.066  -2.074  1.00  0.00     0.000 A 
ATOM     19  C   UNL     1       4.735   0.320  -2.189  1.00  0.00     0.000 A 
ATOM     20  C   UNL     1       5.534  -0.815  -2.109  1.00  0.00     0.000 A 
ENDBRANCH   7  15
ENDBRANCH   4   7
ENDBRANCH   2   3
ENDBRANCH   1   2
BRANCH   1  21
ATOM     21  C   UNL     1      -3.532   0.613  -4.351  1.00  0.00     0.118 C 
BRANCH  21  22
ATOM     22  N   UNL     1      -4.476  -0.476  -4.594  1.00  0.00    -0.352 N 
ATOM     23  C   UNL     1      -5.852  -0.483  -4.619  1.00  0.00     0.251 C 
ATOM     24  H   UNL     1      -4.058  -1.349  -4.770  1.00  0.00     0.163 HD
ATOM     25  O   UNL     1      -6.450  -1.550  -4.616  1.00  0.00    -0.269 OA
BRANCH  23  26
ATOM     26  C   UNL     1      -6.593   0.795  -4.627  1.00  0.00     0.039 A 
ATOM     27  C   UNL     1      -7.761   0.917  -3.871  1.00  0.00     0.014 A 
ATOM     28  C   UNL     1      -6.128   1.876  -5.375  1.00  0.00     0.014 A 
ATOM     29  C   UNL     1      -8.409   2.153  -3.800  1.00  0.00     0.010 A 
ATOM     30  C   UNL     1      -6.697   3.128  -5.205  1.00  0.00     0.010 A 
ATOM     31  C   UNL     1      -7.852   3.280  -4.426  1.00  0.00    -0.014 A 
BRANCH  31  32
ATOM     32  C   UNL     1      -8.465   4.628  -4.303  1.00  0.00     0.031 A 
ATOM     33  C   UNL     1      -8.908   5.361  -5.541  1.00  0.00     0.074 A 
ATOM     34  C   UNL     1      -8.543   5.219  -3.094  1.00  0.00     0.049 A 
ATOM     35  N   UNL     1      -9.357   6.582  -5.665  1.00  0.00    -0.248 NA
ATOM     36  C   UNL     1      -8.786   4.636  -6.817  1.00  0.00     0.031 C 
ATOM     37  C   UNL     1      -8.099   4.625  -1.830  1.00  0.00     0.029 A 
ATOM     38  N   UNL     1      -9.017   6.453  -2.727  1.00  0.00    -0.354 N 
ATOM     39  C   UNL     1      -9.551   6.777  -7.029  1.00  0.00     0.074 A 
ATOM     40  C   UNL     1      -9.095   5.577  -7.694  1.00  0.00     0.031 C 
ATOM     41  C   UNL     1      -8.354   5.479  -0.827  1.00  0.00     0.029 A 
ATOM     42  C   UNL     1      -8.926   6.703  -1.377  1.00  0.00     0.049 A 
ATOM     43  H   UNL     1      -9.386   7.100  -3.370  1.00  0.00     0.167 HD
ATOM     44  C   UNL     1     -10.090   7.847  -7.664  1.00  0.00     0.034 A 
ATOM     45  C   UNL     1      -9.255   7.800  -0.666  1.00  0.00     0.034 A 
ATOM     46  C   UNL     1     -10.559   9.025  -6.977  1.00  0.00     0.049 A 
ATOM     47  C   UNL     1      -9.835   8.986  -1.396  1.00  0.00     0.074 A 
ATOM     48  C   UNL     1     -11.174  10.144  -7.508  1.00  0.00     0.029 A 
ATOM     49  N   UNL     1     -10.459   9.238  -5.608  1.00  0.00    -0.354 N 
ATOM     50  N   UNL     1     -10.060   9.135  -2.682  1.00  0.00    -0.248 NA
ATOM     51  C   UNL     1     -10.214  10.145  -0.580  1.00  0.00     0.031 C 
ATOM     52  C   UNL     1     -11.378  11.063  -6.474  1.00  0.00     0.029 A 
ATOM     53  C   UNL     1     -10.973  10.484  -5.282  1.00  0.00     0.049 A 
ATOM     54  H   UNL     1     -10.080   8.598  -4.963  1.00  0.00     0.167 HD
ATOM     55  C   UNL     1     -10.643  10.392  -2.821  1.00  0.00     0.074 A 
ATOM     56  C   UNL     1     -10.745  10.950  -1.488  1.00  0.00     0.031 C 
ATOM     57  C   UNL     1     -11.061  11.026  -3.946  1.00  0.00     0.034 A 
BRANCH  44  58
ATOM     58  C   UNL     1     -10.177   7.790  -9.172  1.00  0.00     0.023 A 
ATOM     59  C   UNL     1     -10.932   6.804  -9.833  1.00  0.00     0.031 A 
ATOM     60  C   UNL     1      -9.472   8.715  -9.962  1.00  0.00     0.131 A 
ATOM     61  C   UNL     1     -10.896   6.714 -11.232  1.00  0.00     0.055 A 
ATOM     62  C   UNL     1      -9.515   8.675 -11.357  1.00  0.00     0.041 A 
ATOM     63  F   UNL     1      -8.715   9.665  -9.392  1.00  0.00    -0.206 F 
ATOM     64  C   UNL     1     -10.216   7.660 -12.001  1.00  0.00     0.022 A 
BRANCH  61  65
ATOM     65  S   UNL     1     -11.621   5.251 -12.022  1.00  0.00     0.124 S 
ATOM     66  O   UNL     1     -10.855   4.172 -11.402  1.00  0.00    -0.237 OA
ATOM     67  O   UNL     1     -13.023   5.344 -11.633  1.00  0.00    -0.237 OA
ATOM     68  O   UNL     1     -11.351   5.460 -13.443  1.00  0.00    -0.744 OA
ENDBRANCH  61  65
ENDBRANCH  44  58
BRANCH  45  69
ATOM     69  C   UNL     1      -9.044   7.838   0.811  1.00  0.00     0.023 A 
ATOM     70  C   UNL     1     -10.129   7.968   1.692  1.00  0.00     0.031 A 
ATOM     71  C   UNL     1      -7.751   7.789   1.363  1.00  0.00     0.131 A 
ATOM     72  C   UNL     1      -9.901   8.097   3.071  1.00  0.00     0.055 A 
ATOM     73  C   UNL     1      -7.533   7.857   2.740  1.00  0.00     0.041 A 
ATOM     74  F   UNL     1      -6.677   7.662   0.567  1.00  0.00    -0.206 F 
ATOM     75  C   UNL     1      -8.611   8.027   3.602  1.00  0.00     0.022 A 
BRANCH  72  76
ATOM     76  S   UNL     1     -11.311   8.456   4.154  1.00  0.00     0.124 S 
ATOM     77  O   UNL     1     -11.826   9.689   3.571  1.00  0.00    -0.237 OA
ATOM     78  O   UNL     1     -12.138   7.267   3.978  1.00  0.00    -0.237 OA
ATOM     79  O   UNL     1     -10.698   8.596   5.474  1.00  0.00    -0.744 OA
ENDBRANCH  72  76
ENDBRANCH  45  69
BRANCH  57  80
ATOM     80  C   UNL     1     -11.717  12.374  -3.772  1.00  0.00     0.023 A 
ATOM     81  C   UNL     1     -11.006  13.492  -3.301  1.00  0.00     0.031 A 
ATOM     82  C   UNL     1     -13.079  12.539  -4.081  1.00  0.00     0.131 A 
ATOM     83  C   UNL     1     -11.674  14.709  -3.098  1.00  0.00     0.055 A 
ATOM     84  C   UNL     1     -13.722  13.769  -3.942  1.00  0.00     0.041 A 
ATOM     85  F   UNL     1     -13.808  11.505  -4.531  1.00  0.00    -0.206 F 
ATOM     86  C   UNL     1     -13.022  14.860  -3.435  1.00  0.00     0.022 A 
BRANCH  83  87
ATOM     87  S   UNL     1     -10.781  16.067  -2.295  1.00  0.00     0.124 S 
ATOM     88  O   UNL     1     -10.390  15.464  -1.025  1.00  0.00    -0.237 OA
ATOM     89  O   UNL     1      -9.697  16.329  -3.237  1.00  0.00    -0.237 OA
ATOM     90  O   UNL     1     -11.784  17.126  -2.196  1.00  0.00    -0.744 OA
ENDBRANCH  83  87
ENDBRANCH  57  80
ENDBRANCH  31  32
ENDBRANCH  23  26
ENDBRANCH  21  22
ENDBRANCH   1  21
TORSDOF 17
