REMARK SMILES COc1cc(/C=C/C(=O)NCCCNC(=O)c2ccc(-c3c4nc(c(-c5cc(S(=O)(=O)[O-])ccc5F)c5ccc([nH]5)c(-c5cc(S(=O)(=O)[O-])ccc5F)c5nc(c(-c6cc(S(=O)(=O)[O-])ccc6F)c6ccc3[nH]6)C=C5)C=C4)cc2)cc(OC)c1O
REMARK SMILES IDX 12 1 11 2 10 3 8 4 9 5 7 7 6 8 5 9 3 10 4 11 84 12 81 13
REMARK SMILES IDX 80 14 2 15 1 16 85 17 82 19 83 20 13 21 14 22 15 23 16 25
REMARK SMILES IDX 17 26 18 27 79 28 19 29 78 30 20 31 21 32 22 33 72 34 23 35
REMARK SMILES IDX 77 36 71 37 73 38 24 39 76 40 70 41 69 42 25 44 57 45 37 46
REMARK SMILES IDX 56 47 38 48 41 49 55 50 74 51 39 52 40 53 54 55 75 56 42 57
REMARK SMILES IDX 26 58 27 59 35 60 28 61 34 62 36 63 33 64 29 65 30 66 31 67
REMARK SMILES IDX 32 68 58 69 59 70 67 71 60 72 66 73 68 74 65 75 61 76 62 77
REMARK SMILES IDX 63 78 64 79 43 80 44 81 52 82 45 83 51 84 53 85 50 86 46 87
REMARK SMILES IDX 47 88 48 89 49 90
REMARK H PARENT 10 6 85 18 14 24 73 43 41 54
REMARK Flexibility Score: inf
ROOT
ATOM      1  C   UNL     1      -3.278   5.155   6.626  1.00  0.00     0.042 C 
ENDROOT
BRANCH   1   2
ATOM      2  C   UNL     1      -3.567   5.523   5.172  1.00  0.00     0.118 C 
BRANCH   2   3
ATOM      3  N   UNL     1      -2.542   6.397   4.628  1.00  0.00    -0.352 N 
ATOM      4  C   UNL     1      -1.590   6.170   3.686  1.00  0.00     0.244 C 
ATOM      5  O   UNL     1      -0.900   7.104   3.281  1.00  0.00    -0.270 OA
ATOM      6  H   UNL     1      -2.536   7.307   5.006  1.00  0.00     0.163 HD
BRANCH   4   7
ATOM      7  C   UNL     1      -1.438   4.840   3.057  1.00  0.00     0.072 C 
ATOM      8  C   UNL     1      -1.344   3.679   3.722  1.00  0.00     0.014 C 
BRANCH   8   9
ATOM      9  C   UNL     1      -1.187   2.377   3.053  1.00  0.00    -0.018 A 
ATOM     10  C   UNL     1      -0.312   0.963   1.281  1.00  0.00     0.165 A 
ATOM     11  C   UNL     1      -0.404   2.210   1.906  1.00  0.00     0.058 A 
ATOM     12  C   UNL     1      -1.023  -0.134   1.792  1.00  0.00     0.200 A 
ATOM     13  C   UNL     1      -1.760  -0.003   2.974  1.00  0.00     0.165 A 
ATOM     14  C   UNL     1      -1.836   1.257   3.589  1.00  0.00     0.058 A 
BRANCH  10  15
ATOM     15  O   UNL     1       0.402   0.940   0.109  1.00  0.00    -0.493 OA
ATOM     16  C   UNL     1       1.355  -0.118   0.000  1.00  0.00     0.278 C 
ENDBRANCH  10  15
BRANCH  12  17
ATOM     17  O   UNL     1      -1.062  -1.297   1.071  1.00  0.00    -0.502 OA
ATOM     18  H   UNL     1      -0.566  -1.375   0.281  1.00  0.00     0.293 HD
ENDBRANCH  12  17
BRANCH  13  19
ATOM     19  O   UNL     1      -2.513  -0.954   3.609  1.00  0.00    -0.493 OA
ATOM     20  C   UNL     1      -2.276  -2.316   3.282  1.00  0.00     0.278 C 
ENDBRANCH  13  19
ENDBRANCH   8   9
ENDBRANCH   4   7
ENDBRANCH   2   3
ENDBRANCH   1   2
BRANCH   1  21
ATOM     21  C   UNL     1      -3.488   6.308   7.606  1.00  0.00     0.118 C 
BRANCH  21  22
ATOM     22  N   UNL     1      -4.891   6.682   7.720  1.00  0.00    -0.352 N 
ATOM     23  C   UNL     1      -5.715   6.694   8.816  1.00  0.00     0.251 C 
ATOM     24  H   UNL     1      -5.314   6.972   6.879  1.00  0.00     0.163 HD
ATOM     25  O   UNL     1      -6.932   6.817   8.643  1.00  0.00    -0.269 OA
BRANCH  23  26
ATOM     26  C   UNL     1      -5.174   6.552  10.185  1.00  0.00     0.039 A 
ATOM     27  C   UNL     1      -5.887   5.793  11.118  1.00  0.00     0.014 A 
ATOM     28  C   UNL     1      -3.999   7.203  10.572  1.00  0.00     0.014 A 
ATOM     29  C   UNL     1      -5.397   5.645  12.419  1.00  0.00     0.010 A 
ATOM     30  C   UNL     1      -3.476   6.998  11.848  1.00  0.00     0.010 A 
ATOM     31  C   UNL     1      -4.172   6.223  12.787  1.00  0.00    -0.014 A 
BRANCH  31  32
ATOM     32  C   UNL     1      -3.611   6.037  14.152  1.00  0.00     0.031 A 
ATOM     33  C   UNL     1      -3.441   7.220  15.068  1.00  0.00     0.074 A 
ATOM     34  C   UNL     1      -3.201   4.814  14.543  1.00  0.00     0.049 A 
ATOM     35  N   UNL     1      -2.901   7.277  16.258  1.00  0.00    -0.248 NA
ATOM     36  C   UNL     1      -3.915   8.516  14.560  1.00  0.00     0.031 C 
ATOM     37  C   UNL     1      -3.284   3.597  13.732  1.00  0.00     0.029 A 
ATOM     38  N   UNL     1      -2.625   4.392  15.715  1.00  0.00    -0.354 N 
ATOM     39  C   UNL     1      -2.954   8.615  16.637  1.00  0.00     0.074 A 
ATOM     40  C   UNL     1      -3.525   9.340  15.521  1.00  0.00     0.031 C 
ATOM     41  C   UNL     1      -2.800   2.564  14.439  1.00  0.00     0.029 A 
ATOM     42  C   UNL     1      -2.329   3.048  15.733  1.00  0.00     0.049 A 
ATOM     43  H   UNL     1      -2.440   4.994  16.471  1.00  0.00     0.167 HD
ATOM     44  C   UNL     1      -2.580   9.182  17.812  1.00  0.00     0.034 A 
ATOM     45  C   UNL     1      -1.736   2.294  16.680  1.00  0.00     0.034 A 
ATOM     46  C   UNL     1      -2.023   8.439  18.918  1.00  0.00     0.049 A 
ATOM     47  C   UNL     1      -1.307   2.950  17.968  1.00  0.00     0.074 A 
ATOM     48  C   UNL     1      -1.664   8.899  20.173  1.00  0.00     0.029 A 
ATOM     49  N   UNL     1      -1.736   7.079  18.899  1.00  0.00    -0.354 N 
ATOM     50  N   UNL     1      -1.409   4.208  18.330  1.00  0.00    -0.248 NA
ATOM     51  C   UNL     1      -0.691   2.080  18.978  1.00  0.00     0.031 C 
ATOM     52  C   UNL     1      -1.099   7.835  20.887  1.00  0.00     0.029 A 
ATOM     53  C   UNL     1      -1.176   6.692  20.108  1.00  0.00     0.049 A 
ATOM     54  H   UNL     1      -1.907   6.478  18.139  1.00  0.00     0.167 HD
ATOM     55  C   UNL     1      -0.900   4.272  19.624  1.00  0.00     0.074 A 
ATOM     56  C   UNL     1      -0.505   2.925  19.981  1.00  0.00     0.031 C 
ATOM     57  C   UNL     1      -0.775   5.346  20.445  1.00  0.00     0.034 A 
BRANCH  44  58
ATOM     58  C   UNL     1      -2.736  10.680  17.941  1.00  0.00     0.023 A 
ATOM     59  C   UNL     1      -3.995  11.302  17.859  1.00  0.00     0.031 A 
ATOM     60  C   UNL     1      -1.609  11.503  18.111  1.00  0.00     0.131 A 
ATOM     61  C   UNL     1      -4.087  12.703  17.860  1.00  0.00     0.055 A 
ATOM     62  C   UNL     1      -1.716  12.893  18.199  1.00  0.00     0.041 A 
ATOM     63  F   UNL     1      -0.378  10.972  18.178  1.00  0.00    -0.206 F 
ATOM     64  C   UNL     1      -2.959  13.502  18.055  1.00  0.00     0.022 A 
BRANCH  61  65
ATOM     65  S   UNL     1      -5.680  13.464  17.443  1.00  0.00     0.124 S 
ATOM     66  O   UNL     1      -5.935  12.907  16.116  1.00  0.00    -0.237 OA
ATOM     67  O   UNL     1      -6.547  12.989  18.514  1.00  0.00    -0.237 OA
ATOM     68  O   UNL     1      -5.391  14.897  17.462  1.00  0.00    -0.744 OA
ENDBRANCH  61  65
ENDBRANCH  44  58
BRANCH  45  69
ATOM     69  C   UNL     1      -1.508   0.839  16.453  1.00  0.00     0.023 A 
ATOM     70  C   UNL     1      -2.156  -0.124  17.242  1.00  0.00     0.031 A 
ATOM     71  C   UNL     1      -0.608   0.389  15.470  1.00  0.00     0.131 A 
ATOM     72  C   UNL     1      -1.863  -1.485  17.068  1.00  0.00     0.055 A 
ATOM     73  C   UNL     1      -0.358  -0.969  15.265  1.00  0.00     0.041 A 
ATOM     74  F   UNL     1       0.034   1.268  14.684  1.00  0.00    -0.206 F 
ATOM     75  C   UNL     1      -0.978  -1.915  16.076  1.00  0.00     0.022 A 
BRANCH  72  76
ATOM     76  S   UNL     1      -2.595  -2.684  18.215  1.00  0.00     0.124 S 
ATOM     77  O   UNL     1      -2.110  -2.199  19.502  1.00  0.00    -0.237 OA
ATOM     78  O   UNL     1      -4.021  -2.514  17.960  1.00  0.00    -0.237 OA
ATOM     79  O   UNL     1      -2.034  -3.961  17.776  1.00  0.00    -0.744 OA
ENDBRANCH  72  76
ENDBRANCH  45  69
BRANCH  57  80
ATOM     80  C   UNL     1      -0.229   5.087  21.829  1.00  0.00     0.023 A 
ATOM     81  C   UNL     1       1.099   4.674  22.037  1.00  0.00     0.031 A 
ATOM     82  C   UNL     1      -1.059   5.237  22.954  1.00  0.00     0.131 A 
ATOM     83  C   UNL     1       1.540   4.368  23.333  1.00  0.00     0.055 A 
ATOM     84  C   UNL     1      -0.596   4.991  24.247  1.00  0.00     0.041 A 
ATOM     85  F   UNL     1      -2.337   5.626  22.814  1.00  0.00    -0.206 F 
ATOM     86  C   UNL     1       0.706   4.540  24.441  1.00  0.00     0.022 A 
BRANCH  83  87
ATOM     87  S   UNL     1       3.193   3.650  23.544  1.00  0.00     0.124 S 
ATOM     88  O   UNL     1       3.106   2.445  22.726  1.00  0.00    -0.237 OA
ATOM     89  O   UNL     1       4.060   4.707  23.032  1.00  0.00    -0.237 OA
ATOM     90  O   UNL     1       3.284   3.417  24.984  1.00  0.00    -0.744 OA
ENDBRANCH  83  87
ENDBRANCH  57  80
ENDBRANCH  31  32
ENDBRANCH  23  26
ENDBRANCH  21  22
ENDBRANCH   1  21
TORSDOF 17
