REMARK SMILES CN1CCN(C(=O)N2CCC[C@H]2CC(=O)NCCCNC(=O)c2ccc(-c3c4nc(c(-c5cc(S(=O)(=O)[O-])ccc5F)c5ccc([nH]5)c(-c5cc(S(=O)(=O)[O-])ccc5F)c5nc(c(-c6cc(S(=O)(=O)[O-])ccc6F)c6ccc3[nH]6)C=C5)C=C4)cc2)C(C)(C)C1=O
REMARK SMILES IDX 18 1 17 2 16 3 14 4 15 5 13 7 12 8 8 9 9 10 10 11 11 12 6 13
REMARK SMILES IDX 7 14 5 15 1 16 2 17 3 18 89 19 4 20 86 21 90 22 87 23 88 24
REMARK SMILES IDX 19 25 20 26 21 27 22 29 23 30 24 31 85 32 25 33 84 34 26 35
REMARK SMILES IDX 27 36 28 37 78 38 29 39 83 40 77 41 79 42 30 43 82 44 76 45
REMARK SMILES IDX 75 46 31 48 63 49 43 50 62 51 44 52 47 53 61 54 80 55 45 56
REMARK SMILES IDX 46 57 60 59 81 60 48 61 32 62 33 63 41 64 34 65 40 66 42 67
REMARK SMILES IDX 39 68 35 69 36 70 37 71 38 72 64 73 65 74 73 75 66 76 72 77
REMARK SMILES IDX 74 78 71 79 67 80 68 81 69 82 70 83 49 84 50 85 58 86 51 87
REMARK SMILES IDX 57 88 59 89 56 90 52 91 53 92 54 93 55 94
REMARK H PARENT 16 6 20 28 79 47 47 58
REMARK Flexibility Score: inf
ROOT
ATOM      1  C   UNL     1      -0.717  -9.212   4.104  1.00  0.00     0.042 C 
ENDROOT
BRANCH   1   2
ATOM      2  C   UNL     1      -2.000  -9.522   3.334  1.00  0.00     0.117 C 
BRANCH   2   3
ATOM      3  N   UNL     1      -2.688  -8.335   2.856  1.00  0.00    -0.356 N 
ATOM      4  C   UNL     1      -2.780  -7.745   1.634  1.00  0.00     0.222 C 
ATOM      5  O   UNL     1      -3.505  -6.748   1.558  1.00  0.00    -0.275 OA
ATOM      6  H   UNL     1      -3.189  -7.863   3.559  1.00  0.00     0.163 HD
BRANCH   4   7
ATOM      7  C   UNL     1      -2.071  -8.289   0.408  1.00  0.00     0.125 C 
BRANCH   7   8
ATOM      8  C   UNL     1      -0.681  -7.712   0.068  1.00  0.00     0.096 C 
ATOM      9  N   UNL     1      -0.451  -6.321   0.443  1.00  0.00    -0.321 N 
ATOM     10  C   UNL     1       0.206  -6.283   1.731  1.00  0.00     0.122 C 
ATOM     11  C   UNL     1       1.206  -7.422   1.601  1.00  0.00     0.024 C 
ATOM     12  C   UNL     1       0.475  -8.467   0.745  1.00  0.00     0.027 C 
BRANCH   9  13
ATOM     13  C   UNL     1      -0.753  -5.292  -0.413  1.00  0.00     0.321 C 
ATOM     14  O   UNL     1      -1.440  -5.480  -1.419  1.00  0.00    -0.248 OA
BRANCH  13  15
ATOM     15  N   UNL     1      -0.296  -4.019  -0.085  1.00  0.00    -0.309 N 
ATOM     16  C   UNL     1       0.722   0.155   0.441  1.00  0.00     0.146 C 
ATOM     17  N   UNL     1       0.419  -1.246   0.209  1.00  0.00    -0.342 N 
ATOM     18  C   UNL     1      -0.976  -1.653   0.294  1.00  0.00     0.140 C 
ATOM     19  C   UNL     1       1.445  -2.186   0.219  1.00  0.00     0.247 C 
ATOM     20  C   UNL     1      -1.286  -2.983  -0.376  1.00  0.00     0.144 C 
ATOM     21  C   UNL     1       1.115  -3.592  -0.387  1.00  0.00     0.118 C 
ATOM     22  O   UNL     1       2.606  -1.858   0.475  1.00  0.00    -0.272 OA
ATOM     23  C   UNL     1       1.314  -3.439  -1.916  1.00  0.00     0.045 C 
ATOM     24  C   UNL     1       2.219  -4.554   0.079  1.00  0.00     0.045 C 
ENDBRANCH  13  15
ENDBRANCH   9  13
ENDBRANCH   7   8
ENDBRANCH   4   7
ENDBRANCH   2   3
ENDBRANCH   1   2
BRANCH   1  25
ATOM     25  C   UNL     1      -0.831  -8.199   5.241  1.00  0.00     0.118 C 
BRANCH  25  26
ATOM     26  N   UNL     1      -1.288  -8.823   6.463  1.00  0.00    -0.352 N 
ATOM     27  C   UNL     1      -0.650  -8.971   7.670  1.00  0.00     0.251 C 
ATOM     28  H   UNL     1      -2.197  -9.200   6.424  1.00  0.00     0.163 HD
ATOM     29  O   UNL     1      -1.101  -9.798   8.461  1.00  0.00    -0.269 OA
BRANCH  27  30
ATOM     30  C   UNL     1       0.550  -8.172   8.045  1.00  0.00     0.039 A 
ATOM     31  C   UNL     1       1.490  -8.764   8.898  1.00  0.00     0.014 A 
ATOM     32  C   UNL     1       0.711  -6.828   7.690  1.00  0.00     0.014 A 
ATOM     33  C   UNL     1       2.566  -8.020   9.398  1.00  0.00     0.010 A 
ATOM     34  C   UNL     1       1.824  -6.102   8.139  1.00  0.00     0.010 A 
ATOM     35  C   UNL     1       2.745  -6.678   9.029  1.00  0.00    -0.014 A 
BRANCH  35  36
ATOM     36  C   UNL     1       3.844  -5.871   9.639  1.00  0.00     0.031 A 
ATOM     37  C   UNL     1       3.522  -4.725  10.570  1.00  0.00     0.074 A 
ATOM     38  C   UNL     1       5.133  -6.173   9.378  1.00  0.00     0.049 A 
ATOM     39  N   UNL     1       4.335  -3.938  11.230  1.00  0.00    -0.248 NA
ATOM     40  C   UNL     1       2.099  -4.410  10.769  1.00  0.00     0.031 C 
ATOM     41  C   UNL     1       5.585  -7.234   8.475  1.00  0.00     0.029 A 
ATOM     42  N   UNL     1       6.301  -5.625   9.852  1.00  0.00    -0.354 N 
ATOM     43  C   UNL     1       3.526  -3.029  11.907  1.00  0.00     0.074 A 
ATOM     44  C   UNL     1       2.160  -3.332  11.537  1.00  0.00     0.031 C 
ATOM     45  C   UNL     1       6.928  -7.279   8.486  1.00  0.00     0.029 A 
ATOM     46  C   UNL     1       7.438  -6.234   9.369  1.00  0.00     0.049 A 
ATOM     47  H   UNL     1       6.322  -4.867  10.480  1.00  0.00     0.167 HD
ATOM     48  C   UNL     1       3.883  -2.046  12.771  1.00  0.00     0.034 A 
ATOM     49  C   UNL     1       8.741  -5.982   9.611  1.00  0.00     0.034 A 
ATOM     50  C   UNL     1       5.244  -1.770  13.165  1.00  0.00     0.049 A 
ATOM     51  C   UNL     1       9.108  -4.884  10.582  1.00  0.00     0.074 A 
ATOM     52  C   UNL     1       5.703  -0.850  14.093  1.00  0.00     0.029 A 
ATOM     53  N   UNL     1       6.366  -2.404  12.650  1.00  0.00    -0.354 N 
ATOM     54  N   UNL     1       8.322  -4.089  11.270  1.00  0.00    -0.248 NA
ATOM     55  C   UNL     1      10.541  -4.666  10.821  1.00  0.00     0.031 C 
ATOM     56  C   UNL     1       7.102  -0.882  14.091  1.00  0.00     0.029 A 
ATOM     57  C   UNL     1       7.516  -1.873  13.216  1.00  0.00     0.049 A 
ATOM     58  H   UNL     1       6.349  -3.126  11.981  1.00  0.00     0.167 HD
ATOM     59  C   UNL     1       9.168  -3.304  12.050  1.00  0.00     0.074 A 
ATOM     60  C   UNL     1      10.519  -3.740  11.766  1.00  0.00     0.031 C 
ATOM     61  C   UNL     1       8.859  -2.310  12.923  1.00  0.00     0.034 A 
BRANCH  48  62
ATOM     62  C   UNL     1       2.786  -1.173  13.336  1.00  0.00     0.023 A 
ATOM     63  C   UNL     1       1.792  -1.683  14.188  1.00  0.00     0.031 A 
ATOM     64  C   UNL     1       2.742   0.198  13.020  1.00  0.00     0.131 A 
ATOM     65  C   UNL     1       0.764  -0.845  14.646  1.00  0.00     0.055 A 
ATOM     66  C   UNL     1       1.758   1.042  13.538  1.00  0.00     0.041 A 
ATOM     67  F   UNL     1       3.654   0.739  12.197  1.00  0.00    -0.206 F 
ATOM     68  C   UNL     1       0.754   0.520  14.348  1.00  0.00     0.022 A 
BRANCH  65  69
ATOM     69  S   UNL     1      -0.625  -1.585  15.548  1.00  0.00     0.124 S 
ATOM     70  O   UNL     1      -1.167  -2.505  14.551  1.00  0.00    -0.237 OA
ATOM     71  O   UNL     1       0.032  -2.199  16.695  1.00  0.00    -0.237 OA
ATOM     72  O   UNL     1      -1.482  -0.440  15.858  1.00  0.00    -0.744 OA
ENDBRANCH  65  69
ENDBRANCH  48  62
BRANCH  49  73
ATOM     73  C   UNL     1       9.814  -6.769   8.932  1.00  0.00     0.023 A 
ATOM     74  C   UNL     1      10.721  -7.545   9.673  1.00  0.00     0.031 A 
ATOM     75  C   UNL     1      10.006  -6.683   7.542  1.00  0.00     0.131 A 
ATOM     76  C   UNL     1      11.816  -8.146   9.033  1.00  0.00     0.055 A 
ATOM     77  C   UNL     1      11.062  -7.333   6.901  1.00  0.00     0.041 A 
ATOM     78  F   UNL     1       9.168  -5.957   6.784  1.00  0.00    -0.206 F 
ATOM     79  C   UNL     1      11.986  -8.055   7.650  1.00  0.00     0.022 A 
BRANCH  76  80
ATOM     80  S   UNL     1      13.085  -8.948  10.053  1.00  0.00     0.124 S 
ATOM     81  O   UNL     1      13.453  -7.875  10.968  1.00  0.00    -0.237 OA
ATOM     82  O   UNL     1      12.343 -10.062  10.634  1.00  0.00    -0.237 OA
ATOM     83  O   UNL     1      14.112  -9.324   9.084  1.00  0.00    -0.744 OA
ENDBRANCH  76  80
ENDBRANCH  49  73
BRANCH  61  84
ATOM     84  C   UNL     1      10.009  -1.668  13.662  1.00  0.00     0.023 A 
ATOM     85  C   UNL     1      10.998  -0.927  12.991  1.00  0.00     0.031 A 
ATOM     86  C   UNL     1      10.139  -1.834  15.053  1.00  0.00     0.131 A 
ATOM     87  C   UNL     1      12.112  -0.446  13.696  1.00  0.00     0.055 A 
ATOM     88  C   UNL     1      11.215  -1.295  15.760  1.00  0.00     0.041 A 
ATOM     89  F   UNL     1       9.226  -2.532  15.747  1.00  0.00    -0.206 F 
ATOM     90  C   UNL     1      12.219  -0.613  15.079  1.00  0.00     0.022 A 
BRANCH  87  91
ATOM     91  S   UNL     1      13.480   0.294  12.762  1.00  0.00     0.124 S 
ATOM     92  O   UNL     1      13.818  -0.770  11.823  1.00  0.00    -0.237 OA
ATOM     93  O   UNL     1      12.856   1.479  12.184  1.00  0.00    -0.237 OA
ATOM     94  O   UNL     1      14.489   0.562  13.785  1.00  0.00    -0.744 OA
ENDBRANCH  87  91
ENDBRANCH  61  84
ENDBRANCH  35  36
ENDBRANCH  27  30
ENDBRANCH  25  26
ENDBRANCH   1  25
TORSDOF 16
