REMARK SMILES C[C@@H](CS(=O)(=O)[C@@H]1CCC[C@H](S(C)(=O)=O)C1)C(=O)NCCCNC(=O)c1ccc(-c2c3nc(c(-c4cc(S(=O)(=O)[O-])ccc4F)c4ccc([nH]4)c(-c4cc(S(=O)(=O)[O-])ccc4F)c4nc(c(-c5cc(S(=O)(=O)[O-])ccc5F)c5ccc2[nH]5)C=C4)C=C3)cc1
REMARK SMILES IDX 20 1 19 2 17 3 18 4 2 6 1 7 3 8 4 9 5 10 6 11 7 12 8 13
REMARK SMILES IDX 16 14 9 15 11 16 10 17 12 18 13 19 14 20 15 21 21 22 22 23
REMARK SMILES IDX 23 24 24 25 25 27 26 28 27 29 88 30 28 31 87 32 29 33 30 34
REMARK SMILES IDX 31 35 81 36 32 37 86 38 80 39 82 40 33 41 85 42 79 43 78 44
REMARK SMILES IDX 34 46 66 47 46 48 65 49 47 50 50 51 64 52 83 53 48 54 49 55
REMARK SMILES IDX 63 57 84 58 51 59 35 60 36 61 44 62 37 63 43 64 45 65 42 66
REMARK SMILES IDX 38 67 39 68 40 69 41 70 67 71 68 72 76 73 69 74 75 75 77 76
REMARK SMILES IDX 74 77 70 78 71 79 72 80 73 81 52 82 53 83 61 84 54 85 60 86
REMARK SMILES IDX 62 87 59 88 55 89 56 90 57 91 58 92
REMARK H PARENT 19 5 23 26 82 45 50 56
REMARK Flexibility Score: inf
ROOT
ATOM      1  C   UNL     1      -1.865  -0.408   1.798  1.00  0.00     0.117 C 
ENDROOT
BRANCH   1   2
ATOM      2  N   UNL     1      -1.940  -1.099   0.543  1.00  0.00    -0.356 N 
ATOM      3  C   UNL     1      -0.952  -1.697  -0.161  1.00  0.00     0.223 C 
ATOM      4  O   UNL     1      -1.316  -2.394  -1.117  1.00  0.00    -0.275 OA
ATOM      5  H   UNL     1      -2.836  -1.144   0.138  1.00  0.00     0.163 HD
BRANCH   3   6
ATOM      6  C   UNL     1       0.559  -1.502   0.089  1.00  0.00     0.090 C 
ATOM      7  C   UNL     1       1.148  -0.241  -0.532  1.00  0.00     0.019 C 
BRANCH   6   8
ATOM      8  C   UNL     1       1.266  -2.061   1.320  1.00  0.00     0.150 C 
BRANCH   8   9
ATOM      9  S   UNL     1       1.391  -1.352   2.954  1.00  0.00     0.153 S 
ATOM     10  O   UNL     1       0.102  -1.476   3.604  1.00  0.00    -0.229 OA
ATOM     11  O   UNL     1       2.511  -2.078   3.541  1.00  0.00    -0.229 OA
BRANCH   9  12
ATOM     12  C   UNL     1       1.906   0.414   2.995  1.00  0.00     0.110 C 
ATOM     13  C   UNL     1       2.280   0.754   4.458  1.00  0.00     0.020 C 
ATOM     14  C   UNL     1       0.837   1.422   2.576  1.00  0.00     0.039 C 
ATOM     15  C   UNL     1       2.712   2.209   4.643  1.00  0.00     0.003 C 
ATOM     16  C   UNL     1       1.307   2.884   2.665  1.00  0.00     0.109 C 
ATOM     17  C   UNL     1       1.690   3.211   4.104  1.00  0.00     0.020 C 
BRANCH  16  18
ATOM     18  S   UNL     1       0.006   3.969   2.026  1.00  0.00     0.150 S 
ATOM     19  C   UNL     1       0.685   5.612   2.054  1.00  0.00     0.158 C 
ATOM     20  O   UNL     1      -0.185   3.600   0.636  1.00  0.00    -0.229 OA
ATOM     21  O   UNL     1      -1.108   3.927   2.954  1.00  0.00    -0.229 OA
ENDBRANCH  16  18
ENDBRANCH   9  12
ENDBRANCH   8   9
ENDBRANCH   6   8
ENDBRANCH   3   6
ENDBRANCH   1   2
BRANCH   1  22
ATOM     22  C   UNL     1      -2.519   0.960   1.815  1.00  0.00     0.042 C 
BRANCH  22  23
ATOM     23  C   UNL     1      -3.971   0.926   2.252  1.00  0.00     0.118 C 
BRANCH  23  24
ATOM     24  N   UNL     1      -4.116   0.600   3.671  1.00  0.00    -0.352 N 
ATOM     25  C   UNL     1      -4.238   1.372   4.805  1.00  0.00     0.251 C 
ATOM     26  H   UNL     1      -4.128  -0.368   3.852  1.00  0.00     0.163 HD
ATOM     27  O   UNL     1      -4.119   0.814   5.896  1.00  0.00    -0.269 OA
BRANCH  25  28
ATOM     28  C   UNL     1      -4.485   2.835   4.760  1.00  0.00     0.039 A 
ATOM     29  C   UNL     1      -4.058   3.633   5.832  1.00  0.00     0.014 A 
ATOM     30  C   UNL     1      -5.183   3.438   3.719  1.00  0.00     0.014 A 
ATOM     31  C   UNL     1      -4.267   5.018   5.810  1.00  0.00     0.010 A 
ATOM     32  C   UNL     1      -5.255   4.823   3.625  1.00  0.00     0.010 A 
ATOM     33  C   UNL     1      -4.821   5.636   4.678  1.00  0.00    -0.014 A 
BRANCH  33  34
ATOM     34  C   UNL     1      -4.998   7.112   4.574  1.00  0.00     0.031 A 
ATOM     35  C   UNL     1      -6.365   7.688   4.291  1.00  0.00     0.074 A 
ATOM     36  C   UNL     1      -3.924   7.925   4.642  1.00  0.00     0.049 A 
ATOM     37  N   UNL     1      -6.707   8.922   4.014  1.00  0.00    -0.248 NA
ATOM     38  C   UNL     1      -7.492   6.741   4.268  1.00  0.00     0.031 C 
ATOM     39  C   UNL     1      -2.544   7.487   4.865  1.00  0.00     0.029 A 
ATOM     40  N   UNL     1      -3.821   9.289   4.522  1.00  0.00    -0.354 N 
ATOM     41  C   UNL     1      -8.074   8.888   3.751  1.00  0.00     0.074 A 
ATOM     42  C   UNL     1      -8.480   7.503   3.828  1.00  0.00     0.031 C 
ATOM     43  C   UNL     1      -1.742   8.563   4.910  1.00  0.00     0.029 A 
ATOM     44  C   UNL     1      -2.534   9.760   4.648  1.00  0.00     0.049 A 
ATOM     45  H   UNL     1      -4.595   9.875   4.361  1.00  0.00     0.167 HD
ATOM     46  C   UNL     1      -8.919   9.919   3.496  1.00  0.00     0.034 A 
ATOM     47  C   UNL     1      -2.043  11.012   4.545  1.00  0.00     0.034 A 
ATOM     48  C   UNL     1      -8.500  11.299   3.457  1.00  0.00     0.049 A 
ATOM     49  C   UNL     1      -2.999  12.143   4.250  1.00  0.00     0.074 A 
ATOM     50  C   UNL     1      -9.276  12.430   3.275  1.00  0.00     0.029 A 
ATOM     51  N   UNL     1      -7.189  11.736   3.601  1.00  0.00    -0.354 N 
ATOM     52  N   UNL     1      -4.296  12.098   4.047  1.00  0.00    -0.248 NA
ATOM     53  C   UNL     1      -2.425  13.492   4.180  1.00  0.00     0.031 C 
ATOM     54  C   UNL     1      -8.428  13.540   3.232  1.00  0.00     0.029 A 
ATOM     55  C   UNL     1      -7.132  13.116   3.478  1.00  0.00     0.049 A 
ATOM     56  H   UNL     1      -6.415  11.152   3.767  1.00  0.00     0.167 HD
ATOM     57  C   UNL     1      -4.696  13.418   3.858  1.00  0.00     0.074 A 
ATOM     58  C   UNL     1      -3.506  14.234   3.989  1.00  0.00     0.031 C 
ATOM     59  C   UNL     1      -5.935  13.914   3.604  1.00  0.00     0.034 A 
BRANCH  46  60
ATOM     60  C   UNL     1     -10.369   9.587   3.224  1.00  0.00     0.023 A 
ATOM     61  C   UNL     1     -11.176   8.943   4.179  1.00  0.00     0.031 A 
ATOM     62  C   UNL     1     -10.950   9.896   1.981  1.00  0.00     0.131 A 
ATOM     63  C   UNL     1     -12.484   8.556   3.850  1.00  0.00     0.055 A 
ATOM     64  C   UNL     1     -12.282   9.590   1.691  1.00  0.00     0.041 A 
ATOM     65  F   UNL     1     -10.229  10.492   1.018  1.00  0.00    -0.206 F 
ATOM     66  C   UNL     1     -13.053   8.900   2.623  1.00  0.00     0.022 A 
BRANCH  63  67
ATOM     67  S   UNL     1     -13.375   7.460   4.989  1.00  0.00     0.124 S 
ATOM     68  O   UNL     1     -12.478   6.308   5.051  1.00  0.00    -0.237 OA
ATOM     69  O   UNL     1     -13.462   8.268   6.200  1.00  0.00    -0.237 OA
ATOM     70  O   UNL     1     -14.644   7.217   4.308  1.00  0.00    -0.744 OA
ENDBRANCH  63  67
ENDBRANCH  46  60
BRANCH  47  71
ATOM     71  C   UNL     1      -0.582  11.269   4.709  1.00  0.00     0.023 A 
ATOM     72  C   UNL     1      -0.105  12.074   5.756  1.00  0.00     0.031 A 
ATOM     73  C   UNL     1       0.358  10.748   3.801  1.00  0.00     0.131 A 
ATOM     74  C   UNL     1       1.263  12.378   5.839  1.00  0.00     0.055 A 
ATOM     75  C   UNL     1       1.725  11.005   3.923  1.00  0.00     0.041 A 
ATOM     76  F   UNL     1      -0.038   9.963   2.786  1.00  0.00    -0.206 F 
ATOM     77  C   UNL     1       2.183  11.837   4.939  1.00  0.00     0.022 A 
BRANCH  74  78
ATOM     78  S   UNL     1       1.813  13.572   7.089  1.00  0.00     0.124 S 
ATOM     79  O   UNL     1       1.018  14.746   6.746  1.00  0.00    -0.237 OA
ATOM     80  O   UNL     1       1.458  12.894   8.331  1.00  0.00    -0.237 OA
ATOM     81  O   UNL     1       3.247  13.691   6.834  1.00  0.00    -0.744 OA
ENDBRANCH  74  78
ENDBRANCH  47  71
BRANCH  59  82
ATOM     82  C   UNL     1      -6.068  15.415   3.501  1.00  0.00     0.023 A 
ATOM     83  C   UNL     1      -5.458  16.145   2.466  1.00  0.00     0.031 A 
ATOM     84  C   UNL     1      -6.813  16.124   4.460  1.00  0.00     0.131 A 
ATOM     85  C   UNL     1      -5.554  17.544   2.449  1.00  0.00     0.055 A 
ATOM     86  C   UNL     1      -6.963  17.510   4.398  1.00  0.00     0.041 A 
ATOM     87  F   UNL     1      -7.414  15.479   5.473  1.00  0.00    -0.206 F 
ATOM     88  C   UNL     1      -6.319  18.230   3.396  1.00  0.00     0.022 A 
BRANCH  85  89
ATOM     89  S   UNL     1      -4.575  18.467   1.233  1.00  0.00     0.124 S 
ATOM     90  O   UNL     1      -3.217  18.029   1.541  1.00  0.00    -0.237 OA
ATOM     91  O   UNL     1      -5.125  17.995  -0.034  1.00  0.00    -0.237 OA
ATOM     92  O   UNL     1      -4.862  19.865   1.551  1.00  0.00    -0.744 OA
ENDBRANCH  85  89
ENDBRANCH  59  82
ENDBRANCH  33  34
ENDBRANCH  25  28
ENDBRANCH  23  24
ENDBRANCH  22  23
ENDBRANCH   1  22
TORSDOF 17
