REMARK SMILES C[C@@H](C(=O)NCCCNC(=O)c1ccc(-c2c3nc(c(-c4cc(S(=O)(=O)[O-])ccc4F)c4ccc([nH]4)c(-c4cc(S(=O)(=O)[O-])ccc4F)c4nc(c(-c5cc(S(=O)(=O)[O-])ccc5F)c5ccc2[nH]5)C=C4)C=C3)cc1)c1ccc(Cc2ccsc2)cc1F
REMARK SMILES IDX 7 1 6 2 5 3 3 4 4 5 2 7 1 8 75 9 76 10 86 11 77 12 85 13
REMARK SMILES IDX 87 14 78 15 79 16 80 17 81 18 84 19 82 20 83 21 8 22 9 23
REMARK SMILES IDX 10 24 11 26 12 27 13 28 74 29 14 30 73 31 15 32 16 33 17 34
REMARK SMILES IDX 67 35 18 36 72 37 66 38 68 39 19 40 71 41 65 42 64 43 20 45
REMARK SMILES IDX 52 46 32 47 51 48 33 49 36 50 50 51 69 52 34 53 35 54 49 56
REMARK SMILES IDX 70 57 37 58 21 59 22 60 30 61 23 62 29 63 31 64 28 65 24 66
REMARK SMILES IDX 25 67 26 68 27 69 53 70 54 71 62 72 55 73 61 74 63 75 60 76
REMARK SMILES IDX 56 77 57 78 58 79 59 80 38 81 39 82 47 83 40 84 46 85 48 86
REMARK SMILES IDX 45 87 41 88 42 89 43 90 44 91
REMARK H PARENT 5 6 9 25 68 44 36 55
REMARK Flexibility Score: inf
ROOT
ATOM      1  C   UNL     1       4.279   0.270   1.167  1.00  0.00     0.042 C 
ENDROOT
BRANCH   1   2
ATOM      2  C   UNL     1       3.411  -0.778   1.858  1.00  0.00     0.117 C 
BRANCH   2   3
ATOM      3  N   UNL     1       2.358  -0.162   2.641  1.00  0.00    -0.356 N 
ATOM      4  C   UNL     1       1.029  -0.011   2.378  1.00  0.00     0.227 C 
ATOM      5  O   UNL     1       0.381   0.649   3.194  1.00  0.00    -0.274 OA
ATOM      6  H   UNL     1       2.651   0.209   3.504  1.00  0.00     0.163 HD
BRANCH   4   7
ATOM      7  C   UNL     1       0.400  -0.670   1.139  1.00  0.00     0.108 C 
ATOM      8  C   UNL     1       0.848  -0.008  -0.169  1.00  0.00     0.023 C 
BRANCH   7   9
ATOM      9  C   UNL     1      -1.122  -0.671   1.217  1.00  0.00    -0.000 A 
ATOM     10  C   UNL     1      -1.853   0.519   1.095  1.00  0.00     0.008 A 
ATOM     11  C   UNL     1      -1.832  -1.856   1.419  1.00  0.00     0.127 A 
ATOM     12  C   UNL     1      -3.247   0.510   1.134  1.00  0.00     0.004 A 
ATOM     13  C   UNL     1      -3.228  -1.870   1.483  1.00  0.00     0.043 A 
ATOM     14  F   UNL     1      -1.175  -3.021   1.529  1.00  0.00    -0.207 F 
ATOM     15  C   UNL     1      -3.958  -0.682   1.336  1.00  0.00    -0.041 A 
BRANCH  15  16
ATOM     16  C   UNL     1      -5.467  -0.688   1.326  1.00  0.00     0.072 C 
BRANCH  16  17
ATOM     17  C   UNL     1      -5.959  -0.182   2.654  1.00  0.00    -0.033 A 
ATOM     18  C   UNL     1      -5.856   1.173   3.129  1.00  0.00     0.015 A 
ATOM     19  C   UNL     1      -6.663  -0.949   3.567  1.00  0.00     0.068 A 
ATOM     20  C   UNL     1      -6.445   1.361   4.360  1.00  0.00     0.065 A 
ATOM     21  S   UNL     1      -7.158  -0.072   4.949  1.00  0.00    -0.152 S 
ENDBRANCH  16  17
ENDBRANCH  15  16
ENDBRANCH   7   9
ENDBRANCH   4   7
ENDBRANCH   2   3
ENDBRANCH   1   2
BRANCH   1  22
ATOM     22  C   UNL     1       5.034   1.182   2.129  1.00  0.00     0.118 C 
BRANCH  22  23
ATOM     23  N   UNL     1       6.034   0.466   2.909  1.00  0.00    -0.352 N 
ATOM     24  C   UNL     1       7.390   0.674   2.985  1.00  0.00     0.251 C 
ATOM     25  H   UNL     1       5.689  -0.273   3.460  1.00  0.00     0.163 HD
ATOM     26  O   UNL     1       8.102  -0.159   3.541  1.00  0.00    -0.269 OA
BRANCH  24  27
ATOM     27  C   UNL     1       7.985   1.883   2.377  1.00  0.00     0.039 A 
ATOM     28  C   UNL     1       9.145   1.763   1.608  1.00  0.00     0.014 A 
ATOM     29  C   UNL     1       7.393   3.135   2.564  1.00  0.00     0.014 A 
ATOM     30  C   UNL     1       9.672   2.888   0.967  1.00  0.00     0.010 A 
ATOM     31  C   UNL     1       7.872   4.236   1.863  1.00  0.00     0.010 A 
ATOM     32  C   UNL     1       9.018   4.126   1.060  1.00  0.00    -0.014 A 
BRANCH  32  33
ATOM     33  C   UNL     1       9.516   5.339   0.359  1.00  0.00     0.031 A 
ATOM     34  C   UNL     1       9.931   6.538   1.167  1.00  0.00     0.074 A 
ATOM     35  C   UNL     1       9.491   5.405  -0.986  1.00  0.00     0.049 A 
ATOM     36  N   UNL     1      10.202   7.755   0.772  1.00  0.00    -0.248 NA
ATOM     37  C   UNL     1      10.007   6.343   2.622  1.00  0.00     0.031 C 
ATOM     38  C   UNL     1       9.090   4.317  -1.879  1.00  0.00     0.029 A 
ATOM     39  N   UNL     1       9.782   6.443  -1.836  1.00  0.00    -0.354 N 
ATOM     40  C   UNL     1      10.452   8.480   1.932  1.00  0.00     0.074 A 
ATOM     41  C   UNL     1      10.235   7.576   3.043  1.00  0.00     0.031 C 
ATOM     42  C   UNL     1       9.161   4.744  -3.150  1.00  0.00     0.029 A 
ATOM     43  C   UNL     1       9.555   6.150  -3.161  1.00  0.00     0.049 A 
ATOM     44  H   UNL     1      10.121   7.314  -1.528  1.00  0.00     0.167 HD
ATOM     45  C   UNL     1      10.844   9.773   2.058  1.00  0.00     0.034 A 
ATOM     46  C   UNL     1       9.623   6.932  -4.258  1.00  0.00     0.034 A 
ATOM     47  C   UNL     1      11.060  10.652   0.934  1.00  0.00     0.049 A 
ATOM     48  C   UNL     1      10.024   8.377  -4.102  1.00  0.00     0.074 A 
ATOM     49  C   UNL     1      11.500  11.963   0.936  1.00  0.00     0.029 A 
ATOM     50  N   UNL     1      10.840  10.310  -0.396  1.00  0.00    -0.354 N 
ATOM     51  N   UNL     1      10.283   9.047  -3.002  1.00  0.00    -0.248 NA
ATOM     52  C   UNL     1      10.148   9.169  -5.332  1.00  0.00     0.031 C 
ATOM     53  C   UNL     1      11.474  12.437  -0.381  1.00  0.00     0.029 A 
ATOM     54  C   UNL     1      11.106  11.395  -1.218  1.00  0.00     0.049 A 
ATOM     55  H   UNL     1      10.539   9.427  -0.709  1.00  0.00     0.167 HD
ATOM     56  C   UNL     1      10.641  10.329  -3.413  1.00  0.00     0.074 A 
ATOM     57  C   UNL     1      10.558  10.339  -4.859  1.00  0.00     0.031 C 
ATOM     58  C   UNL     1      11.019  11.393  -2.661  1.00  0.00     0.034 A 
BRANCH  45  59
ATOM     59  C   UNL     1      11.020  10.308   3.461  1.00  0.00     0.023 A 
ATOM     60  C   UNL     1      11.933   9.731   4.362  1.00  0.00     0.031 A 
ATOM     61  C   UNL     1      10.217  11.363   3.930  1.00  0.00     0.131 A 
ATOM     62  C   UNL     1      11.941  10.132   5.707  1.00  0.00     0.055 A 
ATOM     63  C   UNL     1      10.304  11.827   5.245  1.00  0.00     0.041 A 
ATOM     64  F   UNL     1       9.312  11.944   3.128  1.00  0.00    -0.206 F 
ATOM     65  C   UNL     1      11.152  11.195   6.149  1.00  0.00     0.022 A 
BRANCH  62  66
ATOM     66  S   UNL     1      12.843   9.109   6.903  1.00  0.00     0.124 S 
ATOM     67  O   UNL     1      12.230   7.799   6.692  1.00  0.00    -0.237 OA
ATOM     68  O   UNL     1      14.224   9.248   6.458  1.00  0.00    -0.237 OA
ATOM     69  O   UNL     1      12.534   9.732   8.188  1.00  0.00    -0.744 OA
ENDBRANCH  62  66
ENDBRANCH  45  59
BRANCH  46  70
ATOM     70  C   UNL     1       9.281   6.368  -5.595  1.00  0.00     0.023 A 
ATOM     71  C   UNL     1      10.258   6.216  -6.590  1.00  0.00     0.031 A 
ATOM     72  C   UNL     1       7.964   5.972  -5.895  1.00  0.00     0.131 A 
ATOM     73  C   UNL     1       9.899   5.710  -7.850  1.00  0.00     0.055 A 
ATOM     74  C   UNL     1       7.623   5.424  -7.132  1.00  0.00     0.041 A 
ATOM     75  F   UNL     1       6.994   6.089  -4.975  1.00  0.00    -0.206 F 
ATOM     76  C   UNL     1       8.592   5.299  -8.122  1.00  0.00     0.022 A 
BRANCH  73  77
ATOM     77  S   UNL     1      11.159   5.645  -9.153  1.00  0.00     0.124 S 
ATOM     78  O   UNL     1      11.520   7.052  -9.286  1.00  0.00    -0.237 OA
ATOM     79  O   UNL     1      12.168   4.777  -8.557  1.00  0.00    -0.237 OA
ATOM     80  O   UNL     1      10.442   5.074 -10.291  1.00  0.00    -0.744 OA
ENDBRANCH  73  77
ENDBRANCH  46  70
BRANCH  58  81
ATOM     81  C   UNL     1      11.447  12.645  -3.389  1.00  0.00     0.023 A 
ATOM     82  C   UNL     1      10.540  13.445  -4.105  1.00  0.00     0.031 A 
ATOM     83  C   UNL     1      12.791  13.057  -3.332  1.00  0.00     0.131 A 
ATOM     84  C   UNL     1      10.997  14.599  -4.762  1.00  0.00     0.055 A 
ATOM     85  C   UNL     1      13.228  14.234  -3.939  1.00  0.00     0.041 A 
ATOM     86  F   UNL     1      13.701  12.328  -2.665  1.00  0.00    -0.206 F 
ATOM     87  C   UNL     1      12.330  15.008  -4.667  1.00  0.00     0.022 A 
BRANCH  84  88
ATOM     88  S   UNL     1       9.838  15.533  -5.800  1.00  0.00     0.124 S 
ATOM     89  O   UNL     1       9.444  14.534  -6.788  1.00  0.00    -0.237 OA
ATOM     90  O   UNL     1       8.808  15.926  -4.844  1.00  0.00    -0.237 OA
ATOM     91  O   UNL     1      10.651  16.631  -6.319  1.00  0.00    -0.744 OA
ENDBRANCH  84  88
ENDBRANCH  58  81
ENDBRANCH  32  33
ENDBRANCH  24  27
ENDBRANCH  22  23
ENDBRANCH   1  22
TORSDOF 16
