REMARK SMILES CC[C@H]1CCCCN1S(=O)(=O)c1ccc2oc(C(=O)NCCCNC(=O)c3ccc(-c4c5nc(c(-c6cc(S(=O)(=O)[O-])ccc6F)c6ccc([nH]6)c(-c6cc(S(=O)(=O)[O-])ccc6F)c6nc(c(-c7cc(S(=O)(=O)[O-])ccc7F)c7ccc4[nH]7)C=C6)C=C5)cc3)c(C)c2c1
REMARK SMILES IDX 22 1 21 2 20 3 18 4 19 5 17 7 12 8 13 9 93 10 14 11 92 12
REMARK SMILES IDX 15 13 90 14 16 15 91 16 9 17 10 18 11 19 8 20 3 21 4 22 5 23
REMARK SMILES IDX 7 24 6 25 2 26 1 27 23 28 24 29 25 30 26 32 27 33 28 34
REMARK SMILES IDX 89 35 29 36 88 37 30 38 31 39 32 40 82 41 33 42 87 43 81 44
REMARK SMILES IDX 83 45 34 46 86 47 80 48 79 49 35 51 67 52 47 53 66 54 48 55
REMARK SMILES IDX 51 56 65 57 84 58 49 59 50 60 64 62 85 63 52 64 36 65 37 66
REMARK SMILES IDX 45 67 38 68 44 69 46 70 43 71 39 72 40 73 41 74 42 75 68 76
REMARK SMILES IDX 69 77 77 78 70 79 76 80 78 81 75 82 71 83 72 84 73 85 74 86
REMARK SMILES IDX 53 87 54 88 62 89 55 90 61 91 63 92 60 93 56 94 57 95 58 96
REMARK SMILES IDX 59 97
REMARK H PARENT 20 6 24 31 83 50 51 61
REMARK Flexibility Score: inf
ROOT
ATOM      1  C   UNL     1       1.180   1.726  11.397  1.00  0.00     0.042 C 
ENDROOT
BRANCH   1   2
ATOM      2  C   UNL     1       0.126   1.278  10.412  1.00  0.00     0.118 C 
BRANCH   2   3
ATOM      3  N   UNL     1      -1.061   2.088  10.304  1.00  0.00    -0.349 N 
ATOM      4  C   UNL     1      -1.767   2.459   9.173  1.00  0.00     0.287 C 
ATOM      5  O   UNL     1      -2.783   3.128   9.386  1.00  0.00    -0.266 OA
ATOM      6  H   UNL     1      -1.421   2.426  11.156  1.00  0.00     0.163 HD
BRANCH   4   7
ATOM      7  C   UNL     1      -1.315   2.130   7.821  1.00  0.00     0.195 A 
ATOM      8  C   UNL     1       0.073   1.433   3.530  1.00  0.00     0.083 A 
ATOM      9  C   UNL     1      -0.998   2.295   3.268  1.00  0.00     0.025 A 
ATOM     10  C   UNL     1       0.508   1.206   4.834  1.00  0.00     0.034 A 
ATOM     11  C   UNL     1      -1.696   2.910   4.331  1.00  0.00     0.049 A 
ATOM     12  C   UNL     1      -0.316   1.621   5.876  1.00  0.00     0.025 A 
ATOM     13  C   UNL     1      -1.337   2.510   5.620  1.00  0.00     0.135 A 
ATOM     14  C   UNL     1      -0.461   1.202   7.222  1.00  0.00     0.008 A 
ATOM     15  O   UNL     1      -1.901   2.879   6.802  1.00  0.00    -0.451 OA
ATOM     16  C   UNL     1       0.183  -0.054   7.702  1.00  0.00     0.049 C 
BRANCH   8  17
ATOM     17  S   UNL     1       0.984   0.583   2.261  1.00  0.00     0.243 S 
ATOM     18  O   UNL     1       2.379   0.788   2.582  1.00  0.00    -0.207 OA
ATOM     19  O   UNL     1       0.443   0.993   0.979  1.00  0.00    -0.207 OA
BRANCH  17  20
ATOM     20  N   UNL     1       0.619  -1.103   2.455  1.00  0.00    -0.195 NA
ATOM     21  C   UNL     1       1.185  -1.992   1.373  1.00  0.00     0.073 C 
ATOM     22  C   UNL     1       0.535  -3.385   1.443  1.00  0.00     0.020 C 
ATOM     23  C   UNL     1       0.557  -4.029   2.823  1.00  0.00     0.003 C 
ATOM     24  C   UNL     1       0.705  -1.700   3.809  1.00  0.00     0.103 C 
ATOM     25  C   UNL     1       0.043  -3.070   3.874  1.00  0.00     0.017 C 
BRANCH  21  26
ATOM     26  C   UNL     1       2.728  -2.016   1.254  1.00  0.00     0.017 C 
ATOM     27  C   UNL     1       3.535  -2.901   2.192  1.00  0.00     0.005 C 
ENDBRANCH  21  26
ENDBRANCH  17  20
ENDBRANCH   8  17
ENDBRANCH   4   7
ENDBRANCH   2   3
ENDBRANCH   1   2
BRANCH   1  28
ATOM     28  C   UNL     1       0.824   1.527  12.854  1.00  0.00     0.118 C 
BRANCH  28  29
ATOM     29  N   UNL     1       0.674   0.125  13.231  1.00  0.00    -0.352 N 
ATOM     30  C   UNL     1       1.496  -0.738  13.921  1.00  0.00     0.251 C 
ATOM     31  H   UNL     1      -0.174  -0.279  12.937  1.00  0.00     0.163 HD
ATOM     32  O   UNL     1       1.192  -1.929  13.966  1.00  0.00    -0.269 OA
BRANCH  30  33
ATOM     33  C   UNL     1       2.748  -0.270  14.564  1.00  0.00     0.039 A 
ATOM     34  C   UNL     1       3.859  -1.121  14.607  1.00  0.00     0.014 A 
ATOM     35  C   UNL     1       2.841   0.994  15.140  1.00  0.00     0.014 A 
ATOM     36  C   UNL     1       5.072  -0.663  15.137  1.00  0.00     0.010 A 
ATOM     37  C   UNL     1       4.076   1.498  15.526  1.00  0.00     0.010 A 
ATOM     38  C   UNL     1       5.206   0.671  15.551  1.00  0.00    -0.014 A 
BRANCH  38  39
ATOM     39  C   UNL     1       6.490   1.223  16.061  1.00  0.00     0.031 A 
ATOM     40  C   UNL     1       6.545   1.835  17.440  1.00  0.00     0.074 A 
ATOM     41  C   UNL     1       7.575   1.262  15.262  1.00  0.00     0.049 A 
ATOM     42  N   UNL     1       7.514   2.495  18.020  1.00  0.00    -0.248 NA
ATOM     43  C   UNL     1       5.323   1.734  18.253  1.00  0.00     0.031 C 
ATOM     44  C   UNL     1       7.635   0.754  13.889  1.00  0.00     0.029 A 
ATOM     45  N   UNL     1       8.834   1.760  15.483  1.00  0.00    -0.354 N 
ATOM     46  C   UNL     1       7.006   2.915  19.246  1.00  0.00     0.074 A 
ATOM     47  C   UNL     1       5.619   2.507  19.285  1.00  0.00     0.031 C 
ATOM     48  C   UNL     1       8.876   0.932  13.407  1.00  0.00     0.029 A 
ATOM     49  C   UNL     1       9.684   1.614  14.412  1.00  0.00     0.049 A 
ATOM     50  H   UNL     1       9.104   2.183  16.331  1.00  0.00     0.167 HD
ATOM     51  C   UNL     1       7.644   3.549  20.261  1.00  0.00     0.034 A 
ATOM     52  C   UNL     1      10.968   1.994  14.254  1.00  0.00     0.034 A 
ATOM     53  C   UNL     1       9.038   3.915  20.218  1.00  0.00     0.049 A 
ATOM     54  C   UNL     1      11.662   2.695  15.394  1.00  0.00     0.074 A 
ATOM     55  C   UNL     1       9.809   4.502  21.206  1.00  0.00     0.029 A 
ATOM     56  N   UNL     1       9.873   3.727  19.123  1.00  0.00    -0.354 N 
ATOM     57  N   UNL     1      11.181   3.043  16.566  1.00  0.00    -0.248 NA
ATOM     58  C   UNL     1      13.074   3.043  15.193  1.00  0.00     0.031 C 
ATOM     59  C   UNL     1      11.089   4.726  20.688  1.00  0.00     0.029 A 
ATOM     60  C   UNL     1      11.143   4.208  19.403  1.00  0.00     0.049 A 
ATOM     61  H   UNL     1       9.603   3.312  18.272  1.00  0.00     0.167 HD
ATOM     62  C   UNL     1      12.244   3.621  17.254  1.00  0.00     0.074 A 
ATOM     63  C   UNL     1      13.391   3.562  16.370  1.00  0.00     0.031 C 
ATOM     64  C   UNL     1      12.273   4.147  18.506  1.00  0.00     0.034 A 
BRANCH  51  65
ATOM     65  C   UNL     1       6.827   3.893  21.486  1.00  0.00     0.023 A 
ATOM     66  C   UNL     1       6.192   2.900  22.254  1.00  0.00     0.031 A 
ATOM     67  C   UNL     1       6.631   5.234  21.863  1.00  0.00     0.131 A 
ATOM     68  C   UNL     1       5.315   3.262  23.287  1.00  0.00     0.055 A 
ATOM     69  C   UNL     1       5.834   5.584  22.955  1.00  0.00     0.041 A 
ATOM     70  F   UNL     1       7.192   6.231  21.161  1.00  0.00    -0.206 F 
ATOM     71  C   UNL     1       5.153   4.597  23.662  1.00  0.00     0.022 A 
BRANCH  68  72
ATOM     72  S   UNL     1       4.258   1.978  24.012  1.00  0.00     0.124 S 
ATOM     73  O   UNL     1       3.535   1.496  22.837  1.00  0.00    -0.237 OA
ATOM     74  O   UNL     1       5.230   1.056  24.586  1.00  0.00    -0.237 OA
ATOM     75  O   UNL     1       3.442   2.710  24.978  1.00  0.00    -0.744 OA
ENDBRANCH  68  72
ENDBRANCH  51  65
BRANCH  52  76
ATOM     76  C   UNL     1      11.686   1.716  12.977  1.00  0.00     0.023 A 
ATOM     77  C   UNL     1      12.772   0.827  12.941  1.00  0.00     0.031 A 
ATOM     78  C   UNL     1      11.315   2.352  11.779  1.00  0.00     0.131 A 
ATOM     79  C   UNL     1      13.478   0.631  11.744  1.00  0.00     0.055 A 
ATOM     80  C   UNL     1      11.989   2.115  10.579  1.00  0.00     0.041 A 
ATOM     81  F   UNL     1      10.277   3.203  11.755  1.00  0.00    -0.206 F 
ATOM     82  C   UNL     1      13.085   1.259  10.560  1.00  0.00     0.022 A 
BRANCH  79  83
ATOM     83  S   UNL     1      14.966  -0.406  11.773  1.00  0.00     0.124 S 
ATOM     84  O   UNL     1      15.795   0.291  12.748  1.00  0.00    -0.237 OA
ATOM     85  O   UNL     1      14.427  -1.696  12.194  1.00  0.00    -0.237 OA
ATOM     86  O   UNL     1      15.444  -0.353  10.393  1.00  0.00    -0.744 OA
ENDBRANCH  79  83
ENDBRANCH  52  76
BRANCH  64  87
ATOM     87  C   UNL     1      13.604   4.651  19.006  1.00  0.00     0.023 A 
ATOM     88  C   UNL     1      14.235   5.771  18.437  1.00  0.00     0.031 A 
ATOM     89  C   UNL     1      14.254   3.991  20.064  1.00  0.00     0.131 A 
ATOM     90  C   UNL     1      15.504   6.162  18.890  1.00  0.00     0.055 A 
ATOM     91  C   UNL     1      15.487   4.423  20.553  1.00  0.00     0.041 A 
ATOM     92  F   UNL     1      13.698   2.915  20.643  1.00  0.00    -0.206 F 
ATOM     93  C   UNL     1      16.126   5.506  19.956  1.00  0.00     0.022 A 
BRANCH  90  94
ATOM     94  S   UNL     1      16.376   7.482  18.003  1.00  0.00     0.124 S 
ATOM     95  O   UNL     1      16.441   6.944  16.648  1.00  0.00    -0.237 OA
ATOM     96  O   UNL     1      15.489   8.625  18.194  1.00  0.00    -0.237 OA
ATOM     97  O   UNL     1      17.660   7.571  18.697  1.00  0.00    -0.744 OA
ENDBRANCH  90  94
ENDBRANCH  64  87
ENDBRANCH  38  39
ENDBRANCH  30  33
ENDBRANCH  28  29
ENDBRANCH   1  28
TORSDOF 16
