REMARK SMILES Cc1cc(C)c(S(=O)(=O)Nc2ccc(N3CCN(c4ccccn4)CC3)c(C(=O)NCCCNC(=O)c3ccc(-c4c5nc(c(-c6cc(S(=O)(=O)[O-])ccc6F)c6ccc([nH]6)c(-c6cc(S(=O)(=O)[O-])ccc6F)c6nc(c(-c7cc(S(=O)(=O)[O-])ccc7F)c7ccc4[nH]7)C=C6)C=C5)cc3)c2)c(C)c1
REMARK SMILES IDX 32 1 31 2 30 3 28 4 29 5 27 7 11 8 12 9 100 10 13 11 14 12
REMARK SMILES IDX 10 13 7 15 8 16 9 17 6 18 1 19 2 20 3 21 103 22 4 23 101 24
REMARK SMILES IDX 5 25 102 26 15 27 16 28 26 29 17 30 25 31 18 32 19 33 20 34
REMARK SMILES IDX 24 35 21 36 23 37 22 38 33 39 34 40 35 41 36 43 37 44 38 45
REMARK SMILES IDX 99 46 39 47 98 48 40 49 41 50 42 51 92 52 43 53 97 54 91 55
REMARK SMILES IDX 93 56 44 57 96 58 90 59 89 60 45 62 77 63 57 64 76 65 58 66
REMARK SMILES IDX 61 67 75 68 94 69 59 70 60 71 74 73 95 74 62 75 46 76 47 77
REMARK SMILES IDX 55 78 48 79 54 80 56 81 53 82 49 83 50 84 51 85 52 86 78 87
REMARK SMILES IDX 79 88 87 89 80 90 86 91 88 92 85 93 81 94 82 95 83 96 84 97
REMARK SMILES IDX 63 98 64 99 72 100 65 101 71 102 73 103 70 104 66 105 67 106
REMARK SMILES IDX 68 107 69 108
REMARK H PARENT 30 6 10 14 34 42 93 61 61 72
REMARK Flexibility Score: inf
ROOT
ATOM      1  C   UNL     1      -0.091  -1.246   3.714  1.00  0.00     0.042 C 
ENDROOT
BRANCH   1   2
ATOM      2  C   UNL     1       0.957  -1.092   2.617  1.00  0.00     0.118 C 
BRANCH   2   3
ATOM      3  N   UNL     1       2.105  -1.931   2.885  1.00  0.00    -0.352 N 
ATOM      4  C   UNL     1       2.443  -3.203   2.500  1.00  0.00     0.253 C 
ATOM      5  O   UNL     1       3.387  -3.699   3.114  1.00  0.00    -0.269 OA
ATOM      6  H   UNL     1       2.779  -1.502   3.461  1.00  0.00     0.163 HD
BRANCH   4   7
ATOM      7  C   UNL     1       1.739  -3.953   1.405  1.00  0.00     0.065 A 
ATOM      8  C   UNL     1      -0.260  -4.338   0.086  1.00  0.00     0.050 A 
ATOM      9  C   UNL     1       0.411  -5.284  -0.680  1.00  0.00     0.029 A 
ATOM     10  C   UNL     1       0.351  -3.823   1.223  1.00  0.00     0.042 A 
ATOM     11  C   UNL     1       1.770  -5.485  -0.478  1.00  0.00     0.029 A 
ATOM     12  C   UNL     1       2.479  -4.737   0.479  1.00  0.00     0.050 A 
BRANCH   8  13
ATOM     13  N   UNL     1      -1.481  -3.854  -0.451  1.00  0.00    -0.280 N 
ATOM     14  H   UNL     1      -1.968  -4.463  -1.050  1.00  0.00     0.180 HD
BRANCH  13  15
ATOM     15  S   UNL     1      -2.182  -2.362  -0.175  1.00  0.00     0.262 S 
ATOM     16  O   UNL     1      -2.467  -2.309   1.250  1.00  0.00    -0.201 OA
ATOM     17  O   UNL     1      -3.239  -2.268  -1.155  1.00  0.00    -0.201 OA
BRANCH  15  18
ATOM     18  C   UNL     1      -1.064  -0.982  -0.518  1.00  0.00     0.093 A 
ATOM     19  C   UNL     1       1.866   2.188  -0.106  1.00  0.00     0.044 C 
ATOM     20  C   UNL     1       0.834   1.117  -0.302  1.00  0.00    -0.051 A 
ATOM     21  C   UNL     1      -0.473   1.305   0.133  1.00  0.00     0.008 A 
ATOM     22  C   UNL     1       1.137  -0.059  -0.988  1.00  0.00     0.008 A 
ATOM     23  C   UNL     1      -1.432   0.276   0.034  1.00  0.00    -0.030 A 
ATOM     24  C   UNL     1       0.190  -1.098  -1.152  1.00  0.00    -0.030 A 
ATOM     25  C   UNL     1      -2.834   0.653   0.449  1.00  0.00     0.046 C 
ATOM     26  C   UNL     1       0.629  -2.216  -2.046  1.00  0.00     0.046 C 
ENDBRANCH  15  18
ENDBRANCH  13  15
ENDBRANCH   8  13
BRANCH  12  27
ATOM     27  N   UNL     1       3.860  -4.683   0.373  1.00  0.00    -0.367 N 
ATOM     28  C   UNL     1       4.482  -4.421  -0.940  1.00  0.00     0.138 C 
ATOM     29  C   UNL     1       4.696  -5.455   1.306  1.00  0.00     0.138 C 
ATOM     30  C   UNL     1       5.878  -3.773  -0.781  1.00  0.00     0.139 C 
ATOM     31  C   UNL     1       6.047  -4.730   1.492  1.00  0.00     0.139 C 
ATOM     32  N   UNL     1       6.688  -4.547   0.171  1.00  0.00    -0.353 N 
BRANCH  32  33
ATOM     33  C   UNL     1       8.063  -4.406   0.120  1.00  0.00     0.128 A 
ATOM     34  C   UNL     1       8.879  -5.383   0.693  1.00  0.00     0.047 A 
ATOM     35  N   UNL     1       8.602  -3.358  -0.542  1.00  0.00    -0.239 NA
ATOM     36  C   UNL     1      10.264  -5.276   0.613  1.00  0.00     0.005 A 
ATOM     37  C   UNL     1       9.950  -3.258  -0.588  1.00  0.00     0.113 A 
ATOM     38  C   UNL     1      10.816  -4.183  -0.034  1.00  0.00     0.020 A 
ENDBRANCH  32  33
ENDBRANCH  12  27
ENDBRANCH   4   7
ENDBRANCH   2   3
ENDBRANCH   1   2
BRANCH   1  39
ATOM     39  C   UNL     1       0.347  -0.621   5.031  1.00  0.00     0.118 C 
BRANCH  39  40
ATOM     40  N   UNL     1       0.367   0.831   4.953  1.00  0.00    -0.352 N 
ATOM     41  C   UNL     1      -0.241   1.749   5.770  1.00  0.00     0.251 C 
ATOM     42  H   UNL     1       0.890   1.208   4.209  1.00  0.00     0.163 HD
ATOM     43  O   UNL     1      -0.313   2.920   5.407  1.00  0.00    -0.269 OA
BRANCH  41  44
ATOM     44  C   UNL     1      -0.817   1.325   7.066  1.00  0.00     0.039 A 
ATOM     45  C   UNL     1      -2.029   1.885   7.478  1.00  0.00     0.014 A 
ATOM     46  C   UNL     1      -0.154   0.408   7.887  1.00  0.00     0.014 A 
ATOM     47  C   UNL     1      -2.588   1.502   8.699  1.00  0.00     0.010 A 
ATOM     48  C   UNL     1      -0.752  -0.032   9.063  1.00  0.00     0.010 A 
ATOM     49  C   UNL     1      -1.963   0.529   9.494  1.00  0.00    -0.014 A 
BRANCH  49  50
ATOM     50  C   UNL     1      -2.533   0.128  10.805  1.00  0.00     0.031 A 
ATOM     51  C   UNL     1      -1.771   0.416  12.071  1.00  0.00     0.074 A 
ATOM     52  C   UNL     1      -3.704  -0.535  10.851  1.00  0.00     0.049 A 
ATOM     53  N   UNL     1      -2.062   0.100  13.306  1.00  0.00    -0.248 NA
ATOM     54  C   UNL     1      -0.488   1.121  11.919  1.00  0.00     0.031 C 
ATOM     55  C   UNL     1      -4.505  -0.919   9.686  1.00  0.00     0.029 A 
ATOM     56  N   UNL     1      -4.423  -1.010  11.918  1.00  0.00    -0.354 N 
ATOM     57  C   UNL     1      -0.990   0.543  14.075  1.00  0.00     0.074 A 
ATOM     58  C   UNL     1      -0.016   1.091  13.155  1.00  0.00     0.031 C 
ATOM     59  C   UNL     1      -5.614  -1.549  10.105  1.00  0.00     0.029 A 
ATOM     60  C   UNL     1      -5.590  -1.643  11.561  1.00  0.00     0.049 A 
ATOM     61  H   UNL     1      -4.130  -0.906  12.853  1.00  0.00     0.167 HD
ATOM     62  C   UNL     1      -0.842   0.517  15.423  1.00  0.00     0.034 A 
ATOM     63  C   UNL     1      -6.531  -2.233  12.323  1.00  0.00     0.034 A 
ATOM     64  C   UNL     1      -1.839  -0.008  16.324  1.00  0.00     0.049 A 
ATOM     65  C   UNL     1      -6.365  -2.220  13.820  1.00  0.00     0.074 A 
ATOM     66  C   UNL     1      -1.830  -0.028  17.708  1.00  0.00     0.029 A 
ATOM     67  N   UNL     1      -3.029  -0.608  15.927  1.00  0.00    -0.354 N 
ATOM     68  N   UNL     1      -5.372  -1.747  14.537  1.00  0.00    -0.248 NA
ATOM     69  C   UNL     1      -7.456  -2.803  14.610  1.00  0.00     0.031 C 
ATOM     70  C   UNL     1      -2.986  -0.686  18.145  1.00  0.00     0.029 A 
ATOM     71  C   UNL     1      -3.750  -1.019  17.038  1.00  0.00     0.049 A 
ATOM     72  H   UNL     1      -3.317  -0.725  14.993  1.00  0.00     0.167 HD
ATOM     73  C   UNL     1      -5.732  -1.953  15.866  1.00  0.00     0.074 A 
ATOM     74  C   UNL     1      -7.040  -2.577  15.848  1.00  0.00     0.031 C 
ATOM     75  C   UNL     1      -5.047  -1.652  16.998  1.00  0.00     0.034 A 
BRANCH  62  76
ATOM     76  C   UNL     1       0.454   1.051  15.987  1.00  0.00     0.023 A 
ATOM     77  C   UNL     1       0.841   2.392  15.811  1.00  0.00     0.031 A 
ATOM     78  C   UNL     1       1.341   0.197  16.666  1.00  0.00     0.131 A 
ATOM     79  C   UNL     1       2.114   2.815  16.224  1.00  0.00     0.055 A 
ATOM     80  C   UNL     1       2.571   0.647  17.153  1.00  0.00     0.041 A 
ATOM     81  F   UNL     1       1.038  -1.098  16.850  1.00  0.00    -0.206 F 
ATOM     82  C   UNL     1       2.972   1.959  16.916  1.00  0.00     0.022 A 
BRANCH  79  83
ATOM     83  S   UNL     1       2.691   4.454  15.703  1.00  0.00     0.124 S 
ATOM     84  O   UNL     1       2.630   4.338  14.248  1.00  0.00    -0.237 OA
ATOM     85  O   UNL     1       1.712   5.344  16.315  1.00  0.00    -0.237 OA
ATOM     86  O   UNL     1       4.041   4.535  16.258  1.00  0.00    -0.744 OA
ENDBRANCH  79  83
ENDBRANCH  62  76
BRANCH  63  87
ATOM     87  C   UNL     1      -7.714  -2.878  11.689  1.00  0.00     0.023 A 
ATOM     88  C   UNL     1      -9.003  -2.347  11.855  1.00  0.00     0.031 A 
ATOM     89  C   UNL     1      -7.575  -4.051  10.926  1.00  0.00     0.131 A 
ATOM     90  C   UNL     1     -10.109  -3.010  11.301  1.00  0.00     0.055 A 
ATOM     91  C   UNL     1      -8.673  -4.681  10.339  1.00  0.00     0.041 A 
ATOM     92  F   UNL     1      -6.362  -4.592  10.729  1.00  0.00    -0.206 F 
ATOM     93  C   UNL     1      -9.951  -4.167  10.534  1.00  0.00     0.022 A 
BRANCH  90  94
ATOM     94  S   UNL     1     -11.770  -2.370  11.651  1.00  0.00     0.124 S 
ATOM     95  O   UNL     1     -11.810  -2.427  13.108  1.00  0.00    -0.237 OA
ATOM     96  O   UNL     1     -11.711  -1.037  11.062  1.00  0.00    -0.237 OA
ATOM     97  O   UNL     1     -12.649  -3.314  10.965  1.00  0.00    -0.744 OA
ENDBRANCH  90  94
ENDBRANCH  63  87
BRANCH  75  98
ATOM     98  C   UNL     1      -5.730  -1.961  18.307  1.00  0.00     0.023 A 
ATOM     99  C   UNL     1      -5.964  -3.283  18.723  1.00  0.00     0.031 A 
ATOM    100  C   UNL     1      -6.170  -0.915  19.137  1.00  0.00     0.131 A 
ATOM    101  C   UNL     1      -6.673  -3.526  19.909  1.00  0.00     0.055 A 
ATOM    102  C   UNL     1      -6.826  -1.163  20.343  1.00  0.00     0.041 A 
ATOM    103  F   UNL     1      -5.972   0.365  18.786  1.00  0.00    -0.206 F 
ATOM    104  C   UNL     1      -7.093  -2.474  20.729  1.00  0.00     0.022 A 
BRANCH 101 105
ATOM    105  S   UNL     1      -7.123  -5.234  20.320  1.00  0.00     0.124 S 
ATOM    106  O   UNL     1      -7.891  -5.637  19.147  1.00  0.00    -0.237 OA
ATOM    107  O   UNL     1      -5.820  -5.870  20.479  1.00  0.00    -0.237 OA
ATOM    108  O   UNL     1      -7.899  -5.097  21.551  1.00  0.00    -0.744 OA
ENDBRANCH 101 105
ENDBRANCH  75  98
ENDBRANCH  49  50
ENDBRANCH  41  44
ENDBRANCH  39  40
ENDBRANCH   1  39
TORSDOF 18
