REMARK SMILES O=C(NCCCNC(=O)[C@H]1CCCCN1S(=O)(=O)c1cc[nH]c1)c1ccc(-c2c3nc(c(-c4cc(S(=O)(=O)[O-])ccc4F)c4ccc([nH]4)c(-c4cc(S(=O)(=O)[O-])ccc4F)c4nc(c(-c5cc(S(=O)(=O)[O-])ccc5F)c5ccc2[nH]5)C=C4)C=C3)cc1
REMARK SMILES IDX 4 1 3 2 1 3 2 4 24 6 25 7 86 8 26 9 85 10 27 11 28 12 29 13
REMARK SMILES IDX 79 14 30 15 84 16 78 17 80 18 31 19 83 20 77 21 76 22 32 24
REMARK SMILES IDX 64 25 44 26 63 27 45 28 48 29 62 30 81 31 46 32 47 33 61 35
REMARK SMILES IDX 82 36 49 37 33 38 34 39 42 40 35 41 41 42 43 43 40 44 36 45
REMARK SMILES IDX 37 46 38 47 39 48 65 49 66 50 74 51 67 52 73 53 75 54 72 55
REMARK SMILES IDX 68 56 69 57 70 58 71 59 50 60 51 61 59 62 52 63 58 64 60 65
REMARK SMILES IDX 57 66 53 67 54 68 55 69 56 70 5 71 6 72 7 73 8 74 9 76 10 77
REMARK SMILES IDX 11 78 15 79 12 80 14 81 13 82 16 83 17 84 18 85 19 86 20 87
REMARK SMILES IDX 23 88 21 89 22 90
REMARK H PARENT 3 5 80 23 48 34 7 75 22 91
REMARK Flexibility Score: inf
ROOT
ATOM      1  C   UNL     1       8.763  -4.825   5.246  1.00  0.00     0.118 C 
ENDROOT
BRANCH   1   2
ATOM      2  N   UNL     1       8.869  -3.449   5.702  1.00  0.00    -0.352 N 
ATOM      3  O   UNL     1       8.602  -1.546   6.806  1.00  0.00    -0.269 OA
ATOM      4  C   UNL     1       8.124  -2.648   6.531  1.00  0.00     0.251 C 
ATOM      5  H   UNL     1       9.654  -2.986   5.331  1.00  0.00     0.163 HD
BRANCH   4   6
ATOM      6  C   UNL     1       6.772  -2.996   7.053  1.00  0.00     0.039 A 
ATOM      7  C   UNL     1       6.337  -4.293   7.322  1.00  0.00     0.014 A 
ATOM      8  C   UNL     1       5.908  -1.923   7.353  1.00  0.00     0.014 A 
ATOM      9  C   UNL     1       5.048  -4.518   7.818  1.00  0.00     0.010 A 
ATOM     10  C   UNL     1       4.627  -2.138   7.883  1.00  0.00     0.010 A 
ATOM     11  C   UNL     1       4.196  -3.443   8.134  1.00  0.00    -0.014 A 
BRANCH  11  12
ATOM     12  C   UNL     1       3.092  -3.734   9.107  1.00  0.00     0.031 A 
ATOM     13  C   UNL     1       3.733  -3.931  10.524  1.00  0.00     0.074 A 
ATOM     14  C   UNL     1       1.801  -3.879   8.644  1.00  0.00     0.049 A 
ATOM     15  N   UNL     1       3.399  -4.705  11.510  1.00  0.00    -0.248 NA
ATOM     16  C   UNL     1       5.000  -3.202  10.859  1.00  0.00     0.031 C 
ATOM     17  C   UNL     1       1.320  -3.434   7.323  1.00  0.00     0.029 A 
ATOM     18  N   UNL     1       0.614  -4.383   9.150  1.00  0.00    -0.354 N 
ATOM     19  C   UNL     1       4.183  -4.322  12.633  1.00  0.00     0.074 A 
ATOM     20  C   UNL     1       5.261  -3.544  12.122  1.00  0.00     0.031 C 
ATOM     21  C   UNL     1       0.063  -3.855   7.041  1.00  0.00     0.029 A 
ATOM     22  C   UNL     1      -0.482  -4.507   8.213  1.00  0.00     0.049 A 
ATOM     23  H   UNL     1       0.521  -4.644  10.095  1.00  0.00     0.167 HD
ATOM     24  C   UNL     1       3.760  -4.483  13.925  1.00  0.00     0.034 A 
ATOM     25  C   UNL     1      -1.734  -5.064   8.390  1.00  0.00     0.034 A 
ATOM     26  C   UNL     1       2.508  -5.159  13.909  1.00  0.00     0.049 A 
ATOM     27  C   UNL     1      -1.798  -5.186   9.851  1.00  0.00     0.074 A 
ATOM     28  C   UNL     1       2.141  -6.432  13.571  1.00  0.00     0.029 A 
ATOM     29  N   UNL     1       1.388  -4.358  13.954  1.00  0.00    -0.354 N 
ATOM     30  N   UNL     1      -1.947  -4.182  10.660  1.00  0.00    -0.248 NA
ATOM     31  C   UNL     1      -1.603  -6.506  10.459  1.00  0.00     0.031 C 
ATOM     32  C   UNL     1       0.935  -6.217  12.880  1.00  0.00     0.029 A 
ATOM     33  C   UNL     1       0.479  -4.908  13.098  1.00  0.00     0.049 A 
ATOM     34  H   UNL     1       1.267  -3.546  14.498  1.00  0.00     0.167 HD
ATOM     35  C   UNL     1      -1.514  -4.706  11.847  1.00  0.00     0.074 A 
ATOM     36  C   UNL     1      -1.664  -6.145  11.738  1.00  0.00     0.031 C 
ATOM     37  C   UNL     1      -0.550  -4.056  12.549  1.00  0.00     0.034 A 
BRANCH  24  38
ATOM     38  C   UNL     1       4.132  -3.825  15.239  1.00  0.00     0.023 A 
ATOM     39  C   UNL     1       3.386  -4.281  16.357  1.00  0.00     0.031 A 
ATOM     40  C   UNL     1       4.771  -2.590  15.388  1.00  0.00     0.131 A 
ATOM     41  C   UNL     1       3.056  -3.420  17.407  1.00  0.00     0.055 A 
ATOM     42  C   UNL     1       4.545  -1.778  16.513  1.00  0.00     0.041 A 
ATOM     43  F   UNL     1       5.558  -2.082  14.432  1.00  0.00    -0.206 F 
ATOM     44  C   UNL     1       3.632  -2.161  17.495  1.00  0.00     0.022 A 
BRANCH  41  45
ATOM     45  S   UNL     1       1.649  -3.890  18.457  1.00  0.00     0.124 S 
ATOM     46  O   UNL     1       0.570  -3.970  17.478  1.00  0.00    -0.237 OA
ATOM     47  O   UNL     1       2.096  -5.160  19.020  1.00  0.00    -0.237 OA
ATOM     48  O   UNL     1       1.556  -2.786  19.409  1.00  0.00    -0.744 OA
ENDBRANCH  41  45
ENDBRANCH  24  38
BRANCH  25  49
ATOM     49  C   UNL     1      -3.016  -5.550   7.670  1.00  0.00     0.023 A 
ATOM     50  C   UNL     1      -3.361  -5.456   6.306  1.00  0.00     0.031 A 
ATOM     51  C   UNL     1      -3.970  -6.305   8.443  1.00  0.00     0.131 A 
ATOM     52  C   UNL     1      -4.506  -6.166   5.797  1.00  0.00     0.055 A 
ATOM     53  C   UNL     1      -5.003  -7.085   7.924  1.00  0.00     0.041 A 
ATOM     54  F   UNL     1      -3.960  -6.321   9.781  1.00  0.00    -0.206 F 
ATOM     55  C   UNL     1      -5.265  -7.037   6.583  1.00  0.00     0.022 A 
BRANCH  52  56
ATOM     56  S   UNL     1      -5.087  -5.994   4.075  1.00  0.00     0.124 S 
ATOM     57  O   UNL     1      -6.010  -4.869   4.180  1.00  0.00    -0.237 OA
ATOM     58  O   UNL     1      -3.855  -5.752   3.336  1.00  0.00    -0.237 OA
ATOM     59  O   UNL     1      -5.721  -7.286   3.803  1.00  0.00    -0.744 OA
ENDBRANCH  52  56
ENDBRANCH  25  49
BRANCH  37  60
ATOM     60  C   UNL     1      -0.466  -2.544  12.319  1.00  0.00     0.023 A 
ATOM     61  C   UNL     1      -1.598  -1.731  12.528  1.00  0.00     0.031 A 
ATOM     62  C   UNL     1       0.671  -1.886  11.814  1.00  0.00     0.131 A 
ATOM     63  C   UNL     1      -1.575  -0.353  12.219  1.00  0.00     0.055 A 
ATOM     64  C   UNL     1       0.698  -0.517  11.503  1.00  0.00     0.041 A 
ATOM     65  F   UNL     1       1.804  -2.550  11.593  1.00  0.00    -0.206 F 
ATOM     66  C   UNL     1      -0.433   0.258  11.704  1.00  0.00     0.022 A 
BRANCH  63  67
ATOM     67  S   UNL     1      -3.059   0.651  12.512  1.00  0.00     0.124 S 
ATOM     68  O   UNL     1      -4.001   0.126  11.529  1.00  0.00    -0.237 OA
ATOM     69  O   UNL     1      -3.366   0.365  13.909  1.00  0.00    -0.237 OA
ATOM     70  O   UNL     1      -2.605   2.019  12.255  1.00  0.00    -0.744 OA
ENDBRANCH  63  67
ENDBRANCH  37  60
ENDBRANCH  11  12
ENDBRANCH   4   6
ENDBRANCH   1   2
BRANCH   1  71
ATOM     71  C   UNL     1       7.566  -5.135   4.357  1.00  0.00     0.042 C 
BRANCH  71  72
ATOM     72  C   UNL     1       7.571  -4.386   3.028  1.00  0.00     0.117 C 
BRANCH  72  73
ATOM     73  N   UNL     1       8.289  -5.106   1.995  1.00  0.00    -0.355 N 
ATOM     74  C   UNL     1       7.906  -5.724   0.847  1.00  0.00     0.238 C 
ATOM     75  H   UNL     1       9.258  -5.160   2.161  1.00  0.00     0.163 HD
ATOM     76  O   UNL     1       8.845  -6.153   0.157  1.00  0.00    -0.273 OA
BRANCH  74  77
ATOM     77  C   UNL     1       6.461  -5.908   0.356  1.00  0.00     0.162 C 
ATOM     78  C   UNL     1       6.260  -7.338  -0.172  1.00  0.00     0.030 C 
ATOM     79  N   UNL     1       5.352  -5.543   1.251  1.00  0.00    -0.185 NA
ATOM     80  C   UNL     1       6.114  -8.323   0.977  1.00  0.00     0.004 C 
ATOM     81  C   UNL     1       4.825  -6.524   2.212  1.00  0.00     0.103 C 
ATOM     82  C   UNL     1       4.868  -7.976   1.768  1.00  0.00     0.017 C 
BRANCH  79  83
ATOM     83  S   UNL     1       4.544  -4.108   0.872  1.00  0.00     0.245 S 
ATOM     84  O   UNL     1       5.555  -3.107   0.605  1.00  0.00    -0.207 OA
ATOM     85  O   UNL     1       3.511  -4.411  -0.097  1.00  0.00    -0.207 OA
BRANCH  83  86
ATOM     86  C   UNL     1       3.707  -3.471   2.236  1.00  0.00     0.100 A 
ATOM     87  C   UNL     1       3.935  -3.822   3.581  1.00  0.00     0.041 A 
ATOM     88  C   UNL     1       2.732  -2.489   2.229  1.00  0.00     0.104 A 
ATOM     89  C   UNL     1       3.097  -3.060   4.343  1.00  0.00     0.083 A 
ATOM     90  N   UNL     1       2.330  -2.284   3.525  1.00  0.00    -0.366 N 
ATOM     91  H   UNL     1       1.609  -1.679   3.815  1.00  0.00     0.165 HD
ENDBRANCH  83  86
ENDBRANCH  79  83
ENDBRANCH  74  77
ENDBRANCH  72  73
ENDBRANCH  71  72
ENDBRANCH   1  71
TORSDOF 15
