REMARK SMILES Cc1ccnc(C(=O)c2[nH]c3cc(F)ccc3c2CC(=O)NCCCNC(=O)c2ccc(-c3c4nc(c(-c5cc(S(=O)(=O)[O-])ccc5F)c5ccc([nH]5)c(-c5cc(S(=O)(=O)[O-])ccc5F)c5nc(c(-c6cc(S(=O)(=O)[O-])ccc6F)c6ccc3[nH]6)C=C5)C=C4)cc2)c1
REMARK SMILES IDX 24 1 23 2 22 3 20 4 21 5 19 7 18 8 9 9 10 10 11 11 17 13
REMARK SMILES IDX 12 14 16 15 13 16 15 17 14 18 7 19 8 20 6 21 1 22 2 23 3 24
REMARK SMILES IDX 92 25 4 26 5 27 25 28 26 29 27 30 28 32 29 33 30 34 91 35
REMARK SMILES IDX 31 36 90 37 32 38 33 39 34 40 84 41 35 42 89 43 83 44 85 45
REMARK SMILES IDX 36 46 88 47 82 48 81 49 37 51 69 52 49 53 68 54 50 55 53 56
REMARK SMILES IDX 67 57 86 58 51 59 52 60 66 62 87 63 54 64 38 65 39 66 47 67
REMARK SMILES IDX 40 68 46 69 48 70 45 71 41 72 42 73 43 74 44 75 70 76 71 77
REMARK SMILES IDX 79 78 72 79 78 80 80 81 77 82 73 83 74 84 75 85 76 86 55 87
REMARK SMILES IDX 56 88 64 89 57 90 63 91 65 92 62 93 58 94 59 95 60 96 61 97
REMARK H PARENT 22 6 10 12 26 31 85 50 53 61
REMARK Flexibility Score: inf
ROOT
ATOM      1  C   UNL     1       3.355  -7.066  -0.529  1.00  0.00     0.042 C 
ENDROOT
BRANCH   1   2
ATOM      2  C   UNL     1       3.548  -7.019   0.985  1.00  0.00     0.117 C 
BRANCH   2   3
ATOM      3  N   UNL     1       3.996  -5.731   1.479  1.00  0.00    -0.356 N 
ATOM      4  C   UNL     1       3.285  -4.732   2.081  1.00  0.00     0.224 C 
ATOM      5  O   UNL     1       3.910  -3.802   2.598  1.00  0.00    -0.275 OA
ATOM      6  H   UNL     1       4.957  -5.549   1.364  1.00  0.00     0.163 HD
BRANCH   4   7
ATOM      7  C   UNL     1       1.777  -4.826   2.225  1.00  0.00     0.138 C 
BRANCH   7   8
ATOM      8  C   UNL     1       1.002  -4.830   0.939  1.00  0.00    -0.002 A 
ATOM      9  C   UNL     1       1.009  -3.864  -0.064  1.00  0.00     0.093 A 
ATOM     10  N   UNL     1       0.184  -4.307  -1.073  1.00  0.00    -0.351 N 
ATOM     11  C   UNL     1      -0.444  -5.472  -0.710  1.00  0.00     0.049 A 
ATOM     12  H   UNL     1       0.061  -3.851  -1.936  1.00  0.00     0.167 HD
ATOM     13  C   UNL     1       0.042  -5.825   0.549  1.00  0.00     0.004 A 
ATOM     14  C   UNL     1      -1.385  -6.240  -1.404  1.00  0.00     0.066 A 
ATOM     15  C   UNL     1      -0.448  -7.007   1.150  1.00  0.00     0.013 A 
ATOM     16  C   UNL     1      -1.847  -7.397  -0.780  1.00  0.00     0.125 A 
ATOM     17  C   UNL     1      -1.394  -7.784   0.474  1.00  0.00     0.040 A 
ATOM     18  F   UNL     1      -2.758  -8.155  -1.404  1.00  0.00    -0.207 F 
BRANCH   9  19
ATOM     19  C   UNL     1       1.769  -2.627  -0.157  1.00  0.00     0.227 C 
ATOM     20  O   UNL     1       2.993  -2.638  -0.221  1.00  0.00    -0.285 OA
BRANCH  19  21
ATOM     21  C   UNL     1       1.002  -1.326  -0.208  1.00  0.00     0.113 A 
ATOM     22  C   UNL     1      -2.457   0.106   0.404  1.00  0.00     0.044 C 
ATOM     23  C   UNL     1      -1.009  -0.026   0.041  1.00  0.00    -0.047 A 
ATOM     24  C   UNL     1      -0.282   1.093  -0.368  1.00  0.00     0.023 A 
ATOM     25  C   UNL     1      -0.347  -1.254   0.141  1.00  0.00     0.036 A 
ATOM     26  C   UNL     1       1.058   0.939  -0.682  1.00  0.00     0.112 A 
ATOM     27  N   UNL     1       1.709  -0.240  -0.618  1.00  0.00    -0.253 NA
ENDBRANCH  19  21
ENDBRANCH   9  19
ENDBRANCH   7   8
ENDBRANCH   4   7
ENDBRANCH   2   3
ENDBRANCH   1   2
BRANCH   1  28
ATOM     28  C   UNL     1       4.619  -6.812  -1.347  1.00  0.00     0.118 C 
BRANCH  28  29
ATOM     29  N   UNL     1       5.609  -7.864  -1.181  1.00  0.00    -0.352 N 
ATOM     30  C   UNL     1       6.104  -8.778  -2.078  1.00  0.00     0.251 C 
ATOM     31  H   UNL     1       5.988  -7.932  -0.275  1.00  0.00     0.163 HD
ATOM     32  O   UNL     1       6.787  -9.709  -1.654  1.00  0.00    -0.269 OA
BRANCH  30  33
ATOM     33  C   UNL     1       5.827  -8.674  -3.530  1.00  0.00     0.039 A 
ATOM     34  C   UNL     1       5.570  -9.850  -4.247  1.00  0.00     0.014 A 
ATOM     35  C   UNL     1       5.904  -7.455  -4.211  1.00  0.00     0.014 A 
ATOM     36  C   UNL     1       5.340  -9.800  -5.625  1.00  0.00     0.010 A 
ATOM     37  C   UNL     1       5.639  -7.400  -5.581  1.00  0.00     0.010 A 
ATOM     38  C   UNL     1       5.356  -8.572  -6.300  1.00  0.00    -0.014 A 
BRANCH  38  39
ATOM     39  C   UNL     1       5.104  -8.491  -7.761  1.00  0.00     0.031 A 
ATOM     40  C   UNL     1       6.227  -8.157  -8.702  1.00  0.00     0.074 A 
ATOM     41  C   UNL     1       3.855  -8.645  -8.237  1.00  0.00     0.049 A 
ATOM     42  N   UNL     1       6.179  -7.865  -9.976  1.00  0.00    -0.248 NA
ATOM     43  C   UNL     1       7.578  -8.128  -8.124  1.00  0.00     0.031 C 
ATOM     44  C   UNL     1       2.670  -8.951  -7.434  1.00  0.00     0.029 A 
ATOM     45  N   UNL     1       3.373  -8.540  -9.518  1.00  0.00    -0.354 N 
ATOM     46  C   UNL     1       7.486  -7.569 -10.346  1.00  0.00     0.074 A 
ATOM     47  C   UNL     1       8.303  -7.731  -9.160  1.00  0.00     0.031 C 
ATOM     48  C   UNL     1       1.595  -8.998  -8.239  1.00  0.00     0.029 A 
ATOM     49  C   UNL     1       2.011  -8.698  -9.606  1.00  0.00     0.049 A 
ATOM     50  H   UNL     1       3.948  -8.368 -10.298  1.00  0.00     0.167 HD
ATOM     51  C   UNL     1       7.960  -7.186 -11.556  1.00  0.00     0.034 A 
ATOM     52  C   UNL     1       1.186  -8.583 -10.662  1.00  0.00     0.034 A 
ATOM     53  C   UNL     1       7.157  -7.060 -12.746  1.00  0.00     0.049 A 
ATOM     54  C   UNL     1       1.741  -8.214 -12.007  1.00  0.00     0.074 A 
ATOM     55  C   UNL     1       7.555  -6.715 -14.027  1.00  0.00     0.029 A 
ATOM     56  N   UNL     1       5.789  -7.279 -12.801  1.00  0.00    -0.354 N 
ATOM     57  N   UNL     1       2.972  -7.901 -12.331  1.00  0.00    -0.248 NA
ATOM     58  C   UNL     1       0.789  -8.175 -13.125  1.00  0.00     0.031 C 
ATOM     59  C   UNL     1       6.422  -6.707 -14.853  1.00  0.00     0.029 A 
ATOM     60  C   UNL     1       5.325  -7.072 -14.090  1.00  0.00     0.049 A 
ATOM     61  H   UNL     1       5.229  -7.543 -12.036  1.00  0.00     0.167 HD
ATOM     62  C   UNL     1       2.940  -7.614 -13.690  1.00  0.00     0.074 A 
ATOM     63  C   UNL     1       1.571  -7.799 -14.128  1.00  0.00     0.031 C 
ATOM     64  C   UNL     1       3.956  -7.234 -14.503  1.00  0.00     0.034 A 
BRANCH  51  65
ATOM     65  C   UNL     1       9.415  -6.818 -11.625  1.00  0.00     0.023 A 
ATOM     66  C   UNL     1      10.424  -7.794 -11.611  1.00  0.00     0.031 A 
ATOM     67  C   UNL     1       9.792  -5.464 -11.657  1.00  0.00     0.131 A 
ATOM     68  C   UNL     1      11.769  -7.399 -11.581  1.00  0.00     0.055 A 
ATOM     69  C   UNL     1      11.133  -5.078 -11.672  1.00  0.00     0.041 A 
ATOM     70  F   UNL     1       8.861  -4.497 -11.648  1.00  0.00    -0.206 F 
ATOM     71  C   UNL     1      12.130  -6.048 -11.624  1.00  0.00     0.022 A 
BRANCH  68  72
ATOM     72  S   UNL     1      13.046  -8.671 -11.383  1.00  0.00     0.124 S 
ATOM     73  O   UNL     1      12.656  -9.291 -10.119  1.00  0.00    -0.237 OA
ATOM     74  O   UNL     1      12.866  -9.485 -12.579  1.00  0.00    -0.237 OA
ATOM     75  O   UNL     1      14.289  -7.903 -11.333  1.00  0.00    -0.744 OA
ENDBRANCH  68  72
ENDBRANCH  51  65
BRANCH  52  76
ATOM     76  C   UNL     1      -0.275  -8.747 -10.474  1.00  0.00     0.023 A 
ATOM     77  C   UNL     1      -0.896  -9.985 -10.685  1.00  0.00     0.031 A 
ATOM     78  C   UNL     1      -1.061  -7.653 -10.074  1.00  0.00     0.131 A 
ATOM     79  C   UNL     1      -2.282 -10.096 -10.503  1.00  0.00     0.055 A 
ATOM     80  C   UNL     1      -2.438  -7.771  -9.889  1.00  0.00     0.041 A 
ATOM     81  F   UNL     1      -0.494  -6.457  -9.851  1.00  0.00    -0.206 F 
ATOM     82  C   UNL     1      -3.055  -8.999 -10.106  1.00  0.00     0.022 A 
BRANCH  79  83
ATOM     83  S   UNL     1      -3.070 -11.704 -10.784  1.00  0.00     0.124 S 
ATOM     84  O   UNL     1      -2.836 -11.907 -12.209  1.00  0.00    -0.237 OA
ATOM     85  O   UNL     1      -2.321 -12.571  -9.880  1.00  0.00    -0.237 OA
ATOM     86  O   UNL     1      -4.462 -11.471 -10.405  1.00  0.00    -0.744 OA
ENDBRANCH  79  83
ENDBRANCH  52  76
BRANCH  64  87
ATOM     87  C   UNL     1       3.611  -7.006 -15.945  1.00  0.00     0.023 A 
ATOM     88  C   UNL     1       3.091  -5.776 -16.378  1.00  0.00     0.031 A 
ATOM     89  C   UNL     1       3.787  -8.033 -16.886  1.00  0.00     0.131 A 
ATOM     90  C   UNL     1       2.741  -5.609 -17.726  1.00  0.00     0.055 A 
ATOM     91  C   UNL     1       3.452  -7.856 -18.229  1.00  0.00     0.041 A 
ATOM     92  F   UNL     1       4.273  -9.226 -16.509  1.00  0.00    -0.206 F 
ATOM     93  C   UNL     1       2.923  -6.640 -18.654  1.00  0.00     0.022 A 
BRANCH  90  94
ATOM     94  S   UNL     1       2.016  -4.032 -18.253  1.00  0.00     0.124 S 
ATOM     95  O   UNL     1       0.776  -3.994 -17.483  1.00  0.00    -0.237 OA
ATOM     96  O   UNL     1       3.040  -3.068 -17.862  1.00  0.00    -0.237 OA
ATOM     97  O   UNL     1       1.844  -4.199 -19.695  1.00  0.00    -0.744 OA
ENDBRANCH  90  94
ENDBRANCH  64  87
ENDBRANCH  38  39
ENDBRANCH  30  33
ENDBRANCH  28  29
ENDBRANCH   1  28
TORSDOF 16
