REMARK SMILES O=C(CCC(=O)N1CCCn2nc(-c3ccccc3)cc21)NCCCNC(=O)c1ccc(-c2c3nc(c(-c4cc(S(=O)(=O)[O-])ccc4F)c4ccc([nH]4)c(-c4cc(S(=O)(=O)[O-])ccc4F)c4nc(c(-c5cc(S(=O)(=O)[O-])ccc5F)c5ccc2[nH]5)C=C4)C=C3)cc1
REMARK SMILES IDX 23 1 22 2 1 3 2 4 3 6 4 7 5 8 6 9 7 10 8 11 21 12 9 13 11 14
REMARK SMILES IDX 20 15 10 16 12 17 13 18 14 19 15 20 19 21 16 22 18 23 17 24
REMARK SMILES IDX 24 25 25 26 26 27 27 28 28 30 29 31 30 32 91 33 31 34 90 35
REMARK SMILES IDX 32 36 33 37 34 38 84 39 35 40 89 41 83 42 85 43 36 44 88 45
REMARK SMILES IDX 82 46 81 47 37 49 69 50 49 51 68 52 50 53 53 54 67 55 86 56
REMARK SMILES IDX 51 57 52 58 66 60 87 61 54 62 38 63 39 64 47 65 40 66 46 67
REMARK SMILES IDX 48 68 45 69 41 70 42 71 43 72 44 73 70 74 71 75 79 76 72 77
REMARK SMILES IDX 78 78 80 79 77 80 73 81 74 82 75 83 76 84 55 85 56 86 64 87
REMARK SMILES IDX 57 88 63 89 65 90 62 91 58 92 59 93 60 94 61 95
REMARK H PARENT 22 5 26 29 85 48 53 59
REMARK Flexibility Score: inf
ROOT
ATOM      1  C   UNL     1       1.685   1.366   2.129  1.00  0.00     0.117 C 
ENDROOT
BRANCH   1   2
ATOM      2  N   UNL     1       2.536   0.265   1.700  1.00  0.00    -0.356 N 
ATOM      3  O   UNL     1       1.149  -0.378  -0.018  1.00  0.00    -0.275 OA
ATOM      4  C   UNL     1       2.222  -0.476   0.573  1.00  0.00     0.220 C 
ATOM      5  H   UNL     1       3.344   0.044   2.218  1.00  0.00     0.163 HD
BRANCH   4   6
ATOM      6  C   UNL     1       3.388  -1.248  -0.029  1.00  0.00     0.110 C 
BRANCH   6   7
ATOM      7  C   UNL     1       3.620  -0.879  -1.510  1.00  0.00     0.110 C 
BRANCH   7   8
ATOM      8  C   UNL     1       4.656   0.211  -1.809  1.00  0.00     0.228 C 
ATOM      9  O   UNL     1       5.834  -0.068  -2.036  1.00  0.00    -0.274 OA
BRANCH   8  10
ATOM     10  N   UNL     1       4.237   1.604  -1.866  1.00  0.00    -0.297 N 
ATOM     11  C   UNL     1       2.907   2.002  -1.357  1.00  0.00     0.129 C 
ATOM     12  C   UNL     1       5.038   2.658  -2.349  1.00  0.00     0.134 A 
ATOM     13  C   UNL     1       3.000   3.317  -0.618  1.00  0.00     0.046 C 
ATOM     14  N   UNL     1       4.658   3.970  -2.201  1.00  0.00    -0.249 N 
ATOM     15  C   UNL     1       6.228   2.720  -3.045  1.00  0.00     0.077 A 
ATOM     16  C   UNL     1       3.458   4.414  -1.531  1.00  0.00     0.148 C 
ATOM     17  N   UNL     1       5.469   4.858  -2.740  1.00  0.00    -0.171 NA
ATOM     18  C   UNL     1       6.440   4.118  -3.285  1.00  0.00     0.095 A 
BRANCH  18  19
ATOM     19  C   UNL     1       7.410   4.840  -4.087  1.00  0.00     0.002 A 
ATOM     20  C   UNL     1       8.305   5.728  -3.473  1.00  0.00     0.010 A 
ATOM     21  C   UNL     1       7.232   4.883  -5.474  1.00  0.00     0.010 A 
ATOM     22  C   UNL     1       9.008   6.656  -4.243  1.00  0.00     0.001 A 
ATOM     23  C   UNL     1       7.928   5.820  -6.239  1.00  0.00     0.001 A 
ATOM     24  C   UNL     1       8.811   6.707  -5.623  1.00  0.00     0.000 A 
ENDBRANCH  18  19
ENDBRANCH   8  10
ENDBRANCH   7   8
ENDBRANCH   6   7
ENDBRANCH   4   6
ENDBRANCH   1   2
BRANCH   1  25
ATOM     25  C   UNL     1       2.264   2.356   3.153  1.00  0.00     0.042 C 
BRANCH  25  26
ATOM     26  C   UNL     1       3.777   2.579   3.259  1.00  0.00     0.118 C 
BRANCH  26  27
ATOM     27  N   UNL     1       4.357   3.517   2.304  1.00  0.00    -0.352 N 
ATOM     28  C   UNL     1       4.725   4.839   2.455  1.00  0.00     0.251 C 
ATOM     29  H   UNL     1       4.512   3.147   1.405  1.00  0.00     0.163 HD
ATOM     30  O   UNL     1       4.691   5.606   1.499  1.00  0.00    -0.269 OA
BRANCH  28  31
ATOM     31  C   UNL     1       5.315   5.253   3.743  1.00  0.00     0.039 A 
ATOM     32  C   UNL     1       5.211   6.564   4.210  1.00  0.00     0.014 A 
ATOM     33  C   UNL     1       6.026   4.297   4.473  1.00  0.00     0.014 A 
ATOM     34  C   UNL     1       5.691   6.867   5.486  1.00  0.00     0.010 A 
ATOM     35  C   UNL     1       6.400   4.564   5.772  1.00  0.00     0.010 A 
ATOM     36  C   UNL     1       6.209   5.845   6.298  1.00  0.00    -0.014 A 
BRANCH  36  37
ATOM     37  C   UNL     1       6.472   6.035   7.740  1.00  0.00     0.031 A 
ATOM     38  C   UNL     1       7.848   5.797   8.287  1.00  0.00     0.074 A 
ATOM     39  C   UNL     1       5.416   6.249   8.549  1.00  0.00     0.049 A 
ATOM     40  N   UNL     1       8.244   5.753   9.530  1.00  0.00    -0.248 NA
ATOM     41  C   UNL     1       8.908   5.515   7.305  1.00  0.00     0.031 C 
ATOM     42  C   UNL     1       4.026   6.395   8.101  1.00  0.00     0.029 A 
ATOM     43  N   UNL     1       5.334   6.362   9.910  1.00  0.00    -0.354 N 
ATOM     44  C   UNL     1       9.596   5.430   9.482  1.00  0.00     0.074 A 
ATOM     45  C   UNL     1       9.927   5.207   8.092  1.00  0.00     0.031 C 
ATOM     46  C   UNL     1       3.239   6.618   9.164  1.00  0.00     0.029 A 
ATOM     47  C   UNL     1       4.055   6.574  10.370  1.00  0.00     0.049 A 
ATOM     48  H   UNL     1       6.117   6.297  10.504  1.00  0.00     0.167 HD
ATOM     49  C   UNL     1      10.477   5.357  10.509  1.00  0.00     0.034 A 
ATOM     50  C   UNL     1       3.596   6.711  11.627  1.00  0.00     0.034 A 
ATOM     51  C   UNL     1      10.101   5.592  11.881  1.00  0.00     0.049 A 
ATOM     52  C   UNL     1       4.597   6.640  12.749  1.00  0.00     0.074 A 
ATOM     53  C   UNL     1      10.902   5.606  13.008  1.00  0.00     0.029 A 
ATOM     54  N   UNL     1       8.804   5.853  12.312  1.00  0.00    -0.354 N 
ATOM     55  N   UNL     1       5.889   6.405  12.686  1.00  0.00    -0.248 NA
ATOM     56  C   UNL     1       4.087   6.869  14.104  1.00  0.00     0.031 C 
ATOM     57  C   UNL     1      10.081   5.805  14.124  1.00  0.00     0.029 A 
ATOM     58  C   UNL     1       8.779   6.001  13.689  1.00  0.00     0.049 A 
ATOM     59  H   UNL     1       8.018   5.922  11.724  1.00  0.00     0.167 HD
ATOM     60  C   UNL     1       6.353   6.490  13.994  1.00  0.00     0.074 A 
ATOM     61  C   UNL     1       5.202   6.817  14.816  1.00  0.00     0.031 C 
ATOM     62  C   UNL     1       7.610   6.316  14.478  1.00  0.00     0.034 A 
BRANCH  49  63
ATOM     63  C   UNL     1      11.907   4.997  10.176  1.00  0.00     0.023 A 
ATOM     64  C   UNL     1      12.682   5.788   9.310  1.00  0.00     0.031 A 
ATOM     65  C   UNL     1      12.492   3.826  10.690  1.00  0.00     0.131 A 
ATOM     66  C   UNL     1      13.956   5.356   8.912  1.00  0.00     0.055 A 
ATOM     67  C   UNL     1      13.798   3.450  10.365  1.00  0.00     0.041 A 
ATOM     68  F   UNL     1      11.796   3.013  11.501  1.00  0.00    -0.206 F 
ATOM     69  C   UNL     1      14.532   4.207   9.456  1.00  0.00     0.022 A 
BRANCH  66  70
ATOM     70  S   UNL     1      14.774   6.225   7.546  1.00  0.00     0.124 S 
ATOM     71  O   UNL     1      13.802   6.053   6.467  1.00  0.00    -0.237 OA
ATOM     72  O   UNL     1      14.912   7.579   8.070  1.00  0.00    -0.237 OA
ATOM     73  O   UNL     1      16.024   5.490   7.370  1.00  0.00    -0.744 OA
ENDBRANCH  66  70
ENDBRANCH  49  63
BRANCH  50  74
ATOM     74  C   UNL     1       2.147   6.947  11.885  1.00  0.00     0.023 A 
ATOM     75  C   UNL     1       1.707   8.149  12.461  1.00  0.00     0.031 A 
ATOM     76  C   UNL     1       1.179   5.974  11.575  1.00  0.00     0.131 A 
ATOM     77  C   UNL     1       0.348   8.328  12.758  1.00  0.00     0.055 A 
ATOM     78  C   UNL     1      -0.180   6.180  11.821  1.00  0.00     0.041 A 
ATOM     79  F   UNL     1       1.541   4.813  11.007  1.00  0.00    -0.206 F 
ATOM     80  C   UNL     1      -0.601   7.358  12.430  1.00  0.00     0.022 A 
BRANCH  77  81
ATOM     81  S   UNL     1      -0.151   9.819  13.662  1.00  0.00     0.124 S 
ATOM     82  O   UNL     1       0.679   9.730  14.858  1.00  0.00    -0.237 OA
ATOM     83  O   UNL     1       0.194  10.874  12.716  1.00  0.00    -0.237 OA
ATOM     84  O   UNL     1      -1.583   9.620  13.878  1.00  0.00    -0.744 OA
ENDBRANCH  77  81
ENDBRANCH  50  74
BRANCH  62  85
ATOM     85  C   UNL     1       7.795   6.519  15.960  1.00  0.00     0.023 A 
ATOM     86  C   UNL     1       7.201   5.661  16.900  1.00  0.00     0.031 A 
ATOM     87  C   UNL     1       8.563   7.597  16.434  1.00  0.00     0.131 A 
ATOM     88  C   UNL     1       7.327   5.935  18.268  1.00  0.00     0.055 A 
ATOM     89  C   UNL     1       8.745   7.821  17.798  1.00  0.00     0.041 A 
ATOM     90  F   UNL     1       9.149   8.448  15.578  1.00  0.00    -0.206 F 
ATOM     91  C   UNL     1       8.112   6.997  18.724  1.00  0.00     0.022 A 
BRANCH  88  92
ATOM     92  S   UNL     1       6.356   4.948  19.439  1.00  0.00     0.124 S 
ATOM     93  O   UNL     1       4.993   5.181  18.971  1.00  0.00    -0.237 OA
ATOM     94  O   UNL     1       6.882   3.604  19.223  1.00  0.00    -0.237 OA
ATOM     95  O   UNL     1       6.678   5.541  20.735  1.00  0.00    -0.744 OA
ENDBRANCH  88  92
ENDBRANCH  62  85
ENDBRANCH  36  37
ENDBRANCH  28  31
ENDBRANCH  26  27
ENDBRANCH  25  26
ENDBRANCH   1  25
TORSDOF 17
