REMARK SMILES O=C(NCCCNC(=O)[C@@H]1[C@H](C(=O)Nc2ccc(Cn3cncn3)cc2)[C@@H]2C=C[C@H]1CC2)c1ccc(-c2c3nc(c(-c4cc(S(=O)(=O)[O-])ccc4F)c4ccc([nH]4)c(-c4cc(S(=O)(=O)[O-])ccc4F)c4nc(c(-c5cc(S(=O)(=O)[O-])ccc5F)c5ccc2[nH]5)C=C4)C=C3)cc1
REMARK SMILES IDX 5 1 4 2 3 3 1 4 2 5 33 7 34 8 95 9 35 10 94 11 36 12 37 13
REMARK SMILES IDX 38 14 88 15 39 16 93 17 87 18 89 19 40 20 92 21 86 22 85 23
REMARK SMILES IDX 41 25 73 26 53 27 72 28 54 29 57 30 71 31 90 32 55 33 56 34
REMARK SMILES IDX 70 36 91 37 58 38 42 39 43 40 51 41 44 42 50 43 52 44 49 45
REMARK SMILES IDX 45 46 46 47 47 48 48 49 74 50 75 51 83 52 76 53 82 54 84 55
REMARK SMILES IDX 81 56 77 57 78 58 79 59 80 60 59 61 60 62 68 63 61 64 67 65
REMARK SMILES IDX 69 66 66 67 62 68 63 69 64 70 65 71 6 72 7 73 8 74 9 76
REMARK SMILES IDX 10 77 11 78 30 79 27 80 29 81 31 82 28 83 32 84 12 85 13 86
REMARK SMILES IDX 14 87 15 89 16 90 26 91 17 92 25 93 18 94 19 95 20 96 21 97
REMARK SMILES IDX 24 98 22 99 23 100
REMARK H PARENT 3 6 89 24 57 35 7 75 14 88
REMARK Flexibility Score: inf
ROOT
ATOM      1  C   UNL     1       6.259  -0.649   1.407  1.00  0.00     0.042 C 
ENDROOT
BRANCH   1   2
ATOM      2  C   UNL     1       5.528  -0.734   0.059  1.00  0.00     0.118 C 
BRANCH   2   3
ATOM      3  N   UNL     1       4.076  -0.712   0.164  1.00  0.00    -0.352 N 
ATOM      4  O   UNL     1       2.652  -0.354  -1.540  1.00  0.00    -0.269 OA
ATOM      5  C   UNL     1       3.287   0.118  -0.596  1.00  0.00     0.251 C 
ATOM      6  H   UNL     1       3.641  -1.318   0.807  1.00  0.00     0.163 HD
BRANCH   5   7
ATOM      7  C   UNL     1       3.026   1.491  -0.098  1.00  0.00     0.039 A 
ATOM      8  C   UNL     1       3.910   2.218   0.701  1.00  0.00     0.014 A 
ATOM      9  C   UNL     1       1.764   2.023  -0.381  1.00  0.00     0.014 A 
ATOM     10  C   UNL     1       3.516   3.446   1.239  1.00  0.00     0.010 A 
ATOM     11  C   UNL     1       1.341   3.206   0.215  1.00  0.00     0.010 A 
ATOM     12  C   UNL     1       2.223   3.933   1.012  1.00  0.00    -0.014 A 
BRANCH  12  13
ATOM     13  C   UNL     1       1.917   5.329   1.329  1.00  0.00     0.031 A 
ATOM     14  C   UNL     1       2.286   6.274   0.239  1.00  0.00     0.074 A 
ATOM     15  C   UNL     1       1.211   5.799   2.376  1.00  0.00     0.049 A 
ATOM     16  N   UNL     1       3.258   7.127   0.221  1.00  0.00    -0.248 NA
ATOM     17  C   UNL     1       1.570   6.160  -1.041  1.00  0.00     0.031 C 
ATOM     18  C   UNL     1       0.452   5.044   3.368  1.00  0.00     0.029 A 
ATOM     19  N   UNL     1       0.946   7.102   2.700  1.00  0.00    -0.354 N 
ATOM     20  C   UNL     1       3.155   7.792  -0.998  1.00  0.00     0.074 A 
ATOM     21  C   UNL     1       2.252   7.015  -1.800  1.00  0.00     0.031 C 
ATOM     22  C   UNL     1      -0.343   5.897   4.059  1.00  0.00     0.029 A 
ATOM     23  C   UNL     1      -0.066   7.265   3.639  1.00  0.00     0.049 A 
ATOM     24  H   UNL     1       1.431   7.860   2.301  1.00  0.00     0.167 HD
ATOM     25  C   UNL     1       3.646   9.049  -1.182  1.00  0.00     0.034 A 
ATOM     26  C   UNL     1      -0.674   8.431   3.992  1.00  0.00     0.034 A 
ATOM     27  C   UNL     1       4.537   9.427  -0.112  1.00  0.00     0.049 A 
ATOM     28  C   UNL     1       0.239   9.543   3.630  1.00  0.00     0.074 A 
ATOM     29  C   UNL     1       5.701   8.902   0.419  1.00  0.00     0.029 A 
ATOM     30  N   UNL     1       4.077  10.322   0.829  1.00  0.00    -0.354 N 
ATOM     31  N   UNL     1       1.389   9.753   4.208  1.00  0.00    -0.248 NA
ATOM     32  C   UNL     1       0.076  10.188   2.336  1.00  0.00     0.031 C 
ATOM     33  C   UNL     1       5.596   9.121   1.824  1.00  0.00     0.029 A 
ATOM     34  C   UNL     1       4.407   9.813   2.060  1.00  0.00     0.049 A 
ATOM     35  H   UNL     1       3.603  11.166   0.651  1.00  0.00     0.167 HD
ATOM     36  C   UNL     1       2.231  10.176   3.193  1.00  0.00     0.074 A 
ATOM     37  C   UNL     1       1.343  10.534   2.092  1.00  0.00     0.031 C 
ATOM     38  C   UNL     1       3.575   9.933   3.241  1.00  0.00     0.034 A 
BRANCH  25  39
ATOM     39  C   UNL     1       3.083  10.070  -2.148  1.00  0.00     0.023 A 
ATOM     40  C   UNL     1       3.761  11.300  -2.252  1.00  0.00     0.031 A 
ATOM     41  C   UNL     1       1.805  10.024  -2.752  1.00  0.00     0.131 A 
ATOM     42  C   UNL     1       3.145  12.421  -2.834  1.00  0.00     0.055 A 
ATOM     43  C   UNL     1       1.232  11.119  -3.405  1.00  0.00     0.041 A 
ATOM     44  F   UNL     1       0.996   8.963  -2.660  1.00  0.00    -0.206 F 
ATOM     45  C   UNL     1       1.887  12.337  -3.420  1.00  0.00     0.022 A 
BRANCH  42  46
ATOM     46  S   UNL     1       3.939  14.036  -2.629  1.00  0.00     0.124 S 
ATOM     47  O   UNL     1       4.126  14.089  -1.183  1.00  0.00    -0.237 OA
ATOM     48  O   UNL     1       5.148  13.880  -3.431  1.00  0.00    -0.237 OA
ATOM     49  O   UNL     1       2.950  14.968  -3.165  1.00  0.00    -0.744 OA
ENDBRANCH  42  46
ENDBRANCH  25  39
BRANCH  26  50
ATOM     50  C   UNL     1      -2.100   8.643   4.368  1.00  0.00     0.023 A 
ATOM     51  C   UNL     1      -2.550   9.792   5.055  1.00  0.00     0.031 A 
ATOM     52  C   UNL     1      -3.096   7.802   3.825  1.00  0.00     0.131 A 
ATOM     53  C   UNL     1      -3.937  10.053   5.178  1.00  0.00     0.055 A 
ATOM     54  C   UNL     1      -4.462   8.058   3.957  1.00  0.00     0.041 A 
ATOM     55  F   UNL     1      -2.773   6.744   3.065  1.00  0.00    -0.206 F 
ATOM     56  C   UNL     1      -4.889   9.191   4.629  1.00  0.00     0.022 A 
BRANCH  53  57
ATOM     57  S   UNL     1      -4.526  11.586   5.971  1.00  0.00     0.124 S 
ATOM     58  O   UNL     1      -4.202  11.355   7.373  1.00  0.00    -0.237 OA
ATOM     59  O   UNL     1      -3.751  12.613   5.285  1.00  0.00    -0.237 OA
ATOM     60  O   UNL     1      -5.958  11.598   5.666  1.00  0.00    -0.744 OA
ENDBRANCH  53  57
ENDBRANCH  26  50
BRANCH  38  61
ATOM     61  C   UNL     1       4.192   9.519   4.559  1.00  0.00     0.023 A 
ATOM     62  C   UNL     1       3.787   8.400   5.321  1.00  0.00     0.031 A 
ATOM     63  C   UNL     1       5.325  10.229   4.995  1.00  0.00     0.131 A 
ATOM     64  C   UNL     1       4.502   8.040   6.479  1.00  0.00     0.055 A 
ATOM     65  C   UNL     1       6.043   9.857   6.130  1.00  0.00     0.041 A 
ATOM     66  F   UNL     1       5.779  11.284   4.296  1.00  0.00    -0.206 F 
ATOM     67  C   UNL     1       5.630   8.764   6.881  1.00  0.00     0.022 A 
BRANCH  64  68
ATOM     68  S   UNL     1       3.973   6.618   7.486  1.00  0.00     0.124 S 
ATOM     69  O   UNL     1       2.545   6.842   7.673  1.00  0.00    -0.237 OA
ATOM     70  O   UNL     1       4.337   5.480   6.644  1.00  0.00    -0.237 OA
ATOM     71  O   UNL     1       4.774   6.747   8.705  1.00  0.00    -0.744 OA
ENDBRANCH  64  68
ENDBRANCH  38  61
ENDBRANCH  12  13
ENDBRANCH   5   7
ENDBRANCH   2   3
ENDBRANCH   1   2
BRANCH   1  72
ATOM     72  C   UNL     1       5.758  -1.653   2.438  1.00  0.00     0.117 C 
BRANCH  72  73
ATOM     73  N   UNL     1       6.643  -2.770   2.706  1.00  0.00    -0.356 N 
ATOM     74  C   UNL     1       6.601  -3.673   3.724  1.00  0.00     0.224 C 
ATOM     75  H   UNL     1       7.377  -2.892   2.062  1.00  0.00     0.163 HD
ATOM     76  O   UNL     1       6.968  -4.818   3.428  1.00  0.00    -0.275 OA
BRANCH  74  77
ATOM     77  C   UNL     1       6.286  -3.359   5.193  1.00  0.00     0.098 C 
ATOM     78  C   UNL     1       5.370  -4.379   5.947  1.00  0.00     0.098 C 
ATOM     79  C   UNL     1       6.090  -1.931   5.792  1.00  0.00     0.025 C 
ATOM     80  C   UNL     1       4.701  -3.675   7.168  1.00  0.00     0.025 C 
ATOM     81  C   UNL     1       4.625  -1.589   5.981  1.00  0.00    -0.027 C 
ATOM     82  C   UNL     1       6.612  -1.984   7.261  1.00  0.00     0.009 C 
ATOM     83  C   UNL     1       3.915  -2.479   6.697  1.00  0.00    -0.027 C 
ATOM     84  C   UNL     1       5.833  -3.075   8.054  1.00  0.00     0.009 C 
BRANCH  78  85
ATOM     85  C   UNL     1       4.477  -5.443   5.256  1.00  0.00     0.228 C 
ATOM     86  O   UNL     1       4.844  -6.630   5.316  1.00  0.00    -0.274 OA
ATOM     87  N   UNL     1       3.223  -5.271   4.744  1.00  0.00    -0.326 N 
ATOM     88  H   UNL     1       2.718  -6.114   4.684  1.00  0.00     0.169 HD
BRANCH  87  89
ATOM     89  C   UNL     1       2.492  -4.171   4.284  1.00  0.00     0.041 A 
ATOM     90  C   UNL     1       1.101  -4.203   4.256  1.00  0.00     0.026 A 
ATOM     91  C   UNL     1       3.111  -3.048   3.791  1.00  0.00     0.026 A 
ATOM     92  C   UNL     1       0.371  -3.053   3.895  1.00  0.00     0.008 A 
ATOM     93  C   UNL     1       2.408  -1.907   3.401  1.00  0.00     0.008 A 
ATOM     94  C   UNL     1       1.021  -1.878   3.488  1.00  0.00    -0.026 A 
BRANCH  94  95
ATOM     95  C   UNL     1       0.299  -0.577   3.221  1.00  0.00     0.181 C 
BRANCH  95  96
ATOM     96  N   UNL     1      -0.423  -0.539   1.962  1.00  0.00    -0.249 N 
ATOM     97  C   UNL     1      -1.307  -1.434   1.445  1.00  0.00     0.220 A 
ATOM     98  N   UNL     1      -0.389   0.568   1.202  1.00  0.00    -0.160 NA
ATOM     99  N   UNL     1      -1.804  -0.977   0.319  1.00  0.00    -0.224 NA
ATOM    100  C   UNL     1      -1.210   0.243   0.204  1.00  0.00     0.246 A 
ENDBRANCH  95  96
ENDBRANCH  94  95
ENDBRANCH  87  89
ENDBRANCH  78  85
ENDBRANCH  74  77
ENDBRANCH  72  73
ENDBRANCH   1  72
TORSDOF 17
