REMARK SMILES O=C(Cn1c(=O)n(Cc2cccnc2)c(=O)c2sccc21)NCCCNC(=O)c1ccc(-c2c3nc(c(-c4cc(S(=O)(=O)[O-])ccc4F)c4ccc([nH]4)c(-c4cc(S(=O)(=O)[O-])ccc4F)c4nc(c(-c5cc(S(=O)(=O)[O-])ccc5F)c5ccc2[nH]5)C=C4)C=C3)cc1
REMARK SMILES IDX 24 1 23 2 22 3 1 4 2 5 3 7 4 8 5 9 21 10 6 11 7 12 17 13
REMARK SMILES IDX 20 14 15 15 18 16 19 17 16 18 8 19 9 20 10 21 14 22 11 23
REMARK SMILES IDX 13 24 12 25 25 26 26 27 27 28 28 30 29 31 30 32 91 33 31 34
REMARK SMILES IDX 90 35 32 36 33 37 34 38 84 39 35 40 89 41 83 42 85 43 36 44
REMARK SMILES IDX 88 45 82 46 81 47 37 49 69 50 49 51 68 52 50 53 53 54 67 55
REMARK SMILES IDX 86 56 51 57 52 58 66 60 87 61 54 62 38 63 39 64 47 65 40 66
REMARK SMILES IDX 46 67 48 68 45 69 41 70 42 71 43 72 44 73 70 74 71 75 79 76
REMARK SMILES IDX 72 77 78 78 80 79 77 80 73 81 74 82 75 83 76 84 55 85 56 86
REMARK SMILES IDX 64 87 57 88 63 89 65 90 62 91 58 92 59 93 60 94 61 95
REMARK H PARENT 22 6 26 29 85 48 53 59
REMARK Flexibility Score: inf
ROOT
ATOM      1  C   UNL     1       2.227   2.699  -2.111  1.00  0.00     0.042 C 
ENDROOT
BRANCH   1   2
ATOM      2  C   UNL     1       2.076   1.177  -2.050  1.00  0.00     0.117 C 
BRANCH   2   3
ATOM      3  N   UNL     1       2.839   0.574  -0.972  1.00  0.00    -0.354 N 
ATOM      4  O   UNL     1       1.060  -0.215   0.254  1.00  0.00    -0.273 OA
ATOM      5  C   UNL     1       2.273  -0.098   0.092  1.00  0.00     0.240 C 
ATOM      6  H   UNL     1       3.821   0.648  -1.003  1.00  0.00     0.163 HD
BRANCH   5   7
ATOM      7  C   UNL     1       3.288  -0.702   1.072  1.00  0.00     0.227 C 
BRANCH   7   8
ATOM      8  N   UNL     1       3.975  -1.843   0.457  1.00  0.00    -0.283 N 
ATOM      9  C   UNL     1       5.097  -1.575  -0.346  1.00  0.00     0.332 A 
ATOM     10  C   UNL     1       3.520  -3.154   0.610  1.00  0.00     0.070 A 
ATOM     11  O   UNL     1       5.452  -0.407  -0.541  1.00  0.00    -0.247 OA
ATOM     12  N   UNL     1       5.723  -2.656  -0.971  1.00  0.00    -0.254 N 
ATOM     13  C   UNL     1       4.103  -4.156  -0.114  1.00  0.00     0.116 A 
ATOM     14  C   UNL     1       2.465  -3.656   1.428  1.00  0.00     0.039 A 
ATOM     15  C   UNL     1       5.168  -3.939  -1.052  1.00  0.00     0.274 A 
ATOM     16  S   UNL     1       3.437  -5.687   0.190  1.00  0.00    -0.136 S 
ATOM     17  C   UNL     1       2.330  -5.026   1.316  1.00  0.00     0.068 A 
ATOM     18  O   UNL     1       5.524  -4.772  -1.875  1.00  0.00    -0.268 OA
BRANCH  12  19
ATOM     19  C   UNL     1       6.915  -2.398  -1.782  1.00  0.00     0.168 C 
BRANCH  19  20
ATOM     20  C   UNL     1       8.197  -2.901  -1.159  1.00  0.00    -0.010 A 
ATOM     21  C   UNL     1       9.153  -2.022  -0.638  1.00  0.00     0.009 A 
ATOM     22  C   UNL     1       8.515  -4.259  -1.129  1.00  0.00     0.116 A 
ATOM     23  C   UNL     1      10.352  -2.519  -0.130  1.00  0.00     0.020 A 
ATOM     24  N   UNL     1       9.659  -4.774  -0.620  1.00  0.00    -0.264 NA
ATOM     25  C   UNL     1      10.556  -3.888  -0.139  1.00  0.00     0.111 A 
ENDBRANCH  19  20
ENDBRANCH  12  19
ENDBRANCH   7   8
ENDBRANCH   5   7
ENDBRANCH   2   3
ENDBRANCH   1   2
BRANCH   1  26
ATOM     26  C   UNL     1       3.644   3.155  -2.439  1.00  0.00     0.118 C 
BRANCH  26  27
ATOM     27  N   UNL     1       4.042   2.874  -3.817  1.00  0.00    -0.352 N 
ATOM     28  C   UNL     1       5.216   3.240  -4.448  1.00  0.00     0.251 C 
ATOM     29  H   UNL     1       3.398   2.362  -4.359  1.00  0.00     0.163 HD
ATOM     30  O   UNL     1       5.285   3.231  -5.672  1.00  0.00    -0.269 OA
BRANCH  28  31
ATOM     31  C   UNL     1       6.370   3.666  -3.630  1.00  0.00     0.039 A 
ATOM     32  C   UNL     1       7.130   4.782  -3.991  1.00  0.00     0.014 A 
ATOM     33  C   UNL     1       6.667   2.958  -2.466  1.00  0.00     0.014 A 
ATOM     34  C   UNL     1       8.122   5.239  -3.122  1.00  0.00     0.010 A 
ATOM     35  C   UNL     1       7.565   3.476  -1.558  1.00  0.00     0.010 A 
ATOM     36  C   UNL     1       8.315   4.604  -1.884  1.00  0.00    -0.014 A 
BRANCH  36  37
ATOM     37  C   UNL     1       9.179   5.212  -0.864  1.00  0.00     0.031 A 
ATOM     38  C   UNL     1       8.857   6.633  -0.544  1.00  0.00     0.074 A 
ATOM     39  C   UNL     1      10.038   4.510  -0.089  1.00  0.00     0.049 A 
ATOM     40  N   UNL     1       9.598   7.675  -0.726  1.00  0.00    -0.248 NA
ATOM     41  C   UNL     1       7.499   6.955  -0.069  1.00  0.00     0.031 C 
ATOM     42  C   UNL     1      10.251   3.058  -0.094  1.00  0.00     0.029 A 
ATOM     43  N   UNL     1      10.821   4.922   0.954  1.00  0.00    -0.354 N 
ATOM     44  C   UNL     1       8.905   8.746  -0.165  1.00  0.00     0.074 A 
ATOM     45  C   UNL     1       7.559   8.284   0.046  1.00  0.00     0.031 C 
ATOM     46  C   UNL     1      10.897   2.686   1.032  1.00  0.00     0.029 A 
ATOM     47  C   UNL     1      11.313   3.882   1.742  1.00  0.00     0.049 A 
ATOM     48  H   UNL     1      11.019   5.870   1.133  1.00  0.00     0.167 HD
ATOM     49  C   UNL     1       9.569   9.830   0.327  1.00  0.00     0.034 A 
ATOM     50  C   UNL     1      12.034   3.978   2.887  1.00  0.00     0.034 A 
ATOM     51  C   UNL     1      10.946   9.825  -0.095  1.00  0.00     0.049 A 
ATOM     52  C   UNL     1      12.734   5.279   2.842  1.00  0.00     0.074 A 
ATOM     53  C   UNL     1      11.648  10.111  -1.244  1.00  0.00     0.029 A 
ATOM     54  N   UNL     1      11.771   9.090   0.715  1.00  0.00    -0.354 N 
ATOM     55  N   UNL     1      13.618   5.576   1.930  1.00  0.00    -0.248 NA
ATOM     56  C   UNL     1      12.227   6.406   3.614  1.00  0.00     0.031 C 
ATOM     57  C   UNL     1      12.843   9.331  -1.182  1.00  0.00     0.029 A 
ATOM     58  C   UNL     1      12.856   8.624   0.018  1.00  0.00     0.049 A 
ATOM     59  H   UNL     1      11.607   8.918   1.670  1.00  0.00     0.167 HD
ATOM     60  C   UNL     1      13.444   6.926   1.720  1.00  0.00     0.074 A 
ATOM     61  C   UNL     1      12.731   7.412   2.893  1.00  0.00     0.031 C 
ATOM     62  C   UNL     1      13.595   7.465   0.477  1.00  0.00     0.034 A 
BRANCH  49  63
ATOM     63  C   UNL     1       9.141  10.649   1.530  1.00  0.00     0.023 A 
ATOM     64  C   UNL     1       9.880  11.810   1.847  1.00  0.00     0.031 A 
ATOM     65  C   UNL     1       8.257  10.192   2.533  1.00  0.00     0.131 A 
ATOM     66  C   UNL     1       9.754  12.428   3.107  1.00  0.00     0.055 A 
ATOM     67  C   UNL     1       8.096  10.839   3.761  1.00  0.00     0.041 A 
ATOM     68  F   UNL     1       7.582   9.040   2.423  1.00  0.00    -0.206 F 
ATOM     69  C   UNL     1       8.861  11.952   4.064  1.00  0.00     0.022 A 
BRANCH  66  70
ATOM     70  S   UNL     1      10.865  13.798   3.536  1.00  0.00     0.124 S 
ATOM     71  O   UNL     1      12.178  13.178   3.405  1.00  0.00    -0.237 OA
ATOM     72  O   UNL     1      10.519  14.795   2.529  1.00  0.00    -0.237 OA
ATOM     73  O   UNL     1      10.473  14.138   4.902  1.00  0.00    -0.744 OA
ENDBRANCH  66  70
ENDBRANCH  49  63
BRANCH  50  74
ATOM     74  C   UNL     1      12.029   3.112   4.094  1.00  0.00     0.023 A 
ATOM     75  C   UNL     1      13.044   3.205   5.071  1.00  0.00     0.031 A 
ATOM     76  C   UNL     1      10.870   2.392   4.449  1.00  0.00     0.131 A 
ATOM     77  C   UNL     1      12.861   2.635   6.349  1.00  0.00     0.055 A 
ATOM     78  C   UNL     1      10.695   1.824   5.715  1.00  0.00     0.041 A 
ATOM     79  F   UNL     1       9.826   2.297   3.610  1.00  0.00    -0.206 F 
ATOM     80  C   UNL     1      11.684   1.962   6.678  1.00  0.00     0.022 A 
BRANCH  77  81
ATOM     81  S   UNL     1      14.100   2.899   7.658  1.00  0.00     0.124 S 
ATOM     82  O   UNL     1      15.092   1.877   7.347  1.00  0.00    -0.237 OA
ATOM     83  O   UNL     1      14.504   4.284   7.441  1.00  0.00    -0.237 OA
ATOM     84  O   UNL     1      13.340   2.670   8.887  1.00  0.00    -0.744 OA
ENDBRANCH  77  81
ENDBRANCH  50  74
BRANCH  62  85
ATOM     85  C   UNL     1      14.479   6.735  -0.499  1.00  0.00     0.023 A 
ATOM     86  C   UNL     1      14.202   5.474  -1.070  1.00  0.00     0.031 A 
ATOM     87  C   UNL     1      15.649   7.400  -0.902  1.00  0.00     0.131 A 
ATOM     88  C   UNL     1      15.095   4.924  -2.012  1.00  0.00     0.055 A 
ATOM     89  C   UNL     1      16.519   6.862  -1.845  1.00  0.00     0.041 A 
ATOM     90  F   UNL     1      15.951   8.607  -0.396  1.00  0.00    -0.206 F 
ATOM     91  C   UNL     1      16.247   5.618  -2.403  1.00  0.00     0.022 A 
BRANCH  88  92
ATOM     92  S   UNL     1      14.769   3.291  -2.754  1.00  0.00     0.124 S 
ATOM     93  O   UNL     1      14.674   2.407  -1.597  1.00  0.00    -0.237 OA
ATOM     94  O   UNL     1      13.528   3.514  -3.490  1.00  0.00    -0.237 OA
ATOM     95  O   UNL     1      15.941   3.059  -3.601  1.00  0.00    -0.744 OA
ENDBRANCH  88  92
ENDBRANCH  62  85
ENDBRANCH  36  37
ENDBRANCH  28  31
ENDBRANCH  26  27
ENDBRANCH   1  26
TORSDOF 16
