REMARK SMILES [NH3+][C@@](C(=O)NCCCNC(=O)c1ccc(-c2c3nc(c(-c4cc(S(=O)(=O)[O-])ccc4F)c4ccc([nH]4)c(-c4cc(S(=O)(=O)[O-])ccc4F)c4nc(c(-c5cc(S(=O)(=O)[O-])ccc5F)c5ccc2[nH]5)C=C4)C=C3)cc1)(c1ccc([P@TB4](=O)([O-])[O-])cc1)C1CC1
REMARK SMILES IDX 7 1 6 2 5 3 3 4 4 5 2 7 1 8 75 12 76 13 84 14 77 15 83 16
REMARK SMILES IDX 78 17 79 18 80 19 81 20 82 21 85 22 86 23 87 24 8 25 9 26
REMARK SMILES IDX 10 27 11 29 12 30 13 31 74 32 14 33 73 34 15 35 16 36 17 37
REMARK SMILES IDX 67 38 18 39 72 40 66 41 68 42 19 43 71 44 65 45 64 46 20 48
REMARK SMILES IDX 52 49 32 50 51 51 33 52 36 53 50 54 69 55 34 56 35 57 49 59
REMARK SMILES IDX 70 60 37 61 21 62 22 63 30 64 23 65 29 66 31 67 28 68 24 69
REMARK SMILES IDX 25 70 26 71 27 72 53 73 54 74 62 75 55 76 61 77 63 78 60 79
REMARK SMILES IDX 56 80 57 81 58 82 59 83 38 84 39 85 47 86 40 87 46 88 48 89
REMARK SMILES IDX 45 90 41 91 42 92 43 93 44 94
REMARK H PARENT 5 6 1 9 1 10 1 11 9 28 68 47 36 58
REMARK Flexibility Score: inf
ROOT
ATOM      1  C   UNL     1       4.598  -0.900  -1.220  1.00  0.00       nan C 
ENDROOT
BRANCH   1   2
ATOM      2  C   UNL     1       3.767   0.275  -1.698  1.00  0.00       nan C 
BRANCH   2   3
ATOM      3  N   UNL     1       2.587  -0.159  -2.429  1.00  0.00       nan N 
ATOM      4  C   UNL     1       1.266   0.182  -2.372  1.00  0.00       nan C 
ATOM      5  O   UNL     1       0.586  -0.256  -3.309  1.00  0.00       nan OA
ATOM      6  H   UNL     1       2.783  -0.844  -3.109  1.00  0.00       nan HD
BRANCH   4   7
ATOM      7  C   UNL     1       0.657   1.105  -1.210  1.00  0.00       nan C 
BRANCH   7   8
ATOM      8  N   UNL     1       1.064   0.586   0.127  1.00  0.00       nan N 
ATOM      9  H   UNL     1       0.643  -0.330   0.279  1.00  0.00       nan HD
ATOM     10  H   UNL     1       0.747   1.230   0.852  1.00  0.00       nan HD
ATOM     11  H   UNL     1       2.080   0.505   0.165  1.00  0.00       nan HD
ENDBRANCH   7   8
BRANCH   7  12
ATOM     12  C   UNL     1      -0.895   1.007  -1.221  1.00  0.00       nan A 
ATOM     13  C   UNL     1      -1.769   2.091  -1.117  1.00  0.00       nan A 
ATOM     14  C   UNL     1      -1.500  -0.282  -1.252  1.00  0.00       nan A 
ATOM     15  C   UNL     1      -3.147   1.919  -1.051  1.00  0.00       nan A 
ATOM     16  C   UNL     1      -2.886  -0.467  -1.200  1.00  0.00       nan A 
ATOM     17  C   UNL     1      -3.713   0.642  -1.089  1.00  0.00       nan A 
BRANCH  17  18
ATOM     18  P   UNL     1      -5.543   0.628  -1.098  1.00  0.00       nan P 
ATOM     19  O   UNL     1      -5.626   0.286  -2.589  1.00  0.00       nan OA
ATOM     20  O   UNL     1      -5.624  -0.785  -0.274  1.00  0.00       nan OA
ATOM     21  O   UNL     1      -7.273   0.615  -1.107  1.00  0.00       nan OA
ENDBRANCH  17  18
ENDBRANCH   7  12
BRANCH   7  22
ATOM     22  C   UNL     1       1.340   2.480  -1.337  1.00  0.00       nan C 
ATOM     23  C   UNL     1       0.858   3.606  -2.216  1.00  0.00       nan C 
ATOM     24  C   UNL     1       0.945   3.796  -0.714  1.00  0.00       nan C 
ENDBRANCH   7  22
ENDBRANCH   4   7
ENDBRANCH   2   3
ENDBRANCH   1   2
BRANCH   1  25
ATOM     25  C   UNL     1       5.197  -1.713  -2.356  1.00  0.00       nan C 
BRANCH  25  26
ATOM     26  N   UNL     1       6.076  -0.916  -3.203  1.00  0.00       nan N 
ATOM     27  C   UNL     1       7.442  -0.920  -3.318  1.00  0.00       inf C 
ATOM     28  H   UNL     1       5.614  -0.270  -3.786  1.00  0.00       inf HD
ATOM     29  O   UNL     1       7.995   0.019  -3.896  1.00  0.00    -0.269 OA
BRANCH  27  30
ATOM     30  C   UNL     1       8.243  -2.018  -2.740  1.00  0.00     0.039 A 
ATOM     31  C   UNL     1       9.483  -1.728  -2.168  1.00  0.00     0.014 A 
ATOM     32  C   UNL     1       7.785  -3.338  -2.773  1.00  0.00     0.014 A 
ATOM     33  C   UNL     1      10.222  -2.748  -1.569  1.00  0.00     0.010 A 
ATOM     34  C   UNL     1       8.463  -4.328  -2.073  1.00  0.00     0.010 A 
ATOM     35  C   UNL     1       9.697  -4.049  -1.474  1.00  0.00    -0.014 A 
BRANCH  35  36
ATOM     36  C   UNL     1      10.435  -5.122  -0.760  1.00  0.00     0.031 A 
ATOM     37  C   UNL     1      10.869  -6.364  -1.494  1.00  0.00     0.074 A 
ATOM     38  C   UNL     1      10.674  -4.992   0.560  1.00  0.00     0.049 A 
ATOM     39  N   UNL     1      11.500  -7.415  -1.038  1.00  0.00    -0.248 NA
ATOM     40  C   UNL     1      10.517  -6.451  -2.920  1.00  0.00     0.031 C 
ATOM     41  C   UNL     1      10.240  -3.864   1.389  1.00  0.00     0.029 A 
ATOM     42  N   UNL     1      11.339  -5.808   1.438  1.00  0.00    -0.354 N 
ATOM     43  C   UNL     1      11.619  -8.285  -2.116  1.00  0.00     0.074 A 
ATOM     44  C   UNL     1      10.920  -7.674  -3.226  1.00  0.00     0.031 C 
ATOM     45  C   UNL     1      10.688  -4.039   2.642  1.00  0.00     0.029 A 
ATOM     46  C   UNL     1      11.398  -5.311   2.720  1.00  0.00     0.049 A 
ATOM     47  H   UNL     1      11.738  -6.669   1.176  1.00  0.00     0.167 HD
ATOM     48  C   UNL     1      12.279  -9.467  -2.186  1.00  0.00     0.034 A 
ATOM     49  C   UNL     1      11.956  -5.824   3.833  1.00  0.00     0.034 A 
ATOM     50  C   UNL     1      12.977 -10.058  -1.070  1.00  0.00     0.049 A 
ATOM     51  C   UNL     1      12.679  -7.143   3.733  1.00  0.00     0.074 A 
ATOM     52  C   UNL     1      13.715 -11.228  -1.034  1.00  0.00     0.029 A 
ATOM     53  N   UNL     1      13.020  -9.524   0.213  1.00  0.00    -0.354 N 
ATOM     54  N   UNL     1      12.833  -7.924   2.688  1.00  0.00    -0.248 NA
ATOM     55  C   UNL     1      13.318  -7.638   4.957  1.00  0.00     0.031 C 
ATOM     56  C   UNL     1      14.145 -11.436   0.281  1.00  0.00     0.029 A 
ATOM     57  C   UNL     1      13.746 -10.355   1.053  1.00  0.00     0.049 A 
ATOM     58  H   UNL     1      12.596  -8.679   0.486  1.00  0.00     0.167 HD
ATOM     59  C   UNL     1      13.605  -8.995   3.127  1.00  0.00     0.074 A 
ATOM     60  C   UNL     1      13.913  -8.738   4.520  1.00  0.00     0.031 C 
ATOM     61  C   UNL     1      14.021 -10.095   2.447  1.00  0.00     0.034 A 
BRANCH  48  62
ATOM     62  C   UNL     1      12.262 -10.197  -3.510  1.00  0.00     0.023 A 
ATOM     63  C   UNL     1      12.823  -9.631  -4.669  1.00  0.00     0.031 A 
ATOM     64  C   UNL     1      11.657 -11.460  -3.625  1.00  0.00     0.131 A 
ATOM     65  C   UNL     1      12.702 -10.289  -5.902  1.00  0.00     0.055 A 
ATOM     66  C   UNL     1      11.615 -12.149  -4.839  1.00  0.00     0.041 A 
ATOM     67  F   UNL     1      11.083 -12.043  -2.560  1.00  0.00    -0.206 F 
ATOM     68  C   UNL     1      12.126 -11.558  -5.991  1.00  0.00     0.022 A 
BRANCH  65  69
ATOM     69  S   UNL     1      13.180  -9.400  -7.409  1.00  0.00     0.124 S 
ATOM     70  O   UNL     1      12.297  -8.238  -7.358  1.00  0.00    -0.237 OA
ATOM     71  O   UNL     1      14.597  -9.137  -7.185  1.00  0.00    -0.237 OA
ATOM     72  O   UNL     1      12.883 -10.352  -8.478  1.00  0.00    -0.744 OA
ENDBRANCH  65  69
ENDBRANCH  48  62
BRANCH  49  73
ATOM     73  C   UNL     1      11.853  -5.102   5.134  1.00  0.00     0.023 A 
ATOM     74  C   UNL     1      12.996  -4.622   5.793  1.00  0.00     0.031 A 
ATOM     75  C   UNL     1      10.607  -4.916   5.760  1.00  0.00     0.131 A 
ATOM     76  C   UNL     1      12.877  -4.029   7.060  1.00  0.00     0.055 A 
ATOM     77  C   UNL     1      10.488  -4.273   6.993  1.00  0.00     0.041 A 
ATOM     78  F   UNL     1       9.480  -5.348   5.171  1.00  0.00    -0.206 F 
ATOM     79  C   UNL     1      11.630  -3.838   7.657  1.00  0.00     0.022 A 
BRANCH  76  80
ATOM     80  S   UNL     1      14.390  -3.593   7.961  1.00  0.00     0.124 S 
ATOM     81  O   UNL     1      15.085  -4.874   8.014  1.00  0.00    -0.237 OA
ATOM     82  O   UNL     1      14.978  -2.579   7.090  1.00  0.00    -0.237 OA
ATOM     83  O   UNL     1      13.892  -3.097   9.242  1.00  0.00    -0.744 OA
ENDBRANCH  76  80
ENDBRANCH  49  73
BRANCH  61  84
ATOM     84  C   UNL     1      14.871 -11.082   3.210  1.00  0.00     0.023 A 
ATOM     85  C   UNL     1      14.363 -11.790   4.314  1.00  0.00     0.031 A 
ATOM     86  C   UNL     1      16.216 -11.287   2.857  1.00  0.00     0.131 A 
ATOM     87  C   UNL     1      15.214 -12.604   5.074  1.00  0.00     0.055 A 
ATOM     88  C   UNL     1      17.040 -12.157   3.573  1.00  0.00     0.041 A 
ATOM     89  F   UNL     1      16.756 -10.637   1.813  1.00  0.00    -0.206 F 
ATOM     90  C   UNL     1      16.545 -12.806   4.701  1.00  0.00     0.022 A 
BRANCH  87  91
ATOM     91  S   UNL     1      14.592 -13.290   6.634  1.00  0.00     0.124 S 
ATOM     92  O   UNL     1      14.181 -12.087   7.351  1.00  0.00    -0.237 OA
ATOM     93  O   UNL     1      13.514 -14.163   6.182  1.00  0.00    -0.237 OA
ATOM     94  O   UNL     1      15.754 -13.979   7.193  1.00  0.00    -0.744 OA
ENDBRANCH  87  91
ENDBRANCH  61  84
ENDBRANCH  35  36
ENDBRANCH  27  30
ENDBRANCH  25  26
ENDBRANCH   1  25
TORSDOF 17
