REMARK SMILES [NH3+]Cc1c(-c2ccccc2)c(C(=O)NCCCNC(=O)c2ccc(-c3c4nc(c(-c5cc(S(=O)(=O)[O-])ccc5F)c5ccc([nH]5)c(-c5cc(S(=O)(=O)[O-])ccc5F)c5nc(c(-c6cc(S(=O)(=O)[O-])ccc6F)c6ccc3[nH]6)C=C5)C=C4)cc2)c2ccccn12
REMARK SMILES IDX 16 1 15 2 14 3 12 4 13 5 11 7 3 8 4 9 89 10 84 11 88 12
REMARK SMILES IDX 85 13 87 14 86 15 2 16 1 17 5 21 6 22 10 23 7 24 9 25 8 26
REMARK SMILES IDX 17 27 18 28 19 29 20 31 21 32 22 33 83 34 23 35 82 36 24 37
REMARK SMILES IDX 25 38 26 39 76 40 27 41 81 42 75 43 77 44 28 45 80 46 74 47
REMARK SMILES IDX 73 48 29 50 61 51 41 52 60 53 42 54 45 55 59 56 78 57 43 58
REMARK SMILES IDX 44 59 58 61 79 62 46 63 30 64 31 65 39 66 32 67 38 68 40 69
REMARK SMILES IDX 37 70 33 71 34 72 35 73 36 74 62 75 63 76 71 77 64 78 70 79
REMARK SMILES IDX 72 80 69 81 65 82 66 83 67 84 68 85 47 86 48 87 56 88 49 89
REMARK SMILES IDX 55 90 57 91 54 92 50 93 51 94 52 95 53 96
REMARK H PARENT 14 6 1 18 1 19 1 20 18 30 77 49 45 60
REMARK Flexibility Score: inf
ROOT
ATOM      1  C   UNL     1       3.940  -3.952  -6.469  1.00  0.00     0.042 C 
ENDROOT
BRANCH   1   2
ATOM      2  C   UNL     1       2.687  -3.146  -6.178  1.00  0.00     0.118 C 
BRANCH   2   3
ATOM      3  N   UNL     1       1.692  -3.806  -5.360  1.00  0.00    -0.352 N 
ATOM      4  C   UNL     1       0.841  -3.332  -4.388  1.00  0.00     0.254 C 
ATOM      5  O   UNL     1       0.021  -4.147  -3.963  1.00  0.00    -0.269 OA
ATOM      6  H   UNL     1       1.610  -4.772  -5.530  1.00  0.00     0.163 HD
BRANCH   4   7
ATOM      7  C   UNL     1       0.943  -1.977  -3.826  1.00  0.00     0.073 A 
ATOM      8  C   UNL     1       0.853  -0.270  -2.272  1.00  0.00     0.086 A 
ATOM      9  C   UNL     1       0.569  -1.618  -2.476  1.00  0.00     0.022 A 
ATOM     10  N   UNL     1       1.440   0.193  -3.437  1.00  0.00    -0.314 N 
ATOM     11  C   UNL     1       1.268  -0.769  -4.435  1.00  0.00     0.059 A 
ATOM     12  C   UNL     1       2.096   1.408  -3.676  1.00  0.00     0.092 A 
ATOM     13  C   UNL     1       1.503  -0.328  -5.776  1.00  0.00     0.027 A 
ATOM     14  C   UNL     1       2.492   1.724  -4.919  1.00  0.00     0.018 A 
ATOM     15  C   UNL     1       2.126   0.841  -6.007  1.00  0.00     0.004 A 
BRANCH   8  16
ATOM     16  C   UNL     1       0.569   0.624  -1.108  1.00  0.00     0.315 C 
BRANCH  16  17
ATOM     17  N   UNL     1       1.283   0.194   0.084  1.00  0.00    -0.353 N 
ATOM     18  H   UNL     1       1.066   0.825   0.856  1.00  0.00     0.344 HD
ATOM     19  H   UNL     1       2.287   0.211  -0.096  1.00  0.00     0.344 HD
ATOM     20  H   UNL     1       0.997  -0.754   0.329  1.00  0.00     0.344 HD
ENDBRANCH  16  17
ENDBRANCH   8  16
BRANCH   9  21
ATOM     21  C   UNL     1      -0.061  -2.450  -1.459  1.00  0.00    -0.016 A 
ATOM     22  C   UNL     1       0.634  -3.512  -0.871  1.00  0.00     0.009 A 
ATOM     23  C   UNL     1      -1.389  -2.206  -1.085  1.00  0.00     0.009 A 
ATOM     24  C   UNL     1       0.003  -4.323   0.077  1.00  0.00     0.001 A 
ATOM     25  C   UNL     1      -2.015  -3.012  -0.133  1.00  0.00     0.001 A 
ATOM     26  C   UNL     1      -1.320  -4.073   0.445  1.00  0.00     0.000 A 
ENDBRANCH   9  21
ENDBRANCH   4   7
ENDBRANCH   2   3
ENDBRANCH   1   2
BRANCH   1  27
ATOM     27  C   UNL     1       3.725  -5.290  -7.157  1.00  0.00     0.118 C 
BRANCH  27  28
ATOM     28  N   UNL     1       3.155  -5.188  -8.494  1.00  0.00    -0.352 N 
ATOM     29  C   UNL     1       3.717  -5.325  -9.746  1.00  0.00     0.251 C 
ATOM     30  H   UNL     1       2.192  -4.984  -8.505  1.00  0.00     0.163 HD
ATOM     31  O   UNL     1       3.037  -5.060 -10.730  1.00  0.00    -0.269 OA
BRANCH  29  32
ATOM     32  C   UNL     1       5.133  -5.736  -9.913  1.00  0.00     0.039 A 
ATOM     33  C   UNL     1       5.897  -5.144 -10.925  1.00  0.00     0.014 A 
ATOM     34  C   UNL     1       5.717  -6.701  -9.096  1.00  0.00     0.014 A 
ATOM     35  C   UNL     1       7.259  -5.445 -11.042  1.00  0.00     0.010 A 
ATOM     36  C   UNL     1       7.093  -6.903  -9.128  1.00  0.00     0.010 A 
ATOM     37  C   UNL     1       7.883  -6.284 -10.106  1.00  0.00    -0.014 A 
BRANCH  37  38
ATOM     38  C   UNL     1       9.348  -6.553 -10.138  1.00  0.00     0.031 A 
ATOM     39  C   UNL     1       9.850  -7.969 -10.266  1.00  0.00     0.074 A 
ATOM     40  C   UNL     1      10.223  -5.540  -9.967  1.00  0.00     0.049 A 
ATOM     41  N   UNL     1      11.073  -8.427 -10.190  1.00  0.00    -0.248 NA
ATOM     42  C   UNL     1       8.833  -9.014 -10.463  1.00  0.00     0.031 C 
ATOM     43  C   UNL     1       9.864  -4.132  -9.782  1.00  0.00     0.029 A 
ATOM     44  N   UNL     1      11.595  -5.537  -9.911  1.00  0.00    -0.354 N 
ATOM     45  C   UNL     1      10.968  -9.811 -10.301  1.00  0.00     0.074 A 
ATOM     46  C   UNL     1       9.557 -10.118 -10.374  1.00  0.00     0.031 C 
ATOM     47  C   UNL     1      10.984  -3.401  -9.666  1.00  0.00     0.029 A 
ATOM     48  C   UNL     1      12.141  -4.289  -9.713  1.00  0.00     0.049 A 
ATOM     49  H   UNL     1      12.139  -6.353 -10.002  1.00  0.00     0.167 HD
ATOM     50  C   UNL     1      11.957 -10.737 -10.368  1.00  0.00     0.034 A 
ATOM     51  C   UNL     1      13.425  -3.904  -9.573  1.00  0.00     0.034 A 
ATOM     52  C   UNL     1      13.361 -10.410 -10.324  1.00  0.00     0.049 A 
ATOM     53  C   UNL     1      14.508  -4.951  -9.641  1.00  0.00     0.074 A 
ATOM     54  C   UNL     1      14.448 -11.257 -10.448  1.00  0.00     0.029 A 
ATOM     55  N   UNL     1      13.873  -9.132 -10.139  1.00  0.00    -0.354 N 
ATOM     56  N   UNL     1      14.393  -6.250  -9.799  1.00  0.00    -0.248 NA
ATOM     57  C   UNL     1      15.894  -4.480  -9.523  1.00  0.00     0.031 C 
ATOM     58  C   UNL     1      15.613 -10.504 -10.269  1.00  0.00     0.029 A 
ATOM     59  C   UNL     1      15.259  -9.173 -10.116  1.00  0.00     0.049 A 
ATOM     60  H   UNL     1      13.332  -8.316 -10.040  1.00  0.00     0.167 HD
ATOM     61  C   UNL     1      15.694  -6.745  -9.832  1.00  0.00     0.074 A 
ATOM     62  C   UNL     1      16.575  -5.603  -9.694  1.00  0.00     0.031 C 
ATOM     63  C   UNL     1      16.123  -8.026  -9.970  1.00  0.00     0.034 A 
BRANCH  50  64
ATOM     64  C   UNL     1      11.546 -12.188 -10.477  1.00  0.00     0.023 A 
ATOM     65  C   UNL     1      10.800 -12.666 -11.569  1.00  0.00     0.031 A 
ATOM     66  C   UNL     1      11.876 -13.102  -9.460  1.00  0.00     0.131 A 
ATOM     67  C   UNL     1      10.335 -13.989 -11.578  1.00  0.00     0.055 A 
ATOM     68  C   UNL     1      11.487 -14.442  -9.519  1.00  0.00     0.041 A 
ATOM     69  F   UNL     1      12.569 -12.704  -8.382  1.00  0.00    -0.206 F 
ATOM     70  C   UNL     1      10.697 -14.889 -10.574  1.00  0.00     0.022 A 
BRANCH  67  71
ATOM     71  S   UNL     1       9.124 -14.472 -12.839  1.00  0.00     0.124 S 
ATOM     72  O   UNL     1       8.035 -13.535 -12.574  1.00  0.00    -0.237 OA
ATOM     73  O   UNL     1       9.859 -14.262 -14.080  1.00  0.00    -0.237 OA
ATOM     74  O   UNL     1       8.829 -15.866 -12.515  1.00  0.00    -0.744 OA
ENDBRANCH  67  71
ENDBRANCH  50  64
BRANCH  51  75
ATOM     75  C   UNL     1      13.767  -2.468  -9.351  1.00  0.00     0.023 A 
ATOM     76  C   UNL     1      14.518  -1.749 -10.295  1.00  0.00     0.031 A 
ATOM     77  C   UNL     1      13.386  -1.804  -8.171  1.00  0.00     0.131 A 
ATOM     78  C   UNL     1      14.906  -0.428 -10.024  1.00  0.00     0.055 A 
ATOM     79  C   UNL     1      13.726  -0.471  -7.931  1.00  0.00     0.041 A 
ATOM     80  F   UNL     1      12.662  -2.441  -7.236  1.00  0.00    -0.206 F 
ATOM     81  C   UNL     1      14.503   0.221  -8.854  1.00  0.00     0.022 A 
BRANCH  78  82
ATOM     82  S   UNL     1      16.023   0.406 -11.185  1.00  0.00     0.124 S 
ATOM     83  O   UNL     1      17.169  -0.497 -11.194  1.00  0.00    -0.237 OA
ATOM     84  O   UNL     1      15.222   0.439 -12.404  1.00  0.00    -0.237 OA
ATOM     85  O   UNL     1      16.256   1.706 -10.559  1.00  0.00    -0.744 OA
ENDBRANCH  78  82
ENDBRANCH  51  75
BRANCH  63  86
ATOM     86  C   UNL     1      17.615  -8.247 -10.027  1.00  0.00     0.023 A 
ATOM     87  C   UNL     1      18.445  -8.002  -8.920  1.00  0.00     0.031 A 
ATOM     88  C   UNL     1      18.214  -8.705 -11.215  1.00  0.00     0.131 A 
ATOM     89  C   UNL     1      19.834  -8.161  -9.039  1.00  0.00     0.055 A 
ATOM     90  C   UNL     1      19.589  -8.924 -11.308  1.00  0.00     0.041 A 
ATOM     91  F   UNL     1      17.470  -8.954 -12.304  1.00  0.00    -0.206 F 
ATOM     92  C   UNL     1      20.409  -8.638 -10.220  1.00  0.00     0.022 A 
BRANCH  89  93
ATOM     93  S   UNL     1      20.891  -7.644  -7.659  1.00  0.00     0.124 S 
ATOM     94  O   UNL     1      20.536  -6.235  -7.517  1.00  0.00    -0.237 OA
ATOM     95  O   UNL     1      20.450  -8.524  -6.582  1.00  0.00    -0.237 OA
ATOM     96  O   UNL     1      22.244  -7.896  -8.150  1.00  0.00    -0.744 OA
ENDBRANCH  89  93
ENDBRANCH  63  86
ENDBRANCH  37  38
ENDBRANCH  29  32
ENDBRANCH  27  28
ENDBRANCH   1  27
TORSDOF 16
