REMARK SMILES O=C(CNc1nc(-c2ccccc2)c(-c2ccccc2)s1)NCCCNC(=O)c1ccc(-c2c3nc(c(-c4cc(S(=O)(=O)[O-])ccc4F)c4ccc([nH]4)c(-c4cc(S(=O)(=O)[O-])ccc4F)c4nc(c(-c5cc(S(=O)(=O)[O-])ccc5F)c5ccc2[nH]5)C=C4)C=C3)cc1
REMARK SMILES IDX 24 1 23 2 22 3 1 4 2 5 3 7 4 8 5 10 6 11 21 12 7 13 14 14
REMARK SMILES IDX 8 15 9 16 13 17 10 18 12 19 11 20 15 21 16 22 20 23 17 24
REMARK SMILES IDX 19 25 18 26 25 27 26 28 27 29 28 31 29 32 30 33 91 34 31 35
REMARK SMILES IDX 90 36 32 37 33 38 34 39 84 40 35 41 89 42 83 43 85 44 36 45
REMARK SMILES IDX 88 46 82 47 81 48 37 50 69 51 49 52 68 53 50 54 53 55 67 56
REMARK SMILES IDX 86 57 51 58 52 59 66 61 87 62 54 63 38 64 39 65 47 66 40 67
REMARK SMILES IDX 46 68 48 69 45 70 41 71 42 72 43 73 44 74 70 75 71 76 79 77
REMARK SMILES IDX 72 78 78 79 80 80 77 81 73 82 74 83 75 84 76 85 55 86 56 87
REMARK SMILES IDX 64 88 57 89 63 90 65 91 62 92 58 93 59 94 60 95 61 96
REMARK H PARENT 22 6 4 9 26 30 85 49 53 60
REMARK Flexibility Score: inf
ROOT
ATOM      1  C   UNL     1       2.481   3.271  -0.967  1.00  0.00     0.042 C 
ENDROOT
BRANCH   1   2
ATOM      2  C   UNL     1       2.221   1.859  -1.480  1.00  0.00     0.117 C 
BRANCH   2   3
ATOM      3  N   UNL     1       2.904   0.842  -0.709  1.00  0.00    -0.355 N 
ATOM      4  O   UNL     1       1.064   0.029   0.418  1.00  0.00    -0.273 OA
ATOM      5  C   UNL     1       2.263  -0.029   0.154  1.00  0.00     0.239 C 
ATOM      6  H   UNL     1       3.881   0.765  -0.805  1.00  0.00     0.163 HD
BRANCH   5   7
ATOM      7  C   UNL     1       3.206  -1.078   0.768  1.00  0.00     0.215 C 
BRANCH   7   8
ATOM      8  N   UNL     1       4.157  -1.511  -0.248  1.00  0.00    -0.352 N 
ATOM      9  H   UNL     1       3.835  -1.683  -1.163  1.00  0.00     0.163 HD
BRANCH   8  10
ATOM     10  C   UNL     1       5.460  -1.684   0.029  1.00  0.00     0.184 A 
ATOM     11  N   UNL     1       5.977  -1.838   1.224  1.00  0.00    -0.220 NA
ATOM     12  S   UNL     1       6.591  -1.676  -1.266  1.00  0.00    -0.096 S 
ATOM     13  C   UNL     1       7.360  -1.920   1.134  1.00  0.00     0.091 A 
ATOM     14  C   UNL     1       7.883  -1.800  -0.145  1.00  0.00     0.064 A 
BRANCH  13  15
ATOM     15  C   UNL     1       8.179  -2.153   2.314  1.00  0.00     0.002 A 
ATOM     16  C   UNL     1       9.188  -1.255   2.683  1.00  0.00     0.010 A 
ATOM     17  C   UNL     1       8.005  -3.332   3.049  1.00  0.00     0.010 A 
ATOM     18  C   UNL     1      10.037  -1.552   3.751  1.00  0.00     0.001 A 
ATOM     19  C   UNL     1       8.858  -3.629   4.114  1.00  0.00     0.001 A 
ATOM     20  C   UNL     1       9.878  -2.742   4.460  1.00  0.00     0.000 A 
ENDBRANCH  13  15
BRANCH  14  21
ATOM     21  C   UNL     1       9.263  -1.807  -0.627  1.00  0.00    -0.006 A 
ATOM     22  C   UNL     1       9.797  -0.678  -1.265  1.00  0.00     0.009 A 
ATOM     23  C   UNL     1      10.088  -2.918  -0.407  1.00  0.00     0.009 A 
ATOM     24  C   UNL     1      11.133  -0.661  -1.671  1.00  0.00     0.001 A 
ATOM     25  C   UNL     1      11.423  -2.899  -0.814  1.00  0.00     0.001 A 
ATOM     26  C   UNL     1      11.945  -1.770  -1.443  1.00  0.00     0.000 A 
ENDBRANCH  14  21
ENDBRANCH   8  10
ENDBRANCH   7   8
ENDBRANCH   5   7
ENDBRANCH   2   3
ENDBRANCH   1   2
BRANCH   1  27
ATOM     27  C   UNL     1       3.941   3.720  -1.016  1.00  0.00     0.118 C 
BRANCH  27  28
ATOM     28  N   UNL     1       4.485   3.759  -2.365  1.00  0.00    -0.352 N 
ATOM     29  C   UNL     1       5.156   4.750  -3.036  1.00  0.00     0.251 C 
ATOM     30  H   UNL     1       4.348   2.934  -2.885  1.00  0.00     0.163 HD
ATOM     31  O   UNL     1       5.395   4.581  -4.234  1.00  0.00    -0.269 OA
BRANCH  29  32
ATOM     32  C   UNL     1       5.577   6.010  -2.374  1.00  0.00     0.039 A 
ATOM     33  C   UNL     1       5.549   7.193  -3.122  1.00  0.00     0.014 A 
ATOM     34  C   UNL     1       6.059   6.043  -1.062  1.00  0.00     0.014 A 
ATOM     35  C   UNL     1       5.963   8.401  -2.550  1.00  0.00     0.010 A 
ATOM     36  C   UNL     1       6.402   7.261  -0.469  1.00  0.00     0.010 A 
ATOM     37  C   UNL     1       6.374   8.453  -1.210  1.00  0.00    -0.014 A 
BRANCH  37  38
ATOM     38  C   UNL     1       6.812   9.736  -0.593  1.00  0.00     0.031 A 
ATOM     39  C   UNL     1       8.237   9.911  -0.134  1.00  0.00     0.074 A 
ATOM     40  C   UNL     1       5.926  10.737  -0.418  1.00  0.00     0.049 A 
ATOM     41  N   UNL     1       8.802  10.938   0.450  1.00  0.00    -0.248 NA
ATOM     42  C   UNL     1       9.139   8.767  -0.335  1.00  0.00     0.031 C 
ATOM     43  C   UNL     1       4.509  10.683  -0.784  1.00  0.00     0.029 A 
ATOM     44  N   UNL     1       6.082  11.995   0.111  1.00  0.00    -0.354 N 
ATOM     45  C   UNL     1      10.119  10.561   0.697  1.00  0.00     0.074 A 
ATOM     46  C   UNL     1      10.246   9.187   0.258  1.00  0.00     0.031 C 
ATOM     47  C   UNL     1       3.934  11.861  -0.493  1.00  0.00     0.029 A 
ATOM     48  C   UNL     1       4.928  12.743   0.114  1.00  0.00     0.049 A 
ATOM     49  H   UNL     1       6.941  12.329   0.457  1.00  0.00     0.167 HD
ATOM     50  C   UNL     1      11.134  11.296   1.217  1.00  0.00     0.034 A 
ATOM     51  C   UNL     1       4.693  13.995   0.556  1.00  0.00     0.034 A 
ATOM     52  C   UNL     1      10.999  12.670   1.640  1.00  0.00     0.049 A 
ATOM     53  C   UNL     1       5.835  14.793   1.134  1.00  0.00     0.074 A 
ATOM     54  C   UNL     1      11.970  13.519   2.144  1.00  0.00     0.029 A 
ATOM     55  N   UNL     1       9.816  13.399   1.613  1.00  0.00    -0.354 N 
ATOM     56  N   UNL     1       7.085  14.436   1.318  1.00  0.00    -0.248 NA
ATOM     57  C   UNL     1       5.536  16.171   1.544  1.00  0.00     0.031 C 
ATOM     58  C   UNL     1      11.364  14.736   2.478  1.00  0.00     0.029 A 
ATOM     59  C   UNL     1      10.030  14.677   2.110  1.00  0.00     0.049 A 
ATOM     60  H   UNL     1       8.951  13.058   1.289  1.00  0.00     0.167 HD
ATOM     61  C   UNL     1       7.729  15.560   1.829  1.00  0.00     0.074 A 
ATOM     62  C   UNL     1       6.732  16.608   1.910  1.00  0.00     0.031 C 
ATOM     63  C   UNL     1       9.029  15.715   2.191  1.00  0.00     0.034 A 
BRANCH  50  64
ATOM     64  C   UNL     1      12.474  10.612   1.379  1.00  0.00     0.023 A 
ATOM     65  C   UNL     1      13.189  10.119   0.272  1.00  0.00     0.031 A 
ATOM     66  C   UNL     1      13.028  10.419   2.656  1.00  0.00     0.131 A 
ATOM     67  C   UNL     1      14.369   9.385   0.470  1.00  0.00     0.055 A 
ATOM     68  C   UNL     1      14.249   9.765   2.839  1.00  0.00     0.041 A 
ATOM     69  F   UNL     1      12.386  10.849   3.753  1.00  0.00    -0.206 F 
ATOM     70  C   UNL     1      14.918   9.228   1.744  1.00  0.00     0.022 A 
BRANCH  67  71
ATOM     71  S   UNL     1      15.089   8.507  -0.945  1.00  0.00     0.124 S 
ATOM     72  O   UNL     1      13.987   7.633  -1.341  1.00  0.00    -0.237 OA
ATOM     73  O   UNL     1      15.405   9.594  -1.865  1.00  0.00    -0.237 OA
ATOM     74  O   UNL     1      16.243   7.819  -0.371  1.00  0.00    -0.744 OA
ENDBRANCH  67  71
ENDBRANCH  50  64
BRANCH  51  75
ATOM     75  C   UNL     1       3.325  14.584   0.468  1.00  0.00     0.023 A 
ATOM     76  C   UNL     1       3.065  15.695  -0.349  1.00  0.00     0.031 A 
ATOM     77  C   UNL     1       2.267  14.071   1.240  1.00  0.00     0.131 A 
ATOM     78  C   UNL     1       1.794  16.290  -0.339  1.00  0.00     0.055 A 
ATOM     79  C   UNL     1       0.990  14.634   1.207  1.00  0.00     0.041 A 
ATOM     80  F   UNL     1       2.460  13.006   2.034  1.00  0.00    -0.206 F 
ATOM     81  C   UNL     1       0.752  15.760   0.424  1.00  0.00     0.022 A 
BRANCH  78  82
ATOM     82  S   UNL     1       1.547  17.826  -1.272  1.00  0.00     0.124 S 
ATOM     83  O   UNL     1       2.548  18.702  -0.676  1.00  0.00    -0.237 OA
ATOM     84  O   UNL     1       1.807  17.392  -2.641  1.00  0.00    -0.237 OA
ATOM     85  O   UNL     1       0.158  18.178  -0.986  1.00  0.00    -0.744 OA
ENDBRANCH  78  82
ENDBRANCH  51  75
BRANCH  63  86
ATOM     86  C   UNL     1       9.455  17.090   2.649  1.00  0.00     0.023 A 
ATOM     87  C   UNL     1       8.960  17.669   3.831  1.00  0.00     0.031 A 
ATOM     88  C   UNL     1      10.354  17.843   1.872  1.00  0.00     0.131 A 
ATOM     89  C   UNL     1       9.314  18.985   4.166  1.00  0.00     0.055 A 
ATOM     90  C   UNL     1      10.752  19.127   2.244  1.00  0.00     0.041 A 
ATOM     91  F   UNL     1      10.858  17.341   0.733  1.00  0.00    -0.206 F 
ATOM     92  C   UNL     1      10.219  19.712   3.389  1.00  0.00     0.022 A 
BRANCH  89  93
ATOM     93  S   UNL     1       8.491  19.777   5.576  1.00  0.00     0.124 S 
ATOM     94  O   UNL     1       7.082  19.645   5.219  1.00  0.00    -0.237 OA
ATOM     95  O   UNL     1       8.943  18.962   6.698  1.00  0.00    -0.237 OA
ATOM     96  O   UNL     1       9.011  21.143   5.554  1.00  0.00    -0.744 OA
ENDBRANCH  89  93
ENDBRANCH  63  86
ENDBRANCH  37  38
ENDBRANCH  29  32
ENDBRANCH  27  28
ENDBRANCH   1  27
TORSDOF 17
