REMARK SMILES O=C(C[C@H]1C(=O)O[C@H]2[C@@H]3OC(=O)c4cc(O)c(O)c(O)c4-c4ccccc4C(=O)OC[C@H]2O[C@@H](OC(=O)c2cc(O)c(O)c(O)c2)[C@H]3OC(=O)c2cc(O)c(O)c3c2[C@@H]1[C@H](O)C(=O)O3)NCCCNC(=O)c1ccc(-c2c3nc(c(-c4cc(S(=O)(=O)[O-])ccc4F)c4ccc([nH]4)c(-c4cc(S(=O)(=O)[O-])ccc4F)c4nc(c(-c5cc(S(=O)(=O)[O-])ccc5F)c5ccc2[nH]5)C=C4)C=C3)cc1
REMARK SMILES IDX 4 1 3 3 2 4 1 5 65 6 66 8 67 9 68 10 69 11 70 12 71 14 72 15
REMARK SMILES IDX 73 16 134 17 74 18 133 19 75 20 76 21 77 22 127 23 78 24
REMARK SMILES IDX 132 25 126 26 128 27 79 28 131 29 125 30 124 31 80 33 112 34
REMARK SMILES IDX 92 35 111 36 93 37 96 38 110 39 129 40 94 41 95 42 109 44
REMARK SMILES IDX 130 45 97 46 81 47 82 48 90 49 83 50 89 51 91 52 88 53 84 54
REMARK SMILES IDX 85 55 86 56 87 57 113 58 114 59 122 60 115 61 121 62 123 63
REMARK SMILES IDX 120 64 116 65 117 66 118 67 119 68 98 69 99 70 107 71 100 72
REMARK SMILES IDX 106 73 108 74 105 75 101 76 102 77 103 78 104 79 5 80 6 81
REMARK SMILES IDX 7 82 8 83 9 84 32 85 47 86 33 87 34 89 10 90 11 91 12 92
REMARK SMILES IDX 13 93 14 94 21 95 15 96 19 97 17 98 22 99 23 100 27 101
REMARK SMILES IDX 24 102 26 103 25 104 28 105 29 106 30 107 31 108 16 110
REMARK SMILES IDX 20 112 18 114 48 116 49 117 50 118 51 119 52 120 58 121
REMARK SMILES IDX 53 122 57 123 59 124 55 125 64 126 60 127 62 129 63 130
REMARK SMILES IDX 54 131 56 133 61 135 35 137 36 138 37 139 38 140 39 141
REMARK SMILES IDX 46 142 40 143 44 144 42 145 41 146 45 148 43 150
REMARK H PARENT 65 7 69 13 128 32 96 43 16 111 20 113 18 115 54 132 56 134
REMARK H PARENT 61 136 41 147 45 149 43 151
REMARK Flexibility Score: 170.00
ROOT
ATOM      1  C   UNL     1       4.512  -0.348   2.564  1.00  0.00     0.119 CG0
ATOM      2  G   UNL     1       3.468   0.991   2.723  1.00  0.00     0.000 G0
ENDROOT
BRANCH   1   3
ATOM      3  C   UNL     1       3.151  -1.038   1.557  1.00  0.00     0.116 C 
BRANCH   3   4
ATOM      4  C   UNL     1       2.478  -1.378   0.203  1.00  0.00     0.220 C 
ATOM      5  O   UNL     1       1.268  -1.645   0.256  1.00  0.00    -0.275 OA
ATOM      6  N   UNL     1       3.061  -1.154  -1.010  1.00  0.00    -0.356 N 
ATOM      7  H   UNL     1       4.005  -0.884  -1.073  1.00  0.00     0.163 HD
BRANCH   6   8
ATOM      8  C   UNL     1       2.250  -1.325  -2.212  1.00  0.00     0.117 C 
BRANCH   8   9
ATOM      9  C   UNL     1       2.808  -0.707  -3.476  1.00  0.00     0.042 C 
BRANCH   9  10
ATOM     10  C   UNL     1       4.275  -0.993  -3.726  1.00  0.00     0.118 C 
BRANCH  10  11
ATOM     11  N   UNL     1       4.643  -2.404  -3.638  1.00  0.00    -0.352 N 
ATOM     12  C   UNL     1       5.252  -3.217  -4.570  1.00  0.00     0.251 C 
ATOM     13  H   UNL     1       4.423  -2.840  -2.783  1.00  0.00     0.163 HD
ATOM     14  O   UNL     1       5.475  -4.397  -4.321  1.00  0.00    -0.269 OA
BRANCH  12  15
ATOM     15  C   UNL     1       5.561  -2.656  -5.899  1.00  0.00     0.039 A 
ATOM     16  C   UNL     1       6.189  -1.417  -5.994  1.00  0.00     0.014 A 
ATOM     17  C   UNL     1       5.059  -3.289  -7.037  1.00  0.00     0.014 A 
ATOM     18  C   UNL     1       6.047  -0.686  -7.163  1.00  0.00     0.010 A 
ATOM     19  C   UNL     1       5.059  -2.605  -8.254  1.00  0.00     0.010 A 
ATOM     20  C   UNL     1       5.473  -1.265  -8.307  1.00  0.00    -0.014 A 
BRANCH  20  21
ATOM     21  C   UNL     1       5.307  -0.451  -9.540  1.00  0.00     0.031 A 
ATOM     22  C   UNL     1       3.946  -0.237 -10.151  1.00  0.00     0.074 A 
ATOM     23  C   UNL     1       6.394   0.127 -10.089  1.00  0.00     0.049 A 
ATOM     24  N   UNL     1       3.631   0.390 -11.255  1.00  0.00    -0.248 NA
ATOM     25  C   UNL     1       2.785  -0.800  -9.440  1.00  0.00     0.031 C 
ATOM     26  C   UNL     1       7.754   0.014  -9.560  1.00  0.00     0.029 A 
ATOM     27  N   UNL     1       6.534   0.928 -11.194  1.00  0.00    -0.354 N 
ATOM     28  C   UNL     1       2.251   0.270 -11.389  1.00  0.00     0.074 A 
ATOM     29  C   UNL     1       1.788  -0.514 -10.267  1.00  0.00     0.031 C 
ATOM     30  C   UNL     1       8.580   0.755 -10.307  1.00  0.00     0.029 A 
ATOM     31  C   UNL     1       7.835   1.303 -11.434  1.00  0.00     0.049 A 
ATOM     32  H   UNL     1       5.777   1.206 -11.758  1.00  0.00     0.167 HD
ATOM     33  C   UNL     1       1.451   0.779 -12.356  1.00  0.00     0.034 A 
ATOM     34  C   UNL     1       8.386   1.973 -12.467  1.00  0.00     0.034 A 
ATOM     35  C   UNL     1       1.939   1.585 -13.448  1.00  0.00     0.049 A 
ATOM     36  C   UNL     1       7.484   2.477 -13.559  1.00  0.00     0.074 A 
ATOM     37  C   UNL     1       1.206   2.178 -14.461  1.00  0.00     0.029 A 
ATOM     38  N   UNL     1       3.268   1.914 -13.674  1.00  0.00    -0.354 N 
ATOM     39  N   UNL     1       6.179   2.381 -13.654  1.00  0.00    -0.248 NA
ATOM     40  C   UNL     1       8.117   3.179 -14.682  1.00  0.00     0.031 C 
ATOM     41  C   UNL     1       2.095   2.785 -15.345  1.00  0.00     0.029 A 
ATOM     42  C   UNL     1       3.377   2.668 -14.831  1.00  0.00     0.049 A 
ATOM     43  H   UNL     1       4.022   1.651 -13.098  1.00  0.00     0.167 HD
ATOM     44  C   UNL     1       5.831   3.036 -14.829  1.00  0.00     0.074 A 
ATOM     45  C   UNL     1       7.062   3.541 -15.402  1.00  0.00     0.031 C 
ATOM     46  C   UNL     1       4.604   3.199 -15.381  1.00  0.00     0.034 A 
BRANCH  33  47
ATOM     47  C   UNL     1      -0.036   0.507 -12.312  1.00  0.00     0.023 A 
ATOM     48  C   UNL     1      -0.655  -0.157 -13.390  1.00  0.00     0.031 A 
ATOM     49  C   UNL     1      -0.859   1.044 -11.307  1.00  0.00     0.131 A 
ATOM     50  C   UNL     1      -2.052  -0.213 -13.468  1.00  0.00     0.055 A 
ATOM     51  C   UNL     1      -2.251   0.936 -11.361  1.00  0.00     0.041 A 
ATOM     52  F   UNL     1      -0.323   1.692 -10.259  1.00  0.00    -0.206 F 
ATOM     53  C   UNL     1      -2.853   0.321 -12.455  1.00  0.00     0.022 A 
BRANCH  50  54
ATOM     54  S   UNL     1      -2.883  -0.893 -14.931  1.00  0.00     0.124 S 
ATOM     55  O   UNL     1      -3.683  -1.969 -14.349  1.00  0.00    -0.237 OA
ATOM     56  O   UNL     1      -3.642   0.258 -15.413  1.00  0.00    -0.237 OA
ATOM     57  O   UNL     1      -1.786  -1.330 -15.787  1.00  0.00    -0.744 OA
ENDBRANCH  50  54
ENDBRANCH  33  47
BRANCH  34  58
ATOM     58  C   UNL     1       9.861   2.202 -12.471  1.00  0.00     0.023 A 
ATOM     59  C   UNL     1      10.758   1.117 -12.430  1.00  0.00     0.031 A 
ATOM     60  C   UNL     1      10.389   3.498 -12.373  1.00  0.00     0.131 A 
ATOM     61  C   UNL     1      12.119   1.345 -12.196  1.00  0.00     0.055 A 
ATOM     62  C   UNL     1      11.760   3.724 -12.231  1.00  0.00     0.041 A 
ATOM     63  F   UNL     1       9.575   4.564 -12.390  1.00  0.00    -0.206 F 
ATOM     64  C   UNL     1      12.629   2.643 -12.118  1.00  0.00     0.022 A 
BRANCH  61  65
ATOM     65  S   UNL     1      13.238  -0.033 -11.819  1.00  0.00     0.124 S 
ATOM     66  O   UNL     1      14.239   0.089 -12.874  1.00  0.00    -0.237 OA
ATOM     67  O   UNL     1      13.692   0.314 -10.474  1.00  0.00    -0.237 OA
ATOM     68  O   UNL     1      12.377  -1.209 -11.896  1.00  0.00    -0.744 OA
ENDBRANCH  61  65
ENDBRANCH  34  58
BRANCH  46  69
ATOM     69  C   UNL     1       4.476   3.983 -16.666  1.00  0.00     0.023 A 
ATOM     70  C   UNL     1       3.680   5.145 -16.690  1.00  0.00     0.031 A 
ATOM     71  C   UNL     1       4.958   3.480 -17.885  1.00  0.00     0.131 A 
ATOM     72  C   UNL     1       3.325   5.720 -17.914  1.00  0.00     0.055 A 
ATOM     73  C   UNL     1       4.655   4.097 -19.100  1.00  0.00     0.041 A 
ATOM     74  F   UNL     1       5.714   2.371 -17.916  1.00  0.00    -0.206 F 
ATOM     75  C   UNL     1       3.816   5.209 -19.120  1.00  0.00     0.022 A 
BRANCH  72  76
ATOM     76  S   UNL     1       2.116   7.071 -17.993  1.00  0.00     0.124 S 
ATOM     77  O   UNL     1       2.876   8.117 -18.674  1.00  0.00    -0.237 OA
ATOM     78  O   UNL     1       1.039   6.472 -18.776  1.00  0.00    -0.237 OA
ATOM     79  O   UNL     1       1.802   7.345 -16.595  1.00  0.00    -0.744 OA
ENDBRANCH  72  76
ENDBRANCH  46  69
ENDBRANCH  20  21
ENDBRANCH  12  15
ENDBRANCH  10  11
ENDBRANCH   9  10
ENDBRANCH   8   9
ENDBRANCH   6   8
ENDBRANCH   3   4
ENDBRANCH   1   3
BRANCH   1  80
ATOM     80  C   UNL     1       6.639  -0.351   2.256  1.00  0.00     0.310 C 
ATOM     81  O   UNL     1       7.378  -0.808   1.363  1.00  0.00    -0.252 OA
BRANCH  80  82
ATOM     82  O   UNL     1       7.458   0.467   2.916  1.00  0.00    -0.455 OA
BRANCH  82  83
ATOM     83  C   UNL     1       6.471   0.786   3.666  1.00  0.00     0.254 C 
ATOM     84  C   UNL     1       5.641   1.418   2.498  1.00  0.00     0.267 C 
ATOM     85  C   UNL     1       6.587  -0.565   4.410  1.00  0.00     0.205 CG1
ATOM     86  C   UNL     1       5.347   0.191   0.895  1.00  0.00     0.290 C 
ATOM     87  O   UNL     1       5.810  -1.856   3.428  1.00  0.00    -0.329 OA
ATOM     88  G   UNL     1       6.397   0.454   5.781  1.00  0.00     0.000 G1
ATOM     89  C   UNL     1       5.469  -1.785   1.566  1.00  0.00     0.357 C 
BRANCH  84  90
ATOM     90  O   UNL     1       4.425   2.073   3.801  1.00  0.00    -0.450 OA
BRANCH  90  91
ATOM     91  C   UNL     1       2.693   2.740   3.669  1.00  0.00     0.339 C 
ATOM     92  O   UNL     1       1.695   2.172   4.136  1.00  0.00    -0.246 OA
BRANCH  91  93
ATOM     93  C   UNL     1       2.376   4.073   2.961  1.00  0.00     0.075 A 
ATOM     94  C   UNL     1       1.173   4.585   3.548  1.00  0.00     0.066 A 
ATOM     95  C   UNL     1       3.443   4.762   1.998  1.00  0.00     0.043 A 
ATOM     96  C   UNL     1       0.753   5.837   3.265  1.00  0.00     0.162 A 
ATOM     97  C   UNL     1       2.493   5.939   1.526  1.00  0.00     0.170 A 
ATOM     98  C   UNL     1       1.344   6.468   2.212  1.00  0.00     0.200 A 
BRANCH  95  99
ATOM     99  C   UNL     1       5.519   4.327   1.889  1.00  0.00     0.001 A 
ATOM    100  C   UNL     1       6.543   4.494   0.694  1.00  0.00     0.010 A 
ATOM    101  C   UNL     1       6.687   3.871   3.094  1.00  0.00     0.068 A 
ATOM    102  C   UNL     1       7.955   4.373   0.580  1.00  0.00     0.001 A 
ATOM    103  C   UNL     1       8.120   3.804   2.870  1.00  0.00     0.016 A 
ATOM    104  C   UNL     1       8.733   4.049   1.652  1.00  0.00     0.001 A 
BRANCH 101 105
ATOM    105  C   UNL     1       6.644   3.442   4.741  1.00  0.00     0.338 C 
ATOM    106  O   UNL     1       6.825   4.438   5.457  1.00  0.00    -0.246 OA
BRANCH 105 107
ATOM    107  O   UNL     1       6.570   2.193   5.427  1.00  0.00    -0.459 OA
BRANCH 107 108
ATOM    108  C   UNL     1       6.397   0.454   5.781  1.00  0.00     0.269 CG1
ATOM    109  G   UNL     1       6.587  -0.565   4.410  1.00  0.00     0.000 G1
ENDBRANCH 107 108
ENDBRANCH 105 107
ENDBRANCH 101 105
ENDBRANCH  95  99
BRANCH  96 110
ATOM    110  O   UNL     1      -0.248   6.387   3.993  1.00  0.00    -0.504 OA
ATOM    111  H   UNL     1      -0.623   5.912   4.709  1.00  0.00     0.293 HD
ENDBRANCH  96 110
BRANCH  97 112
ATOM    112  O   UNL     1       2.567   6.666   0.320  1.00  0.00    -0.504 OA
ATOM    113  H   UNL     1       1.947   7.346   0.145  1.00  0.00     0.293 HD
ENDBRANCH  97 112
BRANCH  98 114
ATOM    114  O   UNL     1       0.804   7.678   1.845  1.00  0.00    -0.502 OA
ATOM    115  H   UNL     1       0.056   8.014   2.299  1.00  0.00     0.293 HD
ENDBRANCH  98 114
ENDBRANCH  91  93
ENDBRANCH  90  91
ENDBRANCH  84  90
BRANCH  86 116
ATOM    116  O   UNL     1       4.279   0.890   0.162  1.00  0.00    -0.448 OA
BRANCH 116 117
ATOM    117  C   UNL     1       4.625   2.132  -0.358  1.00  0.00     0.339 C 
ATOM    118  O   UNL     1       5.511   2.280  -1.182  1.00  0.00    -0.246 OA
BRANCH 117 119
ATOM    119  C   UNL     1       4.081   3.281   0.475  1.00  0.00     0.071 A 
ATOM    120  C   UNL     1       4.394   5.039   0.145  1.00  0.00     0.066 A 
ATOM    121  C   UNL     1       4.060   2.792   2.131  1.00  0.00     0.021 A 
ATOM    122  C   UNL     1       4.843   6.259   1.489  1.00  0.00     0.162 A 
ATOM    123  C   UNL     1       4.452   4.051   3.590  1.00  0.00     0.180 A 
ATOM    124  C   UNL     1       3.468   0.991   2.723  1.00  0.00     0.079 CG0
ATOM    125  C   UNL     1       4.797   5.793   3.242  1.00  0.00     0.201 A 
ATOM    126  O   UNL     1       4.046   3.553   5.149  1.00  0.00    -0.420 OA
ATOM    127  C   UNL     1       3.213   0.716   4.649  1.00  0.00     0.232 C 
ATOM    128  G   UNL     1       4.512  -0.348   2.564  1.00  0.00     0.000 G0
ATOM    129  C   UNL     1       3.482   2.165   5.813  1.00  0.00     0.341 C 
ATOM    130  O   UNL     1       3.179   2.156   7.003  1.00  0.00    -0.249 OA
BRANCH 122 131
ATOM    131  O   UNL     1       4.921   7.592   1.171  1.00  0.00    -0.504 OA
ATOM    132  H   UNL     1       4.946   7.859   0.273  1.00  0.00     0.293 HD
ENDBRANCH 122 131
BRANCH 125 133
ATOM    133  O   UNL     1       4.750   6.748   4.200  1.00  0.00    -0.502 OA
ATOM    134  H   UNL     1       4.935   7.640   3.981  1.00  0.00     0.293 HD
ENDBRANCH 125 133
BRANCH 127 135
ATOM    135  O   UNL     1       2.090  -0.158   4.760  1.00  0.00    -0.381 OA
ATOM    136  H   UNL     1       1.316   0.258   4.350  1.00  0.00     0.211 HD
ENDBRANCH 127 135
ENDBRANCH 117 119
ENDBRANCH 116 117
ENDBRANCH  86 116
BRANCH  89 137
ATOM    137  O   UNL     1       4.710  -2.829   0.895  1.00  0.00    -0.428 OA
BRANCH 137 138
ATOM    138  C   UNL     1       3.946  -3.772   1.493  1.00  0.00     0.340 C 
ATOM    139  O   UNL     1       3.613  -3.837   2.656  1.00  0.00    -0.246 OA
BRANCH 138 140
ATOM    140  C   UNL     1       3.426  -4.584   0.362  1.00  0.00     0.067 A 
ATOM    141  C   UNL     1       2.090  -4.433  -0.033  1.00  0.00     0.066 A 
ATOM    142  C   UNL     1       4.319  -5.328  -0.422  1.00  0.00     0.066 A 
ATOM    143  C   UNL     1       1.699  -4.880  -1.288  1.00  0.00     0.162 A 
ATOM    144  C   UNL     1       3.865  -5.873  -1.619  1.00  0.00     0.162 A 
ATOM    145  C   UNL     1       2.581  -5.599  -2.077  1.00  0.00     0.200 A 
BRANCH 143 146
ATOM    146  O   UNL     1       0.473  -4.533  -1.778  1.00  0.00    -0.504 OA
ATOM    147  H   UNL     1      -0.124  -4.047  -1.245  1.00  0.00     0.293 HD
ENDBRANCH 143 146
BRANCH 144 148
ATOM    148  O   UNL     1       4.649  -6.668  -2.402  1.00  0.00    -0.504 OA
ATOM    149  H   UNL     1       4.310  -7.018  -3.203  1.00  0.00     0.293 HD
ENDBRANCH 144 148
BRANCH 145 150
ATOM    150  O   UNL     1       2.185  -5.998  -3.324  1.00  0.00    -0.502 OA
ATOM    151  H   UNL     1       1.318  -5.808  -3.623  1.00  0.00     0.293 HD
ENDBRANCH 145 150
ENDBRANCH 138 140
ENDBRANCH 137 138
ENDBRANCH  89 137
ENDBRANCH  82  83
ENDBRANCH  80  82
ENDBRANCH   1  80
TORSDOF 26
