REMARK SMILES CC[C@H](C(=O)NCc1ccc(C(=O)NCCCNC(=O)c2ccc(-c3c4nc(c(-c5cc(S(=O)(=O)[O-])ccc5F)c5ccc([nH]5)c(-c5cc(S(=O)(=O)[O-])ccc5F)c5nc(c(-c6cc(S(=O)(=O)[O-])ccc6F)c6ccc3[nH]6)C=C5)C=C4)cc2)o1)c1ccccc1
REMARK SMILES IDX 15 1 14 2 12 3 13 4 11 6 8 7 9 8 84 9 10 10 7 11 6 12 4 13
REMARK SMILES IDX 5 14 3 16 2 17 1 18 85 19 86 20 90 21 87 22 89 23 88 24
REMARK SMILES IDX 16 25 17 26 18 27 19 28 20 30 21 31 22 32 83 33 23 34 82 35
REMARK SMILES IDX 24 36 25 37 26 38 76 39 27 40 81 41 75 42 77 43 28 44 80 45
REMARK SMILES IDX 74 46 73 47 29 49 61 50 41 51 60 52 42 53 45 54 59 55 78 56
REMARK SMILES IDX 43 57 44 58 58 60 79 61 46 62 30 63 31 64 39 65 32 66 38 67
REMARK SMILES IDX 40 68 37 69 33 70 34 71 35 72 36 73 62 74 63 75 71 76 64 77
REMARK SMILES IDX 70 78 72 79 69 80 65 81 66 82 67 83 68 84 47 85 48 86 56 87
REMARK SMILES IDX 49 88 55 89 57 90 54 91 50 92 51 93 52 94 53 95
REMARK H PARENT 14 5 6 15 18 29 77 48 45 59
REMARK Flexibility Score: inf
ROOT
ATOM      1  C   UNL     1      -0.306   4.769   4.873  1.00  0.00     0.118 C 
ENDROOT
BRANCH   1   2
ATOM      2  N   UNL     1      -1.630   4.186   4.976  1.00  0.00    -0.349 N 
ATOM      3  C   UNL     1      -2.202   3.134   4.302  1.00  0.00     0.286 C 
ATOM      4  O   UNL     1      -3.308   2.764   4.724  1.00  0.00    -0.266 OA
ATOM      5  H   UNL     1      -2.217   4.616   5.640  1.00  0.00     0.163 HD
BRANCH   3   6
ATOM      6  C   UNL     1      -1.544   2.502   3.175  1.00  0.00     0.191 A 
ATOM      7  C   UNL     1      -1.308   0.866   1.692  1.00  0.00     0.124 A 
ATOM      8  C   UNL     1      -0.357   1.815   1.385  1.00  0.00     0.048 A 
ATOM      9  O   UNL     1      -2.028   1.275   2.773  1.00  0.00    -0.454 OA
ATOM     10  C   UNL     1      -0.510   2.857   2.325  1.00  0.00     0.056 A 
BRANCH   7  11
ATOM     11  C   UNL     1      -1.701  -0.431   1.079  1.00  0.00     0.191 C 
BRANCH  11  12
ATOM     12  N   UNL     1      -0.874  -0.661  -0.087  1.00  0.00    -0.348 N 
ATOM     13  C   UNL     1       0.268  -1.358  -0.303  1.00  0.00     0.227 C 
ATOM     14  O   UNL     1       0.818  -1.137  -1.391  1.00  0.00    -0.274 OA
ATOM     15  H   UNL     1      -1.214  -0.216  -0.897  1.00  0.00     0.163 HD
BRANCH  13  16
ATOM     16  C   UNL     1       0.848  -2.442   0.626  1.00  0.00     0.108 C 
BRANCH  16  17
ATOM     17  C   UNL     1       0.823  -2.251   2.150  1.00  0.00     0.015 C 
ATOM     18  C   UNL     1       1.569  -1.013   2.624  1.00  0.00     0.005 C 
ENDBRANCH  16  17
BRANCH  16  19
ATOM     19  C   UNL     1       0.361  -3.844   0.256  1.00  0.00    -0.036 A 
ATOM     20  C   UNL     1      -0.930  -4.095  -0.230  1.00  0.00     0.004 A 
ATOM     21  C   UNL     1       1.236  -4.933   0.422  1.00  0.00     0.004 A 
ATOM     22  C   UNL     1      -1.328  -5.395  -0.552  1.00  0.00     0.000 A 
ATOM     23  C   UNL     1       0.833  -6.231   0.110  1.00  0.00     0.000 A 
ATOM     24  C   UNL     1      -0.450  -6.462  -0.379  1.00  0.00     0.000 A 
ENDBRANCH  16  19
ENDBRANCH  13  16
ENDBRANCH  11  12
ENDBRANCH   7  11
ENDBRANCH   3   6
ENDBRANCH   1   2
BRANCH   1  25
ATOM     25  C   UNL     1      -0.287   6.021   3.999  1.00  0.00     0.042 C 
BRANCH  25  26
ATOM     26  C   UNL     1      -0.898   7.250   4.671  1.00  0.00     0.118 C 
BRANCH  26  27
ATOM     27  N   UNL     1      -0.137   7.668   5.840  1.00  0.00    -0.352 N 
ATOM     28  C   UNL     1       0.523   8.841   6.103  1.00  0.00     0.251 C 
ATOM     29  H   UNL     1      -0.088   6.998   6.559  1.00  0.00     0.163 HD
ATOM     30  O   UNL     1       1.313   8.874   7.045  1.00  0.00    -0.269 OA
BRANCH  28  31
ATOM     31  C   UNL     1       0.303  10.048   5.275  1.00  0.00     0.039 A 
ATOM     32  C   UNL     1       1.386  10.896   5.022  1.00  0.00     0.014 A 
ATOM     33  C   UNL     1      -0.967  10.385   4.799  1.00  0.00     0.014 A 
ATOM     34  C   UNL     1       1.205  12.048   4.252  1.00  0.00     0.010 A 
ATOM     35  C   UNL     1      -1.131  11.491   3.967  1.00  0.00     0.010 A 
ATOM     36  C   UNL     1      -0.049  12.339   3.691  1.00  0.00    -0.014 A 
BRANCH  36  37
ATOM     37  C   UNL     1      -0.241  13.528   2.819  1.00  0.00     0.031 A 
ATOM     38  C   UNL     1      -1.172  14.635   3.237  1.00  0.00     0.074 A 
ATOM     39  C   UNL     1       0.389  13.585   1.629  1.00  0.00     0.049 A 
ATOM     40  N   UNL     1      -1.510  15.721   2.590  1.00  0.00    -0.248 NA
ATOM     41  C   UNL     1      -1.830  14.485   4.543  1.00  0.00     0.031 C 
ATOM     42  C   UNL     1       1.286  12.555   1.099  1.00  0.00     0.029 A 
ATOM     43  N   UNL     1       0.372  14.544   0.647  1.00  0.00    -0.354 N 
ATOM     44  C   UNL     1      -2.426  16.380   3.405  1.00  0.00     0.074 A 
ATOM     45  C   UNL     1      -2.638  15.534   4.561  1.00  0.00     0.031 C 
ATOM     46  C   UNL     1       1.757  12.952  -0.093  1.00  0.00     0.029 A 
ATOM     47  C   UNL     1       1.161  14.238  -0.438  1.00  0.00     0.049 A 
ATOM     48  H   UNL     1      -0.156  15.372   0.713  1.00  0.00     0.167 HD
ATOM     49  C   UNL     1      -3.015  17.588   3.218  1.00  0.00     0.034 A 
ATOM     50  C   UNL     1       1.373  14.913  -1.585  1.00  0.00     0.034 A 
ATOM     51  C   UNL     1      -2.786  18.419   2.060  1.00  0.00     0.049 A 
ATOM     52  C   UNL     1       0.684  16.239  -1.784  1.00  0.00     0.074 A 
ATOM     53  C   UNL     1      -3.294  19.677   1.787  1.00  0.00     0.029 A 
ATOM     54  N   UNL     1      -1.987  18.073   0.977  1.00  0.00    -0.354 N 
ATOM     55  N   UNL     1      -0.144  16.869  -0.982  1.00  0.00    -0.248 NA
ATOM     56  C   UNL     1       0.968  16.949  -3.036  1.00  0.00     0.031 C 
ATOM     57  C   UNL     1      -2.862  20.059   0.512  1.00  0.00     0.029 A 
ATOM     58  C   UNL     1      -2.014  19.079   0.022  1.00  0.00     0.049 A 
ATOM     59  H   UNL     1      -1.475  17.236   0.899  1.00  0.00     0.167 HD
ATOM     60  C   UNL     1      -0.453  18.067  -1.622  1.00  0.00     0.074 A 
ATOM     61  C   UNL     1       0.294  18.076  -2.864  1.00  0.00     0.031 C 
ATOM     62  C   UNL     1      -1.275  19.069  -1.220  1.00  0.00     0.034 A 
BRANCH  49  63
ATOM     63  C   UNL     1      -3.979  18.064   4.281  1.00  0.00     0.023 A 
ATOM     64  C   UNL     1      -3.565  18.293   5.605  1.00  0.00     0.031 A 
ATOM     65  C   UNL     1      -5.337  18.267   3.976  1.00  0.00     0.131 A 
ATOM     66  C   UNL     1      -4.508  18.631   6.588  1.00  0.00     0.055 A 
ATOM     67  C   UNL     1      -6.255  18.689   4.940  1.00  0.00     0.041 A 
ATOM     68  F   UNL     1      -5.800  18.045   2.735  1.00  0.00    -0.206 F 
ATOM     69  C   UNL     1      -5.846  18.858   6.260  1.00  0.00     0.022 A 
BRANCH  66  70
ATOM     70  S   UNL     1      -3.987  18.621   8.326  1.00  0.00     0.124 S 
ATOM     71  O   UNL     1      -3.524  17.244   8.486  1.00  0.00    -0.237 OA
ATOM     72  O   UNL     1      -2.955  19.650   8.353  1.00  0.00    -0.237 OA
ATOM     73  O   UNL     1      -5.213  18.947   9.053  1.00  0.00    -0.744 OA
ENDBRANCH  66  70
ENDBRANCH  49  63
BRANCH  50  74
ATOM     74  C   UNL     1       2.271  14.354  -2.637  1.00  0.00     0.023 A 
ATOM     75  C   UNL     1       3.454  15.017  -3.004  1.00  0.00     0.031 A 
ATOM     76  C   UNL     1       1.940  13.172  -3.322  1.00  0.00     0.131 A 
ATOM     77  C   UNL     1       4.235  14.522  -4.059  1.00  0.00     0.055 A 
ATOM     78  C   UNL     1       2.751  12.652  -4.332  1.00  0.00     0.041 A 
ATOM     79  F   UNL     1       0.823  12.495  -3.008  1.00  0.00    -0.206 F 
ATOM     80  C   UNL     1       3.899  13.336  -4.716  1.00  0.00     0.022 A 
BRANCH  77  81
ATOM     81  S   UNL     1       5.652  15.503  -4.623  1.00  0.00     0.124 S 
ATOM     82  O   UNL     1       5.017  16.769  -4.972  1.00  0.00    -0.237 OA
ATOM     83  O   UNL     1       6.502  15.517  -3.437  1.00  0.00    -0.237 OA
ATOM     84  O   UNL     1       6.172  14.732  -5.750  1.00  0.00    -0.744 OA
ENDBRANCH  77  81
ENDBRANCH  50  74
BRANCH  62  85
ATOM     85  C   UNL     1      -1.369  20.279  -2.119  1.00  0.00     0.023 A 
ATOM     86  C   UNL     1      -1.919  20.201  -3.411  1.00  0.00     0.031 A 
ATOM     87  C   UNL     1      -0.877  21.523  -1.686  1.00  0.00     0.131 A 
ATOM     88  C   UNL     1      -1.903  21.327  -4.247  1.00  0.00     0.055 A 
ATOM     89  C   UNL     1      -0.927  22.657  -2.497  1.00  0.00     0.041 A 
ATOM     90  F   UNL     1      -0.338  21.657  -0.463  1.00  0.00    -0.206 F 
ATOM     91  C   UNL     1      -1.427  22.559  -3.792  1.00  0.00     0.022 A 
BRANCH  88  92
ATOM     92  S   UNL     1      -2.408  21.132  -5.979  1.00  0.00     0.124 S 
ATOM     93  O   UNL     1      -1.493  20.097  -6.447  1.00  0.00    -0.237 OA
ATOM     94  O   UNL     1      -3.807  20.737  -5.852  1.00  0.00    -0.237 OA
ATOM     95  O   UNL     1      -2.189  22.459  -6.551  1.00  0.00    -0.744 OA
ENDBRANCH  88  92
ENDBRANCH  62  85
ENDBRANCH  36  37
ENDBRANCH  28  31
ENDBRANCH  26  27
ENDBRANCH  25  26
ENDBRANCH   1  25
TORSDOF 18
