REMARK SMILES C[C@H]1CC=C(C2=NN=C(C(=O)NCCCNC(=O)c3ccc(-c4c5nc(c(-c6cc(S(=O)(=O)[O-])ccc6F)c6ccc([nH]6)c(-c6cc(S(=O)(=O)[O-])ccc6F)c6nc(c(-c7cc(S(=O)(=O)[O-])ccc7F)c7ccc4[nH]7)C=C6)C=C5)cc3)C2)O1
REMARK SMILES IDX 15 1 14 2 13 3 12 4 10 5 11 6 9 8 6 9 7 10 82 11 8 12 5 13
REMARK SMILES IDX 1 14 2 15 3 16 83 17 4 18 16 19 17 20 18 22 19 23 20 24
REMARK SMILES IDX 81 25 21 26 80 27 22 28 23 29 24 30 74 31 25 32 79 33 73 34
REMARK SMILES IDX 75 35 26 36 78 37 72 38 71 39 27 41 59 42 39 43 58 44 40 45
REMARK SMILES IDX 43 46 57 47 76 48 41 49 42 50 56 52 77 53 44 54 28 55 29 56
REMARK SMILES IDX 37 57 30 58 36 59 38 60 35 61 31 62 32 63 33 64 34 65 60 66
REMARK SMILES IDX 61 67 69 68 62 69 68 70 70 71 67 72 63 73 64 74 65 75 66 76
REMARK SMILES IDX 45 77 46 78 54 79 47 80 53 81 55 82 52 83 48 84 49 85 50 86
REMARK SMILES IDX 51 87
REMARK H PARENT 12 7 16 21 75 40 43 51
REMARK Flexibility Score: inf
ROOT
ATOM      1  C   UNL     1      -1.732   7.910   7.262  1.00  0.00     0.118 C 
ENDROOT
BRANCH   1   2
ATOM      2  C   UNL     1      -1.285   7.609   5.836  1.00  0.00     0.042 C 
BRANCH   2   3
ATOM      3  C   UNL     1       0.139   7.049   5.786  1.00  0.00     0.118 C 
BRANCH   3   4
ATOM      4  N   UNL     1       0.215   5.662   6.223  1.00  0.00    -0.351 N 
ATOM      5  C   UNL     1       0.270   4.503   5.489  1.00  0.00     0.267 C 
ATOM      6  O   UNL     1       0.374   3.413   6.043  1.00  0.00    -0.268 OA
ATOM      7  H   UNL     1       0.230   5.535   7.200  1.00  0.00     0.163 HD
BRANCH   5   8
ATOM      8  C   UNL     1       0.252   4.511   3.988  1.00  0.00     0.134 C 
ATOM      9  C   UNL     1       0.454   3.844   1.870  1.00  0.00     0.111 C 
ATOM     10  N   UNL     1       0.242   5.126   1.874  1.00  0.00    -0.151 NA
ATOM     11  C   UNL     1       0.458   3.242   3.235  1.00  0.00     0.126 C 
ATOM     12  N   UNL     1       0.091   5.548   3.224  1.00  0.00    -0.149 NA
BRANCH   9  13
ATOM     13  C   UNL     1       0.720   3.032   0.675  1.00  0.00     0.139 C 
ATOM     14  C   UNL     1      -0.197   0.628  -1.621  1.00  0.00     0.053 C 
ATOM     15  C   UNL     1       0.813   1.269  -0.683  1.00  0.00     0.174 C 
ATOM     16  C   UNL     1       1.571   2.424  -1.350  1.00  0.00     0.076 C 
ATOM     17  O   UNL     1       0.143   1.782   0.494  1.00  0.00    -0.489 OA
ATOM     18  C   UNL     1       1.548   3.441  -0.281  1.00  0.00     0.025 C 
ENDBRANCH   9  13
ENDBRANCH   5   8
ENDBRANCH   3   4
ENDBRANCH   2   3
ENDBRANCH   1   2
BRANCH   1  19
ATOM     19  N   UNL     1      -0.997   9.027   7.865  1.00  0.00    -0.352 N 
ATOM     20  C   UNL     1      -1.133   9.570   9.133  1.00  0.00     0.251 C 
ATOM     21  H   UNL     1      -0.316   9.448   7.292  1.00  0.00     0.163 HD
ATOM     22  O   UNL     1      -0.697  10.681   9.380  1.00  0.00    -0.269 OA
BRANCH  20  23
ATOM     23  C   UNL     1      -1.824   8.778  10.170  1.00  0.00     0.039 A 
ATOM     24  C   UNL     1      -2.720   9.370  11.066  1.00  0.00     0.014 A 
ATOM     25  C   UNL     1      -1.589   7.409  10.205  1.00  0.00     0.014 A 
ATOM     26  C   UNL     1      -3.448   8.550  11.929  1.00  0.00     0.010 A 
ATOM     27  C   UNL     1      -2.421   6.596  10.928  1.00  0.00     0.010 A 
ATOM     28  C   UNL     1      -3.312   7.157  11.836  1.00  0.00    -0.014 A 
BRANCH  28  29
ATOM     29  C   UNL     1      -4.185   6.253  12.584  1.00  0.00     0.031 A 
ATOM     30  C   UNL     1      -5.641   6.477  12.369  1.00  0.00     0.074 A 
ATOM     31  C   UNL     1      -3.722   5.140  13.199  1.00  0.00     0.049 A 
ATOM     32  N   UNL     1      -6.517   6.861  13.236  1.00  0.00    -0.248 NA
ATOM     33  C   UNL     1      -6.167   6.414  10.994  1.00  0.00     0.031 C 
ATOM     34  C   UNL     1      -2.347   4.627  13.220  1.00  0.00     0.029 A 
ATOM     35  N   UNL     1      -4.413   4.141  13.811  1.00  0.00    -0.354 N 
ATOM     36  C   UNL     1      -7.746   6.840  12.581  1.00  0.00     0.074 A 
ATOM     37  C   UNL     1      -7.438   6.780  11.178  1.00  0.00     0.031 C 
ATOM     38  C   UNL     1      -2.358   3.318  13.553  1.00  0.00     0.029 A 
ATOM     39  C   UNL     1      -3.709   2.944  13.931  1.00  0.00     0.049 A 
ATOM     40  H   UNL     1      -5.334   4.253  14.142  1.00  0.00     0.167 HD
ATOM     41  C   UNL     1      -8.905   6.618  13.265  1.00  0.00     0.034 A 
ATOM     42  C   UNL     1      -4.204   1.719  14.262  1.00  0.00     0.034 A 
ATOM     43  C   UNL     1      -8.699   6.778  14.690  1.00  0.00     0.049 A 
ATOM     44  C   UNL     1      -5.485   1.964  14.976  1.00  0.00     0.074 A 
ATOM     45  C   UNL     1      -8.206   7.800  15.481  1.00  0.00     0.029 A 
ATOM     46  N   UNL     1      -8.622   5.644  15.470  1.00  0.00    -0.354 N 
ATOM     47  N   UNL     1      -5.554   2.583  16.124  1.00  0.00    -0.248 NA
ATOM     48  C   UNL     1      -6.708   1.998  14.185  1.00  0.00     0.031 C 
ATOM     49  C   UNL     1      -7.372   7.144  16.435  1.00  0.00     0.029 A 
ATOM     50  C   UNL     1      -7.494   5.765  16.246  1.00  0.00     0.049 A 
ATOM     51  H   UNL     1      -9.256   4.890  15.472  1.00  0.00     0.167 HD
ATOM     52  C   UNL     1      -6.631   3.449  16.001  1.00  0.00     0.074 A 
ATOM     53  C   UNL     1      -7.362   2.974  14.825  1.00  0.00     0.031 C 
ATOM     54  C   UNL     1      -6.673   4.644  16.668  1.00  0.00     0.034 A 
BRANCH  41  55
ATOM     55  C   UNL     1     -10.123   5.902  12.716  1.00  0.00     0.023 A 
ATOM     56  C   UNL     1     -11.222   5.754  13.585  1.00  0.00     0.031 A 
ATOM     57  C   UNL     1     -10.165   5.118  11.541  1.00  0.00     0.131 A 
ATOM     58  C   UNL     1     -12.212   4.787  13.344  1.00  0.00     0.055 A 
ATOM     59  C   UNL     1     -11.193   4.210  11.268  1.00  0.00     0.041 A 
ATOM     60  F   UNL     1      -9.180   5.109  10.636  1.00  0.00    -0.206 F 
ATOM     61  C   UNL     1     -12.206   4.011  12.190  1.00  0.00     0.022 A 
BRANCH  58  62
ATOM     62  S   UNL     1     -13.393   4.424  14.669  1.00  0.00     0.124 S 
ATOM     63  O   UNL     1     -12.498   4.143  15.787  1.00  0.00    -0.237 OA
ATOM     64  O   UNL     1     -14.148   5.670  14.745  1.00  0.00    -0.237 OA
ATOM     65  O   UNL     1     -14.134   3.275  14.157  1.00  0.00    -0.744 OA
ENDBRANCH  58  62
ENDBRANCH  41  55
BRANCH  42  66
ATOM     66  C   UNL     1      -3.781   0.399  13.702  1.00  0.00     0.023 A 
ATOM     67  C   UNL     1      -4.080  -0.840  14.313  1.00  0.00     0.031 A 
ATOM     68  C   UNL     1      -3.241   0.335  12.395  1.00  0.00     0.131 A 
ATOM     69  C   UNL     1      -3.829  -2.058  13.627  1.00  0.00     0.055 A 
ATOM     70  C   UNL     1      -2.987  -0.866  11.728  1.00  0.00     0.041 A 
ATOM     71  F   UNL     1      -3.015   1.448  11.679  1.00  0.00    -0.206 F 
ATOM     72  C   UNL     1      -3.287  -2.070  12.340  1.00  0.00     0.022 A 
BRANCH  69  73
ATOM     73  S   UNL     1      -4.288  -3.662  14.366  1.00  0.00     0.124 S 
ATOM     74  O   UNL     1      -3.343  -3.780  15.470  1.00  0.00    -0.237 OA
ATOM     75  O   UNL     1      -5.686  -3.454  14.726  1.00  0.00    -0.237 OA
ATOM     76  O   UNL     1      -4.076  -4.615  13.275  1.00  0.00    -0.744 OA
ENDBRANCH  69  73
ENDBRANCH  42  66
BRANCH  54  77
ATOM     77  C   UNL     1      -5.665   4.916  17.772  1.00  0.00     0.023 A 
ATOM     78  C   UNL     1      -4.260   4.838  17.632  1.00  0.00     0.031 A 
ATOM     79  C   UNL     1      -6.166   5.416  18.989  1.00  0.00     0.131 A 
ATOM     80  C   UNL     1      -3.420   5.243  18.690  1.00  0.00     0.055 A 
ATOM     81  C   UNL     1      -5.332   5.840  20.023  1.00  0.00     0.041 A 
ATOM     82  F   UNL     1      -7.490   5.541  19.181  1.00  0.00    -0.206 F 
ATOM     83  C   UNL     1      -3.954   5.748  19.880  1.00  0.00     0.022 A 
BRANCH  80  84
ATOM     84  S   UNL     1      -1.607   5.097  18.557  1.00  0.00     0.124 S 
ATOM     85  O   UNL     1      -1.410   3.768  17.991  1.00  0.00    -0.237 OA
ATOM     86  O   UNL     1      -1.262   6.221  17.690  1.00  0.00    -0.237 OA
ATOM     87  O   UNL     1      -1.154   5.240  19.943  1.00  0.00    -0.744 OA
ENDBRANCH  80  84
ENDBRANCH  54  77
ENDBRANCH  28  29
ENDBRANCH  20  23
ENDBRANCH   1  19
TORSDOF 14
