REMARK SMILES C[C@H]1N=N[C@H](S/C(=C/c2ccc(-c3cccc(Cl)c3)o2)C(=O)NCCCNC(=O)c2ccc(-c3c4nc(c(-c5cc(S(=O)(=O)[O-])ccc5F)c5ccc([nH]5)c(-c5cc(S(=O)(=O)[O-])ccc5F)c5nc(c(-c6cc(S(=O)(=O)[O-])ccc6F)c6ccc3[nH]6)C=C5)C=C4)cc2)[NH2+]1
REMARK SMILES IDX 25 1 24 2 23 3 21 4 22 5 7 7 8 8 6 9 5 10 1 11 2 12 3 13
REMARK SMILES IDX 93 14 4 15 9 18 10 19 20 20 11 21 12 22 13 23 14 24 19 25
REMARK SMILES IDX 15 26 17 27 16 28 18 29 26 30 27 31 28 32 29 34 30 35 31 36
REMARK SMILES IDX 92 37 32 38 91 39 33 40 34 41 35 42 85 43 36 44 90 45 84 46
REMARK SMILES IDX 86 47 37 48 89 49 83 50 82 51 38 53 70 54 50 55 69 56 51 57
REMARK SMILES IDX 54 58 68 59 87 60 52 61 53 62 67 64 88 65 55 66 39 67 40 68
REMARK SMILES IDX 48 69 41 70 47 71 49 72 46 73 42 74 43 75 44 76 45 77 71 78
REMARK SMILES IDX 72 79 80 80 73 81 79 82 81 83 78 84 74 85 75 86 76 87 77 88
REMARK SMILES IDX 56 89 57 90 65 91 58 92 64 93 66 94 63 95 59 96 60 97 61 98
REMARK SMILES IDX 62 99
REMARK H PARENT 23 6 93 16 93 17 27 33 86 52 54 63
REMARK Flexibility Score: inf
ROOT
ATOM      1  C   UNL     1       4.967  -1.299   6.119  1.00  0.00     0.042 C 
ENDROOT
BRANCH   1   2
ATOM      2  C   UNL     1       4.286  -2.239   5.149  1.00  0.00     0.118 C 
BRANCH   2   3
ATOM      3  N   UNL     1       3.213  -3.053   5.652  1.00  0.00    -0.352 N 
ATOM      4  C   UNL     1       2.281  -3.741   4.927  1.00  0.00     0.258 C 
ATOM      5  O   UNL     1       1.611  -4.584   5.534  1.00  0.00    -0.269 OA
ATOM      6  H   UNL     1       3.141  -3.123   6.632  1.00  0.00     0.163 HD
BRANCH   4   7
ATOM      7  C   UNL     1       1.978  -3.448   3.463  1.00  0.00     0.084 C 
ATOM      8  C   UNL     1       2.835  -3.498   2.425  1.00  0.00     0.068 C 
BRANCH   7   9
ATOM      9  S   UNL     1       0.254  -3.096   3.290  1.00  0.00    -0.030 SA
BRANCH   9  10
ATOM     10  C   UNL     1      -0.170  -2.724   1.561  1.00  0.00     0.393 C 
ATOM     11  C   UNL     1       0.638   0.295  -0.143  1.00  0.00     0.106 C 
ATOM     12  C   UNL     1       0.259  -0.604   1.021  1.00  0.00     0.324 C 
ATOM     13  N   UNL     1      -1.199  -0.781   1.090  1.00  0.00    -0.126 NA
ATOM     14  N   UNL     1       0.829  -1.934   0.849  1.00  0.00    -0.293 N 
ATOM     15  N   UNL     1      -1.447  -1.979   1.397  1.00  0.00    -0.115 NA
ATOM     16  H   UNL     1       1.750  -2.010   1.278  1.00  0.00     0.350 HD
ATOM     17  H   UNL     1       0.990  -2.212  -0.119  1.00  0.00     0.350 HD
ENDBRANCH   9  10
ENDBRANCH   7   9
BRANCH   8  18
ATOM     18  C   UNL     1       4.250  -3.575   2.477  1.00  0.00     0.128 A 
ATOM     19  C   UNL     1       5.116  -4.633   2.707  1.00  0.00     0.051 A 
ATOM     20  O   UNL     1       5.027  -2.451   2.256  1.00  0.00    -0.457 OA
ATOM     21  C   UNL     1       6.442  -4.117   2.693  1.00  0.00     0.051 A 
ATOM     22  C   UNL     1       6.340  -2.762   2.455  1.00  0.00     0.134 A 
BRANCH  22  23
ATOM     23  C   UNL     1       7.290  -1.648   2.436  1.00  0.00     0.019 A 
ATOM     24  C   UNL     1       8.657  -1.885   2.227  1.00  0.00     0.012 A 
ATOM     25  C   UNL     1       6.879  -0.327   2.683  1.00  0.00     0.032 A 
ATOM     26  C   UNL     1       9.586  -0.839   2.253  1.00  0.00     0.002 A 
ATOM     27  C   UNL     1       7.812   0.713   2.725  1.00  0.00     0.041 A 
ATOM     28  C   UNL     1       9.164   0.464   2.505  1.00  0.00     0.020 A 
ATOM     29  Cl  UNL     1       7.289   2.317   3.064  1.00  0.00    -0.084 Cl
ENDBRANCH  22  23
ENDBRANCH   8  18
ENDBRANCH   4   7
ENDBRANCH   2   3
ENDBRANCH   1   2
BRANCH   1  30
ATOM     30  C   UNL     1       5.840  -1.979   7.168  1.00  0.00     0.118 C 
BRANCH  30  31
ATOM     31  N   UNL     1       6.899  -2.841   6.639  1.00  0.00    -0.352 N 
ATOM     32  C   UNL     1       8.264  -2.704   6.484  1.00  0.00     0.251 C 
ATOM     33  H   UNL     1       6.562  -3.711   6.325  1.00  0.00     0.163 HD
ATOM     34  O   UNL     1       8.874  -3.603   5.919  1.00  0.00    -0.269 OA
BRANCH  32  35
ATOM     35  C   UNL     1       8.995  -1.489   6.931  1.00  0.00     0.039 A 
ATOM     36  C   UNL     1      10.136  -1.081   6.228  1.00  0.00     0.014 A 
ATOM     37  C   UNL     1       8.592  -0.746   8.033  1.00  0.00     0.014 A 
ATOM     38  C   UNL     1      10.776   0.123   6.557  1.00  0.00     0.010 A 
ATOM     39  C   UNL     1       9.123   0.519   8.257  1.00  0.00     0.010 A 
ATOM     40  C   UNL     1      10.228   0.975   7.527  1.00  0.00    -0.014 A 
BRANCH  40  41
ATOM     41  C   UNL     1      10.775   2.333   7.816  1.00  0.00     0.031 A 
ATOM     42  C   UNL     1      11.139   2.714   9.232  1.00  0.00     0.074 A 
ATOM     43  C   UNL     1      10.825   3.262   6.837  1.00  0.00     0.049 A 
ATOM     44  N   UNL     1      11.449   3.888   9.723  1.00  0.00    -0.248 NA
ATOM     45  C   UNL     1      11.096   1.643  10.242  1.00  0.00     0.031 C 
ATOM     46  C   UNL     1      10.440   3.042   5.441  1.00  0.00     0.029 A 
ATOM     47  N   UNL     1      11.194   4.586   6.866  1.00  0.00    -0.354 N 
ATOM     48  C   UNL     1      11.589   3.702  11.095  1.00  0.00     0.074 A 
ATOM     49  C   UNL     1      11.269   2.319  11.367  1.00  0.00     0.031 C 
ATOM     50  C   UNL     1      10.611   4.178   4.747  1.00  0.00     0.029 A 
ATOM     51  C   UNL     1      11.059   5.228   5.654  1.00  0.00     0.049 A 
ATOM     52  H   UNL     1      11.524   5.034   7.678  1.00  0.00     0.167 HD
ATOM     53  C   UNL     1      11.976   4.596  12.039  1.00  0.00     0.034 A 
ATOM     54  C   UNL     1      11.247   6.519   5.315  1.00  0.00     0.034 A 
ATOM     55  C   UNL     1      12.352   5.955  11.741  1.00  0.00     0.049 A 
ATOM     56  C   UNL     1      11.694   7.489   6.381  1.00  0.00     0.074 A 
ATOM     57  C   UNL     1      12.870   6.910  12.598  1.00  0.00     0.029 A 
ATOM     58  N   UNL     1      12.247   6.554  10.493  1.00  0.00    -0.354 N 
ATOM     59  N   UNL     1      11.904   7.272   7.660  1.00  0.00    -0.248 NA
ATOM     60  C   UNL     1      11.943   8.873   5.958  1.00  0.00     0.031 C 
ATOM     61  C   UNL     1      13.010   8.106  11.887  1.00  0.00     0.029 A 
ATOM     62  C   UNL     1      12.659   7.876  10.566  1.00  0.00     0.049 A 
ATOM     63  H   UNL     1      11.928   6.107   9.677  1.00  0.00     0.167 HD
ATOM     64  C   UNL     1      12.351   8.483   8.180  1.00  0.00     0.074 A 
ATOM     65  C   UNL     1      12.393   9.419   7.077  1.00  0.00     0.031 C 
ATOM     66  C   UNL     1      12.701   8.795   9.454  1.00  0.00     0.034 A 
BRANCH  53  67
ATOM     67  C   UNL     1      12.005   4.138  13.478  1.00  0.00     0.023 A 
ATOM     68  C   UNL     1      12.859   3.111  13.917  1.00  0.00     0.031 A 
ATOM     69  C   UNL     1      11.165   4.745  14.430  1.00  0.00     0.131 A 
ATOM     70  C   UNL     1      12.806   2.676  15.250  1.00  0.00     0.055 A 
ATOM     71  C   UNL     1      11.176   4.363  15.773  1.00  0.00     0.041 A 
ATOM     72  F   UNL     1      10.313   5.717  14.069  1.00  0.00    -0.206 F 
ATOM     73  C   UNL     1      11.991   3.314  16.188  1.00  0.00     0.022 A 
BRANCH  70  74
ATOM     74  S   UNL     1      13.726   1.183  15.712  1.00  0.00     0.124 S 
ATOM     75  O   UNL     1      13.116   0.181  14.841  1.00  0.00    -0.237 OA
ATOM     76  O   UNL     1      15.102   1.550  15.397  1.00  0.00    -0.237 OA
ATOM     77  O   UNL     1      13.432   1.025  17.134  1.00  0.00    -0.744 OA
ENDBRANCH  70  74
ENDBRANCH  53  67
BRANCH  54  78
ATOM     78  C   UNL     1      11.003   6.989   3.918  1.00  0.00     0.023 A 
ATOM     79  C   UNL     1      12.044   7.530   3.146  1.00  0.00     0.031 A 
ATOM     80  C   UNL     1       9.713   6.971   3.357  1.00  0.00     0.131 A 
ATOM     81  C   UNL     1      11.769   8.090   1.888  1.00  0.00     0.055 A 
ATOM     82  C   UNL     1       9.456   7.470   2.078  1.00  0.00     0.041 A 
ATOM     83  F   UNL     1       8.679   6.465   4.048  1.00  0.00    -0.206 F 
ATOM     84  C   UNL     1      10.484   8.052   1.343  1.00  0.00     0.022 A 
BRANCH  81  85
ATOM     85  S   UNL     1      13.095   8.980   1.027  1.00  0.00     0.124 S 
ATOM     86  O   UNL     1      13.500   9.955   2.033  1.00  0.00    -0.237 OA
ATOM     87  O   UNL     1      14.047   7.909   0.752  1.00  0.00    -0.237 OA
ATOM     88  O   UNL     1      12.426   9.534  -0.147  1.00  0.00    -0.744 OA
ENDBRANCH  81  85
ENDBRANCH  54  78
BRANCH  66  89
ATOM     89  C   UNL     1      13.225  10.187   9.702  1.00  0.00     0.023 A 
ATOM     90  C   UNL     1      12.410  11.324   9.561  1.00  0.00     0.031 A 
ATOM     91  C   UNL     1      14.567  10.377  10.077  1.00  0.00     0.131 A 
ATOM     92  C   UNL     1      12.960  12.602   9.734  1.00  0.00     0.055 A 
ATOM     93  C   UNL     1      15.091  11.647  10.314  1.00  0.00     0.041 A 
ATOM     94  F   UNL     1      15.391   9.327  10.223  1.00  0.00    -0.206 F 
ATOM     95  C   UNL     1      14.290  12.770  10.129  1.00  0.00     0.022 A 
BRANCH  92  96
ATOM     96  S   UNL     1      11.941  14.049   9.340  1.00  0.00     0.124 S 
ATOM     97  O   UNL     1      11.608  13.812   7.939  1.00  0.00    -0.237 OA
ATOM     98  O   UNL     1      10.838  13.921  10.287  1.00  0.00    -0.237 OA
ATOM     99  O   UNL     1      12.838  15.177   9.583  1.00  0.00    -0.744 OA
ENDBRANCH  92  96
ENDBRANCH  66  89
ENDBRANCH  40  41
ENDBRANCH  32  35
ENDBRANCH  30  31
ENDBRANCH   1  30
TORSDOF 17
