REMARK SMILES O=C(NCCCNC(=O)c1cn(C2CN(C(=O)Nc3ccsc3)C2)nn1)c1ccc(-c2c3nc(c(-c4cc(S(=O)(=O)[O-])ccc4F)c4ccc([nH]4)c(-c4cc(S(=O)(=O)[O-])ccc4F)c4nc(c(-c5cc(S(=O)(=O)[O-])ccc5F)c5ccc2[nH]5)C=C4)C=C3)cc1
REMARK SMILES IDX 4 1 3 2 1 3 2 4 27 6 28 7 89 8 29 9 88 10 30 11 31 12 32 13
REMARK SMILES IDX 82 14 33 15 87 16 81 17 83 18 34 19 86 20 80 21 79 22 35 24
REMARK SMILES IDX 67 25 47 26 66 27 48 28 51 29 65 30 84 31 49 32 50 33 64 35
REMARK SMILES IDX 85 36 52 37 36 38 37 39 45 40 38 41 44 42 46 43 43 44 39 45
REMARK SMILES IDX 40 46 41 47 42 48 68 49 69 50 77 51 70 52 76 53 78 54 75 55
REMARK SMILES IDX 71 56 72 57 73 58 74 59 53 60 54 61 62 62 55 63 61 64 63 65
REMARK SMILES IDX 60 66 56 67 57 68 58 69 59 70 5 71 6 72 7 73 8 74 9 76 10 77
REMARK SMILES IDX 11 78 26 79 12 80 25 81 13 82 14 83 24 84 15 85 16 86 17 87
REMARK SMILES IDX 18 88 19 90 20 91 23 92 21 93 22 94
REMARK H PARENT 3 5 83 23 51 34 7 75 18 89
REMARK Flexibility Score: inf
ROOT
ATOM      1  C   UNL     1       4.642  -0.598   0.897  1.00  0.00     0.118 C 
ENDROOT
BRANCH   1   2
ATOM      2  N   UNL     1       3.234  -0.816   0.637  1.00  0.00    -0.352 N 
ATOM      3  O   UNL     1       1.174  -0.666  -0.121  1.00  0.00    -0.269 OA
ATOM      4  C   UNL     1       2.211  -0.051   0.147  1.00  0.00     0.251 C 
ATOM      5  H   UNL     1       2.945  -1.729   0.868  1.00  0.00     0.163 HD
BRANCH   4   6
ATOM      6  C   UNL     1       2.229   1.431  -0.009  1.00  0.00     0.039 A 
ATOM      7  C   UNL     1       3.358   2.250  -0.009  1.00  0.00     0.014 A 
ATOM      8  C   UNL     1       0.965   2.037  -0.154  1.00  0.00     0.014 A 
ATOM      9  C   UNL     1       3.218   3.642  -0.073  1.00  0.00     0.010 A 
ATOM     10  C   UNL     1       0.821   3.420  -0.221  1.00  0.00     0.010 A 
ATOM     11  C   UNL     1       1.948   4.230  -0.154  1.00  0.00    -0.014 A 
BRANCH  11  12
ATOM     12  C   UNL     1       1.843   5.672  -0.404  1.00  0.00     0.031 A 
ATOM     13  C   UNL     1       2.345   6.078  -1.747  1.00  0.00     0.074 A 
ATOM     14  C   UNL     1       1.217   6.571   0.389  1.00  0.00     0.049 A 
ATOM     15  N   UNL     1       3.395   6.779  -2.018  1.00  0.00    -0.248 NA
ATOM     16  C   UNL     1       1.685   5.518  -2.938  1.00  0.00     0.031 C 
ATOM     17  C   UNL     1       0.435   6.312   1.598  1.00  0.00     0.029 A 
ATOM     18  N   UNL     1       1.079   7.924   0.225  1.00  0.00    -0.354 N 
ATOM     19  C   UNL     1       3.405   6.946  -3.401  1.00  0.00     0.074 A 
ATOM     20  C   UNL     1       2.450   6.002  -3.918  1.00  0.00     0.031 C 
ATOM     21  C   UNL     1      -0.262   7.426   1.932  1.00  0.00     0.029 A 
ATOM     22  C   UNL     1       0.115   8.516   1.043  1.00  0.00     0.049 A 
ATOM     23  H   UNL     1       1.617   8.438  -0.420  1.00  0.00     0.167 HD
ATOM     24  C   UNL     1       4.038   8.003  -3.982  1.00  0.00     0.034 A 
ATOM     25  C   UNL     1      -0.369   9.792   0.979  1.00  0.00     0.034 A 
ATOM     26  C   UNL     1       4.945   8.639  -3.055  1.00  0.00     0.049 A 
ATOM     27  C   UNL     1       0.651  10.607   0.276  1.00  0.00     0.074 A 
ATOM     28  C   UNL     1       6.042   8.220  -2.327  1.00  0.00     0.029 A 
ATOM     29  N   UNL     1       4.551   9.824  -2.476  1.00  0.00    -0.354 N 
ATOM     30  N   UNL     1       1.829  10.864   0.774  1.00  0.00    -0.248 NA
ATOM     31  C   UNL     1       0.550  10.734  -1.170  1.00  0.00     0.031 C 
ATOM     32  C   UNL     1       5.917   8.879  -1.069  1.00  0.00     0.029 A 
ATOM     33  C   UNL     1       4.808   9.724  -1.132  1.00  0.00     0.049 A 
ATOM     34  H   UNL     1       4.158  10.598  -2.940  1.00  0.00     0.167 HD
ATOM     35  C   UNL     1       2.701  10.734  -0.294  1.00  0.00     0.074 A 
ATOM     36  C   UNL     1       1.849  10.748  -1.482  1.00  0.00     0.031 C 
ATOM     37  C   UNL     1       3.997  10.348  -0.105  1.00  0.00     0.034 A 
BRANCH  24  38
ATOM     38  C   UNL     1       3.591   8.703  -5.250  1.00  0.00     0.023 A 
ATOM     39  C   UNL     1       4.375   9.787  -5.695  1.00  0.00     0.031 A 
ATOM     40  C   UNL     1       2.319   8.579  -5.850  1.00  0.00     0.131 A 
ATOM     41  C   UNL     1       3.851  10.743  -6.582  1.00  0.00     0.055 A 
ATOM     42  C   UNL     1       1.831   9.493  -6.790  1.00  0.00     0.041 A 
ATOM     43  F   UNL     1       1.441   7.634  -5.499  1.00  0.00    -0.206 F 
ATOM     44  C   UNL     1       2.582  10.604  -7.133  1.00  0.00     0.022 A 
BRANCH  41  45
ATOM     45  S   UNL     1       4.788  12.271  -6.846  1.00  0.00     0.124 S 
ATOM     46  O   UNL     1       4.925  12.768  -5.482  1.00  0.00    -0.237 OA
ATOM     47  O   UNL     1       6.006  11.772  -7.476  1.00  0.00    -0.237 OA
ATOM     48  O   UNL     1       3.915  13.057  -7.714  1.00  0.00    -0.744 OA
ENDBRANCH  41  45
ENDBRANCH  24  38
BRANCH  25  49
ATOM     49  C   UNL     1      -1.768  10.273   1.208  1.00  0.00     0.023 A 
ATOM     50  C   UNL     1      -2.107  11.632   1.423  1.00  0.00     0.031 A 
ATOM     51  C   UNL     1      -2.844   9.395   0.951  1.00  0.00     0.131 A 
ATOM     52  C   UNL     1      -3.462  12.052   1.374  1.00  0.00     0.055 A 
ATOM     53  C   UNL     1      -4.176   9.815   0.901  1.00  0.00     0.041 A 
ATOM     54  F   UNL     1      -2.629   8.106   0.645  1.00  0.00    -0.206 F 
ATOM     55  C   UNL     1      -4.490  11.148   1.103  1.00  0.00     0.022 A 
BRANCH  52  56
ATOM     56  S   UNL     1      -3.917  13.812   1.570  1.00  0.00     0.124 S 
ATOM     57  O   UNL     1      -3.616  14.058   2.975  1.00  0.00    -0.237 OA
ATOM     58  O   UNL     1      -3.058  14.473   0.595  1.00  0.00    -0.237 OA
ATOM     59  O   UNL     1      -5.344  13.836   1.238  1.00  0.00    -0.744 OA
ENDBRANCH  52  56
ENDBRANCH  25  49
BRANCH  37  60
ATOM     60  C   UNL     1       4.570  10.373   1.297  1.00  0.00     0.023 A 
ATOM     61  C   UNL     1       4.036   9.681   2.408  1.00  0.00     0.031 A 
ATOM     62  C   UNL     1       5.793  11.045   1.473  1.00  0.00     0.131 A 
ATOM     63  C   UNL     1       4.724   9.691   3.638  1.00  0.00     0.055 A 
ATOM     64  C   UNL     1       6.481  11.033   2.684  1.00  0.00     0.041 A 
ATOM     65  F   UNL     1       6.364  11.700   0.448  1.00  0.00    -0.206 F 
ATOM     66  C   UNL     1       5.945  10.360   3.775  1.00  0.00     0.022 A 
BRANCH  63  67
ATOM     67  S   UNL     1       4.038   8.841   5.097  1.00  0.00     0.124 S 
ATOM     68  O   UNL     1       2.648   9.281   5.125  1.00  0.00    -0.237 OA
ATOM     69  O   UNL     1       4.258   7.434   4.772  1.00  0.00    -0.237 OA
ATOM     70  O   UNL     1       4.859   9.345   6.199  1.00  0.00    -0.744 OA
ENDBRANCH  63  67
ENDBRANCH  37  60
ENDBRANCH  11  12
ENDBRANCH   4   6
ENDBRANCH   1   2
BRANCH   1  71
ATOM     71  C   UNL     1       4.958   0.067   2.232  1.00  0.00     0.042 C 
BRANCH  71  72
ATOM     72  C   UNL     1       4.402  -0.657   3.454  1.00  0.00     0.118 C 
BRANCH  72  73
ATOM     73  N   UNL     1       4.966  -1.987   3.638  1.00  0.00    -0.351 N 
ATOM     74  C   UNL     1       5.785  -2.478   4.631  1.00  0.00     0.273 C 
ATOM     75  H   UNL     1       4.724  -2.639   2.941  1.00  0.00     0.163 HD
ATOM     76  O   UNL     1       6.261  -3.601   4.486  1.00  0.00    -0.267 OA
BRANCH  74  77
ATOM     77  C   UNL     1       6.047  -1.667   5.808  1.00  0.00     0.170 A 
ATOM     78  C   UNL     1       5.168  -0.886   6.532  1.00  0.00     0.145 A 
ATOM     79  N   UNL     1       7.271  -1.636   6.431  1.00  0.00    -0.125 NA
ATOM     80  N   UNL     1       5.938  -0.329   7.510  1.00  0.00    -0.245 N 
ATOM     81  N   UNL     1       7.194  -0.805   7.462  1.00  0.00    -0.066 NA
BRANCH  80  82
ATOM     82  C   UNL     1       5.511   0.518   8.577  1.00  0.00     0.148 C 
ATOM     83  C   UNL     1       4.571   1.681   8.212  1.00  0.00     0.150 C 
ATOM     84  C   UNL     1       4.286  -0.075   9.313  1.00  0.00     0.150 C 
ATOM     85  N   UNL     1       3.838   1.293   9.423  1.00  0.00    -0.320 N 
ATOM     86  C   UNL     1       2.829   1.972  10.019  1.00  0.00     0.322 C 
ATOM     87  O   UNL     1       2.536   3.115   9.663  1.00  0.00    -0.248 OA
ATOM     88  N   UNL     1       2.019   1.376  10.931  1.00  0.00    -0.307 N 
ATOM     89  H   UNL     1       1.153   1.828  11.055  1.00  0.00     0.171 HD
BRANCH  88  90
ATOM     90  C   UNL     1       2.185   0.254  11.718  1.00  0.00     0.053 A 
ATOM     91  C   UNL     1       3.394  -0.271  12.257  1.00  0.00     0.038 A 
ATOM     92  C   UNL     1       1.098  -0.472  12.159  1.00  0.00     0.091 A 
ATOM     93  C   UNL     1       3.210  -1.482  12.887  1.00  0.00     0.067 A 
ATOM     94  S   UNL     1       1.557  -1.901  12.983  1.00  0.00    -0.150 S 
ENDBRANCH  88  90
ENDBRANCH  80  82
ENDBRANCH  74  77
ENDBRANCH  72  73
ENDBRANCH  71  72
ENDBRANCH   1  71
TORSDOF 15
