REMARK SMILES COC[C@@H](C)Nc1ccc([N+](=O)[O-])c(C(=O)NCCCNC(=O)c2ccc(-c3c4nc(c(-c5cc(S(=O)(=O)[O-])ccc5F)c5ccc([nH]5)c(-c5cc(S(=O)(=O)[O-])ccc5F)c5nc(c(-c6cc(S(=O)(=O)[O-])ccc6F)c6ccc3[nH]6)C=C5)C=C4)cc2)c1
REMARK SMILES IDX 18 1 17 2 15 3 16 4 14 6 7 7 8 8 87 9 9 10 10 11 6 12 4 14
REMARK SMILES IDX 5 15 3 16 2 17 1 18 11 19 12 20 13 21 19 22 20 23 21 24
REMARK SMILES IDX 22 25 23 27 24 28 25 29 86 30 26 31 85 32 27 33 28 34 29 35
REMARK SMILES IDX 79 36 30 37 84 38 78 39 80 40 31 41 83 42 77 43 76 44 32 46
REMARK SMILES IDX 64 47 44 48 63 49 45 50 48 51 62 52 81 53 46 54 47 55 61 57
REMARK SMILES IDX 82 58 49 59 33 60 34 61 42 62 35 63 41 64 43 65 40 66 36 67
REMARK SMILES IDX 37 68 38 69 39 70 65 71 66 72 74 73 67 74 73 75 75 76 72 77
REMARK SMILES IDX 68 78 69 79 70 80 71 81 50 82 51 83 59 84 52 85 58 86 60 87
REMARK SMILES IDX 57 88 53 89 54 90 55 91 56 92
REMARK H PARENT 17 5 6 13 21 26 80 45 48 56
REMARK Flexibility Score: inf
ROOT
ATOM      1  C   UNL     1      -2.365  -3.544   3.188  1.00  0.00     0.118 C 
ENDROOT
BRANCH   1   2
ATOM      2  N   UNL     1      -3.068  -3.598   4.467  1.00  0.00    -0.352 N 
ATOM      3  C   UNL     1      -2.915  -3.009   5.702  1.00  0.00     0.258 C 
ATOM      4  O   UNL     1      -3.649  -3.433   6.592  1.00  0.00    -0.269 OA
ATOM      5  H   UNL     1      -3.843  -4.204   4.439  1.00  0.00     0.163 HD
BRANCH   3   6
ATOM      6  C   UNL     1      -1.870  -1.995   6.032  1.00  0.00     0.119 A 
ATOM      7  C   UNL     1       0.100  -0.747   5.264  1.00  0.00     0.036 A 
ATOM      8  C   UNL     1       0.495  -0.580   6.594  1.00  0.00     0.033 A 
ATOM      9  C   UNL     1      -1.144  -1.343   5.035  1.00  0.00     0.046 A 
ATOM     10  C   UNL     1      -0.325  -1.004   7.641  1.00  0.00     0.088 A 
ATOM     11  C   UNL     1      -1.501  -1.713   7.349  1.00  0.00     0.282 A 
BRANCH   7  12
ATOM     12  N   UNL     1       0.906  -0.279   4.243  1.00  0.00    -0.380 N 
ATOM     13  H   UNL     1       1.728   0.201   4.497  1.00  0.00     0.160 HD
BRANCH  12  14
ATOM     14  C   UNL     1       0.633  -0.442   2.805  1.00  0.00     0.102 C 
ATOM     15  C   UNL     1       1.190  -1.788   2.330  1.00  0.00     0.033 C 
BRANCH  14  16
ATOM     16  C   UNL     1       1.246   0.753   2.040  1.00  0.00     0.184 C 
BRANCH  16  17
ATOM     17  O   UNL     1       0.611   1.031   0.790  1.00  0.00    -0.383 OA
ATOM     18  C   UNL     1       1.073   0.237  -0.292  1.00  0.00     0.194 C 
ENDBRANCH  16  17
ENDBRANCH  14  16
ENDBRANCH  12  14
ENDBRANCH   7  12
BRANCH  11  19
ATOM     19  N   UNL     1      -2.400  -1.962   8.462  1.00  0.00     0.063 N 
ATOM     20  O   UNL     1      -1.952  -2.625   9.408  1.00  0.00    -0.258 OA
ATOM     21  O   UNL     1      -3.479  -1.350   8.455  1.00  0.00    -0.258 OA
ENDBRANCH  11  19
ENDBRANCH   3   6
ENDBRANCH   1   2
BRANCH   1  22
ATOM     22  C   UNL     1      -1.777  -4.878   2.758  1.00  0.00     0.042 C 
BRANCH  22  23
ATOM     23  C   UNL     1      -2.814  -5.917   2.371  1.00  0.00     0.118 C 
BRANCH  23  24
ATOM     24  N   UNL     1      -3.608  -5.508   1.219  1.00  0.00    -0.352 N 
ATOM     25  C   UNL     1      -3.588  -5.941  -0.086  1.00  0.00     0.251 C 
ATOM     26  H   UNL     1      -4.269  -4.803   1.407  1.00  0.00     0.163 HD
ATOM     27  O   UNL     1      -4.169  -5.279  -0.941  1.00  0.00    -0.269 OA
BRANCH  25  28
ATOM     28  C   UNL     1      -2.855  -7.170  -0.465  1.00  0.00     0.039 A 
ATOM     29  C   UNL     1      -2.186  -7.214  -1.691  1.00  0.00     0.014 A 
ATOM     30  C   UNL     1      -2.844  -8.289   0.369  1.00  0.00     0.014 A 
ATOM     31  C   UNL     1      -1.441  -8.346  -2.036  1.00  0.00     0.010 A 
ATOM     32  C   UNL     1      -2.016  -9.368   0.077  1.00  0.00     0.010 A 
ATOM     33  C   UNL     1      -1.310  -9.413  -1.132  1.00  0.00    -0.014 A 
BRANCH  33  34
ATOM     34  C   UNL     1      -0.447 -10.587  -1.431  1.00  0.00     0.031 A 
ATOM     35  C   UNL     1      -1.047 -11.966  -1.498  1.00  0.00     0.074 A 
ATOM     36  C   UNL     1       0.883 -10.417  -1.567  1.00  0.00     0.049 A 
ATOM     37  N   UNL     1      -0.451 -13.121  -1.651  1.00  0.00    -0.248 NA
ATOM     38  C   UNL     1      -2.506 -12.062  -1.335  1.00  0.00     0.031 C 
ATOM     39  C   UNL     1       1.585  -9.134  -1.477  1.00  0.00     0.029 A 
ATOM     40  N   UNL     1       1.886 -11.324  -1.801  1.00  0.00    -0.354 N 
ATOM     41  C   UNL     1      -1.459 -14.079  -1.589  1.00  0.00     0.074 A 
ATOM     42  C   UNL     1      -2.691 -13.372  -1.313  1.00  0.00     0.031 C 
ATOM     43  C   UNL     1       2.896  -9.332  -1.687  1.00  0.00     0.029 A 
ATOM     44  C   UNL     1       3.140 -10.759  -1.869  1.00  0.00     0.049 A 
ATOM     45  H   UNL     1       1.724 -12.289  -1.911  1.00  0.00     0.167 HD
ATOM     46  C   UNL     1      -1.369 -15.420  -1.773  1.00  0.00     0.034 A 
ATOM     47  C   UNL     1       4.350 -11.327  -2.042  1.00  0.00     0.034 A 
ATOM     48  C   UNL     1      -0.132 -16.104  -2.060  1.00  0.00     0.049 A 
ATOM     49  C   UNL     1       4.429 -12.823  -2.213  1.00  0.00     0.074 A 
ATOM     50  C   UNL     1       0.069 -17.449  -2.319  1.00  0.00     0.029 A 
ATOM     51  N   UNL     1       1.118 -15.500  -2.117  1.00  0.00    -0.354 N 
ATOM     52  N   UNL     1       3.458 -13.709  -2.205  1.00  0.00    -0.248 NA
ATOM     53  C   UNL     1       5.764 -13.395  -2.425  1.00  0.00     0.031 C 
ATOM     54  C   UNL     1       1.443 -17.669  -2.456  1.00  0.00     0.029 A 
ATOM     55  C   UNL     1       2.096 -16.449  -2.371  1.00  0.00     0.049 A 
ATOM     56  H   UNL     1       1.285 -14.537  -1.995  1.00  0.00     0.167 HD
ATOM     57  C   UNL     1       4.066 -14.939  -2.442  1.00  0.00     0.074 A 
ATOM     58  C   UNL     1       5.481 -14.676  -2.607  1.00  0.00     0.031 C 
ATOM     59  C   UNL     1       3.506 -16.173  -2.520  1.00  0.00     0.034 A 
BRANCH  46  60
ATOM     60  C   UNL     1      -2.639 -16.228  -1.644  1.00  0.00     0.023 A 
ATOM     61  C   UNL     1      -3.736 -16.023  -2.501  1.00  0.00     0.031 A 
ATOM     62  C   UNL     1      -2.768 -17.201  -0.637  1.00  0.00     0.131 A 
ATOM     63  C   UNL     1      -4.935 -16.719  -2.285  1.00  0.00     0.055 A 
ATOM     64  C   UNL     1      -3.935 -17.953  -0.483  1.00  0.00     0.041 A 
ATOM     65  F   UNL     1      -1.766 -17.428   0.227  1.00  0.00    -0.206 F 
ATOM     66  C   UNL     1      -5.034 -17.703  -1.299  1.00  0.00     0.022 A 
BRANCH  63  67
ATOM     67  S   UNL     1      -6.409 -16.209  -3.212  1.00  0.00     0.124 S 
ATOM     68  O   UNL     1      -6.529 -14.805  -2.825  1.00  0.00    -0.237 OA
ATOM     69  O   UNL     1      -6.015 -16.460  -4.593  1.00  0.00    -0.237 OA
ATOM     70  O   UNL     1      -7.459 -17.082  -2.692  1.00  0.00    -0.744 OA
ENDBRANCH  63  67
ENDBRANCH  46  60
BRANCH  47  71
ATOM     71  C   UNL     1       5.585 -10.490  -2.055  1.00  0.00     0.023 A 
ATOM     72  C   UNL     1       6.390 -10.407  -3.202  1.00  0.00     0.031 A 
ATOM     73  C   UNL     1       6.003  -9.794  -0.906  1.00  0.00     0.131 A 
ATOM     74  C   UNL     1       7.595  -9.688  -3.161  1.00  0.00     0.055 A 
ATOM     75  C   UNL     1       7.172  -9.032  -0.888  1.00  0.00     0.041 A 
ATOM     76  F   UNL     1       5.269  -9.835   0.218  1.00  0.00    -0.206 F 
ATOM     77  C   UNL     1       7.984  -8.988  -2.017  1.00  0.00     0.022 A 
BRANCH  74  78
ATOM     78  S   UNL     1       8.696  -9.756  -4.601  1.00  0.00     0.124 S 
ATOM     79  O   UNL     1       8.929 -11.190  -4.727  1.00  0.00    -0.237 OA
ATOM     80  O   UNL     1       7.873  -9.145  -5.639  1.00  0.00    -0.237 OA
ATOM     81  O   UNL     1       9.853  -8.969  -4.181  1.00  0.00    -0.744 OA
ENDBRANCH  74  78
ENDBRANCH  47  71
BRANCH  59  82
ATOM     82  C   UNL     1       4.428 -17.325  -2.839  1.00  0.00     0.023 A 
ATOM     83  C   UNL     1       5.440 -17.733  -1.952  1.00  0.00     0.031 A 
ATOM     84  C   UNL     1       4.300 -18.017  -4.057  1.00  0.00     0.131 A 
ATOM     85  C   UNL     1       6.321 -18.760  -2.321  1.00  0.00     0.055 A 
ATOM     86  C   UNL     1       5.135 -19.084  -4.389  1.00  0.00     0.041 A 
ATOM     87  F   UNL     1       3.354 -17.669  -4.945  1.00  0.00    -0.206 F 
ATOM     88  C   UNL     1       6.162 -19.452  -3.525  1.00  0.00     0.022 A 
BRANCH  85  89
ATOM     89  S   UNL     1       7.742 -19.113  -1.252  1.00  0.00     0.124 S 
ATOM     90  O   UNL     1       8.424 -17.823  -1.219  1.00  0.00    -0.237 OA
ATOM     91  O   UNL     1       7.102 -19.527  -0.008  1.00  0.00    -0.237 OA
ATOM     92  O   UNL     1       8.454 -20.172  -1.965  1.00  0.00    -0.744 OA
ENDBRANCH  85  89
ENDBRANCH  59  82
ENDBRANCH  33  34
ENDBRANCH  25  28
ENDBRANCH  23  24
ENDBRANCH  22  23
ENDBRANCH   1  22
TORSDOF 18
