REMARK SMILES Cc1c(NC(=O)c2ccc(Br)cc2N)cccc1C(=O)NCCCNC(=O)c1ccc(-c2c3nc(c(-c4cc(S(=O)(=O)[O-])ccc4F)c4ccc([nH]4)c(-c4cc(S(=O)(=O)[O-])ccc4F)c4nc(c(-c5cc(S(=O)(=O)[O-])ccc5F)c5ccc2[nH]5)C=C4)C=C3)cc1
REMARK SMILES IDX 23 1 22 2 21 3 19 4 20 5 18 7 1 8 2 9 3 10 15 11 17 12 16 13
REMARK SMILES IDX 4 14 5 15 6 17 7 18 8 19 13 20 9 21 12 22 10 23 11 24 14 25
REMARK SMILES IDX 24 28 25 29 26 30 27 32 28 33 29 34 90 35 30 36 89 37 31 38
REMARK SMILES IDX 32 39 33 40 83 41 34 42 88 43 82 44 84 45 35 46 87 47 81 48
REMARK SMILES IDX 80 49 36 51 68 52 48 53 67 54 49 55 52 56 66 57 85 58 50 59
REMARK SMILES IDX 51 60 65 62 86 63 53 64 37 65 38 66 46 67 39 68 45 69 47 70
REMARK SMILES IDX 44 71 40 72 41 73 42 74 43 75 69 76 70 77 78 78 71 79 77 80
REMARK SMILES IDX 79 81 76 82 72 83 73 84 74 85 75 86 54 87 55 88 63 89 56 90
REMARK SMILES IDX 62 91 64 92 61 93 57 94 58 95 59 96 60 97
REMARK H PARENT 21 6 4 16 14 26 14 27 25 31 84 50 52 61
REMARK Flexibility Score: inf
ROOT
ATOM      1  C   UNL     1       4.096   1.065  -1.192  1.00  0.00     0.042 C 
ENDROOT
BRANCH   1   2
ATOM      2  C   UNL     1       3.415   1.801  -0.030  1.00  0.00     0.118 C 
BRANCH   2   3
ATOM      3  N   UNL     1       2.185   2.459  -0.463  1.00  0.00    -0.352 N 
ATOM      4  C   UNL     1       0.845   2.184  -0.430  1.00  0.00     0.251 C 
ATOM      5  O   UNL     1       0.125   3.112  -0.827  1.00  0.00    -0.269 OA
ATOM      6  H   UNL     1       2.368   3.328  -0.890  1.00  0.00     0.163 HD
BRANCH   4   7
ATOM      7  C   UNL     1       0.143   0.920   0.011  1.00  0.00     0.044 A 
ATOM      8  C   UNL     1       1.944  -0.819  -0.492  1.00  0.00     0.047 C 
ATOM      9  C   UNL     1       0.607  -0.412   0.032  1.00  0.00    -0.015 A 
ATOM     10  C   UNL     1      -0.270  -1.474   0.383  1.00  0.00     0.045 A 
ATOM     11  C   UNL     1      -1.621  -1.248   0.613  1.00  0.00     0.026 A 
ATOM     12  C   UNL     1      -1.233   1.111   0.287  1.00  0.00     0.014 A 
ATOM     13  C   UNL     1      -2.105   0.051   0.559  1.00  0.00     0.003 A 
BRANCH  10  14
ATOM     14  N   UNL     1       0.277  -2.765   0.463  1.00  0.00    -0.322 N 
ATOM     15  C   UNL     1      -0.101  -3.943  -0.134  1.00  0.00     0.257 C 
ATOM     16  H   UNL     1       1.067  -2.839   1.046  1.00  0.00     0.170 HD
ATOM     17  O   UNL     1       0.519  -4.973   0.139  1.00  0.00    -0.269 OA
BRANCH  15  18
ATOM     18  C   UNL     1      -1.205  -4.027  -1.125  1.00  0.00     0.063 A 
ATOM     19  C   UNL     1      -2.035  -5.151  -0.969  1.00  0.00     0.017 A 
ATOM     20  C   UNL     1      -1.430  -3.128  -2.189  1.00  0.00     0.045 A 
ATOM     21  C   UNL     1      -3.117  -5.362  -1.819  1.00  0.00     0.016 A 
ATOM     22  C   UNL     1      -2.545  -3.341  -3.015  1.00  0.00     0.042 A 
ATOM     23  C   UNL     1      -3.380  -4.441  -2.825  1.00  0.00     0.020 A 
ATOM     24  Br  UNL     1      -4.855  -4.706  -3.976  1.00  0.00    -0.051 Br
BRANCH  20  25
ATOM     25  N   UNL     1      -0.530  -2.148  -2.596  1.00  0.00    -0.398 N 
ATOM     26  H   UNL     1       0.270  -1.958  -2.054  1.00  0.00     0.156 HD
ATOM     27  H   UNL     1      -0.693  -1.644  -3.426  1.00  0.00     0.156 HD
ENDBRANCH  20  25
ENDBRANCH  15  18
ENDBRANCH  10  14
ENDBRANCH   4   7
ENDBRANCH   2   3
ENDBRANCH   1   2
BRANCH   1  28
ATOM     28  C   UNL     1       5.458   1.577  -1.595  1.00  0.00     0.118 C 
BRANCH  28  29
ATOM     29  N   UNL     1       6.583   0.735  -1.180  1.00  0.00    -0.352 N 
ATOM     30  C   UNL     1       7.923   0.835  -1.539  1.00  0.00     0.251 C 
ATOM     31  H   UNL     1       6.360   0.000  -0.565  1.00  0.00     0.163 HD
ATOM     32  O   UNL     1       8.768   0.062  -1.109  1.00  0.00    -0.269 OA
BRANCH  30  33
ATOM     33  C   UNL     1       8.353   2.021  -2.329  1.00  0.00     0.039 A 
ATOM     34  C   UNL     1       9.169   2.912  -1.624  1.00  0.00     0.014 A 
ATOM     35  C   UNL     1       7.522   2.471  -3.343  1.00  0.00     0.014 A 
ATOM     36  C   UNL     1       8.829   4.255  -1.620  1.00  0.00     0.010 A 
ATOM     37  C   UNL     1       7.084   3.771  -3.239  1.00  0.00     0.010 A 
ATOM     38  C   UNL     1       7.678   4.628  -2.305  1.00  0.00    -0.014 A 
BRANCH  38  39
ATOM     39  C   UNL     1       7.061   5.932  -2.176  1.00  0.00     0.031 A 
ATOM     40  C   UNL     1       7.435   6.909  -3.204  1.00  0.00     0.074 A 
ATOM     41  C   UNL     1       6.187   6.215  -1.186  1.00  0.00     0.049 A 
ATOM     42  N   UNL     1       7.470   8.178  -3.028  1.00  0.00    -0.248 NA
ATOM     43  C   UNL     1       7.922   6.492  -4.516  1.00  0.00     0.031 C 
ATOM     44  C   UNL     1       5.361   7.409  -1.036  1.00  0.00     0.029 A 
ATOM     45  N   UNL     1       6.024   5.534   0.019  1.00  0.00    -0.354 N 
ATOM     46  C   UNL     1       7.688   8.752  -4.260  1.00  0.00     0.074 A 
ATOM     47  C   UNL     1       8.092   7.669  -5.114  1.00  0.00     0.031 C 
ATOM     48  C   UNL     1       4.978   7.516   0.249  1.00  0.00     0.029 A 
ATOM     49  C   UNL     1       5.664   6.481   1.002  1.00  0.00     0.049 A 
ATOM     50  H   UNL     1       6.139   4.566   0.159  1.00  0.00     0.167 HD
ATOM     51  C   UNL     1       7.339  10.055  -4.437  1.00  0.00     0.034 A 
ATOM     52  C   UNL     1       6.504   6.705   2.059  1.00  0.00     0.034 A 
ATOM     53  C   UNL     1       6.899  10.635  -3.160  1.00  0.00     0.049 A 
ATOM     54  C   UNL     1       7.208   8.055   1.979  1.00  0.00     0.074 A 
ATOM     55  C   UNL     1       5.657  10.856  -2.587  1.00  0.00     0.029 A 
ATOM     56  N   UNL     1       7.812  10.711  -2.118  1.00  0.00    -0.354 N 
ATOM     57  N   UNL     1       7.053   8.930   1.019  1.00  0.00    -0.248 NA
ATOM     58  C   UNL     1       8.211   8.477   2.952  1.00  0.00     0.031 C 
ATOM     59  C   UNL     1       5.840  11.009  -1.177  1.00  0.00     0.029 A 
ATOM     60  C   UNL     1       7.194  10.936  -0.900  1.00  0.00     0.049 A 
ATOM     61  H   UNL     1       8.786  10.616  -2.231  1.00  0.00     0.167 HD
ATOM     62  C   UNL     1       7.931   9.973   1.185  1.00  0.00     0.074 A 
ATOM     63  C   UNL     1       8.649   9.623   2.405  1.00  0.00     0.031 C 
ATOM     64  C   UNL     1       8.023  11.021   0.300  1.00  0.00     0.034 A 
BRANCH  51  65
ATOM     65  C   UNL     1       7.106  10.696  -5.790  1.00  0.00     0.023 A 
ATOM     66  C   UNL     1       6.272  11.829  -5.853  1.00  0.00     0.031 A 
ATOM     67  C   UNL     1       7.585  10.243  -7.039  1.00  0.00     0.131 A 
ATOM     68  C   UNL     1       5.883  12.392  -7.084  1.00  0.00     0.055 A 
ATOM     69  C   UNL     1       7.161  10.770  -8.267  1.00  0.00     0.041 A 
ATOM     70  F   UNL     1       8.534   9.309  -7.151  1.00  0.00    -0.206 F 
ATOM     71  C   UNL     1       6.297  11.848  -8.295  1.00  0.00     0.022 A 
BRANCH  68  72
ATOM     72  S   UNL     1       4.821  13.857  -7.077  1.00  0.00     0.124 S 
ATOM     73  O   UNL     1       3.615  13.357  -6.426  1.00  0.00    -0.237 OA
ATOM     74  O   UNL     1       5.620  14.812  -6.317  1.00  0.00    -0.237 OA
ATOM     75  O   UNL     1       4.671  14.172  -8.497  1.00  0.00    -0.744 OA
ENDBRANCH  68  72
ENDBRANCH  51  65
BRANCH  52  76
ATOM     76  C   UNL     1       7.122   5.422   2.534  1.00  0.00     0.023 A 
ATOM     77  C   UNL     1       6.247   4.434   3.049  1.00  0.00     0.031 A 
ATOM     78  C   UNL     1       8.342   4.999   1.990  1.00  0.00     0.131 A 
ATOM     79  C   UNL     1       6.495   3.077   2.785  1.00  0.00     0.055 A 
ATOM     80  C   UNL     1       8.592   3.644   1.760  1.00  0.00     0.041 A 
ATOM     81  F   UNL     1       9.227   5.888   1.516  1.00  0.00    -0.206 F 
ATOM     82  C   UNL     1       7.635   2.686   2.083  1.00  0.00     0.022 A 
BRANCH  79  83
ATOM     83  S   UNL     1       5.215   1.836   3.132  1.00  0.00     0.124 S 
ATOM     84  O   UNL     1       5.572   1.385   4.471  1.00  0.00    -0.237 OA
ATOM     85  O   UNL     1       3.977   2.603   3.026  1.00  0.00    -0.237 OA
ATOM     86  O   UNL     1       5.403   0.855   2.061  1.00  0.00    -0.744 OA
ENDBRANCH  79  83
ENDBRANCH  52  76
BRANCH  64  87
ATOM     87  C   UNL     1       8.954  12.214   0.465  1.00  0.00     0.023 A 
ATOM     88  C   UNL     1       9.471  12.595   1.709  1.00  0.00     0.031 A 
ATOM     89  C   UNL     1       9.326  13.056  -0.616  1.00  0.00     0.131 A 
ATOM     90  C   UNL     1      10.432  13.615   1.825  1.00  0.00     0.055 A 
ATOM     91  C   UNL     1      10.222  14.122  -0.489  1.00  0.00     0.041 A 
ATOM     92  F   UNL     1       8.848  12.892  -1.856  1.00  0.00    -0.206 F 
ATOM     93  C   UNL     1      10.810  14.387   0.733  1.00  0.00     0.022 A 
BRANCH  90  94
ATOM     94  S   UNL     1      11.218  13.854   3.435  1.00  0.00     0.124 S 
ATOM     95  O   UNL     1      10.077  14.017   4.324  1.00  0.00    -0.237 OA
ATOM     96  O   UNL     1      11.970  12.613   3.584  1.00  0.00    -0.237 OA
ATOM     97  O   UNL     1      12.035  15.056   3.241  1.00  0.00    -0.744 OA
ENDBRANCH  90  94
ENDBRANCH  64  87
ENDBRANCH  38  39
ENDBRANCH  30  33
ENDBRANCH  28  29
ENDBRANCH   1  28
TORSDOF 16
