REMARK SMILES COc1ccccc1N1C(=O)CC[C@H]1CC(=O)NCCCNC(=O)c1ccc(-c2c3nc(c(-c4cc(S(=O)(=O)[O-])ccc4F)c4ccc([nH]4)c(-c4cc(S(=O)(=O)[O-])ccc4F)c4nc(c(-c5cc(S(=O)(=O)[O-])ccc5F)c5ccc2[nH]5)C=C4)C=C3)cc1
REMARK SMILES IDX 20 1 19 2 18 3 16 4 17 5 15 7 14 8 9 9 10 10 11 11 12 12
REMARK SMILES IDX 13 13 8 14 3 15 4 16 5 17 7 18 6 19 2 20 1 21 21 22 22 23
REMARK SMILES IDX 23 24 24 26 25 27 26 28 87 29 27 30 86 31 28 32 29 33 30 34
REMARK SMILES IDX 80 35 31 36 85 37 79 38 81 39 32 40 84 41 78 42 77 43 33 45
REMARK SMILES IDX 65 46 45 47 64 48 46 49 49 50 63 51 82 52 47 53 48 54 62 56
REMARK SMILES IDX 83 57 50 58 34 59 35 60 43 61 36 62 42 63 44 64 41 65 37 66
REMARK SMILES IDX 38 67 39 68 40 69 66 70 67 71 75 72 68 73 74 74 76 75 73 76
REMARK SMILES IDX 69 77 70 78 71 79 72 80 51 81 52 82 60 83 53 84 59 85 61 86
REMARK SMILES IDX 58 87 54 88 55 89 56 90 57 91
REMARK H PARENT 18 6 22 25 81 44 49 55
REMARK Flexibility Score: inf
ROOT
ATOM      1  C   UNL     1       5.182  -3.592  -1.020  1.00  0.00     0.042 C 
ENDROOT
BRANCH   1   2
ATOM      2  C   UNL     1       6.094  -2.855  -1.992  1.00  0.00     0.117 C 
BRANCH   2   3
ATOM      3  N   UNL     1       5.497  -2.615  -3.289  1.00  0.00    -0.356 N 
ATOM      4  C   UNL     1       4.927  -1.528  -3.852  1.00  0.00     0.222 C 
ATOM      5  O   UNL     1       4.686  -1.614  -5.065  1.00  0.00    -0.275 OA
ATOM      6  H   UNL     1       5.509  -3.402  -3.880  1.00  0.00     0.163 HD
BRANCH   4   7
ATOM      7  C   UNL     1       4.617  -0.223  -3.145  1.00  0.00     0.125 C 
BRANCH   7   8
ATOM      8  C   UNL     1       3.815  -0.055  -1.841  1.00  0.00     0.100 C 
ATOM      9  N   UNL     1       2.939  -1.061  -1.272  1.00  0.00    -0.305 N 
ATOM     10  C   UNL     1       3.132  -1.194   0.115  1.00  0.00     0.227 C 
ATOM     11  O   UNL     1       2.609  -1.993   0.878  1.00  0.00    -0.275 OA
ATOM     12  C   UNL     1       4.167  -0.207   0.569  1.00  0.00     0.103 C 
ATOM     13  C   UNL     1       4.765   0.346  -0.703  1.00  0.00     0.036 C 
BRANCH   9  14
ATOM     14  C   UNL     1       1.764  -1.569  -1.915  1.00  0.00     0.086 A 
ATOM     15  C   UNL     1       0.490  -1.572  -1.307  1.00  0.00     0.142 A 
ATOM     16  C   UNL     1      -0.608  -2.193  -1.924  1.00  0.00     0.048 A 
ATOM     17  C   UNL     1      -0.475  -2.803  -3.167  1.00  0.00     0.004 A 
ATOM     18  C   UNL     1       1.857  -2.186  -3.168  1.00  0.00     0.030 A 
ATOM     19  C   UNL     1       0.762  -2.799  -3.789  1.00  0.00     0.002 A 
BRANCH  15  20
ATOM     20  O   UNL     1       0.213  -1.030  -0.079  1.00  0.00    -0.495 OA
ATOM     21  C   UNL     1       0.249   0.391  -0.079  1.00  0.00     0.278 C 
ENDBRANCH  15  20
ENDBRANCH   9  14
ENDBRANCH   7   8
ENDBRANCH   4   7
ENDBRANCH   2   3
ENDBRANCH   1   2
BRANCH   1  22
ATOM     22  C   UNL     1       4.720  -4.983  -1.431  1.00  0.00     0.118 C 
BRANCH  22  23
ATOM     23  N   UNL     1       5.794  -5.955  -1.402  1.00  0.00    -0.352 N 
ATOM     24  C   UNL     1       6.135  -6.903  -0.468  1.00  0.00     0.251 C 
ATOM     25  H   UNL     1       6.383  -5.933  -2.190  1.00  0.00     0.163 HD
ATOM     26  O   UNL     1       7.238  -7.438  -0.579  1.00  0.00    -0.269 OA
BRANCH  24  27
ATOM     27  C   UNL     1       5.246  -7.285   0.663  1.00  0.00     0.039 A 
ATOM     28  C   UNL     1       5.851  -7.657   1.871  1.00  0.00     0.014 A 
ATOM     29  C   UNL     1       3.857  -7.382   0.548  1.00  0.00     0.014 A 
ATOM     30  C   UNL     1       5.074  -8.079   2.956  1.00  0.00     0.010 A 
ATOM     31  C   UNL     1       3.075  -7.728   1.659  1.00  0.00     0.010 A 
ATOM     32  C   UNL     1       3.673  -8.092   2.874  1.00  0.00    -0.014 A 
BRANCH  32  33
ATOM     33  C   UNL     1       2.841  -8.489   4.049  1.00  0.00     0.031 A 
ATOM     34  C   UNL     1       1.958  -9.711   3.988  1.00  0.00     0.074 A 
ATOM     35  C   UNL     1       2.856  -7.731   5.165  1.00  0.00     0.049 A 
ATOM     36  N   UNL     1       1.141 -10.188   4.895  1.00  0.00    -0.248 NA
ATOM     37  C   UNL     1       1.980 -10.489   2.740  1.00  0.00     0.031 C 
ATOM     38  C   UNL     1       3.639  -6.505   5.340  1.00  0.00     0.029 A 
ATOM     39  N   UNL     1       2.189  -7.866   6.360  1.00  0.00    -0.354 N 
ATOM     40  C   UNL     1       0.537 -11.304   4.321  1.00  0.00     0.074 A 
ATOM     41  C   UNL     1       1.057 -11.411   2.974  1.00  0.00     0.031 C 
ATOM     42  C   UNL     1       3.422  -6.014   6.569  1.00  0.00     0.029 A 
ATOM     43  C   UNL     1       2.445  -6.852   7.257  1.00  0.00     0.049 A 
ATOM     44  H   UNL     1       1.585  -8.618   6.557  1.00  0.00     0.167 HD
ATOM     45  C   UNL     1      -0.357 -12.163   4.870  1.00  0.00     0.034 A 
ATOM     46  C   UNL     1       1.935  -6.606   8.482  1.00  0.00     0.034 A 
ATOM     47  C   UNL     1      -0.851 -12.058   6.223  1.00  0.00     0.049 A 
ATOM     48  C   UNL     1       0.926  -7.571   9.060  1.00  0.00     0.074 A 
ATOM     49  C   UNL     1      -1.690 -12.927   6.901  1.00  0.00     0.029 A 
ATOM     50  N   UNL     1      -0.571 -11.018   7.099  1.00  0.00    -0.354 N 
ATOM     51  N   UNL     1       0.430  -8.665   8.529  1.00  0.00    -0.248 NA
ATOM     52  C   UNL     1       0.418  -7.274  10.406  1.00  0.00     0.031 C 
ATOM     53  C   UNL     1      -1.985 -12.371   8.149  1.00  0.00     0.029 A 
ATOM     54  C   UNL     1      -1.258 -11.200   8.291  1.00  0.00     0.049 A 
ATOM     55  H   UNL     1       0.028 -10.261   6.903  1.00  0.00     0.167 HD
ATOM     56  C   UNL     1      -0.423  -9.200   9.491  1.00  0.00     0.074 A 
ATOM     57  C   UNL     1      -0.356  -8.322  10.640  1.00  0.00     0.031 C 
ATOM     58  C   UNL     1      -1.192 -10.317   9.431  1.00  0.00     0.034 A 
BRANCH  45  59
ATOM     59  C   UNL     1      -0.897 -13.277   4.003  1.00  0.00     0.023 A 
ATOM     60  C   UNL     1      -0.078 -14.309   3.513  1.00  0.00     0.031 A 
ATOM     61  C   UNL     1      -2.267 -13.319   3.685  1.00  0.00     0.131 A 
ATOM     62  C   UNL     1      -0.625 -15.309   2.693  1.00  0.00     0.055 A 
ATOM     63  C   UNL     1      -2.819 -14.355   2.929  1.00  0.00     0.041 A 
ATOM     64  F   UNL     1      -3.096 -12.352   4.108  1.00  0.00    -0.206 F 
ATOM     65  C   UNL     1      -1.995 -15.353   2.420  1.00  0.00     0.022 A 
BRANCH  62  66
ATOM     66  S   UNL     1       0.494 -16.493   1.896  1.00  0.00     0.124 S 
ATOM     67  O   UNL     1       1.356 -15.607   1.117  1.00  0.00    -0.237 OA
ATOM     68  O   UNL     1       1.120 -17.154   3.035  1.00  0.00    -0.237 OA
ATOM     69  O   UNL     1      -0.402 -17.332   1.103  1.00  0.00    -0.744 OA
ENDBRANCH  62  66
ENDBRANCH  45  59
BRANCH  46  70
ATOM     70  C   UNL     1       2.326  -5.380   9.240  1.00  0.00     0.023 A 
ATOM     71  C   UNL     1       2.954  -5.465  10.493  1.00  0.00     0.031 A 
ATOM     72  C   UNL     1       2.006  -4.099   8.754  1.00  0.00     0.131 A 
ATOM     73  C   UNL     1       3.181  -4.301  11.245  1.00  0.00     0.055 A 
ATOM     74  C   UNL     1       2.297  -2.939   9.474  1.00  0.00     0.041 A 
ATOM     75  F   UNL     1       1.402  -3.955   7.564  1.00  0.00    -0.206 F 
ATOM     76  C   UNL     1       2.872  -3.037  10.737  1.00  0.00     0.022 A 
BRANCH  73  77
ATOM     77  S   UNL     1       3.772  -4.469  12.952  1.00  0.00     0.124 S 
ATOM     78  O   UNL     1       2.762  -5.348  13.531  1.00  0.00    -0.237 OA
ATOM     79  O   UNL     1       5.096  -5.053  12.758  1.00  0.00    -0.237 OA
ATOM     80  O   UNL     1       3.765  -3.096  13.452  1.00  0.00    -0.744 OA
ENDBRANCH  73  77
ENDBRANCH  46  70
BRANCH  58  81
ATOM     81  C   UNL     1      -1.983 -10.678  10.666  1.00  0.00     0.023 A 
ATOM     82  C   UNL     1      -3.029  -9.869  11.143  1.00  0.00     0.031 A 
ATOM     83  C   UNL     1      -1.674 -11.848  11.385  1.00  0.00     0.131 A 
ATOM     84  C   UNL     1      -3.689 -10.208  12.335  1.00  0.00     0.055 A 
ATOM     85  C   UNL     1      -2.378 -12.215  12.532  1.00  0.00     0.041 A 
ATOM     86  F   UNL     1      -0.682 -12.657  10.981  1.00  0.00    -0.206 F 
ATOM     87  C   UNL     1      -3.383 -11.386  13.021  1.00  0.00     0.022 A 
BRANCH  84  88
ATOM     88  S   UNL     1      -4.887  -9.038  13.033  1.00  0.00     0.124 S 
ATOM     89  O   UNL     1      -4.073  -7.839  13.210  1.00  0.00    -0.237 OA
ATOM     90  O   UNL     1      -5.903  -8.970  11.988  1.00  0.00    -0.237 OA
ATOM     91  O   UNL     1      -5.316  -9.684  14.272  1.00  0.00    -0.744 OA
ENDBRANCH  84  88
ENDBRANCH  58  81
ENDBRANCH  32  33
ENDBRANCH  24  27
ENDBRANCH  22  23
ENDBRANCH   1  22
TORSDOF 16
