REMARK SMILES Cn1ncc(C(=O)NCCCNC(=O)c2ccc(-c3c4nc(c(-c5cc(S(=O)(=O)[O-])ccc5F)c5ccc([nH]5)c(-c5cc(S(=O)(=O)[O-])ccc5F)c5nc(c(-c6cc(S(=O)(=O)[O-])ccc6F)c6ccc3[nH]6)C=C5)C=C4)cc2)c1C(=O)NCC1CC[NH+](Cc2ccccc2)CC1
REMARK SMILES IDX 9 1 8 2 6 3 7 4 5 6 1 7 2 8 3 9 78 10 4 11 79 12 80 13 81 14
REMARK SMILES IDX 82 16 83 17 84 18 95 19 85 20 94 21 86 22 87 24 88 25 89 26
REMARK SMILES IDX 93 27 90 28 92 29 91 30 10 31 11 32 12 33 13 34 14 36 15 37
REMARK SMILES IDX 16 38 77 39 17 40 76 41 18 42 19 43 20 44 70 45 21 46 75 47
REMARK SMILES IDX 69 48 71 49 22 50 74 51 68 52 67 53 23 55 55 56 35 57 54 58
REMARK SMILES IDX 36 59 39 60 53 61 72 62 37 63 38 64 52 66 73 67 40 68 24 69
REMARK SMILES IDX 25 70 33 71 26 72 32 73 34 74 31 75 27 76 28 77 29 78 30 79
REMARK SMILES IDX 56 80 57 81 65 82 58 83 64 84 66 85 63 86 59 87 60 88 61 89
REMARK SMILES IDX 62 90 41 91 42 92 50 93 43 94 49 95 51 96 48 97 44 98 45 99
REMARK SMILES IDX 46 100 47 101
REMARK H PARENT 8 5 81 15 86 23 12 35 71 54 39 65
REMARK Flexibility Score: inf
ROOT
ATOM      1  C   UNL     1       1.039  -4.370   1.241  1.00  0.00     0.118 C 
ENDROOT
BRANCH   1   2
ATOM      2  N   UNL     1       2.129  -3.416   1.277  1.00  0.00    -0.352 N 
ATOM      3  C   UNL     1       2.332  -2.116   0.925  1.00  0.00     0.255 C 
ATOM      4  O   UNL     1       3.525  -1.789   0.916  1.00  0.00    -0.269 OA
ATOM      5  H   UNL     1       2.943  -3.816   1.659  1.00  0.00     0.163 HD
BRANCH   3   6
ATOM      6  C   UNL     1       1.328  -1.117   0.596  1.00  0.00     0.090 A 
ATOM      7  C   UNL     1      -1.559   1.071   0.542  1.00  0.00     0.174 C 
ATOM      8  N   UNL     1      -0.307   0.358   0.404  1.00  0.00    -0.262 N 
ATOM      9  N   UNL     1       0.730   0.996  -0.148  1.00  0.00    -0.180 NA
ATOM     10  C   UNL     1      -0.041  -0.949   0.767  1.00  0.00     0.138 A 
ATOM     11  C   UNL     1       1.722   0.122  -0.000  1.00  0.00     0.149 A 
BRANCH  10  12
ATOM     12  C   UNL     1      -1.129  -1.756   1.232  1.00  0.00     0.270 C 
ATOM     13  O   UNL     1      -1.555  -1.738   2.377  1.00  0.00    -0.268 OA
ATOM     14  N   UNL     1      -1.799  -2.314   0.169  1.00  0.00    -0.350 N 
ATOM     15  H   UNL     1      -1.283  -2.695  -0.578  1.00  0.00     0.163 HD
BRANCH  14  16
ATOM     16  C   UNL     1      -3.242  -2.356   0.122  1.00  0.00     0.120 C 
BRANCH  16  17
ATOM     17  C   UNL     1      -3.846  -2.438  -1.296  1.00  0.00     0.019 C 
ATOM     18  C   UNL     1      -3.511  -3.743  -2.031  1.00  0.00     0.067 C 
ATOM     19  C   UNL     1      -3.555  -1.222  -2.193  1.00  0.00     0.067 C 
ATOM     20  C   UNL     1      -2.188  -3.724  -2.804  1.00  0.00     0.262 C 
ATOM     21  C   UNL     1      -2.208  -1.280  -2.915  1.00  0.00     0.262 C 
ATOM     22  N   UNL     1      -2.072  -2.536  -3.643  1.00  0.00    -0.331 N 
ATOM     23  H   UNL     1      -2.894  -2.566  -4.246  1.00  0.00     0.348 HD
BRANCH  22  24
ATOM     24  C   UNL     1      -0.932  -2.574  -4.573  1.00  0.00     0.299 C 
BRANCH  24  25
ATOM     25  C   UNL     1       0.438  -2.297  -3.988  1.00  0.00     0.006 A 
ATOM     26  C   UNL     1       0.972  -0.999  -4.020  1.00  0.00     0.009 A 
ATOM     27  C   UNL     1       1.212  -3.326  -3.438  1.00  0.00     0.009 A 
ATOM     28  C   UNL     1       2.242  -0.736  -3.505  1.00  0.00     0.001 A 
ATOM     29  C   UNL     1       2.482  -3.060  -2.918  1.00  0.00     0.001 A 
ATOM     30  C   UNL     1       2.995  -1.766  -2.949  1.00  0.00     0.000 A 
ENDBRANCH  24  25
ENDBRANCH  22  24
ENDBRANCH  16  17
ENDBRANCH  14  16
ENDBRANCH  10  12
ENDBRANCH   3   6
ENDBRANCH   1   2
BRANCH   1  31
ATOM     31  C   UNL     1       1.037  -5.213  -0.036  1.00  0.00     0.042 C 
BRANCH  31  32
ATOM     32  C   UNL     1       2.342  -5.962  -0.330  1.00  0.00     0.118 C 
BRANCH  32  33
ATOM     33  N   UNL     1       2.458  -7.222   0.385  1.00  0.00    -0.352 N 
ATOM     34  C   UNL     1       2.275  -8.519  -0.034  1.00  0.00     0.251 C 
ATOM     35  H   UNL     1       2.711  -7.131   1.332  1.00  0.00     0.163 HD
ATOM     36  O   UNL     1       2.275  -9.410   0.813  1.00  0.00    -0.269 OA
BRANCH  34  37
ATOM     37  C   UNL     1       2.049  -8.871  -1.460  1.00  0.00     0.039 A 
ATOM     38  C   UNL     1       1.102  -9.861  -1.754  1.00  0.00     0.014 A 
ATOM     39  C   UNL     1       2.814  -8.333  -2.499  1.00  0.00     0.014 A 
ATOM     40  C   UNL     1       0.890 -10.274  -3.075  1.00  0.00     0.010 A 
ATOM     41  C   UNL     1       2.567  -8.708  -3.825  1.00  0.00     0.010 A 
ATOM     42  C   UNL     1       1.612  -9.692  -4.127  1.00  0.00    -0.014 A 
BRANCH  42  43
ATOM     43  C   UNL     1       1.424 -10.147  -5.533  1.00  0.00     0.031 A 
ATOM     44  C   UNL     1       2.522 -10.903  -6.234  1.00  0.00     0.074 A 
ATOM     45  C   UNL     1       0.289  -9.855  -6.199  1.00  0.00     0.049 A 
ATOM     46  N   UNL     1       2.594 -11.299  -7.479  1.00  0.00    -0.248 NA
ATOM     47  C   UNL     1       3.703 -11.238  -5.426  1.00  0.00     0.031 C 
ATOM     48  C   UNL     1      -0.851  -9.122  -5.649  1.00  0.00     0.029 A 
ATOM     49  N   UNL     1      -0.084 -10.130  -7.492  1.00  0.00    -0.354 N 
ATOM     50  C   UNL     1       3.838 -11.908  -7.614  1.00  0.00     0.074 A 
ATOM     51  C   UNL     1       4.496 -11.799  -6.327  1.00  0.00     0.031 C 
ATOM     52  C   UNL     1      -1.796  -9.005  -6.599  1.00  0.00     0.029 A 
ATOM     53  C   UNL     1      -1.317  -9.625  -7.832  1.00  0.00     0.049 A 
ATOM     54  H   UNL     1       0.479 -10.642  -8.117  1.00  0.00     0.167 HD
ATOM     55  C   UNL     1       4.380 -12.511  -8.702  1.00  0.00     0.034 A 
ATOM     56  C   UNL     1      -1.980  -9.642  -9.005  1.00  0.00     0.034 A 
ATOM     57  C   UNL     1       3.715 -12.645  -9.974  1.00  0.00     0.049 A 
ATOM     58  C   UNL     1      -1.360 -10.314 -10.201  1.00  0.00     0.074 A 
ATOM     59  C   UNL     1       4.160 -13.285 -11.119  1.00  0.00     0.029 A 
ATOM     60  N   UNL     1       2.461 -12.130 -10.272  1.00  0.00    -0.354 N 
ATOM     61  N   UNL     1      -0.188 -10.894 -10.306  1.00  0.00    -0.248 NA
ATOM     62  C   UNL     1      -2.157 -10.337 -11.436  1.00  0.00     0.031 C 
ATOM     63  C   UNL     1       3.195 -13.121 -12.121  1.00  0.00     0.029 A 
ATOM     64  C   UNL     1       2.127 -12.419 -11.586  1.00  0.00     0.049 A 
ATOM     65  H   UNL     1       1.892 -11.631  -9.642  1.00  0.00     0.167 HD
ATOM     66  C   UNL     1      -0.116 -11.367 -11.613  1.00  0.00     0.074 A 
ATOM     67  C   UNL     1      -1.363 -11.009 -12.258  1.00  0.00     0.031 C 
ATOM     68  C   UNL     1       0.888 -12.046 -12.221  1.00  0.00     0.034 A 
BRANCH  55  69
ATOM     69  C   UNL     1       5.785 -13.038  -8.563  1.00  0.00     0.023 A 
ATOM     70  C   UNL     1       6.087 -14.121  -7.720  1.00  0.00     0.031 A 
ATOM     71  C   UNL     1       6.843 -12.421  -9.254  1.00  0.00     0.131 A 
ATOM     72  C   UNL     1       7.422 -14.508  -7.532  1.00  0.00     0.055 A 
ATOM     73  C   UNL     1       8.162 -12.857  -9.117  1.00  0.00     0.041 A 
ATOM     74  F   UNL     1       6.613 -11.371 -10.058  1.00  0.00    -0.206 F 
ATOM     75  C   UNL     1       8.460 -13.897  -8.240  1.00  0.00     0.022 A 
BRANCH  72  76
ATOM     76  S   UNL     1       7.795 -15.733  -6.249  1.00  0.00     0.124 S 
ATOM     77  O   UNL     1       7.289 -15.068  -5.051  1.00  0.00    -0.237 OA
ATOM     78  O   UNL     1       7.045 -16.900  -6.698  1.00  0.00    -0.237 OA
ATOM     79  O   UNL     1       9.250 -15.864  -6.313  1.00  0.00    -0.744 OA
ENDBRANCH  72  76
ENDBRANCH  55  69
BRANCH  56  80
ATOM     80  C   UNL     1      -3.300  -8.969  -9.125  1.00  0.00     0.023 A 
ATOM     81  C   UNL     1      -4.482  -9.712  -9.259  1.00  0.00     0.031 A 
ATOM     82  C   UNL     1      -3.388  -7.566  -9.139  1.00  0.00     0.131 A 
ATOM     83  C   UNL     1      -5.705  -9.046  -9.434  1.00  0.00     0.055 A 
ATOM     84  C   UNL     1      -4.610  -6.909  -9.281  1.00  0.00     0.041 A 
ATOM     85  F   UNL     1      -2.283  -6.816  -9.004  1.00  0.00    -0.206 F 
ATOM     86  C   UNL     1      -5.778  -7.651  -9.439  1.00  0.00     0.022 A 
BRANCH  83  87
ATOM     87  S   UNL     1      -7.202 -10.035  -9.701  1.00  0.00     0.124 S 
ATOM     88  O   UNL     1      -6.865 -10.764 -10.919  1.00  0.00    -0.237 OA
ATOM     89  O   UNL     1      -7.264 -10.825  -8.476  1.00  0.00    -0.237 OA
ATOM     90  O   UNL     1      -8.252  -9.030  -9.845  1.00  0.00    -0.744 OA
ENDBRANCH  83  87
ENDBRANCH  56  80
BRANCH  68  91
ATOM     91  C   UNL     1       0.653 -12.480 -13.643  1.00  0.00     0.023 A 
ATOM     92  C   UNL     1       0.694 -11.565 -14.709  1.00  0.00     0.031 A 
ATOM     93  C   UNL     1       0.373 -13.827 -13.929  1.00  0.00     0.131 A 
ATOM     94  C   UNL     1       0.421 -12.004 -16.013  1.00  0.00     0.055 A 
ATOM     95  C   UNL     1       0.138 -14.265 -15.233  1.00  0.00     0.041 A 
ATOM     96  F   UNL     1       0.322 -14.737 -12.944  1.00  0.00    -0.206 F 
ATOM     97  C   UNL     1       0.154 -13.350 -16.283  1.00  0.00     0.022 A 
BRANCH  94  98
ATOM     98  S   UNL     1       0.374 -10.785 -17.355  1.00  0.00     0.124 S 
ATOM     99  O   UNL     1      -0.733  -9.926 -16.947  1.00  0.00    -0.237 OA
ATOM    100  O   UNL     1       1.704 -10.188 -17.285  1.00  0.00    -0.237 OA
ATOM    101  O   UNL     1       0.124 -11.594 -18.547  1.00  0.00    -0.744 OA
ENDBRANCH  94  98
ENDBRANCH  68  91
ENDBRANCH  42  43
ENDBRANCH  34  37
ENDBRANCH  32  33
ENDBRANCH  31  32
ENDBRANCH   1  31
TORSDOF 18
