REMARK SMILES C[C@@H](C(=O)NCCCNC(=O)c1ccc(-c2c3nc(c(-c4cc(S(=O)(=O)[O-])ccc4F)c4ccc([nH]4)c(-c4cc(S(=O)(=O)[O-])ccc4F)c4nc(c(-c5cc(S(=O)(=O)[O-])ccc5F)c5ccc2[nH]5)C=C4)C=C3)cc1)N(C)c1ccc(C(N)=O)nn1
REMARK SMILES IDX 7 1 6 2 5 3 3 4 4 5 2 7 1 8 75 9 76 10 77 11 78 12 85 13
REMARK SMILES IDX 79 14 84 15 80 16 81 17 82 18 83 19 8 22 9 23 10 24 11 26
REMARK SMILES IDX 12 27 13 28 74 29 14 30 73 31 15 32 16 33 17 34 67 35 18 36
REMARK SMILES IDX 72 37 66 38 68 39 19 40 71 41 65 42 64 43 20 45 52 46 32 47
REMARK SMILES IDX 51 48 33 49 36 50 50 51 69 52 34 53 35 54 49 56 70 57 37 58
REMARK SMILES IDX 21 59 22 60 30 61 23 62 29 63 31 64 28 65 24 66 25 67 26 68
REMARK SMILES IDX 27 69 53 70 54 71 62 72 55 73 61 74 63 75 60 76 56 77 57 78
REMARK SMILES IDX 58 79 59 80 38 81 39 82 47 83 40 84 46 85 48 86 45 87 41 88
REMARK SMILES IDX 42 89 43 90 44 91
REMARK H PARENT 5 6 82 20 82 21 9 25 68 44 36 55
REMARK Flexibility Score: inf
ROOT
ATOM      1  C   UNL     1       4.173   0.266   1.359  1.00  0.00     0.042 C 
ENDROOT
BRANCH   1   2
ATOM      2  C   UNL     1       3.296  -0.825   1.966  1.00  0.00     0.117 C 
BRANCH   2   3
ATOM      3  N   UNL     1       2.179  -0.268   2.704  1.00  0.00    -0.354 N 
ATOM      4  C   UNL     1       0.866  -0.118   2.354  1.00  0.00     0.242 C 
ATOM      5  O   UNL     1       0.135   0.386   3.210  1.00  0.00    -0.273 OA
ATOM      6  H   UNL     1       2.404   0.057   3.606  1.00  0.00     0.163 HD
BRANCH   4   7
ATOM      7  C   UNL     1       0.353  -0.639   0.978  1.00  0.00     0.169 C 
ATOM      8  C   UNL     1       1.034   0.005  -0.228  1.00  0.00     0.042 C 
BRANCH   7   9
ATOM      9  N   UNL     1      -1.135  -0.594   0.852  1.00  0.00    -0.346 N 
ATOM     10  C   UNL     1      -1.853  -1.791   1.283  1.00  0.00     0.146 C 
BRANCH   9  11
ATOM     11  C   UNL     1      -1.843   0.596   1.051  1.00  0.00     0.151 A 
ATOM     12  C   UNL     1      -1.503   1.775   0.393  1.00  0.00     0.051 A 
ATOM     13  N   UNL     1      -2.930   0.617   1.865  1.00  0.00    -0.132 NA
ATOM     14  C   UNL     1      -2.215   2.954   0.615  1.00  0.00     0.040 A 
ATOM     15  N   UNL     1      -3.644   1.780   2.111  1.00  0.00    -0.143 NA
ATOM     16  C   UNL     1      -3.271   2.921   1.497  1.00  0.00     0.150 A 
BRANCH  16  17
ATOM     17  C   UNL     1      -4.061   4.148   1.785  1.00  0.00     0.269 C 
ATOM     18  N   UNL     1      -5.040   4.035   2.735  1.00  0.00    -0.364 N 
ATOM     19  O   UNL     1      -3.855   5.210   1.208  1.00  0.00    -0.268 OA
ATOM     20  H   UNL     1      -5.190   3.173   3.187  1.00  0.00     0.160 HD
ATOM     21  H   UNL     1      -5.594   4.815   2.966  1.00  0.00     0.160 HD
ENDBRANCH  16  17
ENDBRANCH   9  11
ENDBRANCH   7   9
ENDBRANCH   4   7
ENDBRANCH   2   3
ENDBRANCH   1   2
BRANCH   1  22
ATOM     22  C   UNL     1       4.950   1.074   2.395  1.00  0.00     0.118 C 
BRANCH  22  23
ATOM     23  N   UNL     1       5.957   0.273   3.077  1.00  0.00    -0.352 N 
ATOM     24  C   UNL     1       7.317   0.455   3.154  1.00  0.00     0.251 C 
ATOM     25  H   UNL     1       5.613  -0.516   3.554  1.00  0.00     0.163 HD
ATOM     26  O   UNL     1       8.021  -0.451   3.591  1.00  0.00    -0.269 OA
BRANCH  24  27
ATOM     27  C   UNL     1       7.926   1.723   2.695  1.00  0.00     0.039 A 
ATOM     28  C   UNL     1       9.111   1.682   1.954  1.00  0.00     0.014 A 
ATOM     29  C   UNL     1       7.340   2.951   3.009  1.00  0.00     0.014 A 
ATOM     30  C   UNL     1       9.672   2.869   1.474  1.00  0.00     0.010 A 
ATOM     31  C   UNL     1       7.855   4.123   2.465  1.00  0.00     0.010 A 
ATOM     32  C   UNL     1       9.030   4.097   1.697  1.00  0.00    -0.014 A 
BRANCH  32  33
ATOM     33  C   UNL     1       9.573   5.378   1.173  1.00  0.00     0.031 A 
ATOM     34  C   UNL     1       9.983   6.458   2.136  1.00  0.00     0.074 A 
ATOM     35  C   UNL     1       9.610   5.605  -0.154  1.00  0.00     0.049 A 
ATOM     36  N   UNL     1      10.318   7.700   1.899  1.00  0.00    -0.248 NA
ATOM     37  C   UNL     1       9.975   6.097   3.561  1.00  0.00     0.031 C 
ATOM     38  C   UNL     1       9.222   4.643  -1.187  1.00  0.00     0.029 A 
ATOM     39  N   UNL     1       9.970   6.725  -0.862  1.00  0.00    -0.354 N 
ATOM     40  C   UNL     1      10.536   8.277   3.146  1.00  0.00     0.074 A 
ATOM     41  C   UNL     1      10.229   7.263   4.133  1.00  0.00     0.031 C 
ATOM     42  C   UNL     1       9.371   5.212  -2.394  1.00  0.00     0.029 A 
ATOM     43  C   UNL     1       9.809   6.594  -2.222  1.00  0.00     0.049 A 
ATOM     44  H   UNL     1      10.310   7.545  -0.436  1.00  0.00     0.167 HD
ATOM     45  C   UNL     1      10.972   9.528   3.439  1.00  0.00     0.034 A 
ATOM     46  C   UNL     1       9.967   7.492  -3.215  1.00  0.00     0.034 A 
ATOM     47  C   UNL     1      11.275  10.522   2.437  1.00  0.00     0.049 A 
ATOM     48  C   UNL     1      10.409   8.892  -2.871  1.00  0.00     0.074 A 
ATOM     49  C   UNL     1      11.761  11.805   2.614  1.00  0.00     0.029 A 
ATOM     50  N   UNL     1      11.109  10.348   1.067  1.00  0.00    -0.354 N 
ATOM     51  N   UNL     1      10.639   9.418  -1.690  1.00  0.00    -0.248 NA
ATOM     52  C   UNL     1      10.620   9.816  -3.992  1.00  0.00     0.031 C 
ATOM     53  C   UNL     1      11.815  12.431   1.364  1.00  0.00     0.029 A 
ATOM     54  C   UNL     1      11.453  11.510   0.393  1.00  0.00     0.049 A 
ATOM     55  H   UNL     1      10.793   9.520   0.638  1.00  0.00     0.167 HD
ATOM     56  C   UNL     1      11.062  10.723  -1.930  1.00  0.00     0.074 A 
ATOM     57  C   UNL     1      11.053  10.903  -3.368  1.00  0.00     0.031 C 
ATOM     58  C   UNL     1      11.438  11.679  -1.043  1.00  0.00     0.034 A 
BRANCH  45  59
ATOM     59  C   UNL     1      11.102   9.890   4.901  1.00  0.00     0.023 A 
ATOM     60  C   UNL     1      11.954   9.179   5.766  1.00  0.00     0.031 A 
ATOM     61  C   UNL     1      10.321  10.920   5.456  1.00  0.00     0.131 A 
ATOM     62  C   UNL     1      11.924   9.431   7.145  1.00  0.00     0.055 A 
ATOM     63  C   UNL     1      10.373  11.235   6.816  1.00  0.00     0.041 A 
ATOM     64  F   UNL     1       9.472  11.623   4.690  1.00  0.00    -0.206 F 
ATOM     65  C   UNL     1      11.161  10.473   7.673  1.00  0.00     0.022 A 
BRANCH  62  66
ATOM     66  S   UNL     1      12.745   8.252   8.253  1.00  0.00     0.124 S 
ATOM     67  O   UNL     1      12.090   6.999   7.887  1.00  0.00    -0.237 OA
ATOM     68  O   UNL     1      14.145   8.379   7.867  1.00  0.00    -0.237 OA
ATOM     69  O   UNL     1      12.417   8.750   9.588  1.00  0.00    -0.744 OA
ENDBRANCH  62  66
ENDBRANCH  45  59
BRANCH  46  70
ATOM     70  C   UNL     1       9.688   7.100  -4.627  1.00  0.00     0.023 A 
ATOM     71  C   UNL     1      10.714   7.050  -5.582  1.00  0.00     0.031 A 
ATOM     72  C   UNL     1       8.383   6.781  -5.043  1.00  0.00     0.131 A 
ATOM     73  C   UNL     1      10.414   6.723  -6.914  1.00  0.00     0.055 A 
ATOM     74  C   UNL     1       8.098   6.406  -6.357  1.00  0.00     0.041 A 
ATOM     75  F   UNL     1       7.365   6.807  -4.168  1.00  0.00    -0.206 F 
ATOM     76  C   UNL     1       9.116   6.386  -7.304  1.00  0.00     0.022 A 
BRANCH  73  77
ATOM     77  S   UNL     1      11.739   6.808  -8.150  1.00  0.00     0.124 S 
ATOM     78  O   UNL     1      12.136   8.208  -8.063  1.00  0.00    -0.237 OA
ATOM     79  O   UNL     1      12.696   5.834  -7.636  1.00  0.00    -0.237 OA
ATOM     80  O   UNL     1      11.070   6.424  -9.392  1.00  0.00    -0.744 OA
ENDBRANCH  73  77
ENDBRANCH  46  70
BRANCH  58  81
ATOM     81  C   UNL     1      11.943  12.989  -1.602  1.00  0.00     0.023 A 
ATOM     82  C   UNL     1      11.106  13.885  -2.288  1.00  0.00     0.031 A 
ATOM     83  C   UNL     1      13.291  13.350  -1.420  1.00  0.00     0.131 A 
ATOM     84  C   UNL     1      11.635  15.079  -2.803  1.00  0.00     0.055 A 
ATOM     85  C   UNL     1      13.797  14.566  -1.881  1.00  0.00     0.041 A 
ATOM     86  F   UNL     1      14.137  12.529  -0.777  1.00  0.00    -0.206 F 
ATOM     87  C   UNL     1      12.970  15.434  -2.586  1.00  0.00     0.022 A 
BRANCH  84  88
ATOM     88  S   UNL     1      10.577  16.134  -3.833  1.00  0.00     0.124 S 
ATOM     89  O   UNL     1      10.211  15.228  -4.917  1.00  0.00    -0.237 OA
ATOM     90  O   UNL     1       9.504  16.494  -2.913  1.00  0.00    -0.237 OA
ATOM     91  O   UNL     1      11.459  17.235  -4.216  1.00  0.00    -0.744 OA
ENDBRANCH  84  88
ENDBRANCH  58  81
ENDBRANCH  32  33
ENDBRANCH  24  27
ENDBRANCH  22  23
ENDBRANCH   1  22
TORSDOF 16
