REMARK SMILES CC(C)N1C[C@@H](C(=O)NCCCNC(=O)c2ccc(-c3c4nc(c(-c5cc(S(=O)(=O)[O-])ccc5F)c5ccc([nH]5)c(-c5cc(S(=O)(=O)[O-])ccc5F)c5nc(c(-c6cc(S(=O)(=O)[O-])ccc6F)c6ccc3[nH]6)C=C5)C=C4)cc2)CC1=O
REMARK SMILES IDX 12 1 11 2 10 3 9 4 7 5 8 6 6 8 4 9 5 10 80 11 79 12 81 13
REMARK SMILES IDX 2 14 1 15 3 16 13 17 14 18 15 20 16 21 17 22 78 23 18 24
REMARK SMILES IDX 77 25 19 26 20 27 21 28 71 29 22 30 76 31 70 32 72 33 23 34
REMARK SMILES IDX 75 35 69 36 68 37 24 39 56 40 36 41 55 42 37 43 40 44 54 45
REMARK SMILES IDX 73 46 38 47 39 48 53 50 74 51 41 52 25 53 26 54 34 55 27 56
REMARK SMILES IDX 33 57 35 58 32 59 28 60 29 61 30 62 31 63 57 64 58 65 66 66
REMARK SMILES IDX 59 67 65 68 67 69 64 70 60 71 61 72 62 73 63 74 42 75 43 76
REMARK SMILES IDX 51 77 44 78 50 79 52 80 49 81 45 82 46 83 47 84 48 85
REMARK H PARENT 9 7 13 19 72 38 40 49
REMARK Flexibility Score: inf
ROOT
ATOM      1  C   UNL     1      -5.212  -0.844   5.838  1.00  0.00     0.118 C 
ENDROOT
BRANCH   1   2
ATOM      2  C   UNL     1      -4.096  -0.164   5.053  1.00  0.00     0.042 C 
BRANCH   2   3
ATOM      3  C   UNL     1      -3.329  -1.086   4.114  1.00  0.00     0.117 C 
BRANCH   3   4
ATOM      4  N   UNL     1      -4.175  -1.659   3.079  1.00  0.00    -0.356 N 
ATOM      5  C   UNL     1      -4.152  -1.542   1.728  1.00  0.00     0.225 C 
ATOM      6  O   UNL     1      -4.993  -2.180   1.088  1.00  0.00    -0.275 OA
ATOM      7  H   UNL     1      -4.895  -2.237   3.422  1.00  0.00     0.163 HD
BRANCH   5   8
ATOM      8  C   UNL     1      -3.143  -0.688   0.995  1.00  0.00     0.107 C 
ATOM      9  N   UNL     1      -0.963   0.106   1.388  1.00  0.00    -0.339 N 
ATOM     10  C   UNL     1      -1.710  -1.121   1.240  1.00  0.00     0.133 C 
ATOM     11  C   UNL     1      -1.769   1.232   1.328  1.00  0.00     0.223 C 
ATOM     12  C   UNL     1      -3.209   0.797   1.318  1.00  0.00     0.115 C 
ATOM     13  O   UNL     1      -1.408   2.398   1.312  1.00  0.00    -0.275 OA
BRANCH   9  14
ATOM     14  C   UNL     1       0.501   0.094   1.407  1.00  0.00     0.078 C 
ATOM     15  C   UNL     1       1.062   0.157  -0.010  1.00  0.00     0.031 C 
ATOM     16  C   UNL     1       1.113   1.188   2.285  1.00  0.00     0.031 C 
ENDBRANCH   9  14
ENDBRANCH   5   8
ENDBRANCH   3   4
ENDBRANCH   2   3
ENDBRANCH   1   2
BRANCH   1  17
ATOM     17  N   UNL     1      -4.727  -1.912   6.698  1.00  0.00    -0.352 N 
ATOM     18  C   UNL     1      -4.775  -2.053   8.063  1.00  0.00     0.251 C 
ATOM     19  H   UNL     1      -4.292  -2.657   6.223  1.00  0.00     0.163 HD
ATOM     20  O   UNL     1      -4.117  -2.951   8.585  1.00  0.00    -0.269 OA
BRANCH  18  21
ATOM     21  C   UNL     1      -5.576  -1.133   8.904  1.00  0.00     0.039 A 
ATOM     22  C   UNL     1      -5.065  -0.752  10.148  1.00  0.00     0.014 A 
ATOM     23  C   UNL     1      -6.831  -0.668   8.502  1.00  0.00     0.014 A 
ATOM     24  C   UNL     1      -5.778   0.143  10.949  1.00  0.00     0.010 A 
ATOM     25  C   UNL     1      -7.497   0.296   9.259  1.00  0.00     0.010 A 
ATOM     26  C   UNL     1      -6.979   0.712  10.493  1.00  0.00    -0.014 A 
BRANCH  26  27
ATOM     27  C   UNL     1      -7.673   1.755  11.297  1.00  0.00     0.031 A 
ATOM     28  C   UNL     1      -9.058   1.522  11.838  1.00  0.00     0.074 A 
ATOM     29  C   UNL     1      -7.051   2.931  11.519  1.00  0.00     0.049 A 
ATOM     30  N   UNL     1      -9.800   2.309  12.576  1.00  0.00    -0.248 NA
ATOM     31  C   UNL     1      -9.705   0.251  11.483  1.00  0.00     0.031 C 
ATOM     32  C   UNL     1      -5.731   3.298  10.998  1.00  0.00     0.029 A 
ATOM     33  N   UNL     1      -7.434   4.031  12.244  1.00  0.00    -0.354 N 
ATOM     34  C   UNL     1     -10.999   1.631  12.773  1.00  0.00     0.074 A 
ATOM     35  C   UNL     1     -10.908   0.400  12.017  1.00  0.00     0.031 C 
ATOM     36  C   UNL     1      -5.395   4.511  11.460  1.00  0.00     0.029 A 
ATOM     37  C   UNL     1      -6.491   5.034  12.268  1.00  0.00     0.049 A 
ATOM     38  H   UNL     1      -8.302   4.098  12.704  1.00  0.00     0.167 HD
ATOM     39  C   UNL     1     -12.064   1.990  13.534  1.00  0.00     0.034 A 
ATOM     40  C   UNL     1      -6.506   6.239  12.871  1.00  0.00     0.034 A 
ATOM     41  C   UNL     1     -12.138   3.225  14.280  1.00  0.00     0.049 A 
ATOM     42  C   UNL     1      -7.708   6.620  13.695  1.00  0.00     0.074 A 
ATOM     43  C   UNL     1     -13.147   3.665  15.120  1.00  0.00     0.029 A 
ATOM     44  N   UNL     1     -11.173   4.225  14.267  1.00  0.00    -0.354 N 
ATOM     45  N   UNL     1      -8.806   5.936  13.926  1.00  0.00    -0.248 NA
ATOM     46  C   UNL     1      -7.663   7.930  14.355  1.00  0.00     0.031 C 
ATOM     47  C   UNL     1     -12.830   4.959  15.549  1.00  0.00     0.029 A 
ATOM     48  C   UNL     1     -11.580   5.294  15.054  1.00  0.00     0.049 A 
ATOM     49  H   UNL     1     -10.323   4.181  13.772  1.00  0.00     0.167 HD
ATOM     50  C   UNL     1      -9.571   6.726  14.779  1.00  0.00     0.074 A 
ATOM     51  C   UNL     1      -8.790   7.917  15.048  1.00  0.00     0.031 C 
ATOM     52  C   UNL     1     -10.808   6.492  15.292  1.00  0.00     0.034 A 
BRANCH  39  53
ATOM     53  C   UNL     1     -13.243   1.043  13.573  1.00  0.00     0.023 A 
ATOM     54  C   UNL     1     -13.126  -0.267  14.073  1.00  0.00     0.031 A 
ATOM     55  C   UNL     1     -14.501   1.447  13.089  1.00  0.00     0.131 A 
ATOM     56  C   UNL     1     -14.219  -1.145  14.009  1.00  0.00     0.055 A 
ATOM     57  C   UNL     1     -15.608   0.596  13.107  1.00  0.00     0.041 A 
ATOM     58  F   UNL     1     -14.673   2.676  12.578  1.00  0.00    -0.206 F 
ATOM     59  C   UNL     1     -15.467  -0.714  13.555  1.00  0.00     0.022 A 
BRANCH  56  60
ATOM     60  S   UNL     1     -13.946  -2.898  14.386  1.00  0.00     0.124 S 
ATOM     61  O   UNL     1     -12.911  -3.251  13.417  1.00  0.00    -0.237 OA
ATOM     62  O   UNL     1     -13.528  -2.860  15.782  1.00  0.00    -0.237 OA
ATOM     63  O   UNL     1     -15.251  -3.509  14.140  1.00  0.00    -0.744 OA
ENDBRANCH  56  60
ENDBRANCH  39  53
BRANCH  40  64
ATOM     64  C   UNL     1      -5.354   7.176  12.722  1.00  0.00     0.023 A 
ATOM     65  C   UNL     1      -4.595   7.577  13.833  1.00  0.00     0.031 A 
ATOM     66  C   UNL     1      -5.024   7.722  11.468  1.00  0.00     0.131 A 
ATOM     67  C   UNL     1      -3.581   8.536  13.679  1.00  0.00     0.055 A 
ATOM     68  C   UNL     1      -3.975   8.628  11.310  1.00  0.00     0.041 A 
ATOM     69  F   UNL     1      -5.715   7.372  10.372  1.00  0.00    -0.206 F 
ATOM     70  C   UNL     1      -3.256   9.052  12.423  1.00  0.00     0.022 A 
BRANCH  67  71
ATOM     71  S   UNL     1      -2.756   9.173  15.164  1.00  0.00     0.124 S 
ATOM     72  O   UNL     1      -3.881   9.697  15.928  1.00  0.00    -0.237 OA
ATOM     73  O   UNL     1      -2.121   7.972  15.697  1.00  0.00    -0.237 OA
ATOM     74  O   UNL     1      -1.836  10.179  14.636  1.00  0.00    -0.744 OA
ENDBRANCH  67  71
ENDBRANCH  40  64
BRANCH  52  75
ATOM     75  C   UNL     1     -11.367   7.548  16.220  1.00  0.00     0.023 A 
ATOM     76  C   UNL     1     -11.615   8.861  15.778  1.00  0.00     0.031 A 
ATOM     77  C   UNL     1     -11.598   7.257  17.576  1.00  0.00     0.131 A 
ATOM     78  C   UNL     1     -11.981   9.853  16.700  1.00  0.00     0.055 A 
ATOM     79  C   UNL     1     -12.045   8.229  18.472  1.00  0.00     0.041 A 
ATOM     80  F   UNL     1     -11.377   6.024  18.059  1.00  0.00    -0.206 F 
ATOM     81  C   UNL     1     -12.216   9.542  18.041  1.00  0.00     0.022 A 
BRANCH  78  82
ATOM     82  S   UNL     1     -11.990  11.582  16.153  1.00  0.00     0.124 S 
ATOM     83  O   UNL     1     -10.637  11.741  15.630  1.00  0.00    -0.237 OA
ATOM     84  O   UNL     1     -13.061  11.590  15.162  1.00  0.00    -0.237 OA
ATOM     85  O   UNL     1     -12.273  12.328  17.378  1.00  0.00    -0.744 OA
ENDBRANCH  78  82
ENDBRANCH  52  75
ENDBRANCH  26  27
ENDBRANCH  18  21
ENDBRANCH   1  17
TORSDOF 14
