REMARK SMILES COCCOCC[C@@H]1CCC[C@]1([NH3+])C(=O)NCCCNC(=O)c1ccc(-c2c3nc(c(-c4cc(S(=O)(=O)[O-])ccc4F)c4ccc([nH]4)c(-c4cc(S(=O)(=O)[O-])ccc4F)c4nc(c(-c5cc(S(=O)(=O)[O-])ccc5F)c5ccc2[nH]5)C=C4)C=C3)cc1
REMARK SMILES IDX 14 1 15 2 16 3 12 5 8 6 9 7 10 8 11 9 7 10 6 11 5 12 4 13
REMARK SMILES IDX 3 14 2 15 1 16 13 17 17 21 18 22 19 23 20 24 21 25 22 27
REMARK SMILES IDX 23 28 24 29 85 30 25 31 84 32 26 33 27 34 28 35 78 36 29 37
REMARK SMILES IDX 83 38 77 39 79 40 30 41 82 42 76 43 75 44 31 46 63 47 43 48
REMARK SMILES IDX 62 49 44 50 47 51 61 52 80 53 45 54 46 55 60 57 81 58 48 59
REMARK SMILES IDX 32 60 33 61 41 62 34 63 40 64 42 65 39 66 35 67 36 68 37 69
REMARK SMILES IDX 38 70 64 71 65 72 73 73 66 74 72 75 74 76 71 77 67 78 68 79
REMARK SMILES IDX 69 80 70 81 49 82 50 83 58 84 51 85 57 86 59 87 56 88 52 89
REMARK SMILES IDX 53 90 54 91 55 92
REMARK H PARENT 16 4 13 18 13 19 13 20 20 26 79 45 47 56
REMARK Flexibility Score: inf
ROOT
ATOM      1  C   UNL     1      -2.403  -1.084   0.517  1.00  0.00     0.281 C 
ATOM      2  O   UNL     1      -3.572  -1.415   0.748  1.00  0.00    -0.268 OA
ATOM      3  N   UNL     1      -1.595  -1.002   1.612  1.00  0.00    -0.351 N 
ATOM      4  H   UNL     1      -2.042  -1.242   2.455  1.00  0.00     0.163 HD
ENDROOT
BRANCH   1   5
ATOM      5  C   UNL     1      -1.892  -0.800  -0.942  1.00  0.00     0.176 C 
ATOM      6  C   UNL     1      -1.906   0.687  -1.401  1.00  0.00     0.063 C 
ATOM      7  C   UNL     1      -3.414   0.958  -1.579  1.00  0.00     0.011 C 
ATOM      8  C   UNL     1      -4.019  -0.341  -2.089  1.00  0.00     0.008 C 
ATOM      9  C   UNL     1      -2.923  -1.392  -1.943  1.00  0.00     0.079 C 
BRANCH   6  10
ATOM     10  C   UNL     1      -1.315   1.841  -0.576  1.00  0.00     0.039 C 
BRANCH  10  11
ATOM     11  C   UNL     1       0.196   2.068  -0.512  1.00  0.00     0.161 C 
BRANCH  11  12
ATOM     12  O   UNL     1       0.762   2.705  -1.651  1.00  0.00    -0.379 OA
BRANCH  12  13
ATOM     13  C   UNL     1       1.075   1.892  -2.780  1.00  0.00     0.188 C 
BRANCH  13  14
ATOM     14  C   UNL     1       2.184   0.860  -2.547  1.00  0.00     0.188 C 
BRANCH  14  15
ATOM     15  O   UNL     1       1.733  -0.214  -1.717  1.00  0.00    -0.382 OA
ATOM     16  C   UNL     1       2.750  -0.671  -0.831  1.00  0.00     0.195 C 
ENDBRANCH  14  15
ENDBRANCH  13  14
ENDBRANCH  12  13
ENDBRANCH  11  12
ENDBRANCH  10  11
ENDBRANCH   6  10
BRANCH   5  17
ATOM     17  N   UNL     1      -0.663  -1.559  -1.215  1.00  0.00    -0.345 N 
ATOM     18  H   UNL     1      -0.346  -1.363  -2.164  1.00  0.00     0.345 HD
ATOM     19  H   UNL     1      -0.852  -2.557  -1.118  1.00  0.00     0.345 HD
ATOM     20  H   UNL     1       0.061  -1.284  -0.551  1.00  0.00     0.345 HD
ENDBRANCH   5  17
ENDBRANCH   1   5
BRANCH   3  21
ATOM     21  C   UNL     1      -0.205  -0.628   1.772  1.00  0.00     0.118 C 
BRANCH  21  22
ATOM     22  C   UNL     1      -0.051   0.649   2.585  1.00  0.00     0.042 C 
BRANCH  22  23
ATOM     23  C   UNL     1      -0.264   0.451   4.075  1.00  0.00     0.118 C 
BRANCH  23  24
ATOM     24  N   UNL     1       0.881  -0.179   4.708  1.00  0.00    -0.352 N 
ATOM     25  C   UNL     1       1.736   0.297   5.674  1.00  0.00     0.251 C 
ATOM     26  H   UNL     1       1.076  -1.092   4.396  1.00  0.00     0.163 HD
ATOM     27  O   UNL     1       2.775  -0.321   5.889  1.00  0.00    -0.269 OA
BRANCH  25  28
ATOM     28  C   UNL     1       1.437   1.542   6.427  1.00  0.00     0.039 A 
ATOM     29  C   UNL     1       2.503   2.339   6.852  1.00  0.00     0.014 A 
ATOM     30  C   UNL     1       0.132   1.917   6.757  1.00  0.00     0.014 A 
ATOM     31  C   UNL     1       2.256   3.519   7.560  1.00  0.00     0.010 A 
ATOM     32  C   UNL     1      -0.118   3.153   7.350  1.00  0.00     0.010 A 
ATOM     33  C   UNL     1       0.941   3.957   7.788  1.00  0.00    -0.014 A 
BRANCH  33  34
ATOM     34  C   UNL     1       0.674   5.229   8.513  1.00  0.00     0.031 A 
ATOM     35  C   UNL     1      -0.110   5.229   9.802  1.00  0.00     0.074 A 
ATOM     36  C   UNL     1       1.110   6.394   7.993  1.00  0.00     0.049 A 
ATOM     37  N   UNL     1      -0.422   6.232  10.583  1.00  0.00    -0.248 NA
ATOM     38  C   UNL     1      -0.651   3.937  10.249  1.00  0.00     0.031 C 
ATOM     39  C   UNL     1       1.806   6.537   6.712  1.00  0.00     0.029 A 
ATOM     40  N   UNL     1       1.040   7.677   8.474  1.00  0.00    -0.354 N 
ATOM     41  C   UNL     1      -1.209   5.695  11.598  1.00  0.00     0.074 A 
ATOM     42  C   UNL     1      -1.392   4.295  11.284  1.00  0.00     0.031 C 
ATOM     43  C   UNL     1       2.140   7.824   6.533  1.00  0.00     0.029 A 
ATOM     44  C   UNL     1       1.648   8.606   7.662  1.00  0.00     0.049 A 
ATOM     45  H   UNL     1       0.595   7.911   9.321  1.00  0.00     0.167 HD
ATOM     46  C   UNL     1      -1.704   6.303  12.706  1.00  0.00     0.034 A 
ATOM     47  C   UNL     1       1.799   9.937   7.810  1.00  0.00     0.034 A 
ATOM     48  C   UNL     1      -1.493   7.699  13.008  1.00  0.00     0.049 A 
ATOM     49  C   UNL     1       1.273  10.592   9.060  1.00  0.00     0.074 A 
ATOM     50  C   UNL     1      -1.878   8.406  14.134  1.00  0.00     0.029 A 
ATOM     51  N   UNL     1      -0.850   8.605  12.173  1.00  0.00    -0.354 N 
ATOM     52  N   UNL     1       0.608  10.054  10.057  1.00  0.00    -0.248 NA
ATOM     53  C   UNL     1       1.540  12.026   9.216  1.00  0.00     0.031 C 
ATOM     54  C   UNL     1      -1.537   9.751  13.945  1.00  0.00     0.029 A 
ATOM     55  C   UNL     1      -0.857   9.870  12.743  1.00  0.00     0.049 A 
ATOM     56  H   UNL     1      -0.447   8.382  11.303  1.00  0.00     0.167 HD
ATOM     57  C   UNL     1       0.399  11.081  10.973  1.00  0.00     0.074 A 
ATOM     58  C   UNL     1       1.027  12.263  10.415  1.00  0.00     0.031 C 
ATOM     59  C   UNL     1      -0.246  11.048  12.168  1.00  0.00     0.034 A 
BRANCH  46  60
ATOM     60  C   UNL     1      -2.542   5.461  13.646  1.00  0.00     0.023 A 
ATOM     61  C   UNL     1      -2.029   4.306  14.266  1.00  0.00     0.031 A 
ATOM     62  C   UNL     1      -3.889   5.784  13.886  1.00  0.00     0.131 A 
ATOM     63  C   UNL     1      -2.879   3.465  15.002  1.00  0.00     0.055 A 
ATOM     64  C   UNL     1      -4.705   4.995  14.701  1.00  0.00     0.041 A 
ATOM     65  F   UNL     1      -4.448   6.861  13.311  1.00  0.00    -0.206 F 
ATOM     66  C   UNL     1      -4.207   3.816  15.247  1.00  0.00     0.022 A 
BRANCH  63  67
ATOM     67  S   UNL     1      -2.273   1.819  15.470  1.00  0.00     0.124 S 
ATOM     68  O   UNL     1      -1.892   1.265  14.173  1.00  0.00    -0.237 OA
ATOM     69  O   UNL     1      -1.176   2.134  16.378  1.00  0.00    -0.237 OA
ATOM     70  O   UNL     1      -3.437   1.189  16.090  1.00  0.00    -0.744 OA
ENDBRANCH  63  67
ENDBRANCH  46  60
BRANCH  47  71
ATOM     71  C   UNL     1       2.488  10.729   6.751  1.00  0.00     0.023 A 
ATOM     72  C   UNL     1       3.731  11.338   6.985  1.00  0.00     0.031 A 
ATOM     73  C   UNL     1       1.909  10.880   5.478  1.00  0.00     0.131 A 
ATOM     74  C   UNL     1       4.342  12.094   5.971  1.00  0.00     0.055 A 
ATOM     75  C   UNL     1       2.542  11.592   4.458  1.00  0.00     0.041 A 
ATOM     76  F   UNL     1       0.727  10.308   5.199  1.00  0.00    -0.206 F 
ATOM     77  C   UNL     1       3.763  12.212   4.706  1.00  0.00     0.022 A 
BRANCH  74  78
ATOM     78  S   UNL     1       5.887  12.969   6.345  1.00  0.00     0.124 S 
ATOM     79  O   UNL     1       5.476  13.848   7.433  1.00  0.00    -0.237 OA
ATOM     80  O   UNL     1       6.777  11.871   6.707  1.00  0.00    -0.237 OA
ATOM     81  O   UNL     1       6.210  13.640   5.087  1.00  0.00    -0.744 OA
ENDBRANCH  74  78
ENDBRANCH  47  71
BRANCH  59  82
ATOM     82  C   UNL     1      -0.265  12.327  12.971  1.00  0.00     0.023 A 
ATOM     83  C   UNL     1      -0.931  13.479  12.518  1.00  0.00     0.031 A 
ATOM     84  C   UNL     1       0.413  12.398  14.202  1.00  0.00     0.131 A 
ATOM     85  C   UNL     1      -0.847  14.671  13.255  1.00  0.00     0.055 A 
ATOM     86  C   UNL     1       0.434  13.566  14.965  1.00  0.00     0.041 A 
ATOM     87  F   UNL     1       1.070  11.331  14.683  1.00  0.00    -0.206 F 
ATOM     88  C   UNL     1      -0.185  14.716  14.485  1.00  0.00     0.022 A 
BRANCH  85  89
ATOM     89  S   UNL     1      -1.515  16.193  12.528  1.00  0.00     0.124 S 
ATOM     90  O   UNL     1      -0.796  16.263  11.260  1.00  0.00    -0.237 OA
ATOM     91  O   UNL     1      -2.941  15.896  12.438  1.00  0.00    -0.237 OA
ATOM     92  O   UNL     1      -1.156  17.223  13.501  1.00  0.00    -0.744 OA
ENDBRANCH  85  89
ENDBRANCH  59  82
ENDBRANCH  33  34
ENDBRANCH  25  28
ENDBRANCH  23  24
ENDBRANCH  22  23
ENDBRANCH  21  22
ENDBRANCH   3  21
TORSDOF 20
