REMARK SMILES Cc1cc(Br)cc2c1O[C@H](C(F)(F)F)C(C(=O)NCCCNC(=O)c1ccc(-c3c4nc(c(-c5cc(S(=O)(=O)[O-])ccc5F)c5ccc([nH]5)c(-c5cc(S(=O)(=O)[O-])ccc5F)c5nc(c(-c6cc(S(=O)(=O)[O-])ccc6F)c6ccc3[nH]6)C=C5)C=C4)cc1)=C2
REMARK SMILES IDX 21 1 20 2 19 3 18 4 16 5 17 6 15 8 1 9 2 10 3 11 8 12 4 13
REMARK SMILES IDX 7 14 9 15 5 16 6 17 88 18 10 19 11 20 12 21 13 22 14 23
REMARK SMILES IDX 22 24 23 25 24 27 25 28 26 29 87 30 27 31 86 32 28 33 29 34
REMARK SMILES IDX 30 35 80 36 31 37 85 38 79 39 81 40 32 41 84 42 78 43 77 44
REMARK SMILES IDX 33 46 65 47 45 48 64 49 46 50 49 51 63 52 82 53 47 54 48 55
REMARK SMILES IDX 62 57 83 58 50 59 34 60 35 61 43 62 36 63 42 64 44 65 41 66
REMARK SMILES IDX 37 67 38 68 39 69 40 70 66 71 67 72 75 73 68 74 74 75 76 76
REMARK SMILES IDX 73 77 69 78 70 79 71 80 72 81 51 82 52 83 60 84 53 85 59 86
REMARK SMILES IDX 61 87 58 88 54 89 55 90 56 91 57 92
REMARK H PARENT 18 7 22 26 81 45 49 56
REMARK Flexibility Score: inf
ROOT
ATOM      1  C   UNL     1      -4.355  -1.565   7.130  1.00  0.00     0.118 C 
ENDROOT
BRANCH   1   2
ATOM      2  C   UNL     1      -3.506  -1.504   5.865  1.00  0.00     0.042 C 
BRANCH   2   3
ATOM      3  C   UNL     1      -4.159  -0.672   4.771  1.00  0.00     0.118 C 
BRANCH   3   4
ATOM      4  N   UNL     1      -4.016   0.756   5.012  1.00  0.00    -0.352 N 
ATOM      5  C   UNL     1      -3.302   1.785   4.500  1.00  0.00     0.251 C 
ATOM      6  O   UNL     1      -3.511   2.883   5.027  1.00  0.00    -0.270 OA
ATOM      7  H   UNL     1      -4.597   1.055   5.749  1.00  0.00     0.163 HD
BRANCH   5   8
ATOM      8  C   UNL     1      -2.324   1.680   3.380  1.00  0.00     0.067 C 
ATOM      9  C   UNL     1       1.085   0.190  -0.195  1.00  0.00     0.048 C 
ATOM     10  C   UNL     1       0.650   1.496   0.408  1.00  0.00    -0.007 A 
ATOM     11  C   UNL     1       1.168   2.694  -0.103  1.00  0.00     0.023 A 
ATOM     12  C   UNL     1      -0.304   1.560   1.433  1.00  0.00     0.130 A 
ATOM     13  C   UNL     1       0.761   3.919   0.425  1.00  0.00     0.019 A 
ATOM     14  C   UNL     1      -0.707   2.789   1.970  1.00  0.00     0.019 A 
ATOM     15  O   UNL     1      -0.790   0.377   1.918  1.00  0.00    -0.475 OA
ATOM     16  Br  UNL     1       1.479   5.523  -0.274  1.00  0.00    -0.051 Br
ATOM     17  C   UNL     1      -0.168   3.974   1.464  1.00  0.00     0.027 A 
ATOM     18  C   UNL     1      -1.659   2.810   3.074  1.00  0.00     0.025 C 
ATOM     19  C   UNL     1      -2.079   0.431   2.584  1.00  0.00     0.314 C 
BRANCH  19  20
ATOM     20  C   UNL     1      -3.195   0.156   1.558  1.00  0.00     0.429 C 
ATOM     21  F   UNL     1      -3.138  -1.128   1.124  1.00  0.00    -0.167 F 
ATOM     22  F   UNL     1      -4.434   0.331   2.076  1.00  0.00    -0.167 F 
ATOM     23  F   UNL     1      -3.114   0.954   0.470  1.00  0.00    -0.167 F 
ENDBRANCH  19  20
ENDBRANCH   5   8
ENDBRANCH   3   4
ENDBRANCH   2   3
ENDBRANCH   1   2
BRANCH   1  24
ATOM     24  N   UNL     1      -5.612  -2.274   6.905  1.00  0.00    -0.352 N 
ATOM     25  C   UNL     1      -5.996  -3.535   7.289  1.00  0.00     0.251 C 
ATOM     26  H   UNL     1      -6.289  -1.768   6.400  1.00  0.00     0.163 HD
ATOM     27  O   UNL     1      -6.979  -4.054   6.764  1.00  0.00    -0.269 OA
BRANCH  25  28
ATOM     28  C   UNL     1      -5.222  -4.262   8.314  1.00  0.00     0.039 A 
ATOM     29  C   UNL     1      -4.963  -5.623   8.144  1.00  0.00     0.014 A 
ATOM     30  C   UNL     1      -4.759  -3.595   9.451  1.00  0.00     0.014 A 
ATOM     31  C   UNL     1      -4.172  -6.294   9.078  1.00  0.00     0.010 A 
ATOM     32  C   UNL     1      -3.895  -4.239  10.327  1.00  0.00     0.010 A 
ATOM     33  C   UNL     1      -3.597  -5.597  10.153  1.00  0.00    -0.014 A 
BRANCH  33  34
ATOM     34  C   UNL     1      -2.692  -6.273  11.116  1.00  0.00     0.031 A 
ATOM     35  C   UNL     1      -3.079  -6.370  12.567  1.00  0.00     0.074 A 
ATOM     36  C   UNL     1      -1.507  -6.753  10.691  1.00  0.00     0.049 A 
ATOM     37  N   UNL     1      -2.401  -6.865  13.569  1.00  0.00    -0.248 NA
ATOM     38  C   UNL     1      -4.386  -5.808  12.948  1.00  0.00     0.031 C 
ATOM     39  C   UNL     1      -1.008  -6.675   9.315  1.00  0.00     0.029 A 
ATOM     40  N   UNL     1      -0.507  -7.407  11.366  1.00  0.00    -0.354 N 
ATOM     41  C   UNL     1      -3.193  -6.670  14.694  1.00  0.00     0.074 A 
ATOM     42  C   UNL     1      -4.371  -5.949  14.264  1.00  0.00     0.031 C 
ATOM     43  C   UNL     1       0.176  -7.303   9.239  1.00  0.00     0.029 A 
ATOM     44  C   UNL     1       0.544  -7.788  10.565  1.00  0.00     0.049 A 
ATOM     45  H   UNL     1      -0.540  -7.586  12.333  1.00  0.00     0.167 HD
ATOM     46  C   UNL     1      -2.974  -7.084  15.965  1.00  0.00     0.034 A 
ATOM     47  C   UNL     1       1.676  -8.457  10.865  1.00  0.00     0.034 A 
ATOM     48  C   UNL     1      -1.814  -7.832  16.372  1.00  0.00     0.049 A 
ATOM     49  C   UNL     1       1.904  -8.894  12.288  1.00  0.00     0.074 A 
ATOM     50  C   UNL     1      -1.516  -8.342  17.622  1.00  0.00     0.029 A 
ATOM     51  N   UNL     1      -0.765  -8.183  15.534  1.00  0.00    -0.354 N 
ATOM     52  N   UNL     1       1.135  -8.713  13.336  1.00  0.00    -0.248 NA
ATOM     53  C   UNL     1       3.148  -9.623  12.571  1.00  0.00     0.031 C 
ATOM     54  C   UNL     1      -0.264  -8.960  17.553  1.00  0.00     0.029 A 
ATOM     55  C   UNL     1       0.191  -8.887  16.246  1.00  0.00     0.049 A 
ATOM     56  H   UNL     1      -0.709  -7.965  14.576  1.00  0.00     0.167 HD
ATOM     57  C   UNL     1       1.790  -9.327  14.397  1.00  0.00     0.074 A 
ATOM     58  C   UNL     1       3.017  -9.884  13.865  1.00  0.00     0.031 C 
ATOM     59  C   UNL     1       1.407  -9.428  15.694  1.00  0.00     0.034 A 
BRANCH  46  60
ATOM     60  C   UNL     1      -4.012  -6.743  17.000  1.00  0.00     0.023 A 
ATOM     61  C   UNL     1      -5.297  -7.311  16.959  1.00  0.00     0.031 A 
ATOM     62  C   UNL     1      -3.713  -5.855  18.048  1.00  0.00     0.131 A 
ATOM     63  C   UNL     1      -6.252  -6.948  17.919  1.00  0.00     0.055 A 
ATOM     64  C   UNL     1      -4.647  -5.549  19.038  1.00  0.00     0.041 A 
ATOM     65  F   UNL     1      -2.507  -5.271  18.123  1.00  0.00    -0.206 F 
ATOM     66  C   UNL     1      -5.928  -6.090  18.973  1.00  0.00     0.022 A 
BRANCH  63  67
ATOM     67  S   UNL     1      -7.950  -7.550  17.723  1.00  0.00     0.124 S 
ATOM     68  O   UNL     1      -8.361  -6.873  16.495  1.00  0.00    -0.237 OA
ATOM     69  O   UNL     1      -7.768  -8.993  17.626  1.00  0.00    -0.237 OA
ATOM     70  O   UNL     1      -8.619  -7.087  18.938  1.00  0.00    -0.744 OA
ENDBRANCH  63  67
ENDBRANCH  46  60
BRANCH  47  71
ATOM     71  C   UNL     1       2.666  -8.765   9.798  1.00  0.00     0.023 A 
ATOM     72  C   UNL     1       2.868 -10.085   9.365  1.00  0.00     0.031 A 
ATOM     73  C   UNL     1       3.420  -7.746   9.189  1.00  0.00     0.131 A 
ATOM     74  C   UNL     1       3.818 -10.355   8.368  1.00  0.00     0.055 A 
ATOM     75  C   UNL     1       4.337  -8.015   8.172  1.00  0.00     0.041 A 
ATOM     76  F   UNL     1       3.253  -6.466   9.560  1.00  0.00    -0.206 F 
ATOM     77  C   UNL     1       4.545  -9.328   7.760  1.00  0.00     0.022 A 
BRANCH  74  78
ATOM     78  S   UNL     1       4.115 -12.080   7.893  1.00  0.00     0.124 S 
ATOM     79  O   UNL     1       4.625 -12.646   9.137  1.00  0.00    -0.237 OA
ATOM     80  O   UNL     1       2.784 -12.518   7.485  1.00  0.00    -0.237 OA
ATOM     81  O   UNL     1       5.090 -11.971   6.810  1.00  0.00    -0.744 OA
ENDBRANCH  74  78
ENDBRANCH  47  71
BRANCH  59  82
ATOM     82  C   UNL     1       2.303 -10.192  16.628  1.00  0.00     0.023 A 
ATOM     83  C   UNL     1       3.505  -9.641  17.100  1.00  0.00     0.031 A 
ATOM     84  C   UNL     1       1.903 -11.449  17.114  1.00  0.00     0.131 A 
ATOM     85  C   UNL     1       4.276 -10.355  18.028  1.00  0.00     0.055 A 
ATOM     86  C   UNL     1       2.654 -12.136  18.067  1.00  0.00     0.041 A 
ATOM     87  F   UNL     1       0.757 -12.009  16.695  1.00  0.00    -0.206 F 
ATOM     88  C   UNL     1       3.849 -11.590  18.528  1.00  0.00     0.022 A 
BRANCH  85  89
ATOM     89  S   UNL     1       5.853  -9.650  18.579  1.00  0.00     0.124 S 
ATOM     90  O   UNL     1       6.654  -9.715  17.360  1.00  0.00    -0.237 OA
ATOM     91  O   UNL     1       5.467  -8.312  19.017  1.00  0.00    -0.237 OA
ATOM     92  O   UNL     1       6.276 -10.551  19.649  1.00  0.00    -0.744 OA
ENDBRANCH  85  89
ENDBRANCH  59  82
ENDBRANCH  33  34
ENDBRANCH  25  28
ENDBRANCH   1  24
TORSDOF 14
