REMARK SMILES Cn1ccnc1NCCOCC(=O)NCCCNC(=O)c1ccc(-c2c3nc(c(-c4cc(S(=O)(=O)[O-])ccc4F)c4ccc([nH]4)c(-c4cc(S(=O)(=O)[O-])ccc4F)c4nc(c(-c5cc(S(=O)(=O)[O-])ccc5F)c5ccc2[nH]5)C=C4)C=C3)cc1
REMARK SMILES IDX 15 1 14 2 12 3 13 4 11 6 10 7 9 8 8 9 7 10 6 12 1 13 2 14
REMARK SMILES IDX 3 15 4 16 5 17 16 18 17 19 18 20 19 21 20 23 21 24 22 25
REMARK SMILES IDX 83 26 23 27 82 28 24 29 25 30 26 31 76 32 27 33 81 34 75 35
REMARK SMILES IDX 77 36 28 37 80 38 74 39 73 40 29 42 61 43 41 44 60 45 42 46
REMARK SMILES IDX 45 47 59 48 78 49 43 50 44 51 58 53 79 54 46 55 30 56 31 57
REMARK SMILES IDX 39 58 32 59 38 60 40 61 37 62 33 63 34 64 35 65 36 66 62 67
REMARK SMILES IDX 63 68 71 69 64 70 70 71 72 72 69 73 65 74 66 75 67 76 68 77
REMARK SMILES IDX 47 78 48 79 56 80 49 81 55 82 57 83 54 84 50 85 51 86 52 87
REMARK SMILES IDX 53 88
REMARK H PARENT 14 5 7 11 18 22 77 41 45 52
REMARK Flexibility Score: inf
ROOT
ATOM      1  C   UNL     1       2.234   5.191   4.071  1.00  0.00     0.117 C 
ENDROOT
BRANCH   1   2
ATOM      2  N   UNL     1       2.115   3.772   3.788  1.00  0.00    -0.354 N 
ATOM      3  C   UNL     1       2.074   3.164   2.566  1.00  0.00     0.245 C 
ATOM      4  O   UNL     1       2.114   1.934   2.503  1.00  0.00    -0.272 OA
ATOM      5  H   UNL     1       2.057   3.177   4.570  1.00  0.00     0.163 HD
BRANCH   3   6
ATOM      6  C   UNL     1       2.014   4.037   1.307  1.00  0.00     0.260 C 
BRANCH   6   7
ATOM      7  O   UNL     1       0.855   4.827   1.104  1.00  0.00    -0.370 OA
BRANCH   7   8
ATOM      8  C   UNL     1      -0.384   4.098   1.091  1.00  0.00     0.182 C 
BRANCH   8   9
ATOM      9  C   UNL     1      -0.705   3.431  -0.258  1.00  0.00     0.144 C 
BRANCH   9  10
ATOM     10  N   UNL     1       0.139   2.271  -0.505  1.00  0.00    -0.353 N 
ATOM     11  H   UNL     1       1.037   2.399  -0.887  1.00  0.00     0.163 HD
BRANCH  10  12
ATOM     12  C   UNL     1      -0.287   1.027  -0.220  1.00  0.00     0.202 A 
ATOM     13  C   UNL     1       2.022  -0.013  -0.101  1.00  0.00     0.153 C 
ATOM     14  N   UNL     1       0.581  -0.036  -0.111  1.00  0.00    -0.321 N 
ATOM     15  C   UNL     1      -0.166  -1.171   0.070  1.00  0.00     0.109 A 
ATOM     16  C   UNL     1      -1.465  -0.732   0.125  1.00  0.00     0.133 A 
ATOM     17  N   UNL     1      -1.524   0.628  -0.032  1.00  0.00    -0.222 NA
ENDBRANCH  10  12
ENDBRANCH   9  10
ENDBRANCH   8   9
ENDBRANCH   7   8
ENDBRANCH   6   7
ENDBRANCH   3   6
ENDBRANCH   1   2
BRANCH   1  18
ATOM     18  C   UNL     1       1.005   5.765   4.761  1.00  0.00     0.042 C 
BRANCH  18  19
ATOM     19  C   UNL     1       0.688   5.135   6.113  1.00  0.00     0.118 C 
BRANCH  19  20
ATOM     20  N   UNL     1       1.792   5.231   7.058  1.00  0.00    -0.352 N 
ATOM     21  C   UNL     1       1.879   5.862   8.275  1.00  0.00     0.251 C 
ATOM     22  H   UNL     1       2.614   4.765   6.778  1.00  0.00     0.163 HD
ATOM     23  O   UNL     1       2.979   5.973   8.810  1.00  0.00    -0.269 OA
BRANCH  21  24
ATOM     24  C   UNL     1       0.675   6.425   8.925  1.00  0.00     0.039 A 
ATOM     25  C   UNL     1       0.777   7.654   9.582  1.00  0.00     0.014 A 
ATOM     26  C   UNL     1      -0.544   5.743   8.913  1.00  0.00     0.014 A 
ATOM     27  C   UNL     1      -0.357   8.230  10.160  1.00  0.00     0.010 A 
ATOM     28  C   UNL     1      -1.691   6.358   9.411  1.00  0.00     0.010 A 
ATOM     29  C   UNL     1      -1.610   7.608  10.041  1.00  0.00    -0.014 A 
BRANCH  29  30
ATOM     30  C   UNL     1      -2.842   8.256  10.565  1.00  0.00     0.031 A 
ATOM     31  C   UNL     1      -3.650   7.594  11.647  1.00  0.00     0.074 A 
ATOM     32  C   UNL     1      -3.266   9.413  10.020  1.00  0.00     0.049 A 
ATOM     33  N   UNL     1      -4.782   7.971  12.185  1.00  0.00    -0.248 NA
ATOM     34  C   UNL     1      -3.130   6.322  12.170  1.00  0.00     0.031 C 
ATOM     35  C   UNL     1      -2.599  10.124   8.927  1.00  0.00     0.029 A 
ATOM     36  N   UNL     1      -4.362  10.190  10.299  1.00  0.00    -0.354 N 
ATOM     37  C   UNL     1      -5.112   6.982  13.107  1.00  0.00     0.074 A 
ATOM     38  C   UNL     1      -4.100   5.953  12.991  1.00  0.00     0.031 C 
ATOM     39  C   UNL     1      -3.286  11.241   8.645  1.00  0.00     0.029 A 
ATOM     40  C   UNL     1      -4.469  11.303   9.497  1.00  0.00     0.049 A 
ATOM     41  H   UNL     1      -5.012   9.972  11.006  1.00  0.00     0.167 HD
ATOM     42  C   UNL     1      -6.144   6.950  13.988  1.00  0.00     0.034 A 
ATOM     43  C   UNL     1      -5.419  12.257   9.440  1.00  0.00     0.034 A 
ATOM     44  C   UNL     1      -7.149   7.982  14.080  1.00  0.00     0.049 A 
ATOM     45  C   UNL     1      -6.577  12.188  10.400  1.00  0.00     0.074 A 
ATOM     46  C   UNL     1      -8.215   8.074  14.959  1.00  0.00     0.029 A 
ATOM     47  N   UNL     1      -7.225   9.097  13.252  1.00  0.00    -0.354 N 
ATOM     48  N   UNL     1      -6.846  11.276  11.307  1.00  0.00    -0.248 NA
ATOM     49  C   UNL     1      -7.552  13.284  10.340  1.00  0.00     0.031 C 
ATOM     50  C   UNL     1      -8.974   9.198  14.614  1.00  0.00     0.029 A 
ATOM     51  C   UNL     1      -8.337   9.861  13.577  1.00  0.00     0.049 A 
ATOM     52  H   UNL     1      -6.582   9.314  12.539  1.00  0.00     0.167 HD
ATOM     53  C   UNL     1      -8.011  11.701  11.940  1.00  0.00     0.074 A 
ATOM     54  C   UNL     1      -8.378  12.961  11.325  1.00  0.00     0.031 C 
ATOM     55  C   UNL     1      -8.710  11.105  12.940  1.00  0.00     0.034 A 
BRANCH  42  56
ATOM     56  C   UNL     1      -6.237   5.743  14.896  1.00  0.00     0.023 A 
ATOM     57  C   UNL     1      -5.199   5.411  15.787  1.00  0.00     0.031 A 
ATOM     58  C   UNL     1      -7.345   4.880  14.835  1.00  0.00     0.131 A 
ATOM     59  C   UNL     1      -5.241   4.203  16.498  1.00  0.00     0.055 A 
ATOM     60  C   UNL     1      -7.426   3.727  15.620  1.00  0.00     0.041 A 
ATOM     61  F   UNL     1      -8.360   5.127  13.992  1.00  0.00    -0.206 F 
ATOM     62  C   UNL     1      -6.361   3.371  16.442  1.00  0.00     0.022 A 
BRANCH  59  63
ATOM     63  S   UNL     1      -3.736   3.648  17.345  1.00  0.00     0.124 S 
ATOM     64  O   UNL     1      -2.771   3.629  16.248  1.00  0.00    -0.237 OA
ATOM     65  O   UNL     1      -3.540   4.684  18.352  1.00  0.00    -0.237 OA
ATOM     66  O   UNL     1      -4.101   2.332  17.865  1.00  0.00    -0.744 OA
ENDBRANCH  59  63
ENDBRANCH  42  56
BRANCH  43  67
ATOM     67  C   UNL     1      -5.323  13.344   8.423  1.00  0.00     0.023 A 
ATOM     68  C   UNL     1      -5.132  14.682   8.798  1.00  0.00     0.031 A 
ATOM     69  C   UNL     1      -5.432  13.052   7.051  1.00  0.00     0.131 A 
ATOM     70  C   UNL     1      -5.088  15.684   7.815  1.00  0.00     0.055 A 
ATOM     71  C   UNL     1      -5.336  14.044   6.074  1.00  0.00     0.041 A 
ATOM     72  F   UNL     1      -5.609  11.787   6.638  1.00  0.00    -0.206 F 
ATOM     73  C   UNL     1      -5.173  15.372   6.456  1.00  0.00     0.022 A 
BRANCH  70  74
ATOM     74  S   UNL     1      -4.983  17.417   8.341  1.00  0.00     0.124 S 
ATOM     75  O   UNL     1      -6.190  17.557   9.147  1.00  0.00    -0.237 OA
ATOM     76  O   UNL     1      -3.719  17.437   9.069  1.00  0.00    -0.237 OA
ATOM     77  O   UNL     1      -4.984  18.156   7.080  1.00  0.00    -0.744 OA
ENDBRANCH  70  74
ENDBRANCH  43  67
BRANCH  55  78
ATOM     78  C   UNL     1      -9.930  11.835  13.451  1.00  0.00     0.023 A 
ATOM     79  C   UNL     1     -11.060  12.049  12.642  1.00  0.00     0.031 A 
ATOM     80  C   UNL     1      -9.955  12.341  14.764  1.00  0.00     0.131 A 
ATOM     81  C   UNL     1     -12.139  12.803  13.130  1.00  0.00     0.055 A 
ATOM     82  C   UNL     1     -11.060  13.030  15.267  1.00  0.00     0.041 A 
ATOM     83  F   UNL     1      -8.903  12.173  15.582  1.00  0.00    -0.206 F 
ATOM     84  C   UNL     1     -12.154  13.278  14.444  1.00  0.00     0.022 A 
BRANCH  81  85
ATOM     85  S   UNL     1     -13.476  13.250  11.989  1.00  0.00     0.124 S 
ATOM     86  O   UNL     1     -12.754  13.963  10.940  1.00  0.00    -0.237 OA
ATOM     87  O   UNL     1     -14.019  11.947  11.618  1.00  0.00    -0.237 OA
ATOM     88  O   UNL     1     -14.361  14.079  12.806  1.00  0.00    -0.744 OA
ENDBRANCH  81  85
ENDBRANCH  55  78
ENDBRANCH  29  30
ENDBRANCH  21  24
ENDBRANCH  19  20
ENDBRANCH  18  19
ENDBRANCH   1  18
TORSDOF 18
