REMARK SMILES Nc1ccc(C(=O)NC[C@@H]2CC[C@@H](C(=O)NCCCNC(=O)c3ccc(-c4c5nc(c(-c6cc(S(=O)(=O)[O-])ccc6F)c6ccc([nH]6)c(-c6cc(S(=O)(=O)[O-])ccc6F)c6nc(c(-c7cc(S(=O)(=O)[O-])ccc7F)c7ccc4[nH]7)C=C6)C=C5)cc3)O2)cc1Cl
REMARK SMILES IDX 17 1 16 2 14 3 15 4 13 6 10 7 11 8 86 9 12 10 9 11 8 12 6 13
REMARK SMILES IDX 7 14 5 16 2 17 3 18 88 19 4 20 87 21 89 22 1 23 18 26 19 27
REMARK SMILES IDX 20 28 21 29 22 31 23 32 24 33 85 34 25 35 84 36 26 37 27 38
REMARK SMILES IDX 28 39 78 40 29 41 83 42 77 43 79 44 30 45 82 46 76 47 75 48
REMARK SMILES IDX 31 50 63 51 43 52 62 53 44 54 47 55 61 56 80 57 45 58 46 59
REMARK SMILES IDX 60 61 81 62 48 63 32 64 33 65 41 66 34 67 40 68 42 69 39 70
REMARK SMILES IDX 35 71 36 72 37 73 38 74 64 75 65 76 73 77 66 78 72 79 74 80
REMARK SMILES IDX 71 81 67 82 68 83 69 84 70 85 49 86 50 87 58 88 51 89 57 90
REMARK SMILES IDX 59 91 56 92 52 93 53 94 54 95 55 96
REMARK H PARENT 16 5 8 15 1 24 1 25 20 30 79 49 47 60
REMARK Flexibility Score: inf
ROOT
ATOM      1  C   UNL     1       5.631  -2.917  -2.176  1.00  0.00     0.117 C 
ENDROOT
BRANCH   1   2
ATOM      2  N   UNL     1       6.295  -2.328  -3.325  1.00  0.00    -0.354 N 
ATOM      3  C   UNL     1       6.259  -1.047  -3.792  1.00  0.00     0.249 C 
ATOM      4  O   UNL     1       6.942  -0.785  -4.786  1.00  0.00    -0.272 OA
ATOM      5  H   UNL     1       6.856  -2.947  -3.845  1.00  0.00     0.163 HD
BRANCH   3   6
ATOM      6  C   UNL     1       5.335  -0.004  -3.131  1.00  0.00     0.207 C 
ATOM      7  C   UNL     1       5.769   1.356  -1.277  1.00  0.00     0.138 C 
ATOM      8  C   UNL     1       5.327   2.260  -2.412  1.00  0.00     0.037 C 
ATOM      9  O   UNL     1       5.410   0.032  -1.697  1.00  0.00    -0.363 OA
ATOM     10  C   UNL     1       5.655   1.410  -3.614  1.00  0.00     0.045 C 
BRANCH   7  11
ATOM     11  C   UNL     1       5.206   1.658   0.124  1.00  0.00     0.148 C 
BRANCH  11  12
ATOM     12  N   UNL     1       4.080   2.576   0.141  1.00  0.00    -0.349 N 
ATOM     13  C   UNL     1       2.720   2.476   0.061  1.00  0.00     0.251 C 
ATOM     14  O   UNL     1       2.120   3.556   0.054  1.00  0.00    -0.269 OA
ATOM     15  H   UNL     1       4.372   3.512   0.235  1.00  0.00     0.163 HD
BRANCH  13  16
ATOM     16  C   UNL     1       1.921   1.216  -0.004  1.00  0.00     0.041 A 
ATOM     17  C   UNL     1       0.167  -1.030  -0.059  1.00  0.00     0.050 A 
ATOM     18  C   UNL     1       1.553  -1.189  -0.112  1.00  0.00     0.028 A 
ATOM     19  C   UNL     1      -0.336   0.275   0.031  1.00  0.00     0.064 A 
ATOM     20  C   UNL     1       2.421  -0.082  -0.100  1.00  0.00     0.016 A 
ATOM     21  C   UNL     1       0.524   1.376   0.050  1.00  0.00     0.036 A 
ATOM     22  Cl  UNL     1      -2.040   0.565   0.115  1.00  0.00    -0.082 Cl
BRANCH  17  23
ATOM     23  N   UNL     1      -0.655  -2.146   0.005  1.00  0.00    -0.398 N 
ATOM     24  H   UNL     1      -0.266  -3.048  -0.061  1.00  0.00     0.156 HD
ATOM     25  H   UNL     1      -1.627  -2.035   0.117  1.00  0.00     0.156 HD
ENDBRANCH  17  23
ENDBRANCH  13  16
ENDBRANCH  11  12
ENDBRANCH   7  11
ENDBRANCH   3   6
ENDBRANCH   1   2
BRANCH   1  26
ATOM     26  C   UNL     1       4.695  -4.056  -2.558  1.00  0.00     0.042 C 
BRANCH  26  27
ATOM     27  C   UNL     1       5.372  -5.229  -3.260  1.00  0.00     0.118 C 
BRANCH  27  28
ATOM     28  N   UNL     1       6.369  -5.893  -2.432  1.00  0.00    -0.352 N 
ATOM     29  C   UNL     1       6.396  -7.166  -1.910  1.00  0.00     0.251 C 
ATOM     30  H   UNL     1       7.153  -5.340  -2.210  1.00  0.00     0.163 HD
ATOM     31  O   UNL     1       7.264  -7.462  -1.099  1.00  0.00    -0.269 OA
BRANCH  29  32
ATOM     32  C   UNL     1       5.363  -8.158  -2.291  1.00  0.00     0.039 A 
ATOM     33  C   UNL     1       4.785  -8.944  -1.290  1.00  0.00     0.014 A 
ATOM     34  C   UNL     1       4.961  -8.316  -3.619  1.00  0.00     0.014 A 
ATOM     35  C   UNL     1       3.733  -9.808  -1.605  1.00  0.00     0.010 A 
ATOM     36  C   UNL     1       3.862  -9.120  -3.919  1.00  0.00     0.010 A 
ATOM     37  C   UNL     1       3.223  -9.858  -2.912  1.00  0.00    -0.014 A 
BRANCH  37  38
ATOM     38  C   UNL     1       1.994 -10.630  -3.237  1.00  0.00     0.031 A 
ATOM     39  C   UNL     1       2.047 -11.776  -4.208  1.00  0.00     0.074 A 
ATOM     40  C   UNL     1       0.811 -10.235  -2.721  1.00  0.00     0.049 A 
ATOM     41  N   UNL     1       1.066 -12.484  -4.706  1.00  0.00    -0.248 NA
ATOM     42  C   UNL     1       3.377 -12.158  -4.703  1.00  0.00     0.031 C 
ATOM     43  C   UNL     1       0.626  -9.117  -1.792  1.00  0.00     0.029 A 
ATOM     44  N   UNL     1      -0.461 -10.713  -2.917  1.00  0.00    -0.354 N 
ATOM     45  C   UNL     1       1.656 -13.390  -5.581  1.00  0.00     0.074 A 
ATOM     46  C   UNL     1       3.076 -13.103  -5.582  1.00  0.00     0.031 C 
ATOM     47  C   UNL     1      -0.676  -9.006  -1.489  1.00  0.00     0.029 A 
ATOM     48  C   UNL     1      -1.429 -10.002  -2.245  1.00  0.00     0.049 A 
ATOM     49  H   UNL     1      -0.662 -11.491  -3.486  1.00  0.00     0.167 HD
ATOM     50  C   UNL     1       1.069 -14.378  -6.302  1.00  0.00     0.034 A 
ATOM     51  C   UNL     1      -2.772 -10.118  -2.255  1.00  0.00     0.034 A 
ATOM     52  C   UNL     1      -0.348 -14.653  -6.286  1.00  0.00     0.049 A 
ATOM     53  C   UNL     1      -3.405 -11.187  -3.108  1.00  0.00     0.074 A 
ATOM     54  C   UNL     1      -1.036 -15.669  -6.926  1.00  0.00     0.029 A 
ATOM     55  N   UNL     1      -1.299 -13.900  -5.608  1.00  0.00    -0.354 N 
ATOM     56  N   UNL     1      -2.826 -12.070  -3.889  1.00  0.00    -0.248 NA
ATOM     57  C   UNL     1      -4.870 -11.276  -3.079  1.00  0.00     0.031 C 
ATOM     58  C   UNL     1      -2.404 -15.486  -6.700  1.00  0.00     0.029 A 
ATOM     59  C   UNL     1      -2.569 -14.402  -5.853  1.00  0.00     0.049 A 
ATOM     60  H   UNL     1      -1.101 -13.122  -5.037  1.00  0.00     0.167 HD
ATOM     61  C   UNL     1      -3.858 -12.833  -4.428  1.00  0.00     0.074 A 
ATOM     62  C   UNL     1      -5.091 -12.319  -3.866  1.00  0.00     0.031 C 
ATOM     63  C   UNL     1      -3.794 -13.865  -5.306  1.00  0.00     0.034 A 
BRANCH  50  64
ATOM     64  C   UNL     1       1.958 -15.214  -7.191  1.00  0.00     0.023 A 
ATOM     65  C   UNL     1       2.979 -16.024  -6.664  1.00  0.00     0.031 A 
ATOM     66  C   UNL     1       1.792 -15.192  -8.587  1.00  0.00     0.131 A 
ATOM     67  C   UNL     1       3.838 -16.721  -7.528  1.00  0.00     0.055 A 
ATOM     68  C   UNL     1       2.599 -15.950  -9.438  1.00  0.00     0.041 A 
ATOM     69  F   UNL     1       0.848 -14.422  -9.151  1.00  0.00    -0.206 F 
ATOM     70  C   UNL     1       3.640 -16.709  -8.910  1.00  0.00     0.022 A 
BRANCH  67  71
ATOM     71  S   UNL     1       5.303 -17.529  -6.827  1.00  0.00     0.124 S 
ATOM     72  O   UNL     1       5.982 -16.404  -6.188  1.00  0.00    -0.237 OA
ATOM     73  O   UNL     1       4.718 -18.517  -5.928  1.00  0.00    -0.237 OA
ATOM     74  O   UNL     1       5.986 -18.076  -7.997  1.00  0.00    -0.744 OA
ENDBRANCH  67  71
ENDBRANCH  50  64
BRANCH  51  75
ATOM     75  C   UNL     1      -3.617  -9.179  -1.462  1.00  0.00     0.023 A 
ATOM     76  C   UNL     1      -4.418  -9.643  -0.407  1.00  0.00     0.031 A 
ATOM     77  C   UNL     1      -3.671  -7.809  -1.777  1.00  0.00     0.131 A 
ATOM     78  C   UNL     1      -5.273  -8.756   0.265  1.00  0.00     0.055 A 
ATOM     79  C   UNL     1      -4.482  -6.920  -1.070  1.00  0.00     0.041 A 
ATOM     80  F   UNL     1      -2.921  -7.310  -2.773  1.00  0.00    -0.206 F 
ATOM     81  C   UNL     1      -5.300  -7.395  -0.050  1.00  0.00     0.022 A 
BRANCH  78  82
ATOM     82  S   UNL     1      -6.417  -9.425   1.503  1.00  0.00     0.124 S 
ATOM     83  O   UNL     1      -7.171 -10.394   0.717  1.00  0.00    -0.237 OA
ATOM     84  O   UNL     1      -5.500  -9.976   2.494  1.00  0.00    -0.237 OA
ATOM     85  O   UNL     1      -7.171  -8.251   1.938  1.00  0.00    -0.744 OA
ENDBRANCH  78  82
ENDBRANCH  51  75
BRANCH  63  86
ATOM     86  C   UNL     1      -5.099 -14.519  -5.691  1.00  0.00     0.023 A 
ATOM     87  C   UNL     1      -6.071 -13.837  -6.443  1.00  0.00     0.031 A 
ATOM     88  C   UNL     1      -5.378 -15.837  -5.288  1.00  0.00     0.131 A 
ATOM     89  C   UNL     1      -7.298 -14.457  -6.725  1.00  0.00     0.055 A 
ATOM     90  C   UNL     1      -6.576 -16.470  -5.624  1.00  0.00     0.041 A 
ATOM     91  F   UNL     1      -4.488 -16.534  -4.564  1.00  0.00    -0.206 F 
ATOM     92  C   UNL     1      -7.549 -15.775  -6.336  1.00  0.00     0.022 A 
BRANCH  89  93
ATOM     93  S   UNL     1      -8.598 -13.485  -7.535  1.00  0.00     0.124 S 
ATOM     94  O   UNL     1      -8.804 -12.400  -6.582  1.00  0.00    -0.237 OA
ATOM     95  O   UNL     1      -7.970 -13.113  -8.799  1.00  0.00    -0.237 OA
ATOM     96  O   UNL     1      -9.709 -14.428  -7.651  1.00  0.00    -0.744 OA
ENDBRANCH  89  93
ENDBRANCH  63  86
ENDBRANCH  37  38
ENDBRANCH  29  32
ENDBRANCH  27  28
ENDBRANCH  26  27
ENDBRANCH   1  26
TORSDOF 17
