REMARK SMILES COc1cccc(Cn2c(=O)c(=O)n(CC(=O)NCCCNC(=O)c3ccc(-c4c5nc(c(-c6cc(S(=O)(=O)[O-])ccc6F)c6ccc([nH]6)c(-c6cc(S(=O)(=O)[O-])ccc6F)c6nc(c(-c7cc(S(=O)(=O)[O-])ccc7F)c7ccc4[nH]7)C=C6)C=C5)cc3)c3ccccc32)c1
REMARK SMILES IDX 19 1 18 2 16 3 17 4 15 6 14 7 9 8 10 9 93 10 11 11 12 12
REMARK SMILES IDX 88 13 92 14 13 15 89 16 91 17 90 18 8 19 7 20 3 21 4 22
REMARK SMILES IDX 94 23 5 24 6 25 2 26 1 27 20 28 21 29 22 30 23 31 24 33
REMARK SMILES IDX 25 34 26 35 87 36 27 37 86 38 28 39 29 40 30 41 80 42 31 43
REMARK SMILES IDX 85 44 79 45 81 46 32 47 84 48 78 49 77 50 33 52 65 53 45 54
REMARK SMILES IDX 64 55 46 56 49 57 63 58 82 59 47 60 48 61 62 63 83 64 50 65
REMARK SMILES IDX 34 66 35 67 43 68 36 69 42 70 44 71 41 72 37 73 38 74 39 75
REMARK SMILES IDX 40 76 66 77 67 78 75 79 68 80 74 81 76 82 73 83 69 84 70 85
REMARK SMILES IDX 71 86 72 87 51 88 52 89 60 90 53 91 59 92 61 93 58 94 54 95
REMARK SMILES IDX 55 96 56 97 57 98
REMARK H PARENT 18 5 22 32 81 51 49 62
REMARK Flexibility Score: inf
ROOT
ATOM      1  C   UNL     1       0.753  -0.767  -6.760  1.00  0.00     0.117 C 
ENDROOT
BRANCH   1   2
ATOM      2  N   UNL     1       1.103  -1.867  -7.636  1.00  0.00    -0.354 N 
ATOM      3  C   UNL     1       2.250  -2.582  -7.761  1.00  0.00     0.240 C 
ATOM      4  O   UNL     1       2.225  -3.511  -8.580  1.00  0.00    -0.273 OA
ATOM      5  H   UNL     1       0.383  -2.144  -8.247  1.00  0.00     0.163 HD
BRANCH   3   6
ATOM      6  C   UNL     1       3.450  -2.465  -6.814  1.00  0.00     0.226 C 
BRANCH   6   7
ATOM      7  N   UNL     1       4.021  -1.217  -6.327  1.00  0.00    -0.293 N 
ATOM      8  N   UNL     1       5.234   1.034  -5.154  1.00  0.00    -0.298 N 
ATOM      9  C   UNL     1       4.964  -0.072  -4.371  1.00  0.00     0.317 A 
ATOM     10  C   UNL     1       5.485   0.764  -6.524  1.00  0.00     0.068 A 
ATOM     11  O   UNL     1       5.482  -0.325  -3.285  1.00  0.00    -0.263 OA
ATOM     12  C   UNL     1       3.901  -0.986  -4.961  1.00  0.00     0.317 A 
ATOM     13  C   UNL     1       4.911  -0.404  -7.106  1.00  0.00     0.069 A 
ATOM     14  C   UNL     1       6.415   1.524  -7.245  1.00  0.00     0.028 A 
ATOM     15  O   UNL     1       3.073  -1.512  -4.221  1.00  0.00    -0.263 OA
ATOM     16  C   UNL     1       5.250  -0.739  -8.422  1.00  0.00     0.028 A 
ATOM     17  C   UNL     1       6.797   1.123  -8.527  1.00  0.00     0.002 A 
ATOM     18  C   UNL     1       6.208   0.006  -9.116  1.00  0.00     0.002 A 
BRANCH   8  19
ATOM     19  C   UNL     1       5.344   2.340  -4.502  1.00  0.00     0.162 C 
BRANCH  19  20
ATOM     20  C   UNL     1       4.004   2.651  -3.822  1.00  0.00    -0.024 A 
ATOM     21  C   UNL     1       2.298   1.770  -2.335  1.00  0.00     0.119 A 
ATOM     22  C   UNL     1       1.321   2.503  -2.994  1.00  0.00     0.046 A 
ATOM     23  C   UNL     1       3.637   1.922  -2.675  1.00  0.00     0.052 A 
ATOM     24  C   UNL     1       1.694   3.373  -4.023  1.00  0.00     0.004 A 
ATOM     25  C   UNL     1       3.023   3.419  -4.463  1.00  0.00     0.006 A 
BRANCH  21  26
ATOM     26  O   UNL     1       1.960   0.667  -1.598  1.00  0.00    -0.497 OA
ATOM     27  C   UNL     1       1.560   0.970  -0.273  1.00  0.00     0.278 C 
ENDBRANCH  21  26
ENDBRANCH  19  20
ENDBRANCH   8  19
ENDBRANCH   6   7
ENDBRANCH   3   6
ENDBRANCH   1   2
BRANCH   1  28
ATOM     28  C   UNL     1       1.075   0.582  -7.395  1.00  0.00     0.042 C 
BRANCH  28  29
ATOM     29  C   UNL     1       0.102   0.978  -8.507  1.00  0.00     0.118 C 
BRANCH  29  30
ATOM     30  N   UNL     1      -1.191   1.401  -7.988  1.00  0.00    -0.352 N 
ATOM     31  C   UNL     1      -2.000   2.435  -8.398  1.00  0.00     0.251 C 
ATOM     32  H   UNL     1      -1.536   0.871  -7.235  1.00  0.00     0.163 HD
ATOM     33  O   UNL     1      -2.966   2.746  -7.707  1.00  0.00    -0.269 OA
BRANCH  31  34
ATOM     34  C   UNL     1      -1.705   3.186  -9.642  1.00  0.00     0.039 A 
ATOM     35  C   UNL     1      -1.915   4.571  -9.658  1.00  0.00     0.014 A 
ATOM     36  C   UNL     1      -1.278   2.537 -10.803  1.00  0.00     0.014 A 
ATOM     37  C   UNL     1      -1.657   5.307 -10.819  1.00  0.00     0.010 A 
ATOM     38  C   UNL     1      -0.964   3.278 -11.941  1.00  0.00     0.010 A 
ATOM     39  C   UNL     1      -1.161   4.668 -11.965  1.00  0.00    -0.014 A 
BRANCH  39  40
ATOM     40  C   UNL     1      -0.884   5.412 -13.222  1.00  0.00     0.031 A 
ATOM     41  C   UNL     1      -1.694   5.104 -14.452  1.00  0.00     0.074 A 
ATOM     42  C   UNL     1       0.144   6.280 -13.280  1.00  0.00     0.049 A 
ATOM     43  N   UNL     1      -1.504   5.483 -15.689  1.00  0.00    -0.248 NA
ATOM     44  C   UNL     1      -2.854   4.218 -14.266  1.00  0.00     0.031 C 
ATOM     45  C   UNL     1       1.009   6.642 -12.155  1.00  0.00     0.029 A 
ATOM     46  N   UNL     1       0.654   6.995 -14.335  1.00  0.00    -0.354 N 
ATOM     47  C   UNL     1      -2.494   4.851 -16.435  1.00  0.00     0.074 A 
ATOM     48  C   UNL     1      -3.258   4.036 -15.514  1.00  0.00     0.031 C 
ATOM     49  C   UNL     1       1.944   7.507 -12.582  1.00  0.00     0.029 A 
ATOM     50  C   UNL     1       1.778   7.722 -14.016  1.00  0.00     0.049 A 
ATOM     51  H   UNL     1       0.255   6.988 -15.234  1.00  0.00     0.167 HD
ATOM     52  C   UNL     1      -2.747   4.952 -17.764  1.00  0.00     0.034 A 
ATOM     53  C   UNL     1       2.598   8.454 -14.797  1.00  0.00     0.034 A 
ATOM     54  C   UNL     1      -1.994   5.800 -18.655  1.00  0.00     0.049 A 
ATOM     55  C   UNL     1       2.296   8.557 -16.270  1.00  0.00     0.074 A 
ATOM     56  C   UNL     1      -2.201   6.035 -20.003  1.00  0.00     0.029 A 
ATOM     57  N   UNL     1      -0.888   6.554 -18.285  1.00  0.00    -0.354 N 
ATOM     58  N   UNL     1       1.338   7.978 -16.957  1.00  0.00    -0.248 NA
ATOM     59  C   UNL     1       3.176   9.416 -17.073  1.00  0.00     0.031 C 
ATOM     60  C   UNL     1      -1.190   6.888 -20.459  1.00  0.00     0.029 A 
ATOM     61  C   UNL     1      -0.390   7.237 -19.383  1.00  0.00     0.049 A 
ATOM     62  H   UNL     1      -0.513   6.598 -17.376  1.00  0.00     0.167 HD
ATOM     63  C   UNL     1       1.482   8.429 -18.265  1.00  0.00     0.074 A 
ATOM     64  C   UNL     1       2.617   9.330 -18.272  1.00  0.00     0.031 C 
ATOM     65  C   UNL     1       0.741   8.133 -19.362  1.00  0.00     0.034 A 
BRANCH  52  66
ATOM     66  C   UNL     1      -3.858   4.102 -18.331  1.00  0.00     0.023 A 
ATOM     67  C   UNL     1      -5.197   4.275 -17.941  1.00  0.00     0.031 A 
ATOM     68  C   UNL     1      -3.569   3.084 -19.258  1.00  0.00     0.131 A 
ATOM     69  C   UNL     1      -6.184   3.397 -18.416  1.00  0.00     0.055 A 
ATOM     70  C   UNL     1      -4.568   2.265 -19.789  1.00  0.00     0.041 A 
ATOM     71  F   UNL     1      -2.306   2.859 -19.654  1.00  0.00    -0.206 F 
ATOM     72  C   UNL     1      -5.883   2.409 -19.356  1.00  0.00     0.022 A 
BRANCH  69  73
ATOM     73  S   UNL     1      -7.841   3.480 -17.683  1.00  0.00     0.124 S 
ATOM     74  O   UNL     1      -7.556   3.190 -16.280  1.00  0.00    -0.237 OA
ATOM     75  O   UNL     1      -8.250   4.847 -17.983  1.00  0.00    -0.237 OA
ATOM     76  O   UNL     1      -8.581   2.438 -18.391  1.00  0.00    -0.744 OA
ENDBRANCH  69  73
ENDBRANCH  52  66
BRANCH  53  77
ATOM     77  C   UNL     1       3.796   9.123 -14.214  1.00  0.00     0.023 A 
ATOM     78  C   UNL     1       3.893  10.523 -14.171  1.00  0.00     0.031 A 
ATOM     79  C   UNL     1       4.876   8.371 -13.717  1.00  0.00     0.131 A 
ATOM     80  C   UNL     1       5.061  11.128 -13.681  1.00  0.00     0.055 A 
ATOM     81  C   UNL     1       6.016   8.978 -13.188  1.00  0.00     0.041 A 
ATOM     82  F   UNL     1       4.831   7.029 -13.728  1.00  0.00    -0.206 F 
ATOM     83  C   UNL     1       6.118  10.365 -13.178  1.00  0.00     0.022 A 
BRANCH  80  84
ATOM     84  S   UNL     1       5.212  12.933 -13.781  1.00  0.00     0.124 S 
ATOM     85  O   UNL     1       5.029  13.168 -15.209  1.00  0.00    -0.237 OA
ATOM     86  O   UNL     1       4.126  13.374 -12.912  1.00  0.00    -0.237 OA
ATOM     87  O   UNL     1       6.558  13.190 -13.274  1.00  0.00    -0.744 OA
ENDBRANCH  80  84
ENDBRANCH  53  77
BRANCH  65  88
ATOM     88  C   UNL     1       1.098   8.839 -20.643  1.00  0.00     0.023 A 
ATOM     89  C   UNL     1       2.265   8.525 -21.360  1.00  0.00     0.031 A 
ATOM     90  C   UNL     1       0.242   9.827 -21.160  1.00  0.00     0.131 A 
ATOM     91  C   UNL     1       2.563   9.221 -22.541  1.00  0.00     0.055 A 
ATOM     92  C   UNL     1       0.520  10.482 -22.360  1.00  0.00     0.041 A 
ATOM     93  F   UNL     1      -0.885  10.161 -20.512  1.00  0.00    -0.206 F 
ATOM     94  C   UNL     1       1.690  10.186 -23.053  1.00  0.00     0.022 A 
BRANCH  91  95
ATOM     95  S   UNL     1       4.134   8.883 -23.380  1.00  0.00     0.124 S 
ATOM     96  O   UNL     1       5.109   9.298 -22.376  1.00  0.00    -0.237 OA
ATOM     97  O   UNL     1       4.053   7.449 -23.634  1.00  0.00    -0.237 OA
ATOM     98  O   UNL     1       4.075   9.726 -24.573  1.00  0.00    -0.744 OA
ENDBRANCH  91  95
ENDBRANCH  65  88
ENDBRANCH  39  40
ENDBRANCH  31  34
ENDBRANCH  29  30
ENDBRANCH  28  29
ENDBRANCH   1  28
TORSDOF 17
