REMARK SMILES O=C(NCCCNC(=O)[C@H]1C[C@@H](O)CN1C(=O)c1cc(F)c(F)cc1Cl)c1ccc(-c2c3nc(c(-c4cc(S(=O)(=O)[O-])ccc4F)c4ccc([nH]4)c(-c4cc(S(=O)(=O)[O-])ccc4F)c4nc(c(-c5cc(S(=O)(=O)[O-])ccc5F)c5ccc2[nH]5)C=C4)C=C3)cc1
REMARK SMILES IDX 4 1 3 2 1 3 2 4 27 6 28 7 89 8 29 9 88 10 30 11 31 12 32 13
REMARK SMILES IDX 82 14 33 15 87 16 81 17 83 18 34 19 86 20 80 21 79 22 35 24
REMARK SMILES IDX 67 25 47 26 66 27 48 28 51 29 65 30 84 31 49 32 50 33 64 35
REMARK SMILES IDX 85 36 52 37 36 38 37 39 45 40 38 41 44 42 46 43 43 44 39 45
REMARK SMILES IDX 40 46 41 47 42 48 68 49 69 50 77 51 70 52 76 53 78 54 75 55
REMARK SMILES IDX 71 56 72 57 73 58 74 59 53 60 54 61 62 62 55 63 61 64 63 65
REMARK SMILES IDX 60 66 56 67 57 68 58 69 59 70 5 71 6 72 7 73 8 74 9 76 10 77
REMARK SMILES IDX 11 78 15 79 12 80 14 81 16 82 17 83 18 84 19 85 25 86 20 87
REMARK SMILES IDX 24 88 26 89 21 90 22 91 23 92 13 93
REMARK H PARENT 3 5 83 23 51 34 7 75 13 94
REMARK Flexibility Score: inf
ROOT
ATOM      1  C   UNL     1       4.424   0.686   1.093  1.00  0.00     0.118 C 
ENDROOT
BRANCH   1   2
ATOM      2  N   UNL     1       2.979   0.512   1.000  1.00  0.00    -0.352 N 
ATOM      3  O   UNL     1       1.019  -0.020   0.053  1.00  0.00    -0.269 OA
ATOM      4  C   UNL     1       2.226  -0.236   0.133  1.00  0.00     0.251 C 
ATOM      5  H   UNL     1       2.460   1.013   1.669  1.00  0.00     0.163 HD
BRANCH   4   6
ATOM      6  C   UNL     1       2.845  -1.306  -0.677  1.00  0.00     0.039 A 
ATOM      7  C   UNL     1       2.336  -1.573  -1.952  1.00  0.00     0.014 A 
ATOM      8  C   UNL     1       3.864  -2.102  -0.149  1.00  0.00     0.014 A 
ATOM      9  C   UNL     1       2.860  -2.629  -2.699  1.00  0.00     0.010 A 
ATOM     10  C   UNL     1       4.449  -3.088  -0.931  1.00  0.00     0.010 A 
ATOM     11  C   UNL     1       3.925  -3.389  -2.195  1.00  0.00    -0.014 A 
BRANCH  11  12
ATOM     12  C   UNL     1       4.473  -4.553  -2.931  1.00  0.00     0.031 A 
ATOM     13  C   UNL     1       4.379  -5.924  -2.322  1.00  0.00     0.074 A 
ATOM     14  C   UNL     1       5.122  -4.365  -4.094  1.00  0.00     0.049 A 
ATOM     15  N   UNL     1       4.889  -7.050  -2.743  1.00  0.00    -0.248 NA
ATOM     16  C   UNL     1       3.645  -6.038  -1.050  1.00  0.00     0.031 C 
ATOM     17  C   UNL     1       5.302  -3.071  -4.750  1.00  0.00     0.029 A 
ATOM     18  N   UNL     1       5.766  -5.253  -4.918  1.00  0.00    -0.354 N 
ATOM     19  C   UNL     1       4.570  -7.994  -1.774  1.00  0.00     0.074 A 
ATOM     20  C   UNL     1       3.873  -7.299  -0.717  1.00  0.00     0.031 C 
ATOM     21  C   UNL     1       5.990  -3.251  -5.886  1.00  0.00     0.029 A 
ATOM     22  C   UNL     1       6.353  -4.662  -6.011  1.00  0.00     0.049 A 
ATOM     23  H   UNL     1       5.803  -6.222  -4.743  1.00  0.00     0.167 HD
ATOM     24  C   UNL     1       4.817  -9.324  -1.783  1.00  0.00     0.034 A 
ATOM     25  C   UNL     1       7.113  -5.190  -6.993  1.00  0.00     0.034 A 
ATOM     26  C   UNL     1       5.472  -9.996  -2.874  1.00  0.00     0.049 A 
ATOM     27  C   UNL     1       7.373  -6.673  -6.992  1.00  0.00     0.074 A 
ATOM     28  C   UNL     1       5.673 -11.354  -3.036  1.00  0.00     0.029 A 
ATOM     29  N   UNL     1       6.036  -9.371  -3.977  1.00  0.00    -0.354 N 
ATOM     30  N   UNL     1       6.970  -7.576  -6.128  1.00  0.00    -0.248 NA
ATOM     31  C   UNL     1       8.180  -7.218  -8.092  1.00  0.00     0.031 C 
ATOM     32  C   UNL     1       6.437 -11.542  -4.187  1.00  0.00     0.029 A 
ATOM     33  C   UNL     1       6.634 -10.312  -4.798  1.00  0.00     0.049 A 
ATOM     34  H   UNL     1       6.014  -8.402  -4.150  1.00  0.00     0.167 HD
ATOM     35  C   UNL     1       7.463  -8.795  -6.583  1.00  0.00     0.074 A 
ATOM     36  C   UNL     1       8.173  -8.517  -7.816  1.00  0.00     0.031 C 
ATOM     37  C   UNL     1       7.340 -10.027  -6.027  1.00  0.00     0.034 A 
BRANCH  24  38
ATOM     38  C   UNL     1       4.378 -10.156  -0.601  1.00  0.00     0.023 A 
ATOM     39  C   UNL     1       5.335 -10.887   0.127  1.00  0.00     0.031 A 
ATOM     40  C   UNL     1       3.022 -10.323  -0.267  1.00  0.00     0.131 A 
ATOM     41  C   UNL     1       4.922 -11.774   1.129  1.00  0.00     0.055 A 
ATOM     42  C   UNL     1       2.619 -11.167   0.770  1.00  0.00     0.041 A 
ATOM     43  F   UNL     1       2.066  -9.657  -0.934  1.00  0.00    -0.206 F 
ATOM     44  C   UNL     1       3.571 -11.908   1.463  1.00  0.00     0.022 A 
BRANCH  41  45
ATOM     45  S   UNL     1       6.111 -12.847   1.979  1.00  0.00     0.124 S 
ATOM     46  O   UNL     1       5.960 -12.418   3.368  1.00  0.00    -0.237 OA
ATOM     47  O   UNL     1       5.590 -14.178   1.677  1.00  0.00    -0.237 OA
ATOM     48  O   UNL     1       7.390 -12.515   1.361  1.00  0.00    -0.744 OA
ENDBRANCH  41  45
ENDBRANCH  24  38
BRANCH  25  49
ATOM     49  C   UNL     1       7.603  -4.283  -8.071  1.00  0.00     0.023 A 
ATOM     50  C   UNL     1       8.458  -3.206  -7.771  1.00  0.00     0.031 A 
ATOM     51  C   UNL     1       7.072  -4.365  -9.369  1.00  0.00     0.131 A 
ATOM     52  C   UNL     1       8.668  -2.199  -8.722  1.00  0.00     0.055 A 
ATOM     53  C   UNL     1       7.349  -3.400 -10.339  1.00  0.00     0.041 A 
ATOM     54  F   UNL     1       6.242  -5.367  -9.697  1.00  0.00    -0.206 F 
ATOM     55  C   UNL     1       8.131  -2.296 -10.009  1.00  0.00     0.022 A 
BRANCH  52  56
ATOM     56  S   UNL     1       9.496  -0.650  -8.264  1.00  0.00     0.124 S 
ATOM     57  O   UNL     1      10.566  -0.568  -9.254  1.00  0.00    -0.237 OA
ATOM     58  O   UNL     1       8.415   0.321  -8.421  1.00  0.00    -0.237 OA
ATOM     59  O   UNL     1       9.927  -0.881  -6.889  1.00  0.00    -0.744 OA
ENDBRANCH  52  56
ENDBRANCH  25  49
BRANCH  37  60
ATOM     60  C   UNL     1       7.995 -11.206  -6.708  1.00  0.00     0.023 A 
ATOM     61  C   UNL     1       7.207 -12.286  -7.153  1.00  0.00     0.031 A 
ATOM     62  C   UNL     1       9.392 -11.352  -6.724  1.00  0.00     0.131 A 
ATOM     63  C   UNL     1       7.819 -13.490  -7.522  1.00  0.00     0.055 A 
ATOM     64  C   UNL     1      10.000 -12.534  -7.151  1.00  0.00     0.041 A 
ATOM     65  F   UNL     1      10.186 -10.355  -6.302  1.00  0.00    -0.206 F 
ATOM     66  C   UNL     1       9.211 -13.617  -7.532  1.00  0.00     0.022 A 
BRANCH  63  67
ATOM     67  S   UNL     1       6.830 -14.967  -7.890  1.00  0.00     0.124 S 
ATOM     68  O   UNL     1       7.269 -15.295  -9.245  1.00  0.00    -0.237 OA
ATOM     69  O   UNL     1       7.268 -15.895  -6.851  1.00  0.00    -0.237 OA
ATOM     70  O   UNL     1       5.451 -14.504  -7.779  1.00  0.00    -0.744 OA
ENDBRANCH  63  67
ENDBRANCH  37  60
ENDBRANCH  11  12
ENDBRANCH   4   6
ENDBRANCH   1   2
BRANCH   1  71
ATOM     71  C   UNL     1       4.836   2.132   0.840  1.00  0.00     0.042 C 
BRANCH  71  72
ATOM     72  C   UNL     1       4.264   3.109   1.865  1.00  0.00     0.117 C 
BRANCH  72  73
ATOM     73  N   UNL     1       5.077   3.209   3.050  1.00  0.00    -0.354 N 
ATOM     74  C   UNL     1       5.899   4.205   3.474  1.00  0.00     0.242 C 
ATOM     75  H   UNL     1       5.029   2.430   3.650  1.00  0.00     0.163 HD
ATOM     76  O   UNL     1       6.486   3.998   4.543  1.00  0.00    -0.273 OA
BRANCH  74  77
ATOM     77  C   UNL     1       6.131   5.535   2.702  1.00  0.00     0.177 C 
ATOM     78  C   UNL     1       6.566   5.386   1.230  1.00  0.00     0.069 C 
ATOM     79  N   UNL     1       5.080   6.563   2.690  1.00  0.00    -0.324 N 
ATOM     80  C   UNL     1       5.650   6.305   0.414  1.00  0.00     0.136 C 
ATOM     81  C   UNL     1       5.108   7.296   1.430  1.00  0.00     0.152 C 
BRANCH  79  82
ATOM     82  C   UNL     1       4.620   7.109   3.884  1.00  0.00     0.256 C 
ATOM     83  O   UNL     1       4.853   6.663   4.994  1.00  0.00    -0.269 OA
BRANCH  82  84
ATOM     84  C   UNL     1       3.759   8.306   3.786  1.00  0.00     0.061 A 
ATOM     85  C   UNL     1       2.481   8.149   3.233  1.00  0.00     0.057 A 
ATOM     86  C   UNL     1       4.207   9.570   4.196  1.00  0.00     0.056 A 
ATOM     87  C   UNL     1       1.685   9.269   3.043  1.00  0.00     0.159 A 
ATOM     88  C   UNL     1       3.386  10.686   4.014  1.00  0.00     0.063 A 
ATOM     89  Cl  UNL     1       5.776   9.828   4.865  1.00  0.00    -0.083 Cl
ATOM     90  F   UNL     1       0.486   9.130   2.462  1.00  0.00    -0.204 F 
ATOM     91  C   UNL     1       2.135  10.528   3.426  1.00  0.00     0.160 A 
ATOM     92  F   UNL     1       1.370  11.608   3.216  1.00  0.00    -0.204 F 
ENDBRANCH  82  84
ENDBRANCH  79  82
BRANCH  80  93
ATOM     93  O   UNL     1       4.600   5.576  -0.216  1.00  0.00    -0.391 OA
ATOM     94  H   UNL     1       4.081   5.109   0.458  1.00  0.00     0.211 HD
ENDBRANCH  80  93
ENDBRANCH  74  77
ENDBRANCH  72  73
ENDBRANCH  71  72
ENDBRANCH   1  71
TORSDOF 16
