REMARK SMILES C[C@@H]1[C@@H](C(=O)NCCCNC(=O)c2ccc(-c3c4nc(c(-c5cc(S(=O)(=O)[O-])ccc5F)c5ccc([nH]5)c(-c5cc(S(=O)(=O)[O-])ccc5F)c5nc(c(-c6cc(S(=O)(=O)[O-])ccc6F)c6ccc3[nH]6)C=C5)C=C4)cc2)CCN1C(=O)CC[C@@H]1CCCC[NH2+]1
REMARK SMILES IDX 7 1 6 2 4 3 5 4 3 6 1 7 2 8 78 9 76 10 77 11 79 12 80 13
REMARK SMILES IDX 81 14 82 15 83 16 84 17 88 18 85 19 87 20 86 23 8 24 9 25
REMARK SMILES IDX 10 26 11 27 12 29 13 30 14 31 75 32 15 33 74 34 16 35 17 36
REMARK SMILES IDX 18 37 68 38 19 39 73 40 67 41 69 42 20 43 72 44 66 45 65 46
REMARK SMILES IDX 21 48 53 49 33 50 52 51 34 52 37 53 51 54 70 55 35 56 36 57
REMARK SMILES IDX 50 59 71 60 38 61 22 62 23 63 31 64 24 65 30 66 32 67 29 68
REMARK SMILES IDX 25 69 26 70 27 71 28 72 54 73 55 74 63 75 56 76 62 77 64 78
REMARK SMILES IDX 61 79 57 80 58 81 59 82 60 83 39 84 40 85 48 86 41 87 47 88
REMARK SMILES IDX 49 89 46 90 42 91 43 92 44 93 45 94
REMARK H PARENT 6 5 88 21 88 22 10 28 69 47 37 58
REMARK Flexibility Score: inf
ROOT
ATOM      1  C   UNL     1      -2.975   2.940  -0.360  1.00  0.00     0.117 C 
ENDROOT
BRANCH   1   2
ATOM      2  N   UNL     1      -2.393   2.036  -1.324  1.00  0.00    -0.356 N 
ATOM      3  C   UNL     1      -1.584   0.973  -1.122  1.00  0.00     0.225 C 
ATOM      4  O   UNL     1      -1.502   0.169  -2.047  1.00  0.00    -0.275 OA
ATOM      5  H   UNL     1      -2.619   2.221  -2.264  1.00  0.00     0.163 HD
BRANCH   3   6
ATOM      6  C   UNL     1      -0.859   0.801   0.206  1.00  0.00     0.102 C 
ATOM      7  C   UNL     1       1.453   0.169   1.061  1.00  0.00     0.032 C 
ATOM      8  C   UNL     1       0.356  -0.125   0.041  1.00  0.00     0.094 C 
ATOM      9  N   UNL     1      -0.184  -1.476   0.161  1.00  0.00    -0.339 N 
ATOM     10  C   UNL     1      -1.730   0.022   1.182  1.00  0.00     0.037 C 
ATOM     11  C   UNL     1      -1.524  -1.427   0.739  1.00  0.00     0.120 C 
BRANCH   9  12
ATOM     12  C   UNL     1       0.234  -2.613  -0.513  1.00  0.00     0.223 C 
ATOM     13  O   UNL     1      -0.521  -3.580  -0.653  1.00  0.00    -0.275 OA
BRANCH  12  14
ATOM     14  C   UNL     1       1.691  -2.738  -0.975  1.00  0.00     0.106 C 
BRANCH  14  15
ATOM     15  C   UNL     1       2.035  -2.446  -2.449  1.00  0.00     0.075 C 
BRANCH  15  16
ATOM     16  C   UNL     1       2.290  -0.951  -2.721  1.00  0.00     0.182 C 
ATOM     17  C   UNL     1       1.181  -0.358  -3.595  1.00  0.00     0.065 C 
ATOM     18  N   UNL     1       3.575  -0.621  -3.360  1.00  0.00    -0.344 N 
ATOM     19  C   UNL     1       1.264   1.165  -3.591  1.00  0.00     0.012 C 
ATOM     20  C   UNL     1       3.772   0.842  -3.309  1.00  0.00     0.260 C 
ATOM     21  H   UNL     1       3.564  -0.932  -4.332  1.00  0.00     0.346 HD
ATOM     22  H   UNL     1       4.337  -1.090  -2.869  1.00  0.00     0.346 HD
ATOM     23  C   UNL     1       2.656   1.618  -4.021  1.00  0.00     0.062 C 
ENDBRANCH  15  16
ENDBRANCH  14  15
ENDBRANCH  12  14
ENDBRANCH   9  12
ENDBRANCH   3   6
ENDBRANCH   1   2
BRANCH   1  24
ATOM     24  C   UNL     1      -3.123   4.351  -0.906  1.00  0.00     0.042 C 
BRANCH  24  25
ATOM     25  C   UNL     1      -3.746   4.435  -2.296  1.00  0.00     0.118 C 
BRANCH  25  26
ATOM     26  N   UNL     1      -5.045   3.782  -2.388  1.00  0.00    -0.352 N 
ATOM     27  C   UNL     1      -6.309   4.321  -2.486  1.00  0.00     0.251 C 
ATOM     28  H   UNL     1      -5.015   2.798  -2.378  1.00  0.00     0.163 HD
ATOM     29  O   UNL     1      -7.287   3.601  -2.366  1.00  0.00    -0.269 OA
BRANCH  27  30
ATOM     30  C   UNL     1      -6.467   5.778  -2.688  1.00  0.00     0.039 A 
ATOM     31  C   UNL     1      -7.398   6.473  -1.914  1.00  0.00     0.014 A 
ATOM     32  C   UNL     1      -5.674   6.459  -3.612  1.00  0.00     0.014 A 
ATOM     33  C   UNL     1      -7.460   7.866  -2.000  1.00  0.00     0.010 A 
ATOM     34  C   UNL     1      -5.657   7.848  -3.612  1.00  0.00     0.010 A 
ATOM     35  C   UNL     1      -6.551   8.570  -2.807  1.00  0.00    -0.014 A 
BRANCH  35  36
ATOM     36  C   UNL     1      -6.522  10.056  -2.836  1.00  0.00     0.031 A 
ATOM     37  C   UNL     1      -6.754  10.785  -4.134  1.00  0.00     0.074 A 
ATOM     38  C   UNL     1      -6.215  10.744  -1.717  1.00  0.00     0.049 A 
ATOM     39  N   UNL     1      -6.669  12.065  -4.392  1.00  0.00    -0.248 NA
ATOM     40  C   UNL     1      -7.085   9.958  -5.305  1.00  0.00     0.031 C 
ATOM     41  C   UNL     1      -5.924  10.149  -0.410  1.00  0.00     0.029 A 
ATOM     42  N   UNL     1      -6.091  12.093  -1.498  1.00  0.00    -0.354 N 
ATOM     43  C   UNL     1      -6.919  12.193  -5.754  1.00  0.00     0.074 A 
ATOM     44  C   UNL     1      -7.079  10.854  -6.279  1.00  0.00     0.031 C 
ATOM     45  C   UNL     1      -5.693  11.128   0.479  1.00  0.00     0.029 A 
ATOM     46  C   UNL     1      -5.764  12.417  -0.201  1.00  0.00     0.049 A 
ATOM     47  H   UNL     1      -6.223  12.767  -2.203  1.00  0.00     0.167 HD
ATOM     48  C   UNL     1      -7.035  13.323  -6.495  1.00  0.00     0.034 A 
ATOM     49  C   UNL     1      -5.535  13.615   0.373  1.00  0.00     0.034 A 
ATOM     50  C   UNL     1      -6.894  14.651  -5.950  1.00  0.00     0.049 A 
ATOM     51  C   UNL     1      -5.647  14.858  -0.474  1.00  0.00     0.074 A 
ATOM     52  C   UNL     1      -7.043  15.867  -6.594  1.00  0.00     0.029 A 
ATOM     53  N   UNL     1      -6.565  14.939  -4.631  1.00  0.00    -0.354 N 
ATOM     54  N   UNL     1      -5.930  14.964  -1.753  1.00  0.00    -0.248 NA
ATOM     55  C   UNL     1      -5.419  16.142   0.200  1.00  0.00     0.031 C 
ATOM     56  C   UNL     1      -6.737  16.885  -5.686  1.00  0.00     0.029 A 
ATOM     57  C   UNL     1      -6.478  16.311  -4.451  1.00  0.00     0.049 A 
ATOM     58  H   UNL     1      -6.416  14.267  -3.928  1.00  0.00     0.167 HD
ATOM     59  C   UNL     1      -5.948  16.329  -2.025  1.00  0.00     0.074 A 
ATOM     60  C   UNL     1      -5.662  17.005  -0.776  1.00  0.00     0.031 C 
ATOM     61  C   UNL     1      -6.185  16.969  -3.199  1.00  0.00     0.034 A 
BRANCH  48  62
ATOM     62  C   UNL     1      -7.312  13.161  -7.971  1.00  0.00     0.023 A 
ATOM     63  C   UNL     1      -8.482  12.536  -8.438  1.00  0.00     0.031 A 
ATOM     64  C   UNL     1      -6.382  13.607  -8.926  1.00  0.00     0.131 A 
ATOM     65  C   UNL     1      -8.652  12.298  -9.810  1.00  0.00     0.055 A 
ATOM     66  C   UNL     1      -6.599  13.449 -10.296  1.00  0.00     0.041 A 
ATOM     67  F   UNL     1      -5.236  14.192  -8.543  1.00  0.00    -0.206 F 
ATOM     68  C   UNL     1      -7.731  12.775 -10.745  1.00  0.00     0.022 A 
BRANCH  65  69
ATOM     69  S   UNL     1     -10.011  11.221 -10.339  1.00  0.00     0.124 S 
ATOM     70  O   UNL     1      -9.701   9.984  -9.625  1.00  0.00    -0.237 OA
ATOM     71  O   UNL     1     -11.188  11.947  -9.876  1.00  0.00    -0.237 OA
ATOM     72  O   UNL     1      -9.850  11.151 -11.789  1.00  0.00    -0.744 OA
ENDBRANCH  65  69
ENDBRANCH  48  62
BRANCH  49  73
ATOM     73  C   UNL     1      -5.176  13.710   1.819  1.00  0.00     0.023 A 
ATOM     74  C   UNL     1      -6.017  14.368   2.730  1.00  0.00     0.031 A 
ATOM     75  C   UNL     1      -3.965  13.184   2.304  1.00  0.00     0.131 A 
ATOM     76  C   UNL     1      -5.614  14.531   4.065  1.00  0.00     0.055 A 
ATOM     77  C   UNL     1      -3.595  13.298   3.645  1.00  0.00     0.041 A 
ATOM     78  F   UNL     1      -3.125  12.540   1.478  1.00  0.00    -0.206 F 
ATOM     79  C   UNL     1      -4.416  13.988   4.532  1.00  0.00     0.022 A 
BRANCH  76  80
ATOM     80  S   UNL     1      -6.639  15.547   5.164  1.00  0.00     0.124 S 
ATOM     81  O   UNL     1      -6.663  16.820   4.453  1.00  0.00    -0.237 OA
ATOM     82  O   UNL     1      -7.891  14.799   5.186  1.00  0.00    -0.237 OA
ATOM     83  O   UNL     1      -5.893  15.547   6.420  1.00  0.00    -0.744 OA
ENDBRANCH  76  80
ENDBRANCH  49  73
BRANCH  61  84
ATOM     84  C   UNL     1      -6.194  18.478  -3.170  1.00  0.00     0.023 A 
ATOM     85  C   UNL     1      -5.032  19.222  -2.900  1.00  0.00     0.031 A 
ATOM     86  C   UNL     1      -7.388  19.180  -3.411  1.00  0.00     0.131 A 
ATOM     87  C   UNL     1      -5.102  20.621  -2.820  1.00  0.00     0.055 A 
ATOM     88  C   UNL     1      -7.438  20.575  -3.396  1.00  0.00     0.041 A 
ATOM     89  F   UNL     1      -8.529  18.521  -3.671  1.00  0.00    -0.206 F 
ATOM     90  C   UNL     1      -6.293  21.303  -3.085  1.00  0.00     0.022 A 
BRANCH  87  91
ATOM     91  S   UNL     1      -3.636  21.535  -2.269  1.00  0.00     0.124 S 
ATOM     92  O   UNL     1      -3.387  20.947  -0.957  1.00  0.00    -0.237 OA
ATOM     93  O   UNL     1      -2.661  21.216  -3.306  1.00  0.00    -0.237 OA
ATOM     94  O   UNL     1      -4.086  22.926  -2.250  1.00  0.00    -0.744 OA
ENDBRANCH  87  91
ENDBRANCH  61  84
ENDBRANCH  35  36
ENDBRANCH  27  30
ENDBRANCH  25  26
ENDBRANCH  24  25
ENDBRANCH   1  24
TORSDOF 17
