REMARK SMILES Cc1ccc2occ(/C=N/NC(=O)CCC(=O)Nc3ccc(C(=O)NCCCNC(=O)c4ccc(-c5c6nc(c(-c7cc(S(=O)(=O)[O-])ccc7F)c7ccc([nH]7)c(-c7cc(S(=O)(=O)[O-])ccc7F)c7nc(c(-c8cc(S(=O)(=O)[O-])ccc8F)c8ccc5[nH]8)C=C7)C=C6)cc4)cc3)c(=O)c2c1
REMARK SMILES IDX 23 1 24 2 25 3 22 5 19 6 20 7 96 8 21 9 95 10 18 11 16 12
REMARK SMILES IDX 17 13 15 15 14 16 12 17 11 18 13 20 10 21 9 22 8 23 1 24
REMARK SMILES IDX 2 25 3 26 100 27 4 28 99 29 5 30 97 31 6 32 98 33 7 34 26 35
REMARK SMILES IDX 27 36 28 37 29 38 30 39 31 41 32 42 33 43 94 44 34 45 93 46
REMARK SMILES IDX 35 47 36 48 37 49 87 50 38 51 92 52 86 53 88 54 39 55 91 56
REMARK SMILES IDX 85 57 84 58 40 60 72 61 52 62 71 63 53 64 56 65 70 66 89 67
REMARK SMILES IDX 54 68 55 69 69 71 90 72 57 73 41 74 42 75 50 76 43 77 49 78
REMARK SMILES IDX 51 79 48 80 44 81 45 82 46 83 47 84 73 85 74 86 82 87 75 88
REMARK SMILES IDX 81 89 83 90 80 91 76 92 77 93 78 94 79 95 58 96 59 97 67 98
REMARK SMILES IDX 60 99 66 100 68 101 65 102 61 103 62 104 63 105 64 106
REMARK H PARENT 25 4 18 14 11 19 29 40 88 59 56 70
REMARK Flexibility Score: inf
ROOT
ATOM      1  C   UNL     1      10.924   1.568  -1.046  1.00  0.00     0.251 C 
ATOM      2  O   UNL     1      11.781   0.775  -1.432  1.00  0.00    -0.269 OA
ATOM      3  N   UNL     1      11.335   2.743  -0.444  1.00  0.00    -0.352 N 
ATOM      4  H   UNL     1      12.311   2.796  -0.327  1.00  0.00     0.163 HD
ENDROOT
BRANCH   1   5
ATOM      5  C   UNL     1       9.495   1.259  -1.310  1.00  0.00     0.039 A 
ATOM      6  C   UNL     1       6.771   0.996  -2.038  1.00  0.00     0.041 A 
ATOM      7  C   UNL     1       7.727   0.135  -2.581  1.00  0.00     0.027 A 
ATOM      8  C   UNL     1       7.224   1.949  -1.162  1.00  0.00     0.027 A 
ATOM      9  C   UNL     1       9.096   0.308  -2.264  1.00  0.00     0.016 A 
ATOM     10  C   UNL     1       8.506   1.953  -0.664  1.00  0.00     0.016 A 
BRANCH   6  11
ATOM     11  N   UNL     1       5.397   0.821  -2.276  1.00  0.00    -0.326 N 
ATOM     12  C   UNL     1       4.295   1.524  -1.848  1.00  0.00     0.224 C 
ATOM     13  O   UNL     1       3.190   0.987  -2.000  1.00  0.00    -0.275 OA
ATOM     14  H   UNL     1       5.184   0.055  -2.856  1.00  0.00     0.169 HD
BRANCH  12  15
ATOM     15  C   UNL     1       4.363   2.970  -1.350  1.00  0.00     0.110 C 
BRANCH  15  16
ATOM     16  C   UNL     1       4.350   3.327   0.149  1.00  0.00     0.112 C 
BRANCH  16  17
ATOM     17  C   UNL     1       5.427   2.808   1.114  1.00  0.00     0.240 C 
ATOM     18  N   UNL     1       5.480   1.475   1.456  1.00  0.00    -0.247 N 
ATOM     19  H   UNL     1       6.199   1.194   2.067  1.00  0.00     0.193 HD
ATOM     20  O   UNL     1       6.302   3.569   1.541  1.00  0.00    -0.273 OA
BRANCH  18  21
ATOM     21  N   UNL     1       4.622   0.518   1.021  1.00  0.00    -0.180 NA
ATOM     22  C   UNL     1       3.398   0.761   1.354  1.00  0.00     0.148 C 
BRANCH  22  23
ATOM     23  C   UNL     1       2.226   0.097   0.788  1.00  0.00     0.078 A 
ATOM     24  C   UNL     1      -3.878   0.859  -0.072  1.00  0.00     0.044 C 
ATOM     25  C   UNL     1      -2.572   0.124  -0.060  1.00  0.00    -0.050 A 
ATOM     26  C   UNL     1      -2.504  -1.271  -0.196  1.00  0.00     0.007 A 
ATOM     27  C   UNL     1      -1.392   0.848   0.102  1.00  0.00     0.019 A 
ATOM     28  C   UNL     1      -1.272  -1.936  -0.166  1.00  0.00     0.048 A 
ATOM     29  C   UNL     1      -0.175   0.172   0.173  1.00  0.00     0.066 A 
ATOM     30  C   UNL     1      -0.101  -1.211   0.028  1.00  0.00     0.137 A 
ATOM     31  C   UNL     1       1.037   0.914   0.506  1.00  0.00     0.201 A 
ATOM     32  O   UNL     1       1.084  -1.907   0.099  1.00  0.00    -0.463 OA
ATOM     33  O   UNL     1       1.044   2.135   0.601  1.00  0.00    -0.288 OA
ATOM     34  C   UNL     1       2.191  -1.216   0.544  1.00  0.00     0.209 A 
ENDBRANCH  22  23
ENDBRANCH  18  21
ENDBRANCH  16  17
ENDBRANCH  15  16
ENDBRANCH  12  15
ENDBRANCH   6  11
ENDBRANCH   1   5
BRANCH   3  35
ATOM     35  C   UNL     1      10.631   3.928   0.057  1.00  0.00     0.118 C 
BRANCH  35  36
ATOM     36  C   UNL     1      10.409   3.860   1.575  1.00  0.00     0.042 C 
BRANCH  36  37
ATOM     37  C   UNL     1      11.589   4.434   2.351  1.00  0.00     0.118 C 
BRANCH  37  38
ATOM     38  N   UNL     1      11.687   5.877   2.176  1.00  0.00    -0.352 N 
ATOM     39  C   UNL     1      11.937   6.866   3.093  1.00  0.00     0.251 C 
ATOM     40  H   UNL     1      11.552   6.192   1.253  1.00  0.00     0.163 HD
ATOM     41  O   UNL     1      11.789   8.036   2.761  1.00  0.00    -0.269 OA
BRANCH  39  42
ATOM     42  C   UNL     1      12.353   6.525   4.471  1.00  0.00     0.039 A 
ATOM     43  C   UNL     1      11.837   7.280   5.528  1.00  0.00     0.014 A 
ATOM     44  C   UNL     1      13.259   5.493   4.726  1.00  0.00     0.014 A 
ATOM     45  C   UNL     1      12.188   6.966   6.842  1.00  0.00     0.010 A 
ATOM     46  C   UNL     1      13.550   5.134   6.040  1.00  0.00     0.010 A 
ATOM     47  C   UNL     1      13.018   5.867   7.112  1.00  0.00    -0.014 A 
BRANCH  47  48
ATOM     48  C   UNL     1      13.334   5.466   8.507  1.00  0.00     0.031 A 
ATOM     49  C   UNL     1      14.752   5.513   9.006  1.00  0.00     0.074 A 
ATOM     50  C   UNL     1      12.349   5.005   9.303  1.00  0.00     0.049 A 
ATOM     51  N   UNL     1      15.237   5.131  10.160  1.00  0.00    -0.248 NA
ATOM     52  C   UNL     1      15.761   6.035   8.073  1.00  0.00     0.031 C 
ATOM     53  C   UNL     1      10.940   4.888   8.920  1.00  0.00     0.029 A 
ATOM     54  N   UNL     1      12.380   4.541  10.594  1.00  0.00    -0.354 N 
ATOM     55  C   UNL     1      16.608   5.355  10.089  1.00  0.00     0.074 A 
ATOM     56  C   UNL     1      16.881   5.846   8.755  1.00  0.00     0.031 C 
ATOM     57  C   UNL     1      10.239   4.415   9.962  1.00  0.00     0.029 A 
ATOM     58  C   UNL     1      11.151   4.138  11.066  1.00  0.00     0.049 A 
ATOM     59  H   UNL     1      13.203   4.499  11.132  1.00  0.00     0.167 HD
ATOM     60  C   UNL     1      17.546   5.187  11.055  1.00  0.00     0.034 A 
ATOM     61  C   UNL     1      10.802   3.592  12.248  1.00  0.00     0.034 A 
ATOM     62  C   UNL     1      17.251   4.696  12.380  1.00  0.00     0.049 A 
ATOM     63  C   UNL     1      11.873   3.361  13.285  1.00  0.00     0.074 A 
ATOM     64  C   UNL     1      18.114   4.532  13.449  1.00  0.00     0.029 A 
ATOM     65  N   UNL     1      15.999   4.277  12.815  1.00  0.00    -0.354 N 
ATOM     66  N   UNL     1      13.158   3.622  13.220  1.00  0.00    -0.248 NA
ATOM     67  C   UNL     1      11.443   2.768  14.558  1.00  0.00     0.031 C 
ATOM     68  C   UNL     1      17.405   3.938  14.499  1.00  0.00     0.029 A 
ATOM     69  C   UNL     1      16.078   3.817  14.121  1.00  0.00     0.049 A 
ATOM     70  H   UNL     1      15.177   4.302  12.274  1.00  0.00     0.167 HD
ATOM     71  C   UNL     1      13.682   3.258  14.457  1.00  0.00     0.074 A 
ATOM     72  C   UNL     1      12.572   2.773  15.251  1.00  0.00     0.031 C 
ATOM     73  C   UNL     1      14.964   3.325  14.900  1.00  0.00     0.034 A 
BRANCH  60  74
ATOM     74  C   UNL     1      18.979   5.506  10.695  1.00  0.00     0.023 A 
ATOM     75  C   UNL     1      19.374   6.798  10.306  1.00  0.00     0.031 A 
ATOM     76  C   UNL     1      19.961   4.499  10.715  1.00  0.00     0.131 A 
ATOM     77  C   UNL     1      20.688   7.030   9.872  1.00  0.00     0.055 A 
ATOM     78  C   UNL     1      21.289   4.757  10.369  1.00  0.00     0.041 A 
ATOM     79  F   UNL     1      19.644   3.240  11.056  1.00  0.00    -0.206 F 
ATOM     80  C   UNL     1      21.656   6.025   9.928  1.00  0.00     0.022 A 
BRANCH  77  81
ATOM     81  S   UNL     1      21.071   8.617   9.083  1.00  0.00     0.124 S 
ATOM     82  O   UNL     1      20.114   8.635   7.978  1.00  0.00    -0.237 OA
ATOM     83  O   UNL     1      20.825   9.572  10.157  1.00  0.00    -0.237 OA
ATOM     84  O   UNL     1      22.469   8.473   8.682  1.00  0.00    -0.744 OA
ENDBRANCH  77  81
ENDBRANCH  60  74
BRANCH  61  85
ATOM     85  C   UNL     1       9.385   3.212  12.517  1.00  0.00     0.023 A 
ATOM     86  C   UNL     1       8.658   3.825  13.550  1.00  0.00     0.031 A 
ATOM     87  C   UNL     1       8.751   2.197  11.779  1.00  0.00     0.131 A 
ATOM     88  C   UNL     1       7.361   3.384  13.851  1.00  0.00     0.055 A 
ATOM     89  C   UNL     1       7.437   1.804  12.042  1.00  0.00     0.041 A 
ATOM     90  F   UNL     1       9.398   1.577  10.780  1.00  0.00    -0.206 F 
ATOM     91  C   UNL     1       6.739   2.388  13.094  1.00  0.00     0.022 A 
BRANCH  88  92
ATOM     92  S   UNL     1       6.532   4.061  15.315  1.00  0.00     0.124 S 
ATOM     93  O   UNL     1       7.475   3.717  16.374  1.00  0.00    -0.237 OA
ATOM     94  O   UNL     1       6.432   5.477  14.979  1.00  0.00    -0.237 OA
ATOM     95  O   UNL     1       5.262   3.339  15.351  1.00  0.00    -0.744 OA
ENDBRANCH  88  92
ENDBRANCH  61  85
BRANCH  73  96
ATOM     96  C   UNL     1      15.221   2.908  16.329  1.00  0.00     0.023 A 
ATOM     97  C   UNL     1      15.043   1.583  16.762  1.00  0.00     0.031 A 
ATOM     98  C   UNL     1      15.646   3.860  17.275  1.00  0.00     0.131 A 
ATOM     99  C   UNL     1      15.232   1.257  18.114  1.00  0.00     0.055 A 
ATOM    100  C   UNL     1      15.899   3.515  18.603  1.00  0.00     0.041 A 
ATOM    101  F   UNL     1      15.828   5.142  16.921  1.00  0.00    -0.206 F 
ATOM    102  C   UNL     1      15.679   2.210  19.032  1.00  0.00     0.022 A 
BRANCH  99 103
ATOM    103  S   UNL     1      14.792  -0.409  18.679  1.00  0.00     0.124 S 
ATOM    104  O   UNL     1      13.380  -0.488  18.318  1.00  0.00    -0.237 OA
ATOM    105  O   UNL     1      15.696  -1.252  17.904  1.00  0.00    -0.237 OA
ATOM    106  O   UNL     1      15.063  -0.368  20.115  1.00  0.00    -0.744 OA
ENDBRANCH  99 103
ENDBRANCH  73  96
ENDBRANCH  47  48
ENDBRANCH  39  42
ENDBRANCH  37  38
ENDBRANCH  36  37
ENDBRANCH  35  36
ENDBRANCH   3  35
TORSDOF 19
