REMARK SMILES C[C@@H](NC(=O)[C@H]1CC=CC[C@@H]1C(=O)NCCCNC(=O)c1ccc(-c2c3nc(c(-c4cc(S(=O)(=O)[O-])ccc4F)c4ccc([nH]4)c(-c4cc(S(=O)(=O)[O-])ccc4F)c4nc(c(-c5cc(S(=O)(=O)[O-])ccc5F)c5ccc2[nH]5)C=C4)C=C3)cc1)c1ccc(-n2ccnc2)cc1
REMARK SMILES IDX 15 1 14 2 12 3 13 4 11 6 6 7 7 8 8 9 10 10 9 11 4 12 3 13
REMARK SMILES IDX 5 15 2 16 1 17 84 18 85 19 94 20 86 21 93 22 87 23 88 24
REMARK SMILES IDX 89 25 92 26 90 27 91 28 16 29 17 30 18 31 19 32 20 34 21 35
REMARK SMILES IDX 22 36 83 37 23 38 82 39 24 40 25 41 26 42 76 43 27 44 81 45
REMARK SMILES IDX 75 46 77 47 28 48 80 49 74 50 73 51 29 53 61 54 41 55 60 56
REMARK SMILES IDX 42 57 45 58 59 59 78 60 43 61 44 62 58 64 79 65 46 66 30 67
REMARK SMILES IDX 31 68 39 69 32 70 38 71 40 72 37 73 33 74 34 75 35 76 36 77
REMARK SMILES IDX 62 78 63 79 71 80 64 81 70 82 72 83 69 84 65 85 66 86 67 87
REMARK SMILES IDX 68 88 47 89 48 90 56 91 49 92 55 93 57 94 54 95 50 96 51 97
REMARK SMILES IDX 52 98 53 99
REMARK H PARENT 14 5 3 14 18 33 77 52 45 63
REMARK Flexibility Score: inf
ROOT
ATOM      1  C   UNL     1      -2.622  -2.739   3.064  1.00  0.00     0.117 C 
ENDROOT
BRANCH   1   2
ATOM      2  N   UNL     1      -3.329  -1.547   3.487  1.00  0.00    -0.356 N 
ATOM      3  C   UNL     1      -3.241  -0.248   3.095  1.00  0.00     0.224 C 
ATOM      4  O   UNL     1      -3.945   0.541   3.737  1.00  0.00    -0.275 OA
ATOM      5  H   UNL     1      -3.998  -1.708   4.191  1.00  0.00     0.163 HD
BRANCH   3   6
ATOM      6  C   UNL     1      -2.196   0.239   1.879  1.00  0.00     0.095 C 
ATOM      7  C   UNL     1      -1.512   1.693   2.991  1.00  0.00     0.095 C 
ATOM      8  C   UNL     1      -1.722   3.436   2.280  1.00  0.00     0.041 C 
ATOM      9  C   UNL     1      -2.104   3.770   0.502  1.00  0.00    -0.030 C 
ATOM     10  C   UNL     1      -2.476   0.884  -0.229  1.00  0.00     0.041 C 
ATOM     11  C   UNL     1      -2.396   2.799  -0.529  1.00  0.00    -0.030 C 
BRANCH   7  12
ATOM     12  C   UNL     1       0.005   1.412   3.300  1.00  0.00     0.224 C 
ATOM     13  N   UNL     1       0.882   0.757   2.460  1.00  0.00    -0.349 N 
ATOM     14  H   UNL     1       1.818   0.872   2.746  1.00  0.00     0.164 HD
ATOM     15  O   UNL     1       0.506   1.905   4.319  1.00  0.00    -0.275 OA
BRANCH  13  16
ATOM     16  C   UNL     1       0.776  -0.087   1.222  1.00  0.00     0.109 C 
ATOM     17  C   UNL     1       1.941   0.182   0.281  1.00  0.00     0.036 C 
BRANCH  16  18
ATOM     18  C   UNL     1      -0.547   0.118   0.505  1.00  0.00    -0.026 A 
ATOM     19  C   UNL     1      -1.239   1.627   0.950  1.00  0.00     0.008 A 
ATOM     20  C   UNL     1      -1.643  -1.183   0.193  1.00  0.00     0.008 A 
ATOM     21  C   UNL     1      -3.161   1.773   1.307  1.00  0.00     0.027 A 
ATOM     22  C   UNL     1      -3.364  -1.058   0.400  1.00  0.00     0.027 A 
ATOM     23  C   UNL     1      -4.158   0.367   0.954  1.00  0.00     0.046 A 
BRANCH  23  24
ATOM     24  N   UNL     1      -5.556   0.418   0.994  1.00  0.00    -0.306 N 
ATOM     25  C   UNL     1      -6.376  -0.205   1.896  1.00  0.00     0.113 A 
ATOM     26  C   UNL     1      -6.360   0.870  -0.019  1.00  0.00     0.204 A 
ATOM     27  C   UNL     1      -7.653  -0.027   1.419  1.00  0.00     0.131 A 
ATOM     28  N   UNL     1      -7.633   0.632   0.218  1.00  0.00    -0.245 NA
ENDBRANCH  23  24
ENDBRANCH  16  18
ENDBRANCH  13  16
ENDBRANCH   7  12
ENDBRANCH   3   6
ENDBRANCH   1   2
BRANCH   1  29
ATOM     29  C   UNL     1      -3.141  -3.973   3.782  1.00  0.00     0.042 C 
BRANCH  29  30
ATOM     30  C   UNL     1      -4.618  -4.247   3.531  1.00  0.00     0.118 C 
BRANCH  30  31
ATOM     31  N   UNL     1      -4.919  -4.773   2.205  1.00  0.00    -0.352 N 
ATOM     32  C   UNL     1      -5.726  -5.852   1.900  1.00  0.00     0.251 C 
ATOM     33  H   UNL     1      -4.502  -4.308   1.444  1.00  0.00     0.163 HD
ATOM     34  O   UNL     1      -5.844  -6.246   0.746  1.00  0.00    -0.269 OA
BRANCH  32  35
ATOM     35  C   UNL     1      -6.391  -6.545   3.022  1.00  0.00     0.039 A 
ATOM     36  C   UNL     1      -6.079  -7.881   3.276  1.00  0.00     0.014 A 
ATOM     37  C   UNL     1      -7.153  -5.802   3.928  1.00  0.00     0.014 A 
ATOM     38  C   UNL     1      -6.461  -8.448   4.493  1.00  0.00     0.010 A 
ATOM     39  C   UNL     1      -7.425  -6.336   5.181  1.00  0.00     0.010 A 
ATOM     40  C   UNL     1      -7.089  -7.667   5.479  1.00  0.00    -0.014 A 
BRANCH  40  41
ATOM     41  C   UNL     1      -7.426  -8.236   6.813  1.00  0.00     0.031 A 
ATOM     42  C   UNL     1      -8.862  -8.259   7.269  1.00  0.00     0.074 A 
ATOM     43  C   UNL     1      -6.450  -8.687   7.629  1.00  0.00     0.049 A 
ATOM     44  N   UNL     1      -9.367  -8.682   8.400  1.00  0.00    -0.248 NA
ATOM     45  C   UNL     1      -9.857  -7.689   6.347  1.00  0.00     0.031 C 
ATOM     46  C   UNL     1      -5.015  -8.663   7.331  1.00  0.00     0.029 A 
ATOM     47  N   UNL     1      -6.514  -9.263   8.874  1.00  0.00    -0.354 N 
ATOM     48  C   UNL     1     -10.730  -8.412   8.327  1.00  0.00     0.074 A 
ATOM     49  C   UNL     1     -10.952  -7.704   7.087  1.00  0.00     0.031 C 
ATOM     50  C   UNL     1      -4.345  -9.250   8.336  1.00  0.00     0.029 A 
ATOM     51  C   UNL     1      -5.290  -9.652   9.373  1.00  0.00     0.049 A 
ATOM     52  H   UNL     1      -7.358  -9.387   9.366  1.00  0.00     0.167 HD
ATOM     53  C   UNL     1     -11.715  -8.759   9.192  1.00  0.00     0.034 A 
ATOM     54  C   UNL     1      -4.970 -10.268  10.529  1.00  0.00     0.034 A 
ATOM     55  C   UNL     1     -11.479  -9.488  10.413  1.00  0.00     0.049 A 
ATOM     56  C   UNL     1      -6.080 -10.632  11.486  1.00  0.00     0.074 A 
ATOM     57  C   UNL     1     -12.402  -9.947  11.335  1.00  0.00     0.029 A 
ATOM     58  N   UNL     1     -10.227  -9.860  10.886  1.00  0.00    -0.354 N 
ATOM     59  N   UNL     1      -7.374 -10.433  11.369  1.00  0.00    -0.248 NA
ATOM     60  C   UNL     1      -5.687 -11.317  12.724  1.00  0.00     0.031 C 
ATOM     61  C   UNL     1     -11.705 -10.528  12.399  1.00  0.00     0.029 A 
ATOM     62  C   UNL     1     -10.351 -10.513  12.102  1.00  0.00     0.049 A 
ATOM     63  H   UNL     1      -9.375  -9.685  10.424  1.00  0.00     0.167 HD
ATOM     64  C   UNL     1      -7.949 -11.005  12.502  1.00  0.00     0.074 A 
ATOM     65  C   UNL     1      -6.864 -11.569  13.277  1.00  0.00     0.031 C 
ATOM     66  C   UNL     1      -9.257 -11.064  12.866  1.00  0.00     0.034 A 
BRANCH  53  67
ATOM     67  C   UNL     1     -13.123  -8.332   8.844  1.00  0.00     0.023 A 
ATOM     68  C   UNL     1     -13.752  -8.755   7.658  1.00  0.00     0.031 A 
ATOM     69  C   UNL     1     -13.826  -7.444   9.676  1.00  0.00     0.131 A 
ATOM     70  C   UNL     1     -14.992  -8.214   7.290  1.00  0.00     0.055 A 
ATOM     71  C   UNL     1     -15.104  -6.985   9.351  1.00  0.00     0.041 A 
ATOM     72  F   UNL     1     -13.273  -6.986  10.810  1.00  0.00    -0.206 F 
ATOM     73  C   UNL     1     -15.686  -7.354   8.142  1.00  0.00     0.022 A 
BRANCH  70  74
ATOM     74  S   UNL     1     -15.596  -8.511   5.605  1.00  0.00     0.124 S 
ATOM     75  O   UNL     1     -14.505  -7.965   4.801  1.00  0.00    -0.237 OA
ATOM     76  O   UNL     1     -15.747  -9.961   5.575  1.00  0.00    -0.237 OA
ATOM     77  O   UNL     1     -16.843  -7.750   5.549  1.00  0.00    -0.744 OA
ENDBRANCH  70  74
ENDBRANCH  53  67
BRANCH  54  78
ATOM     78  C   UNL     1      -3.551 -10.601  10.854  1.00  0.00     0.023 A 
ATOM     79  C   UNL     1      -3.137 -11.935  11.005  1.00  0.00     0.031 A 
ATOM     80  C   UNL     1      -2.597  -9.591  11.072  1.00  0.00     0.131 A 
ATOM     81  C   UNL     1      -1.826 -12.223  11.416  1.00  0.00     0.055 A 
ATOM     82  C   UNL     1      -1.278  -9.883  11.426  1.00  0.00     0.041 A 
ATOM     83  F   UNL     1      -2.934  -8.298  10.937  1.00  0.00    -0.206 F 
ATOM     84  C   UNL     1      -0.889 -11.206  11.614  1.00  0.00     0.022 A 
BRANCH  81  85
ATOM     85  S   UNL     1      -1.385 -13.945  11.780  1.00  0.00     0.124 S 
ATOM     86  O   UNL     1      -2.351 -14.286  12.818  1.00  0.00    -0.237 OA
ATOM     87  O   UNL     1      -1.581 -14.587  10.484  1.00  0.00    -0.237 OA
ATOM     88  O   UNL     1       0.004 -13.854  12.224  1.00  0.00    -0.744 OA
ENDBRANCH  81  85
ENDBRANCH  54  78
BRANCH  66  89
ATOM     89  C   UNL     1      -9.582 -11.814  14.136  1.00  0.00     0.023 A 
ATOM     90  C   UNL     1      -9.141 -11.371  15.395  1.00  0.00     0.031 A 
ATOM     91  C   UNL     1     -10.335 -13.001  14.081  1.00  0.00     0.131 A 
ATOM     92  C   UNL     1      -9.397 -12.144  16.537  1.00  0.00     0.055 A 
ATOM     93  C   UNL     1     -10.649 -13.728  15.229  1.00  0.00     0.041 A 
ATOM     94  F   UNL     1     -10.781 -13.474  12.905  1.00  0.00    -0.206 F 
ATOM     95  C   UNL     1     -10.165 -13.309  16.465  1.00  0.00     0.022 A 
BRANCH  92  96
ATOM     96  S   UNL     1      -8.615 -11.668  18.102  1.00  0.00     0.124 S 
ATOM     97  O   UNL     1      -7.200 -11.666  17.746  1.00  0.00    -0.237 OA
ATOM     98  O   UNL     1      -9.209 -10.361  18.363  1.00  0.00    -0.237 OA
ATOM     99  O   UNL     1      -9.021 -12.727  19.025  1.00  0.00    -0.744 OA
ENDBRANCH  92  96
ENDBRANCH  66  89
ENDBRANCH  40  41
ENDBRANCH  32  35
ENDBRANCH  30  31
ENDBRANCH  29  30
ENDBRANCH   1  29
TORSDOF 17
