REMARK SMILES C[N@H+]1C[C@@H](Oc2cccc3cccnc23)C[C@H]1C(=O)NCCCNC(=O)c1ccc(-c2c3nc(c(-c4cc(S(=O)(=O)[O-])ccc4F)c4ccc([nH]4)c(-c4cc(S(=O)(=O)[O-])ccc4F)c4nc(c(-c5cc(S(=O)(=O)[O-])ccc5F)c5ccc2[nH]5)C=C4)C=C3)cc1
REMARK SMILES IDX 22 1 21 2 20 3 18 4 19 5 17 7 1 8 2 9 3 10 4 12 16 13 5 14
REMARK SMILES IDX 6 15 7 16 15 17 8 18 10 19 14 20 9 21 11 22 13 23 12 24
REMARK SMILES IDX 23 25 24 26 25 27 26 29 27 30 28 31 89 32 29 33 88 34 30 35
REMARK SMILES IDX 31 36 32 37 82 38 33 39 87 40 81 41 83 42 34 43 86 44 80 45
REMARK SMILES IDX 79 46 35 48 67 49 47 50 66 51 48 52 51 53 65 54 84 55 49 56
REMARK SMILES IDX 50 57 64 59 85 60 52 61 36 62 37 63 45 64 38 65 44 66 46 67
REMARK SMILES IDX 43 68 39 69 40 70 41 71 42 72 68 73 69 74 77 75 70 76 76 77
REMARK SMILES IDX 78 78 75 79 71 80 72 81 73 82 74 83 53 84 54 85 62 86 55 87
REMARK SMILES IDX 61 88 63 89 60 90 56 91 57 92 58 93 59 94
REMARK H PARENT 20 6 2 11 24 28 83 47 51 58
REMARK Flexibility Score: inf
ROOT
ATOM      1  C   UNL     1      -0.955   1.657   3.111  1.00  0.00     0.042 C 
ENDROOT
BRANCH   1   2
ATOM      2  C   UNL     1      -0.136   0.403   2.858  1.00  0.00     0.118 C 
BRANCH   2   3
ATOM      3  N   UNL     1      -0.882  -0.773   2.491  1.00  0.00    -0.351 N 
ATOM      4  C   UNL     1      -0.782  -1.552   1.379  1.00  0.00     0.278 C 
ATOM      5  O   UNL     1      -1.200  -2.712   1.509  1.00  0.00    -0.268 OA
ATOM      6  H   UNL     1      -1.566  -1.055   3.140  1.00  0.00     0.163 HD
BRANCH   4   7
ATOM      7  C   UNL     1      -0.165  -1.131   0.019  1.00  0.00     0.278 C 
ATOM      8  C   UNL     1      -1.918   0.567  -0.426  1.00  0.00     0.333 C 
ATOM      9  N   UNL     1      -0.540   0.161  -0.553  1.00  0.00    -0.324 N 
ATOM     10  C   UNL     1       0.516   1.145  -0.338  1.00  0.00     0.308 C 
ATOM     11  H   UNL     1      -0.582   0.044  -1.566  1.00  0.00     0.348 HD
ATOM     12  C   UNL     1       1.811   0.302  -0.251  1.00  0.00     0.234 C 
ATOM     13  C   UNL     1       1.355  -1.151  -0.046  1.00  0.00     0.126 C 
BRANCH  12  14
ATOM     14  O   UNL     1       2.892   0.855   0.522  1.00  0.00    -0.482 OA
BRANCH  14  15
ATOM     15  C   UNL     1       3.023   0.654   1.875  1.00  0.00     0.146 A 
ATOM     16  C   UNL     1       3.316  -0.619   2.381  1.00  0.00     0.049 A 
ATOM     17  C   UNL     1       3.011   1.772   2.733  1.00  0.00     0.112 A 
ATOM     18  C   UNL     1       3.429  -0.838   3.751  1.00  0.00     0.005 A 
ATOM     19  C   UNL     1       3.200   1.538   4.120  1.00  0.00     0.004 A 
ATOM     20  N   UNL     1       2.819   3.030   2.269  1.00  0.00    -0.252 NA
ATOM     21  C   UNL     1       3.363   0.240   4.622  1.00  0.00     0.010 A 
ATOM     22  C   UNL     1       3.228   2.629   4.994  1.00  0.00     0.012 A 
ATOM     23  C   UNL     1       2.856   4.060   3.148  1.00  0.00     0.112 A 
ATOM     24  C   UNL     1       3.062   3.914   4.503  1.00  0.00     0.021 A 
ENDBRANCH  14  15
ENDBRANCH  12  14
ENDBRANCH   4   7
ENDBRANCH   2   3
ENDBRANCH   1   2
BRANCH   1  25
ATOM     25  C   UNL     1      -1.488   1.754   4.531  1.00  0.00     0.118 C 
BRANCH  25  26
ATOM     26  N   UNL     1      -0.427   1.869   5.527  1.00  0.00    -0.352 N 
ATOM     27  C   UNL     1      -0.107   2.905   6.371  1.00  0.00     0.251 C 
ATOM     28  H   UNL     1       0.152   1.078   5.606  1.00  0.00     0.163 HD
ATOM     29  O   UNL     1       0.908   2.847   7.057  1.00  0.00    -0.269 OA
BRANCH  27  30
ATOM     30  C   UNL     1      -0.980   4.089   6.451  1.00  0.00     0.039 A 
ATOM     31  C   UNL     1      -0.412   5.368   6.449  1.00  0.00     0.014 A 
ATOM     32  C   UNL     1      -2.360   3.928   6.578  1.00  0.00     0.014 A 
ATOM     33  C   UNL     1      -1.237   6.492   6.532  1.00  0.00     0.010 A 
ATOM     34  C   UNL     1      -3.183   5.042   6.577  1.00  0.00     0.010 A 
ATOM     35  C   UNL     1      -2.627   6.332   6.585  1.00  0.00    -0.014 A 
BRANCH  35  36
ATOM     36  C   UNL     1      -3.556   7.468   6.777  1.00  0.00     0.031 A 
ATOM     37  C   UNL     1      -4.356   7.514   8.049  1.00  0.00     0.074 A 
ATOM     38  C   UNL     1      -3.777   8.343   5.782  1.00  0.00     0.049 A 
ATOM     39  N   UNL     1      -5.431   8.195   8.337  1.00  0.00    -0.248 NA
ATOM     40  C   UNL     1      -3.912   6.602   9.115  1.00  0.00     0.031 C 
ATOM     41  C   UNL     1      -3.068   8.368   4.502  1.00  0.00     0.029 A 
ATOM     42  N   UNL     1      -4.695   9.354   5.678  1.00  0.00    -0.354 N 
ATOM     43  C   UNL     1      -5.829   7.750   9.594  1.00  0.00     0.074 A 
ATOM     44  C   UNL     1      -4.906   6.704   9.981  1.00  0.00     0.031 C 
ATOM     45  C   UNL     1      -3.587   9.340   3.734  1.00  0.00     0.029 A 
ATOM     46  C   UNL     1      -4.694   9.969   4.448  1.00  0.00     0.049 A 
ATOM     47  H   UNL     1      -5.297   9.616   6.412  1.00  0.00     0.167 HD
ATOM     48  C   UNL     1      -6.867   8.183  10.353  1.00  0.00     0.034 A 
ATOM     49  C   UNL     1      -5.519  10.908   3.949  1.00  0.00     0.034 A 
ATOM     50  C   UNL     1      -7.743   9.253   9.940  1.00  0.00     0.049 A 
ATOM     51  C   UNL     1      -6.638  11.415   4.821  1.00  0.00     0.074 A 
ATOM     52  C   UNL     1      -8.795   9.830  10.627  1.00  0.00     0.029 A 
ATOM     53  N   UNL     1      -7.658   9.913   8.717  1.00  0.00    -0.354 N 
ATOM     54  N   UNL     1      -7.007  11.001   6.013  1.00  0.00    -0.248 NA
ATOM     55  C   UNL     1      -7.444  12.517   4.286  1.00  0.00     0.031 C 
ATOM     56  C   UNL     1      -9.373  10.805   9.804  1.00  0.00     0.029 A 
ATOM     57  C   UNL     1      -8.643  10.882   8.626  1.00  0.00     0.049 A 
ATOM     58  H   UNL     1      -6.993   9.719   8.018  1.00  0.00     0.167 HD
ATOM     59  C   UNL     1      -8.080  11.807   6.379  1.00  0.00     0.074 A 
ATOM     60  C   UNL     1      -8.286  12.739   5.286  1.00  0.00     0.031 C 
ATOM     61  C   UNL     1      -8.828  11.785   7.513  1.00  0.00     0.034 A 
BRANCH  48  62
ATOM     62  C   UNL     1      -7.111   7.465  11.662  1.00  0.00     0.023 A 
ATOM     63  C   UNL     1      -6.127   7.402  12.667  1.00  0.00     0.031 A 
ATOM     64  C   UNL     1      -8.303   6.750  11.872  1.00  0.00     0.131 A 
ATOM     65  C   UNL     1      -6.299   6.546  13.766  1.00  0.00     0.055 A 
ATOM     66  C   UNL     1      -8.511   5.981  13.022  1.00  0.00     0.041 A 
ATOM     67  F   UNL     1      -9.275   6.751  10.947  1.00  0.00    -0.206 F 
ATOM     68  C   UNL     1      -7.495   5.855  13.965  1.00  0.00     0.022 A 
BRANCH  65  69
ATOM     69  S   UNL     1      -4.860   6.196  14.816  1.00  0.00     0.124 S 
ATOM     70  O   UNL     1      -3.916   5.646  13.846  1.00  0.00    -0.237 OA
ATOM     71  O   UNL     1      -4.533   7.511  15.352  1.00  0.00    -0.237 OA
ATOM     72  O   UNL     1      -5.372   5.233  15.790  1.00  0.00    -0.744 OA
ENDBRANCH  65  69
ENDBRANCH  48  62
BRANCH  49  73
ATOM     73  C   UNL     1      -5.322  11.412   2.563  1.00  0.00     0.023 A 
ATOM     74  C   UNL     1      -4.851  12.713   2.330  1.00  0.00     0.031 A 
ATOM     75  C   UNL     1      -5.580  10.591   1.451  1.00  0.00     0.131 A 
ATOM     76  C   UNL     1      -4.670  13.165   1.013  1.00  0.00     0.055 A 
ATOM     77  C   UNL     1      -5.365  11.034   0.144  1.00  0.00     0.041 A 
ATOM     78  F   UNL     1      -6.016   9.333   1.622  1.00  0.00    -0.206 F 
ATOM     79  C   UNL     1      -4.914  12.331  -0.081  1.00  0.00     0.022 A 
BRANCH  76  80
ATOM     80  S   UNL     1      -4.135  14.877   0.749  1.00  0.00     0.124 S 
ATOM     81  O   UNL     1      -5.225  15.629   1.360  1.00  0.00    -0.237 OA
ATOM     82  O   UNL     1      -2.859  14.908   1.456  1.00  0.00    -0.237 OA
ATOM     83  O   UNL     1      -4.040  14.984  -0.706  1.00  0.00    -0.744 OA
ENDBRANCH  76  80
ENDBRANCH  49  73
BRANCH  61  84
ATOM     84  C   UNL     1      -9.908  12.829   7.627  1.00  0.00     0.023 A 
ATOM     85  C   UNL     1     -11.058  12.788   6.821  1.00  0.00     0.031 A 
ATOM     86  C   UNL     1      -9.775  13.882   8.547  1.00  0.00     0.131 A 
ATOM     87  C   UNL     1     -12.009  13.815   6.914  1.00  0.00     0.055 A 
ATOM     88  C   UNL     1     -10.749  14.872   8.673  1.00  0.00     0.041 A 
ATOM     89  F   UNL     1      -8.694  13.965   9.339  1.00  0.00    -0.206 F 
ATOM     90  C   UNL     1     -11.869  14.848   7.845  1.00  0.00     0.022 A 
BRANCH  87  91
ATOM     91  S   UNL     1     -13.392  13.828   5.742  1.00  0.00     0.124 S 
ATOM     92  O   UNL     1     -12.700  13.895   4.459  1.00  0.00    -0.237 OA
ATOM     93  O   UNL     1     -14.065  12.568   6.039  1.00  0.00    -0.237 OA
ATOM     94  O   UNL     1     -14.139  15.030   6.107  1.00  0.00    -0.744 OA
ENDBRANCH  87  91
ENDBRANCH  61  84
ENDBRANCH  35  36
ENDBRANCH  27  30
ENDBRANCH  25  26
ENDBRANCH   1  25
TORSDOF 15
