REMARK SMILES O=C(Cn1nc(C2CC2)c2c(C(F)F)cc(-c3ccc(Cl)cc3)nc21)NCCCNC(=O)c1ccc(-c2c3nc(c(-c4cc(S(=O)(=O)[O-])ccc4F)c4ccc([nH]4)c(-c4cc(S(=O)(=O)[O-])ccc4F)c4nc(c(-c5cc(S(=O)(=O)[O-])ccc5F)c5ccc2[nH]5)C=C4)C=C3)cc1
REMARK SMILES IDX 28 1 27 2 26 3 1 4 2 5 3 7 4 8 5 9 25 10 6 11 10 12 24 13
REMARK SMILES IDX 11 14 16 15 15 16 7 17 8 18 9 19 12 20 13 21 14 22 17 23
REMARK SMILES IDX 18 24 23 25 19 26 22 27 20 28 21 29 29 30 30 31 31 32 32 34
REMARK SMILES IDX 33 35 34 36 95 37 35 38 94 39 36 40 37 41 38 42 88 43 39 44
REMARK SMILES IDX 93 45 87 46 89 47 40 48 92 49 86 50 85 51 41 53 73 54 53 55
REMARK SMILES IDX 72 56 54 57 57 58 71 59 90 60 55 61 56 62 70 64 91 65 58 66
REMARK SMILES IDX 42 67 43 68 51 69 44 70 50 71 52 72 49 73 45 74 46 75 47 76
REMARK SMILES IDX 48 77 74 78 75 79 83 80 76 81 82 82 84 83 81 84 77 85 78 86
REMARK SMILES IDX 79 87 80 88 59 89 60 90 68 91 61 92 67 93 69 94 66 95 62 96
REMARK SMILES IDX 63 97 64 98 65 99
REMARK H PARENT 26 6 30 33 89 52 57 63
REMARK Flexibility Score: inf
ROOT
ATOM      1  C   UNL     1       1.992   3.052  -1.465  1.00  0.00     0.042 C 
ENDROOT
BRANCH   1   2
ATOM      2  C   UNL     1       1.865   1.553  -1.749  1.00  0.00     0.117 C 
BRANCH   2   3
ATOM      3  N   UNL     1       2.679   0.721  -0.876  1.00  0.00    -0.354 N 
ATOM      4  O   UNL     1       0.947  -0.313   0.206  1.00  0.00    -0.273 OA
ATOM      5  C   UNL     1       2.157  -0.199   0.011  1.00  0.00     0.241 C 
ATOM      6  H   UNL     1       3.658   0.820  -0.920  1.00  0.00     0.163 HD
BRANCH   5   7
ATOM      7  C   UNL     1       3.179  -1.028   0.766  1.00  0.00     0.246 C 
BRANCH   7   8
ATOM      8  N   UNL     1       3.829  -2.013  -0.082  1.00  0.00    -0.237 N 
ATOM      9  N   UNL     1       3.538  -3.316   0.036  1.00  0.00    -0.175 NA
ATOM     10  C   UNL     1       4.801  -1.767  -1.011  1.00  0.00     0.159 A 
ATOM     11  C   UNL     1       4.421  -3.928  -0.768  1.00  0.00     0.076 A 
ATOM     12  C   UNL     1       5.278  -3.011  -1.460  1.00  0.00     0.051 A 
ATOM     13  N   UNL     1       5.179  -0.529  -1.397  1.00  0.00    -0.228 NA
ATOM     14  C   UNL     1       6.346  -2.977  -2.400  1.00  0.00     0.033 A 
ATOM     15  C   UNL     1       6.130  -0.553  -2.341  1.00  0.00     0.073 A 
ATOM     16  C   UNL     1       6.734  -1.700  -2.824  1.00  0.00     0.039 A 
BRANCH  11  17
ATOM     17  C   UNL     1       4.316  -5.447  -0.805  1.00  0.00     0.041 C 
ATOM     18  C   UNL     1       4.796  -6.280  -1.959  1.00  0.00     0.011 C 
ATOM     19  C   UNL     1       5.555  -6.292  -0.670  1.00  0.00     0.011 C 
ENDBRANCH  11  17
BRANCH  14  20
ATOM     20  C   UNL     1       7.100  -4.078  -3.103  1.00  0.00     0.373 C 
ATOM     21  F   UNL     1       7.459  -5.134  -2.338  1.00  0.00    -0.205 F 
ATOM     22  F   UNL     1       6.416  -4.569  -4.175  1.00  0.00    -0.205 F 
ENDBRANCH  14  20
BRANCH  15  23
ATOM     23  C   UNL     1       6.686   0.698  -2.798  1.00  0.00     0.000 A 
ATOM     24  C   UNL     1       7.574   1.338  -1.959  1.00  0.00     0.012 A 
ATOM     25  C   UNL     1       6.582   1.107  -4.142  1.00  0.00     0.012 A 
ATOM     26  C   UNL     1       8.404   2.291  -2.507  1.00  0.00     0.021 A 
ATOM     27  C   UNL     1       7.435   2.079  -4.668  1.00  0.00     0.021 A 
ATOM     28  C   UNL     1       8.387   2.646  -3.847  1.00  0.00     0.041 A 
ATOM     29  Cl  UNL     1       9.532   3.759  -4.479  1.00  0.00    -0.084 Cl
ENDBRANCH  15  23
ENDBRANCH   7   8
ENDBRANCH   5   7
ENDBRANCH   2   3
ENDBRANCH   1   2
BRANCH   1  30
ATOM     30  C   UNL     1       3.407   3.562  -1.665  1.00  0.00     0.118 C 
BRANCH  30  31
ATOM     31  N   UNL     1       3.820   3.752  -3.045  1.00  0.00    -0.352 N 
ATOM     32  C   UNL     1       4.908   4.454  -3.543  1.00  0.00     0.251 C 
ATOM     33  H   UNL     1       3.248   3.322  -3.721  1.00  0.00     0.163 HD
ATOM     34  O   UNL     1       4.981   4.632  -4.752  1.00  0.00    -0.269 OA
BRANCH  32  35
ATOM     35  C   UNL     1       6.015   4.926  -2.653  1.00  0.00     0.039 A 
ATOM     36  C   UNL     1       6.952   5.865  -3.116  1.00  0.00     0.014 A 
ATOM     37  C   UNL     1       6.259   4.313  -1.428  1.00  0.00     0.014 A 
ATOM     38  C   UNL     1       8.142   6.091  -2.400  1.00  0.00     0.010 A 
ATOM     39  C   UNL     1       7.403   4.552  -0.706  1.00  0.00     0.010 A 
ATOM     40  C   UNL     1       8.397   5.359  -1.237  1.00  0.00    -0.014 A 
BRANCH  40  41
ATOM     41  C   UNL     1       9.550   5.531  -0.361  1.00  0.00     0.031 A 
ATOM     42  C   UNL     1       9.331   6.688   0.529  1.00  0.00     0.074 A 
ATOM     43  C   UNL     1      10.529   4.630  -0.111  1.00  0.00     0.049 A 
ATOM     44  N   UNL     1       9.822   7.863   0.315  1.00  0.00    -0.248 NA
ATOM     45  C   UNL     1       8.281   6.650   1.561  1.00  0.00     0.031 C 
ATOM     46  C   UNL     1      10.881   3.374  -0.766  1.00  0.00     0.029 A 
ATOM     47  N   UNL     1      11.415   4.635   0.922  1.00  0.00    -0.354 N 
ATOM     48  C   UNL     1       9.362   8.630   1.369  1.00  0.00     0.074 A 
ATOM     49  C   UNL     1       8.202   7.945   1.876  1.00  0.00     0.031 C 
ATOM     50  C   UNL     1      11.628   2.588   0.040  1.00  0.00     0.029 A 
ATOM     51  C   UNL     1      12.053   3.420   1.145  1.00  0.00     0.049 A 
ATOM     52  H   UNL     1      11.591   5.435   1.468  1.00  0.00     0.167 HD
ATOM     53  C   UNL     1      10.177   9.548   1.959  1.00  0.00     0.034 A 
ATOM     54  C   UNL     1      13.069   3.123   1.992  1.00  0.00     0.034 A 
ATOM     55  C   UNL     1      11.388   9.728   1.191  1.00  0.00     0.049 A 
ATOM     56  C   UNL     1      13.726   4.409   2.313  1.00  0.00     0.074 A 
ATOM     57  C   UNL     1      11.674  10.139  -0.095  1.00  0.00     0.029 A 
ATOM     58  N   UNL     1      12.495   9.036   1.628  1.00  0.00    -0.354 N 
ATOM     59  N   UNL     1      14.405   5.093   1.432  1.00  0.00    -0.248 NA
ATOM     60  C   UNL     1      13.199   5.173   3.431  1.00  0.00     0.031 C 
ATOM     61  C   UNL     1      12.761   9.321  -0.518  1.00  0.00     0.029 A 
ATOM     62  C   UNL     1      13.146   8.501   0.546  1.00  0.00     0.049 A 
ATOM     63  H   UNL     1      12.775   8.941   2.567  1.00  0.00     0.167 HD
ATOM     64  C   UNL     1      13.991   6.404   1.622  1.00  0.00     0.074 A 
ATOM     65  C   UNL     1      13.335   6.405   2.931  1.00  0.00     0.031 C 
ATOM     66  C   UNL     1      13.949   7.290   0.583  1.00  0.00     0.034 A 
BRANCH  53  67
ATOM     67  C   UNL     1      10.073   9.937   3.410  1.00  0.00     0.023 A 
ATOM     68  C   UNL     1       9.349   9.190   4.359  1.00  0.00     0.031 A 
ATOM     69  C   UNL     1      10.880  10.966   3.923  1.00  0.00     0.131 A 
ATOM     70  C   UNL     1       9.404   9.477   5.725  1.00  0.00     0.055 A 
ATOM     71  C   UNL     1      10.993  11.211   5.297  1.00  0.00     0.041 A 
ATOM     72  F   UNL     1      11.627  11.725   3.107  1.00  0.00    -0.206 F 
ATOM     73  C   UNL     1      10.250  10.467   6.207  1.00  0.00     0.022 A 
BRANCH  70  74
ATOM     74  S   UNL     1       8.388   8.531   6.893  1.00  0.00     0.124 S 
ATOM     75  O   UNL     1       9.398   7.969   7.781  1.00  0.00    -0.237 OA
ATOM     76  O   UNL     1       7.547   9.579   7.466  1.00  0.00    -0.237 OA
ATOM     77  O   UNL     1       7.687   7.575   6.040  1.00  0.00    -0.744 OA
ENDBRANCH  70  74
ENDBRANCH  53  67
BRANCH  54  78
ATOM     78  C   UNL     1      13.077   1.948   2.897  1.00  0.00     0.023 A 
ATOM     79  C   UNL     1      11.873   1.288   3.215  1.00  0.00     0.031 A 
ATOM     80  C   UNL     1      14.211   1.621   3.657  1.00  0.00     0.131 A 
ATOM     81  C   UNL     1      11.810   0.401   4.297  1.00  0.00     0.055 A 
ATOM     82  C   UNL     1      14.151   0.719   4.727  1.00  0.00     0.041 A 
ATOM     83  F   UNL     1      15.389   2.216   3.411  1.00  0.00    -0.206 F 
ATOM     84  C   UNL     1      12.941   0.116   5.063  1.00  0.00     0.022 A 
BRANCH  81  85
ATOM     85  S   UNL     1      10.227  -0.357   4.761  1.00  0.00     0.124 S 
ATOM     86  O   UNL     1      10.609  -1.743   5.023  1.00  0.00    -0.237 OA
ATOM     87  O   UNL     1       9.855   0.425   5.934  1.00  0.00    -0.237 OA
ATOM     88  O   UNL     1       9.396  -0.162   3.575  1.00  0.00    -0.744 OA
ENDBRANCH  81  85
ENDBRANCH  54  78
BRANCH  66  89
ATOM     89  C   UNL     1      14.626   6.916  -0.721  1.00  0.00     0.023 A 
ATOM     90  C   UNL     1      15.587   7.812  -1.212  1.00  0.00     0.031 A 
ATOM     91  C   UNL     1      14.206   5.885  -1.581  1.00  0.00     0.131 A 
ATOM     92  C   UNL     1      16.052   7.704  -2.528  1.00  0.00     0.055 A 
ATOM     93  C   UNL     1      14.709   5.747  -2.881  1.00  0.00     0.041 A 
ATOM     94  F   UNL     1      13.245   5.028  -1.225  1.00  0.00    -0.206 F 
ATOM     95  C   UNL     1      15.626   6.672  -3.367  1.00  0.00     0.022 A 
BRANCH  92  96
ATOM     96  S   UNL     1      17.126   8.986  -3.217  1.00  0.00     0.124 S 
ATOM     97  O   UNL     1      18.309   8.223  -3.606  1.00  0.00    -0.237 OA
ATOM     98  O   UNL     1      16.320   9.500  -4.323  1.00  0.00    -0.237 OA
ATOM     99  O   UNL     1      17.322   9.917  -2.109  1.00  0.00    -0.744 OA
ENDBRANCH  92  96
ENDBRANCH  66  89
ENDBRANCH  40  41
ENDBRANCH  32  35
ENDBRANCH  30  31
ENDBRANCH   1  30
TORSDOF 17
