REMARK SMILES CSCC[C@H](C(=O)NCCCNC(=O)c1ccc(-c2c3nc(c(-c4cc(S(=O)(=O)[O-])ccc4F)c4ccc([nH]4)c(-c4cc(S(=O)(=O)[O-])ccc4F)c4nc(c(-c5cc(S(=O)(=O)[O-])ccc5F)c5ccc2[nH]5)C=C4)C=C3)cc1)N1C(=O)/C(=C/c2cn(C)c3ccccc23)SC1=S
REMARK SMILES IDX 10 1 9 2 8 3 6 4 7 5 5 7 4 8 3 9 2 10 1 11 78 12 79 13 94 14
REMARK SMILES IDX 80 15 81 16 93 17 95 18 82 19 83 20 84 21 92 22 85 23 87 24
REMARK SMILES IDX 91 25 86 26 88 27 90 28 89 29 11 30 12 31 13 32 14 34 15 35
REMARK SMILES IDX 16 36 77 37 17 38 76 39 18 40 19 41 20 42 70 43 21 44 75 45
REMARK SMILES IDX 69 46 71 47 22 48 74 49 68 50 67 51 23 53 55 54 35 55 54 56
REMARK SMILES IDX 36 57 39 58 53 59 72 60 37 61 38 62 52 64 73 65 40 66 24 67
REMARK SMILES IDX 25 68 33 69 26 70 32 71 34 72 31 73 27 74 28 75 29 76 30 77
REMARK SMILES IDX 56 78 57 79 65 80 58 81 64 82 66 83 63 84 59 85 60 86 61 87
REMARK SMILES IDX 62 88 41 89 42 90 50 91 43 92 49 93 51 94 48 95 44 96 45 97
REMARK SMILES IDX 46 98 47 99
REMARK H PARENT 8 6 12 33 71 52 39 63
REMARK Flexibility Score: inf
ROOT
ATOM      1  C   UNL     1       2.693   4.186  -4.639  1.00  0.00     0.042 C 
ENDROOT
BRANCH   1   2
ATOM      2  C   UNL     1       1.849   3.763  -3.475  1.00  0.00     0.117 C 
BRANCH   2   3
ATOM      3  N   UNL     1       1.152   2.559  -3.154  1.00  0.00    -0.354 N 
ATOM      4  C   UNL     1       0.673   2.251  -1.873  1.00  0.00     0.243 C 
ATOM      5  O   UNL     1      -0.038   1.240  -1.791  1.00  0.00    -0.273 OA
ATOM      6  H   UNL     1       0.998   1.906  -3.875  1.00  0.00     0.163 HD
BRANCH   4   7
ATOM      7  C   UNL     1       1.050   3.110  -0.474  1.00  0.00     0.182 C 
BRANCH   7   8
ATOM      8  C   UNL     1       2.505   2.660  -0.019  1.00  0.00     0.046 C 
BRANCH   8   9
ATOM      9  C   UNL     1       3.644   3.544   0.475  1.00  0.00     0.072 C 
BRANCH   9  10
ATOM     10  S   UNL     1       3.878   3.815   2.263  1.00  0.00    -0.165 SA
ATOM     11  C   UNL     1       2.191   3.825   2.881  1.00  0.00     0.085 C 
ENDBRANCH   9  10
ENDBRANCH   8   9
ENDBRANCH   7   8
BRANCH   7  12
ATOM     12  N   UNL     1       0.283   4.691   0.027  1.00  0.00    -0.280 N 
ATOM     13  C   UNL     1      -0.544   4.267   0.947  1.00  0.00     0.266 C 
ATOM     14  C   UNL     1       0.275   6.382  -1.055  1.00  0.00     0.149 C 
ATOM     15  O   UNL     1      -0.848   3.308   1.593  1.00  0.00    -0.268 OA
ATOM     16  C   UNL     1      -0.794   5.607   0.930  1.00  0.00     0.081 C 
ATOM     17  S   UNL     1      -0.841   7.351  -0.856  1.00  0.00    -0.054 SA
ATOM     18  S   UNL     1       1.307   7.317  -2.445  1.00  0.00    -0.052 S 
ATOM     19  C   UNL     1      -1.541   5.809   2.144  1.00  0.00     0.031 C 
BRANCH  19  20
ATOM     20  C   UNL     1      -2.159   7.073   2.117  1.00  0.00     0.001 A 
ATOM     21  C   UNL     1      -1.570   8.335   2.397  1.00  0.00     0.094 A 
ATOM     22  C   UNL     1      -1.921   6.981   0.748  1.00  0.00     0.007 A 
ATOM     23  N   UNL     1      -0.270   8.475   1.878  1.00  0.00    -0.350 N 
ATOM     24  C   UNL     1      -0.021   7.329   1.157  1.00  0.00     0.048 A 
ATOM     25  C   UNL     1      -1.961   5.555  -0.663  1.00  0.00     0.011 A 
ATOM     26  C   UNL     1       0.395   9.698   1.455  1.00  0.00     0.149 C 
ATOM     27  C   UNL     1       1.480   6.390   0.385  1.00  0.00     0.027 A 
ATOM     28  C   UNL     1      -0.444   4.818  -1.672  1.00  0.00     0.001 A 
ATOM     29  C   UNL     1       1.468   5.168  -1.156  1.00  0.00     0.002 A 
ENDBRANCH  19  20
ENDBRANCH   7  12
ENDBRANCH   4   7
ENDBRANCH   2   3
ENDBRANCH   1   2
BRANCH   1  30
ATOM     30  C   UNL     1       2.000   4.806  -5.839  1.00  0.00     0.118 C 
BRANCH  30  31
ATOM     31  N   UNL     1       1.213   6.035  -5.640  1.00  0.00    -0.352 N 
ATOM     32  C   UNL     1       1.304   7.293  -6.226  1.00  0.00     0.251 C 
ATOM     33  H   UNL     1       0.493   5.951  -4.973  1.00  0.00     0.163 HD
ATOM     34  O   UNL     1       0.483   8.165  -5.950  1.00  0.00    -0.269 OA
BRANCH  32  35
ATOM     35  C   UNL     1       2.424   7.612  -7.139  1.00  0.00     0.039 A 
ATOM     36  C   UNL     1       3.083   8.842  -7.056  1.00  0.00     0.014 A 
ATOM     37  C   UNL     1       2.891   6.642  -8.012  1.00  0.00     0.014 A 
ATOM     38  C   UNL     1       4.286   9.022  -7.747  1.00  0.00     0.010 A 
ATOM     39  C   UNL     1       4.181   6.734  -8.499  1.00  0.00     0.010 A 
ATOM     40  C   UNL     1       4.885   7.938  -8.409  1.00  0.00    -0.014 A 
BRANCH  40  41
ATOM     41  C   UNL     1       6.215   8.032  -9.065  1.00  0.00     0.031 A 
ATOM     42  C   UNL     1       6.351   7.657 -10.520  1.00  0.00     0.074 A 
ATOM     43  C   UNL     1       7.301   8.378  -8.345  1.00  0.00     0.049 A 
ATOM     44  N   UNL     1       7.429   7.583 -11.257  1.00  0.00    -0.248 NA
ATOM     45  C   UNL     1       5.120   7.270 -11.231  1.00  0.00     0.031 C 
ATOM     46  C   UNL     1       7.303   8.709  -6.917  1.00  0.00     0.029 A 
ATOM     47  N   UNL     1       8.616   8.513  -8.714  1.00  0.00    -0.354 N 
ATOM     48  C   UNL     1       7.003   7.132 -12.502  1.00  0.00     0.074 A 
ATOM     49  C   UNL     1       5.591   6.852 -12.393  1.00  0.00     0.031 C 
ATOM     50  C   UNL     1       8.543   9.068  -6.549  1.00  0.00     0.029 A 
ATOM     51  C   UNL     1       9.441   8.921  -7.690  1.00  0.00     0.049 A 
ATOM     52  H   UNL     1       8.940   8.335  -9.626  1.00  0.00     0.167 HD
ATOM     53  C   UNL     1       7.715   7.002 -13.646  1.00  0.00     0.034 A 
ATOM     54  C   UNL     1      10.771   9.138  -7.669  1.00  0.00     0.034 A 
ATOM     55  C   UNL     1       9.119   7.299 -13.740  1.00  0.00     0.049 A 
ATOM     56  C   UNL     1      11.555   8.932  -8.942  1.00  0.00     0.074 A 
ATOM     57  C   UNL     1       9.932   7.251 -14.857  1.00  0.00     0.029 A 
ATOM     58  N   UNL     1       9.923   7.687 -12.676  1.00  0.00    -0.354 N 
ATOM     59  N   UNL     1      11.124   8.557 -10.125  1.00  0.00    -0.248 NA
ATOM     60  C   UNL     1      12.999   9.186  -8.879  1.00  0.00     0.031 C 
ATOM     61  C   UNL     1      11.243   7.506 -14.449  1.00  0.00     0.029 A 
ATOM     62  C   UNL     1      11.232   7.832 -13.102  1.00  0.00     0.049 A 
ATOM     63  H   UNL     1       9.608   7.836 -11.755  1.00  0.00     0.167 HD
ATOM     64  C   UNL     1      12.242   8.568 -10.956  1.00  0.00     0.074 A 
ATOM     65  C   UNL     1      13.358   9.000 -10.140  1.00  0.00     0.031 C 
ATOM     66  C   UNL     1      12.336   8.256 -12.274  1.00  0.00     0.034 A 
BRANCH  53  67
ATOM     67  C   UNL     1       6.988   6.495 -14.869  1.00  0.00     0.023 A 
ATOM     68  C   UNL     1       5.896   7.186 -15.424  1.00  0.00     0.031 A 
ATOM     69  C   UNL     1       7.377   5.288 -15.474  1.00  0.00     0.131 A 
ATOM     70  C   UNL     1       5.185   6.627 -16.495  1.00  0.00     0.055 A 
ATOM     71  C   UNL     1       6.727   4.787 -16.603  1.00  0.00     0.041 A 
ATOM     72  F   UNL     1       8.389   4.564 -14.969  1.00  0.00    -0.206 F 
ATOM     73  C   UNL     1       5.614   5.449 -17.111  1.00  0.00     0.022 A 
BRANCH  70  74
ATOM     74  S   UNL     1       3.596   7.369 -16.959  1.00  0.00     0.124 S 
ATOM     75  O   UNL     1       2.855   7.285 -15.702  1.00  0.00    -0.237 OA
ATOM     76  O   UNL     1       3.984   8.709 -17.383  1.00  0.00    -0.237 OA
ATOM     77  O   UNL     1       3.107   6.492 -18.021  1.00  0.00    -0.744 OA
ENDBRANCH  70  74
ENDBRANCH  53  67
BRANCH  54  78
ATOM     78  C   UNL     1      11.454   9.555  -6.408  1.00  0.00     0.023 A 
ATOM     79  C   UNL     1      12.145  10.775  -6.326  1.00  0.00     0.031 A 
ATOM     80  C   UNL     1      11.474   8.713  -5.282  1.00  0.00     0.131 A 
ATOM     81  C   UNL     1      12.874  11.090  -5.168  1.00  0.00     0.055 A 
ATOM     82  C   UNL     1      12.138   9.065  -4.106  1.00  0.00     0.041 A 
ATOM     83  F   UNL     1      10.837   7.531  -5.306  1.00  0.00    -0.206 F 
ATOM     84  C   UNL     1      12.857  10.254  -4.050  1.00  0.00     0.022 A 
BRANCH  81  85
ATOM     85  S   UNL     1      13.952  12.549  -5.192  1.00  0.00     0.124 S 
ATOM     86  O   UNL     1      14.817  12.256  -6.328  1.00  0.00    -0.237 OA
ATOM     87  O   UNL     1      12.993  13.633  -5.377  1.00  0.00    -0.237 OA
ATOM     88  O   UNL     1      14.603  12.511  -3.884  1.00  0.00    -0.744 OA
ENDBRANCH  81  85
ENDBRANCH  54  78
BRANCH  66  89
ATOM     89  C   UNL     1      13.684   8.427 -12.932  1.00  0.00     0.023 A 
ATOM     90  C   UNL     1      14.800   7.665 -12.550  1.00  0.00     0.031 A 
ATOM     91  C   UNL     1      13.849   9.371 -13.962  1.00  0.00     0.131 A 
ATOM     92  C   UNL     1      16.046   7.908 -13.146  1.00  0.00     0.055 A 
ATOM     93  C   UNL     1      15.071   9.546 -14.610  1.00  0.00     0.041 A 
ATOM     94  F   UNL     1      12.819  10.134 -14.363  1.00  0.00    -0.206 F 
ATOM     95  C   UNL     1      16.183   8.824 -14.192  1.00  0.00     0.022 A 
BRANCH  92  96
ATOM     96  S   UNL     1      17.513   7.104 -12.446  1.00  0.00     0.124 S 
ATOM     97  O   UNL     1      17.468   7.553 -11.058  1.00  0.00    -0.237 OA
ATOM     98  O   UNL     1      17.230   5.689 -12.667  1.00  0.00    -0.237 OA
ATOM     99  O   UNL     1      18.613   7.648 -13.239  1.00  0.00    -0.744 OA
ENDBRANCH  92  96
ENDBRANCH  66  89
ENDBRANCH  40  41
ENDBRANCH  32  35
ENDBRANCH  30  31
ENDBRANCH   1  30
TORSDOF 18
