REMARK SMILES Nc1nc(CC(=O)N(CC(=O)NCCCNC(=O)c2ccc(-c3c4nc(c(-c5cc(S(=O)(=O)[O-])ccc5F)c5ccc([nH]5)c(-c5cc(S(=O)(=O)[O-])ccc5F)c5nc(c(-c6cc(S(=O)(=O)[O-])ccc6F)c6ccc3[nH]6)C=C5)C=C4)cc2)CC(F)(F)F)cs1
REMARK SMILES IDX 13 1 12 2 10 3 11 4 9 6 8 7 6 8 7 9 5 10 4 11 2 12 3 13
REMARK SMILES IDX 88 14 87 15 1 16 82 19 83 20 84 21 85 22 86 23 14 24 15 25
REMARK SMILES IDX 16 26 17 27 18 29 19 30 20 31 81 32 21 33 80 34 22 35 23 36
REMARK SMILES IDX 24 37 74 38 25 39 79 40 73 41 75 42 26 43 78 44 72 45 71 46
REMARK SMILES IDX 27 48 59 49 39 50 58 51 40 52 43 53 57 54 76 55 41 56 42 57
REMARK SMILES IDX 56 59 77 60 44 61 28 62 29 63 37 64 30 65 36 66 38 67 35 68
REMARK SMILES IDX 31 69 32 70 33 71 34 72 60 73 61 74 69 75 62 76 68 77 70 78
REMARK SMILES IDX 67 79 63 80 64 81 65 82 66 83 45 84 46 85 54 86 47 87 53 88
REMARK SMILES IDX 55 89 52 90 48 91 49 92 50 93 51 94
REMARK H PARENT 12 5 1 17 1 18 16 28 75 47 43 58
REMARK Flexibility Score: inf
ROOT
ATOM      1  C   UNL     1      -1.091   0.377   2.198  1.00  0.00     0.117 C 
ENDROOT
BRANCH   1   2
ATOM      2  N   UNL     1      -0.700  -0.147   3.484  1.00  0.00    -0.354 N 
ATOM      3  C   UNL     1      -0.436  -1.453   3.791  1.00  0.00     0.239 C 
ATOM      4  O   UNL     1       0.179  -1.704   4.830  1.00  0.00    -0.273 OA
ATOM      5  H   UNL     1      -0.613   0.504   4.218  1.00  0.00     0.163 HD
BRANCH   3   6
ATOM      6  C   UNL     1      -0.816  -2.582   2.811  1.00  0.00     0.219 C 
BRANCH   6   7
ATOM      7  N   UNL     1      -2.240  -2.643   2.435  1.00  0.00    -0.324 N 
BRANCH   7   8
ATOM      8  C   UNL     1      -2.737  -2.635   1.134  1.00  0.00     0.229 C 
ATOM      9  O   UNL     1      -3.953  -2.553   0.939  1.00  0.00    -0.274 OA
BRANCH   8  10
ATOM     10  C   UNL     1      -1.810  -2.863  -0.060  1.00  0.00     0.157 C 
BRANCH  10  11
ATOM     11  C   UNL     1      -1.070  -1.656  -0.537  1.00  0.00     0.063 A 
ATOM     12  C   UNL     1       0.782  -0.427  -0.658  1.00  0.00     0.180 A 
ATOM     13  N   UNL     1       0.290  -1.571  -0.253  1.00  0.00    -0.225 NA
ATOM     14  S   UNL     1      -0.323   0.584  -1.494  1.00  0.00    -0.106 S 
ATOM     15  C   UNL     1      -1.571  -0.568  -1.229  1.00  0.00     0.093 A 
BRANCH  12  16
ATOM     16  N   UNL     1       2.035  -0.046  -0.398  1.00  0.00    -0.375 N 
ATOM     17  H   UNL     1       2.644  -0.651   0.084  1.00  0.00     0.159 HD
ATOM     18  H   UNL     1       2.351   0.840  -0.688  1.00  0.00     0.159 HD
ENDBRANCH  12  16
ENDBRANCH  10  11
ENDBRANCH   8  10
ENDBRANCH   7   8
BRANCH   7  19
ATOM     19  C   UNL     1      -3.212  -2.842   3.541  1.00  0.00     0.235 C 
BRANCH  19  20
ATOM     20  C   UNL     1      -4.051  -1.652   4.025  1.00  0.00     0.406 C 
ATOM     21  F   UNL     1      -4.743  -1.045   3.044  1.00  0.00    -0.169 F 
ATOM     22  F   UNL     1      -4.946  -2.074   4.953  1.00  0.00    -0.169 F 
ATOM     23  F   UNL     1      -3.278  -0.722   4.631  1.00  0.00    -0.169 F 
ENDBRANCH  19  20
ENDBRANCH   7  19
ENDBRANCH   6   7
ENDBRANCH   3   6
ENDBRANCH   1   2
BRANCH   1  24
ATOM     24  C   UNL     1      -2.385   1.165   2.181  1.00  0.00     0.042 C 
BRANCH  24  25
ATOM     25  C   UNL     1      -2.227   2.571   2.718  1.00  0.00     0.118 C 
BRANCH  25  26
ATOM     26  N   UNL     1      -1.469   3.419   1.806  1.00  0.00    -0.352 N 
ATOM     27  C   UNL     1      -1.849   4.568   1.152  1.00  0.00     0.251 C 
ATOM     28  H   UNL     1      -0.545   3.125   1.632  1.00  0.00     0.163 HD
ATOM     29  O   UNL     1      -1.140   5.009   0.254  1.00  0.00    -0.269 OA
BRANCH  27  30
ATOM     30  C   UNL     1      -3.117   5.242   1.513  1.00  0.00     0.039 A 
ATOM     31  C   UNL     1      -3.901   5.804   0.503  1.00  0.00     0.014 A 
ATOM     32  C   UNL     1      -3.539   5.311   2.842  1.00  0.00     0.014 A 
ATOM     33  C   UNL     1      -5.138   6.370   0.824  1.00  0.00     0.010 A 
ATOM     34  C   UNL     1      -4.819   5.761   3.141  1.00  0.00     0.010 A 
ATOM     35  C   UNL     1      -5.628   6.313   2.139  1.00  0.00    -0.014 A 
BRANCH  35  36
ATOM     36  C   UNL     1      -6.971   6.843   2.492  1.00  0.00     0.031 A 
ATOM     37  C   UNL     1      -7.104   7.939   3.515  1.00  0.00     0.074 A 
ATOM     38  C   UNL     1      -8.072   6.286   1.949  1.00  0.00     0.049 A 
ATOM     39  N   UNL     1      -8.185   8.485   4.011  1.00  0.00    -0.248 NA
ATOM     40  C   UNL     1      -5.854   8.460   4.088  1.00  0.00     0.031 C 
ATOM     41  C   UNL     1      -8.073   5.171   0.999  1.00  0.00     0.029 A 
ATOM     42  N   UNL     1      -9.403   6.570   2.126  1.00  0.00    -0.354 N 
ATOM     43  C   UNL     1      -7.745   9.392   4.971  1.00  0.00     0.074 A 
ATOM     44  C   UNL     1      -6.306   9.263   5.037  1.00  0.00     0.031 C 
ATOM     45  C   UNL     1      -9.338   4.886   0.656  1.00  0.00     0.029 A 
ATOM     46  C   UNL     1     -10.242   5.758   1.400  1.00  0.00     0.049 A 
ATOM     47  H   UNL     1      -9.726   7.288   2.717  1.00  0.00     0.167 HD
ATOM     48  C   UNL     1      -8.472  10.268   5.707  1.00  0.00     0.034 A 
ATOM     49  C   UNL     1     -11.588   5.706   1.351  1.00  0.00     0.034 A 
ATOM     50  C   UNL     1      -9.907  10.385   5.613  1.00  0.00     0.049 A 
ATOM     51  C   UNL     1     -12.381   6.683   2.177  1.00  0.00     0.074 A 
ATOM     52  C   UNL     1     -10.742  11.291   6.243  1.00  0.00     0.029 A 
ATOM     53  N   UNL     1     -10.726   9.555   4.855  1.00  0.00    -0.354 N 
ATOM     54  N   UNL     1     -11.949   7.596   3.017  1.00  0.00    -0.248 NA
ATOM     55  C   UNL     1     -13.841   6.634   2.038  1.00  0.00     0.031 C 
ATOM     56  C   UNL     1     -12.065  10.953   5.938  1.00  0.00     0.029 A 
ATOM     57  C   UNL     1     -12.057   9.897   5.039  1.00  0.00     0.049 A 
ATOM     58  H   UNL     1     -10.406   8.829   4.271  1.00  0.00     0.167 HD
ATOM     59  C   UNL     1     -13.085   8.244   3.493  1.00  0.00     0.074 A 
ATOM     60  C   UNL     1     -14.218   7.628   2.829  1.00  0.00     0.031 C 
ATOM     61  C   UNL     1     -13.182   9.258   4.392  1.00  0.00     0.034 A 
BRANCH  48  62
ATOM     62  C   UNL     1      -7.722  11.132   6.699  1.00  0.00     0.023 A 
ATOM     63  C   UNL     1      -6.695  12.006   6.298  1.00  0.00     0.031 A 
ATOM     64  C   UNL     1      -7.995  11.035   8.076  1.00  0.00     0.131 A 
ATOM     65  C   UNL     1      -5.912  12.660   7.262  1.00  0.00     0.055 A 
ATOM     66  C   UNL     1      -7.278  11.769   9.024  1.00  0.00     0.041 A 
ATOM     67  F   UNL     1      -8.947  10.205   8.528  1.00  0.00    -0.206 F 
ATOM     68  C   UNL     1      -6.214  12.570   8.621  1.00  0.00     0.022 A 
BRANCH  65  69
ATOM     69  S   UNL     1      -4.377  13.467   6.725  1.00  0.00     0.124 S 
ATOM     70  O   UNL     1      -3.686  12.369   6.052  1.00  0.00    -0.237 OA
ATOM     71  O   UNL     1      -4.867  14.536   5.864  1.00  0.00    -0.237 OA
ATOM     72  O   UNL     1      -3.762  13.903   7.977  1.00  0.00    -0.744 OA
ENDBRANCH  65  69
ENDBRANCH  48  62
BRANCH  49  73
ATOM     73  C   UNL     1     -12.260   4.678   0.504  1.00  0.00     0.023 A 
ATOM     74  C   UNL     1     -13.013   5.036  -0.625  1.00  0.00     0.031 A 
ATOM     75  C   UNL     1     -12.147   3.311   0.816  1.00  0.00     0.131 A 
ATOM     76  C   UNL     1     -13.645   4.040  -1.387  1.00  0.00     0.055 A 
ATOM     77  C   UNL     1     -12.735   2.322   0.026  1.00  0.00     0.041 A 
ATOM     78  F   UNL     1     -11.434   2.915   1.882  1.00  0.00    -0.206 F 
ATOM     79  C   UNL     1     -13.496   2.686  -1.080  1.00  0.00     0.022 A 
BRANCH  76  80
ATOM     80  S   UNL     1     -14.714   4.542  -2.765  1.00  0.00     0.124 S 
ATOM     81  O   UNL     1     -15.723   5.345  -2.082  1.00  0.00    -0.237 OA
ATOM     82  O   UNL     1     -13.785   5.272  -3.621  1.00  0.00    -0.237 OA
ATOM     83  O   UNL     1     -15.190   3.271  -3.308  1.00  0.00    -0.744 OA
ENDBRANCH  76  80
ENDBRANCH  49  73
BRANCH  61  84
ATOM     84  C   UNL     1     -14.567   9.788   4.683  1.00  0.00     0.023 A 
ATOM     85  C   UNL     1     -15.548   9.000   5.309  1.00  0.00     0.031 A 
ATOM     86  C   UNL     1     -14.911  11.104   4.320  1.00  0.00     0.131 A 
ATOM     87  C   UNL     1     -16.841   9.512   5.498  1.00  0.00     0.055 A 
ATOM     88  C   UNL     1     -16.177  11.631   4.577  1.00  0.00     0.041 A 
ATOM     89  F   UNL     1     -14.018  11.902   3.713  1.00  0.00    -0.206 F 
ATOM     90  C   UNL     1     -17.155  10.829   5.156  1.00  0.00     0.022 A 
BRANCH  87  91
ATOM     91  S   UNL     1     -18.141   8.397   6.098  1.00  0.00     0.124 S 
ATOM     92  O   UNL     1     -18.123   7.343   5.089  1.00  0.00    -0.237 OA
ATOM     93  O   UNL     1     -17.648   8.025   7.419  1.00  0.00    -0.237 OA
ATOM     94  O   UNL     1     -19.339   9.236   6.096  1.00  0.00    -0.744 OA
ENDBRANCH  87  91
ENDBRANCH  61  84
ENDBRANCH  35  36
ENDBRANCH  27  30
ENDBRANCH  25  26
ENDBRANCH  24  25
ENDBRANCH   1  24
TORSDOF 20
