REMARK SMILES O=C(NCCCNC(=O)[C@@H](Cc1ccccc1)NC(=O)c1ccccc1[N+](=O)[O-])c1ccc(-c2c3nc(c(-c4cc(S(=O)(=O)[O-])ccc4F)c4ccc([nH]4)c(-c4cc(S(=O)(=O)[O-])ccc4F)c4nc(c(-c5cc(S(=O)(=O)[O-])ccc5F)c5ccc2[nH]5)C=C4)C=C3)cc1
REMARK SMILES IDX 5 1 4 2 3 3 1 4 2 5 30 7 31 8 92 9 32 10 91 11 33 12 34 13
REMARK SMILES IDX 35 14 85 15 36 16 90 17 84 18 86 19 37 20 89 21 83 22 82 23
REMARK SMILES IDX 38 25 70 26 50 27 69 28 51 29 54 30 68 31 87 32 52 33 53 34
REMARK SMILES IDX 67 36 88 37 55 38 39 39 40 40 48 41 41 42 47 43 49 44 46 45
REMARK SMILES IDX 42 46 43 47 44 48 45 49 71 50 72 51 80 52 73 53 79 54 81 55
REMARK SMILES IDX 78 56 74 57 75 58 76 59 77 60 56 61 57 62 65 63 58 64 64 65
REMARK SMILES IDX 66 66 63 67 59 68 60 69 61 70 62 71 6 72 7 73 8 74 9 76
REMARK SMILES IDX 10 77 11 78 12 79 13 80 17 81 14 82 16 83 15 84 18 85 19 86
REMARK SMILES IDX 20 88 21 89 22 90 26 91 23 92 25 93 24 94 27 95 28 96 29 97
REMARK H PARENT 3 6 86 24 54 35 7 75 18 87
REMARK Flexibility Score: inf
ROOT
ATOM      1  C   UNL     1       4.302  -2.329   0.320  1.00  0.00     0.042 C 
ENDROOT
BRANCH   1   2
ATOM      2  C   UNL     1       3.938  -1.504  -0.904  1.00  0.00     0.118 C 
BRANCH   2   3
ATOM      3  N   UNL     1       2.581  -0.986  -0.828  1.00  0.00    -0.352 N 
ATOM      4  O   UNL     1       0.870   0.285  -0.167  1.00  0.00    -0.269 OA
ATOM      5  C   UNL     1       2.084   0.206  -0.354  1.00  0.00     0.251 C 
ATOM      6  H   UNL     1       1.895  -1.599  -1.179  1.00  0.00     0.163 HD
BRANCH   5   7
ATOM      7  C   UNL     1       2.944   1.386  -0.068  1.00  0.00     0.039 A 
ATOM      8  C   UNL     1       4.083   1.685  -0.815  1.00  0.00     0.014 A 
ATOM      9  C   UNL     1       2.520   2.305   0.904  1.00  0.00     0.014 A 
ATOM     10  C   UNL     1       4.851   2.811  -0.521  1.00  0.00     0.010 A 
ATOM     11  C   UNL     1       3.230   3.495   1.123  1.00  0.00     0.010 A 
ATOM     12  C   UNL     1       4.411   3.757   0.416  1.00  0.00    -0.014 A 
BRANCH  12  13
ATOM     13  C   UNL     1       5.141   5.051   0.544  1.00  0.00     0.031 A 
ATOM     14  C   UNL     1       5.791   5.465   1.835  1.00  0.00     0.074 A 
ATOM     15  C   UNL     1       5.228   5.854  -0.537  1.00  0.00     0.049 A 
ATOM     16  N   UNL     1       6.481   6.545   2.102  1.00  0.00    -0.248 NA
ATOM     17  C   UNL     1       5.635   4.555   2.978  1.00  0.00     0.031 C 
ATOM     18  C   UNL     1       4.614   5.579  -1.840  1.00  0.00     0.029 A 
ATOM     19  N   UNL     1       5.879   7.047  -0.729  1.00  0.00    -0.354 N 
ATOM     20  C   UNL     1       6.830   6.457   3.446  1.00  0.00     0.074 A 
ATOM     21  C   UNL     1       6.240   5.231   3.945  1.00  0.00     0.031 C 
ATOM     22  C   UNL     1       4.970   6.536  -2.708  1.00  0.00     0.029 A 
ATOM     23  C   UNL     1       5.772   7.534  -2.012  1.00  0.00     0.049 A 
ATOM     24  H   UNL     1       6.376   7.511  -0.017  1.00  0.00     0.167 HD
ATOM     25  C   UNL     1       7.580   7.312   4.188  1.00  0.00     0.034 A 
ATOM     26  C   UNL     1       6.247   8.665  -2.570  1.00  0.00     0.034 A 
ATOM     27  C   UNL     1       8.162   8.531   3.674  1.00  0.00     0.049 A 
ATOM     28  C   UNL     1       7.048   9.610  -1.719  1.00  0.00     0.074 A 
ATOM     29  C   UNL     1       8.968   9.447   4.330  1.00  0.00     0.029 A 
ATOM     30  N   UNL     1       7.992   9.015   2.382  1.00  0.00    -0.354 N 
ATOM     31  N   UNL     1       7.387   9.497  -0.456  1.00  0.00    -0.248 NA
ATOM     32  C   UNL     1       7.528  10.836  -2.367  1.00  0.00     0.031 C 
ATOM     33  C   UNL     1       9.229  10.511   3.458  1.00  0.00     0.029 A 
ATOM     34  C   UNL     1       8.648  10.229   2.233  1.00  0.00     0.049 A 
ATOM     35  H   UNL     1       7.479   8.562   1.674  1.00  0.00     0.167 HD
ATOM     36  C   UNL     1       8.130  10.634  -0.161  1.00  0.00     0.074 A 
ATOM     37  C   UNL     1       8.209  11.407  -1.385  1.00  0.00     0.031 C 
ATOM     38  C   UNL     1       8.695  11.006   1.016  1.00  0.00     0.034 A 
BRANCH  25  39
ATOM     39  C   UNL     1       7.772   6.975   5.649  1.00  0.00     0.023 A 
ATOM     40  C   UNL     1       8.455   5.816   6.057  1.00  0.00     0.031 A 
ATOM     41  C   UNL     1       7.237   7.807   6.648  1.00  0.00     0.131 A 
ATOM     42  C   UNL     1       8.515   5.480   7.419  1.00  0.00     0.055 A 
ATOM     43  C   UNL     1       7.370   7.509   8.007  1.00  0.00     0.041 A 
ATOM     44  F   UNL     1       6.559   8.919   6.322  1.00  0.00    -0.206 F 
ATOM     45  C   UNL     1       7.997   6.330   8.398  1.00  0.00     0.022 A 
BRANCH  42  46
ATOM     46  S   UNL     1       9.141   3.841   7.878  1.00  0.00     0.124 S 
ATOM     47  O   UNL     1       8.260   2.963   7.110  1.00  0.00    -0.237 OA
ATOM     48  O   UNL     1      10.529   3.899   7.435  1.00  0.00    -0.237 OA
ATOM     49  O   UNL     1       8.948   3.793   9.325  1.00  0.00    -0.744 OA
ENDBRANCH  42  46
ENDBRANCH  25  39
BRANCH  26  50
ATOM     50  C   UNL     1       5.949   8.978  -3.996  1.00  0.00     0.023 A 
ATOM     51  C   UNL     1       6.970   9.029  -4.958  1.00  0.00     0.031 A 
ATOM     52  C   UNL     1       4.632   9.240  -4.415  1.00  0.00     0.131 A 
ATOM     53  C   UNL     1       6.660   9.362  -6.286  1.00  0.00     0.055 A 
ATOM     54  C   UNL     1       4.323   9.523  -5.745  1.00  0.00     0.041 A 
ATOM     55  F   UNL     1       3.619   9.199  -3.534  1.00  0.00    -0.206 F 
ATOM     56  C   UNL     1       5.343   9.594  -6.689  1.00  0.00     0.022 A 
BRANCH  53  57
ATOM     57  S   UNL     1       8.017   9.544  -7.476  1.00  0.00     0.124 S 
ATOM     58  O   UNL     1       8.810  10.604  -6.864  1.00  0.00    -0.237 OA
ATOM     59  O   UNL     1       8.610   8.211  -7.466  1.00  0.00    -0.237 OA
ATOM     60  O   UNL     1       7.335   9.910  -8.716  1.00  0.00    -0.744 OA
ENDBRANCH  53  57
ENDBRANCH  26  50
BRANCH  38  61
ATOM     61  C   UNL     1       9.470  12.300   1.014  1.00  0.00     0.023 A 
ATOM     62  C   UNL     1       8.831  13.541   0.846  1.00  0.00     0.031 A 
ATOM     63  C   UNL     1      10.870  12.288   1.148  1.00  0.00     0.131 A 
ATOM     64  C   UNL     1       9.595  14.714   0.759  1.00  0.00     0.055 A 
ATOM     65  C   UNL     1      11.620  13.464   1.118  1.00  0.00     0.041 A 
ATOM     66  F   UNL     1      11.531  11.130   1.306  1.00  0.00    -0.206 F 
ATOM     67  C   UNL     1      10.984  14.685   0.909  1.00  0.00     0.022 A 
BRANCH  64  68
ATOM     68  S   UNL     1       8.759  16.272   0.353  1.00  0.00     0.124 S 
ATOM     69  O   UNL     1       8.154  15.964  -0.939  1.00  0.00    -0.237 OA
ATOM     70  O   UNL     1       7.832  16.430   1.469  1.00  0.00    -0.237 OA
ATOM     71  O   UNL     1       9.848  17.246   0.311  1.00  0.00    -0.744 OA
ENDBRANCH  64  68
ENDBRANCH  38  61
ENDBRANCH  12  13
ENDBRANCH   5   7
ENDBRANCH   2   3
ENDBRANCH   1   2
BRANCH   1  72
ATOM     72  C   UNL     1       3.826  -3.775   0.257  1.00  0.00     0.117 C 
BRANCH  72  73
ATOM     73  N   UNL     1       4.718  -4.584  -0.556  1.00  0.00    -0.354 N 
ATOM     74  C   UNL     1       5.770  -5.381  -0.229  1.00  0.00     0.242 C 
ATOM     75  H   UNL     1       4.525  -4.549  -1.520  1.00  0.00     0.163 HD
ATOM     76  O   UNL     1       6.447  -5.806  -1.174  1.00  0.00    -0.273 OA
BRANCH  74  77
ATOM     77  C   UNL     1       6.161  -5.762   1.219  1.00  0.00     0.176 C 
BRANCH  77  78
ATOM     78  C   UNL     1       6.933  -4.676   2.010  1.00  0.00     0.070 C 
BRANCH  78  79
ATOM     79  C   UNL     1       6.239  -3.551   2.745  1.00  0.00    -0.045 A 
ATOM     80  C   UNL     1       6.765  -2.249   2.644  1.00  0.00     0.004 A 
ATOM     81  C   UNL     1       5.165  -3.753   3.621  1.00  0.00     0.004 A 
ATOM     82  C   UNL     1       6.173  -1.174   3.311  1.00  0.00     0.000 A 
ATOM     83  C   UNL     1       4.556  -2.674   4.271  1.00  0.00     0.000 A 
ATOM     84  C   UNL     1       5.053  -1.384   4.107  1.00  0.00     0.000 A 
ENDBRANCH  78  79
ENDBRANCH  77  78
BRANCH  77  85
ATOM     85  N   UNL     1       5.077  -6.433   1.940  1.00  0.00    -0.340 N 
ATOM     86  C   UNL     1       4.851  -7.753   2.219  1.00  0.00     0.258 C 
ATOM     87  H   UNL     1       4.385  -5.824   2.285  1.00  0.00     0.164 HD
ATOM     88  O   UNL     1       3.759  -8.094   2.667  1.00  0.00    -0.269 OA
BRANCH  86  89
ATOM     89  C   UNL     1       5.843  -8.806   1.926  1.00  0.00     0.117 A 
ATOM     90  C   UNL     1       5.401  -9.870   1.124  1.00  0.00     0.021 A 
ATOM     91  C   UNL     1       7.136  -8.865   2.449  1.00  0.00     0.282 A 
ATOM     92  C   UNL     1       6.253 -10.934   0.813  1.00  0.00     0.001 A 
ATOM     93  C   UNL     1       8.009  -9.916   2.118  1.00  0.00     0.086 A 
ATOM     94  C   UNL     1       7.561 -10.949   1.296  1.00  0.00     0.007 A 
BRANCH  91  95
ATOM     95  N   UNL     1       7.610  -7.886   3.406  1.00  0.00     0.063 N 
ATOM     96  O   UNL     1       8.753  -7.443   3.227  1.00  0.00    -0.258 OA
ATOM     97  O   UNL     1       6.861  -7.585   4.342  1.00  0.00    -0.258 OA
ENDBRANCH  91  95
ENDBRANCH  86  89
ENDBRANCH  77  85
ENDBRANCH  74  77
ENDBRANCH  72  73
ENDBRANCH   1  72
TORSDOF 18
