REMARK SMILES O=C(Cn1nc(-c2ccc(Br)cc2)ccc1=O)N[C@H](C(=O)NCCCNC(=O)c1ccc(-c2c3nc(c(-c4cc(S(=O)(=O)[O-])ccc4F)c4ccc([nH]4)c(-c4cc(S(=O)(=O)[O-])ccc4F)c4nc(c(-c5cc(S(=O)(=O)[O-])ccc5F)c5ccc2[nH]5)C=C4)C=C3)cc1)c1ccccc1
REMARK SMILES IDX 23 1 22 2 20 3 21 4 19 6 18 7 1 8 2 9 3 11 4 12 5 13 16 14
REMARK SMILES IDX 6 15 15 16 17 17 14 18 7 19 8 20 13 21 9 22 12 23 10 24
REMARK SMILES IDX 11 25 92 26 93 27 97 28 94 29 96 30 95 31 24 32 25 33 26 34
REMARK SMILES IDX 27 35 28 37 29 38 30 39 91 40 31 41 90 42 32 43 33 44 34 45
REMARK SMILES IDX 84 46 35 47 89 48 83 49 85 50 36 51 88 52 82 53 81 54 37 56
REMARK SMILES IDX 69 57 49 58 68 59 50 60 53 61 67 62 86 63 51 64 52 65 66 67
REMARK SMILES IDX 87 68 54 69 38 70 39 71 47 72 40 73 46 74 48 75 45 76 41 77
REMARK SMILES IDX 42 78 43 79 44 80 70 81 71 82 79 83 72 84 78 85 80 86 77 87
REMARK SMILES IDX 73 88 74 89 75 90 76 91 55 92 56 93 64 94 57 95 63 96 65 97
REMARK SMILES IDX 62 98 58 99 59 100 60 101 61 102
REMARK H PARENT 22 5 18 10 26 36 85 55 53 66
REMARK Flexibility Score: inf
ROOT
ATOM      1  C   UNL     1       2.603   2.092   1.765  1.00  0.00     0.117 C 
ENDROOT
BRANCH   1   2
ATOM      2  N   UNL     1       2.991   1.029   0.858  1.00  0.00    -0.354 N 
ATOM      3  C   UNL     1       3.128   1.038  -0.508  1.00  0.00     0.247 C 
ATOM      4  O   UNL     1       3.480  -0.038  -1.000  1.00  0.00    -0.272 OA
ATOM      5  H   UNL     1       3.186   0.165   1.289  1.00  0.00     0.163 HD
BRANCH   3   6
ATOM      6  C   UNL     1       2.629   2.267  -1.339  1.00  0.00     0.202 C 
BRANCH   6   7
ATOM      7  N   UNL     1       2.983   3.536  -0.703  1.00  0.00    -0.339 N 
ATOM      8  O   UNL     1       5.252   3.187  -0.567  1.00  0.00    -0.273 OA
ATOM      9  C   UNL     1       4.267   3.873  -0.319  1.00  0.00     0.242 C 
ATOM     10  H   UNL     1       2.264   4.188  -0.539  1.00  0.00     0.164 HD
BRANCH   9  11
ATOM     11  C   UNL     1       4.325   5.163   0.503  1.00  0.00     0.248 C 
BRANCH  11  12
ATOM     12  N   UNL     1       4.317   6.301  -0.398  1.00  0.00    -0.220 N 
ATOM     13  N   UNL     1       3.188   6.448  -1.175  1.00  0.00    -0.169 NA
ATOM     14  C   UNL     1       5.455   7.084  -0.517  1.00  0.00     0.267 A 
ATOM     15  C   UNL     1       3.232   7.325  -2.126  1.00  0.00     0.091 A 
ATOM     16  C   UNL     1       5.417   8.116  -1.574  1.00  0.00     0.075 A 
ATOM     17  O   UNL     1       6.463   6.985   0.175  1.00  0.00    -0.268 OA
ATOM     18  C   UNL     1       4.360   8.241  -2.378  1.00  0.00     0.036 A 
BRANCH  15  19
ATOM     19  C   UNL     1       2.096   7.386  -3.068  1.00  0.00     0.002 A 
ATOM     20  C   UNL     1       0.793   7.470  -2.567  1.00  0.00     0.011 A 
ATOM     21  C   UNL     1       2.322   7.195  -4.436  1.00  0.00     0.011 A 
ATOM     22  C   UNL     1      -0.290   7.378  -3.442  1.00  0.00     0.016 A 
ATOM     23  C   UNL     1       1.236   7.088  -5.306  1.00  0.00     0.016 A 
ATOM     24  C   UNL     1      -0.063   7.180  -4.805  1.00  0.00     0.018 A 
ATOM     25  Br  UNL     1      -1.530   7.002  -5.984  1.00  0.00    -0.051 Br
ENDBRANCH  15  19
ENDBRANCH  11  12
ENDBRANCH   9  11
ENDBRANCH   6   7
BRANCH   6  26
ATOM     26  C   UNL     1       2.851   2.244  -2.853  1.00  0.00    -0.016 A 
ATOM     27  C   UNL     1       3.024   3.434  -3.582  1.00  0.00     0.006 A 
ATOM     28  C   UNL     1       2.745   1.053  -3.595  1.00  0.00     0.006 A 
ATOM     29  C   UNL     1       3.129   3.430  -4.977  1.00  0.00     0.000 A 
ATOM     30  C   UNL     1       2.866   1.044  -4.988  1.00  0.00     0.000 A 
ATOM     31  C   UNL     1       3.058   2.233  -5.680  1.00  0.00     0.000 A 
ENDBRANCH   6  26
ENDBRANCH   3   6
ENDBRANCH   1   2
BRANCH   1  32
ATOM     32  C   UNL     1       1.909   1.595   3.016  1.00  0.00     0.042 C 
BRANCH  32  33
ATOM     33  C   UNL     1       2.725   0.617   3.842  1.00  0.00     0.118 C 
BRANCH  33  34
ATOM     34  N   UNL     1       3.904   1.206   4.467  1.00  0.00    -0.352 N 
ATOM     35  C   UNL     1       4.204   1.375   5.803  1.00  0.00     0.251 C 
ATOM     36  H   UNL     1       4.590   1.531   3.841  1.00  0.00     0.163 HD
ATOM     37  O   UNL     1       5.211   1.998   6.130  1.00  0.00    -0.269 OA
BRANCH  35  38
ATOM     38  C   UNL     1       3.277   0.857   6.834  1.00  0.00     0.039 A 
ATOM     39  C   UNL     1       2.698  -0.401   6.688  1.00  0.00     0.014 A 
ATOM     40  C   UNL     1       2.923   1.665   7.917  1.00  0.00     0.014 A 
ATOM     41  C   UNL     1       1.585  -0.728   7.447  1.00  0.00     0.010 A 
ATOM     42  C   UNL     1       1.895   1.261   8.777  1.00  0.00     0.010 A 
ATOM     43  C   UNL     1       1.164   0.095   8.506  1.00  0.00    -0.014 A 
BRANCH  43  44
ATOM     44  C   UNL     1      -0.029  -0.310   9.301  1.00  0.00     0.031 A 
ATOM     45  C   UNL     1      -1.251   0.568   9.389  1.00  0.00     0.074 A 
ATOM     46  C   UNL     1      -0.035  -1.527   9.882  1.00  0.00     0.049 A 
ATOM     47  N   UNL     1      -2.391   0.327   9.987  1.00  0.00    -0.248 NA
ATOM     48  C   UNL     1      -1.193   1.885   8.736  1.00  0.00     0.031 C 
ATOM     49  C   UNL     1       1.095  -2.458   9.870  1.00  0.00     0.029 A 
ATOM     50  N   UNL     1      -1.020  -2.212  10.549  1.00  0.00    -0.354 N 
ATOM     51  C   UNL     1      -3.168   1.467   9.812  1.00  0.00     0.074 A 
ATOM     52  C   UNL     1      -2.363   2.412   9.072  1.00  0.00     0.031 C 
ATOM     53  C   UNL     1       0.712  -3.621  10.411  1.00  0.00     0.029 A 
ATOM     54  C   UNL     1      -0.656  -3.492  10.902  1.00  0.00     0.049 A 
ATOM     55  H   UNL     1      -1.901  -1.825  10.755  1.00  0.00     0.167 HD
ATOM     56  C   UNL     1      -4.439   1.696  10.221  1.00  0.00     0.034 A 
ATOM     57  C   UNL     1      -1.334  -4.456  11.556  1.00  0.00     0.034 A 
ATOM     58  C   UNL     1      -5.245   0.729  10.923  1.00  0.00     0.049 A 
ATOM     59  C   UNL     1      -2.746  -4.178  11.992  1.00  0.00     0.074 A 
ATOM     60  C   UNL     1      -6.558   0.856  11.343  1.00  0.00     0.029 A 
ATOM     61  N   UNL     1      -4.829  -0.540  11.298  1.00  0.00    -0.354 N 
ATOM     62  N   UNL     1      -3.473  -3.104  11.786  1.00  0.00    -0.248 NA
ATOM     63  C   UNL     1      -3.431  -5.229  12.754  1.00  0.00     0.031 C 
ATOM     64  C   UNL     1      -6.916  -0.311  12.018  1.00  0.00     0.029 A 
ATOM     65  C   UNL     1      -5.850  -1.195  11.967  1.00  0.00     0.049 A 
ATOM     66  H   UNL     1      -3.938  -0.920  11.116  1.00  0.00     0.167 HD
ATOM     67  C   UNL     1      -4.698  -3.350  12.395  1.00  0.00     0.074 A 
ATOM     68  C   UNL     1      -4.630  -4.691  12.938  1.00  0.00     0.031 C 
ATOM     69  C   UNL     1      -5.774  -2.532  12.506  1.00  0.00     0.034 A 
BRANCH  56  70
ATOM     70  C   UNL     1      -5.070   3.035   9.923  1.00  0.00     0.023 A 
ATOM     71  C   UNL     1      -5.440   3.888  10.981  1.00  0.00     0.031 A 
ATOM     72  C   UNL     1      -5.428   3.405   8.615  1.00  0.00     0.131 A 
ATOM     73  C   UNL     1      -6.176   5.050  10.715  1.00  0.00     0.055 A 
ATOM     74  C   UNL     1      -6.131   4.582   8.352  1.00  0.00     0.041 A 
ATOM     75  F   UNL     1      -5.098   2.627   7.572  1.00  0.00    -0.206 F 
ATOM     76  C   UNL     1      -6.519   5.404   9.406  1.00  0.00     0.022 A 
BRANCH  73  77
ATOM     77  S   UNL     1      -6.770   6.115  12.058  1.00  0.00     0.124 S 
ATOM     78  O   UNL     1      -6.164   7.399  11.711  1.00  0.00    -0.237 OA
ATOM     79  O   UNL     1      -8.218   6.043  11.886  1.00  0.00    -0.237 OA
ATOM     80  O   UNL     1      -6.244   5.487  13.264  1.00  0.00    -0.744 OA
ENDBRANCH  73  77
ENDBRANCH  56  70
BRANCH  57  81
ATOM     81  C   UNL     1      -0.670  -5.771  11.794  1.00  0.00     0.023 A 
ATOM     82  C   UNL     1       0.526  -5.850  12.533  1.00  0.00     0.031 A 
ATOM     83  C   UNL     1      -1.140  -6.940  11.174  1.00  0.00     0.131 A 
ATOM     84  C   UNL     1       1.257  -7.043  12.552  1.00  0.00     0.055 A 
ATOM     85  C   UNL     1      -0.449  -8.150  11.266  1.00  0.00     0.041 A 
ATOM     86  F   UNL     1      -2.270  -6.914  10.450  1.00  0.00    -0.206 F 
ATOM     87  C   UNL     1       0.769  -8.199  11.937  1.00  0.00     0.022 A 
BRANCH  84  88
ATOM     88  S   UNL     1       2.943  -7.083  13.224  1.00  0.00     0.124 S 
ATOM     89  O   UNL     1       2.800  -8.001  14.348  1.00  0.00    -0.237 OA
ATOM     90  O   UNL     1       3.707  -7.590  12.086  1.00  0.00    -0.237 OA
ATOM     91  O   UNL     1       3.207  -5.690  13.571  1.00  0.00    -0.744 OA
ENDBRANCH  84  88
ENDBRANCH  57  81
BRANCH  69  92
ATOM     92  C   UNL     1      -6.978  -3.035  13.264  1.00  0.00     0.023 A 
ATOM     93  C   UNL     1      -8.208  -3.210  12.603  1.00  0.00     0.031 A 
ATOM     94  C   UNL     1      -6.939  -3.202  14.659  1.00  0.00     0.131 A 
ATOM     95  C   UNL     1      -9.359  -3.506  13.345  1.00  0.00     0.055 A 
ATOM     96  C   UNL     1      -8.080  -3.539  15.387  1.00  0.00     0.041 A 
ATOM     97  F   UNL     1      -5.790  -3.036  15.333  1.00  0.00    -0.206 F 
ATOM     98  C   UNL     1      -9.300  -3.678  14.732  1.00  0.00     0.022 A 
BRANCH  95  99
ATOM     99  S   UNL     1     -10.988  -3.591  12.550  1.00  0.00     0.124 S 
ATOM    100  O   UNL     1     -11.369  -4.980  12.796  1.00  0.00    -0.237 OA
ATOM    101  O   UNL     1     -11.749  -2.594  13.298  1.00  0.00    -0.237 OA
ATOM    102  O   UNL     1     -10.718  -3.258  11.155  1.00  0.00    -0.744 OA
ENDBRANCH  95  99
ENDBRANCH  69  92
ENDBRANCH  43  44
ENDBRANCH  35  38
ENDBRANCH  33  34
ENDBRANCH  32  33
ENDBRANCH   1  32
TORSDOF 18
