REMARK SMILES Cc1cc2cc(-c3ccc([C@@H](C)C(=O)NCCCNC(=O)c4ccc(-c5c6nc(c(-c7cc(S(=O)(=O)[O-])ccc7F)c7ccc([nH]7)c(-c7cc(S(=O)(=O)[O-])ccc7F)c7nc(c(-c8cc(S(=O)(=O)[O-])ccc8F)c8ccc5[nH]8)C=C7)C=C6)cc4)cc3)ccc2[nH]1
REMARK SMILES IDX 17 1 16 2 15 3 13 4 14 5 11 7 12 8 10 9 7 10 8 11 86 12 9 13
REMARK SMILES IDX 85 14 6 15 1 16 2 17 3 18 90 19 4 20 89 21 5 23 88 24 87 25
REMARK SMILES IDX 18 26 19 27 20 28 21 30 22 31 23 32 84 33 24 34 83 35 25 36
REMARK SMILES IDX 26 37 27 38 77 39 28 40 82 41 76 42 78 43 29 44 81 45 75 46
REMARK SMILES IDX 74 47 30 49 62 50 42 51 61 52 43 53 46 54 60 55 79 56 44 57
REMARK SMILES IDX 45 58 59 60 80 61 47 62 31 63 32 64 40 65 33 66 39 67 41 68
REMARK SMILES IDX 38 69 34 70 35 71 36 72 37 73 63 74 64 75 72 76 65 77 71 78
REMARK SMILES IDX 73 79 70 80 66 81 67 82 68 83 69 84 48 85 49 86 57 87 50 88
REMARK SMILES IDX 56 89 58 90 55 91 51 92 52 93 53 94 54 95
REMARK H PARENT 15 6 90 22 19 29 78 48 46 59
REMARK Flexibility Score: inf
ROOT
ATOM      1  C   UNL     1       5.754  -3.748  -3.659  1.00  0.00     0.042 C 
ENDROOT
BRANCH   1   2
ATOM      2  C   UNL     1       6.852  -4.593  -3.016  1.00  0.00     0.117 C 
BRANCH   2   3
ATOM      3  N   UNL     1       7.932  -3.792  -2.471  1.00  0.00    -0.356 N 
ATOM      4  C   UNL     1       8.219  -3.378  -1.206  1.00  0.00     0.227 C 
ATOM      5  O   UNL     1       9.227  -2.670  -1.081  1.00  0.00    -0.274 OA
ATOM      6  H   UNL     1       8.581  -3.488  -3.146  1.00  0.00     0.163 HD
BRANCH   4   7
ATOM      7  C   UNL     1       7.394  -3.750   0.035  1.00  0.00     0.105 C 
ATOM      8  C   UNL     1       7.316  -5.251   0.313  1.00  0.00     0.023 C 
BRANCH   7   9
ATOM      9  C   UNL     1       6.080  -2.994   0.138  1.00  0.00    -0.036 A 
ATOM     10  C   UNL     1       3.676  -1.453   0.222  1.00  0.00    -0.018 A 
ATOM     11  C   UNL     1       3.741  -2.691  -0.437  1.00  0.00     0.009 A 
ATOM     12  C   UNL     1       4.843  -1.010   0.860  1.00  0.00     0.009 A 
ATOM     13  C   UNL     1       4.903  -3.463  -0.445  1.00  0.00     0.005 A 
ATOM     14  C   UNL     1       6.030  -1.759   0.804  1.00  0.00     0.005 A 
BRANCH  10  15
ATOM     15  C   UNL     1       2.415  -0.680   0.228  1.00  0.00    -0.018 A 
ATOM     16  C   UNL     1      -3.648   0.244   0.207  1.00  0.00     0.064 C 
ATOM     17  C   UNL     1      -2.174   0.084   0.184  1.00  0.00     0.013 A 
ATOM     18  C   UNL     1      -1.400  -1.053   0.274  1.00  0.00     0.031 A 
ATOM     19  N   UNL     1      -1.318   1.153   0.056  1.00  0.00    -0.359 N 
ATOM     20  C   UNL     1      -0.038  -0.655   0.246  1.00  0.00     0.000 A 
ATOM     21  C   UNL     1      -0.009   0.728   0.115  1.00  0.00     0.046 A 
ATOM     22  H   UNL     1      -1.601   2.088  -0.061  1.00  0.00     0.166 HD
ATOM     23  C   UNL     1       1.179  -1.355   0.316  1.00  0.00     0.019 A 
ATOM     24  C   UNL     1       1.190   1.447   0.050  1.00  0.00     0.027 A 
ATOM     25  C   UNL     1       2.391   0.719   0.106  1.00  0.00     0.011 A 
ENDBRANCH  10  15
ENDBRANCH   7   9
ENDBRANCH   4   7
ENDBRANCH   2   3
ENDBRANCH   1   2
BRANCH   1  26
ATOM     26  C   UNL     1       6.070  -3.287  -5.078  1.00  0.00     0.118 C 
BRANCH  26  27
ATOM     27  N   UNL     1       6.082  -4.391  -6.028  1.00  0.00    -0.352 N 
ATOM     28  C   UNL     1       5.264  -4.668  -7.098  1.00  0.00     0.251 C 
ATOM     29  H   UNL     1       6.797  -5.051  -5.878  1.00  0.00     0.163 HD
ATOM     30  O   UNL     1       5.332  -5.782  -7.612  1.00  0.00    -0.269 OA
BRANCH  28  31
ATOM     31  C   UNL     1       4.304  -3.668  -7.625  1.00  0.00     0.039 A 
ATOM     32  C   UNL     1       3.067  -4.115  -8.102  1.00  0.00     0.014 A 
ATOM     33  C   UNL     1       4.623  -2.311  -7.710  1.00  0.00     0.014 A 
ATOM     34  C   UNL     1       2.134  -3.200  -8.600  1.00  0.00     0.010 A 
ATOM     35  C   UNL     1       3.663  -1.390  -8.135  1.00  0.00     0.010 A 
ATOM     36  C   UNL     1       2.407  -1.823  -8.584  1.00  0.00    -0.014 A 
BRANCH  36  37
ATOM     37  C   UNL     1       1.388  -0.829  -9.020  1.00  0.00     0.031 A 
ATOM     38  C   UNL     1       1.645   0.060 -10.207  1.00  0.00     0.074 A 
ATOM     39  C   UNL     1       0.253  -0.685  -8.307  1.00  0.00     0.049 A 
ATOM     40  N   UNL     1       0.917   1.039 -10.681  1.00  0.00    -0.248 NA
ATOM     41  C   UNL     1       2.898  -0.165 -10.942  1.00  0.00     0.031 C 
ATOM     42  C   UNL     1      -0.097  -1.460  -7.114  1.00  0.00     0.029 A 
ATOM     43  N   UNL     1      -0.811   0.168  -8.470  1.00  0.00    -0.354 N 
ATOM     44  C   UNL     1       1.627   1.555 -11.761  1.00  0.00     0.074 A 
ATOM     45  C   UNL     1       2.868   0.813 -11.835  1.00  0.00     0.031 C 
ATOM     46  C   UNL     1      -1.298  -1.062  -6.667  1.00  0.00     0.029 A 
ATOM     47  C   UNL     1      -1.782   0.032  -7.504  1.00  0.00     0.049 A 
ATOM     48  H   UNL     1      -0.874   0.815  -9.209  1.00  0.00     0.167 HD
ATOM     49  C   UNL     1       1.268   2.542 -12.620  1.00  0.00     0.034 A 
ATOM     50  C   UNL     1      -2.920   0.725  -7.297  1.00  0.00     0.034 A 
ATOM     51  C   UNL     1       0.021   3.264 -12.542  1.00  0.00     0.049 A 
ATOM     52  C   UNL     1      -3.278   1.842  -8.242  1.00  0.00     0.074 A 
ATOM     53  C   UNL     1      -0.468   4.234 -13.401  1.00  0.00     0.029 A 
ATOM     54  N   UNL     1      -0.932   3.107 -11.544  1.00  0.00    -0.354 N 
ATOM     55  N   UNL     1      -2.618   2.281  -9.289  1.00  0.00    -0.248 NA
ATOM     56  C   UNL     1      -4.537   2.552  -7.982  1.00  0.00     0.031 C 
ATOM     57  C   UNL     1      -1.678   4.711 -12.886  1.00  0.00     0.029 A 
ATOM     58  C   UNL     1      -1.986   3.986 -11.746  1.00  0.00     0.049 A 
ATOM     59  H   UNL     1      -0.869   2.464 -10.801  1.00  0.00     0.167 HD
ATOM     60  C   UNL     1      -3.398   3.301  -9.826  1.00  0.00     0.074 A 
ATOM     61  C   UNL     1      -4.584   3.397  -9.000  1.00  0.00     0.031 C 
ATOM     62  C   UNL     1      -3.156   4.085 -10.907  1.00  0.00     0.034 A 
BRANCH  49  63
ATOM     63  C   UNL     1       2.251   2.915 -13.704  1.00  0.00     0.023 A 
ATOM     64  C   UNL     1       2.620   2.007 -14.712  1.00  0.00     0.031 A 
ATOM     65  C   UNL     1       2.832   4.196 -13.728  1.00  0.00     0.131 A 
ATOM     66  C   UNL     1       3.590   2.368 -15.660  1.00  0.00     0.055 A 
ATOM     67  C   UNL     1       3.739   4.575 -14.720  1.00  0.00     0.041 A 
ATOM     68  F   UNL     1       2.533   5.099 -12.782  1.00  0.00    -0.206 F 
ATOM     69  C   UNL     1       4.133   3.654 -15.686  1.00  0.00     0.022 A 
BRANCH  66  70
ATOM     70  S   UNL     1       4.225   1.091 -16.780  1.00  0.00     0.124 S 
ATOM     71  O   UNL     1       4.772   0.117 -15.838  1.00  0.00    -0.237 OA
ATOM     72  O   UNL     1       3.026   0.679 -17.501  1.00  0.00    -0.237 OA
ATOM     73  O   UNL     1       5.221   1.801 -17.580  1.00  0.00    -0.744 OA
ENDBRANCH  66  70
ENDBRANCH  49  63
BRANCH  50  74
ATOM     74  C   UNL     1      -3.788   0.413  -6.126  1.00  0.00     0.023 A 
ATOM     75  C   UNL     1      -5.103  -0.049  -6.294  1.00  0.00     0.031 A 
ATOM     76  C   UNL     1      -3.325   0.619  -4.816  1.00  0.00     0.131 A 
ATOM     77  C   UNL     1      -5.924  -0.246  -5.172  1.00  0.00     0.055 A 
ATOM     78  C   UNL     1      -4.123   0.359  -3.703  1.00  0.00     0.041 A 
ATOM     79  F   UNL     1      -2.079   1.069  -4.596  1.00  0.00    -0.206 F 
ATOM     80  C   UNL     1      -5.438  -0.060  -3.877  1.00  0.00     0.022 A 
BRANCH  77  81
ATOM     81  S   UNL     1      -7.672  -0.653  -5.434  1.00  0.00     0.124 S 
ATOM     82  O   UNL     1      -8.113   0.454  -6.274  1.00  0.00    -0.237 OA
ATOM     83  O   UNL     1      -7.585  -1.957  -6.082  1.00  0.00    -0.237 OA
ATOM     84  O   UNL     1      -8.223  -0.666  -4.080  1.00  0.00    -0.744 OA
ENDBRANCH  77  81
ENDBRANCH  50  74
BRANCH  62  85
ATOM     85  C   UNL     1      -4.223   5.087 -11.275  1.00  0.00     0.023 A 
ATOM     86  C   UNL     1      -4.525   6.183 -10.447  1.00  0.00     0.031 A 
ATOM     87  C   UNL     1      -4.963   4.929 -12.460  1.00  0.00     0.131 A 
ATOM     88  C   UNL     1      -5.579   7.044 -10.785  1.00  0.00     0.055 A 
ATOM     89  C   UNL     1      -5.970   5.826 -12.823  1.00  0.00     0.041 A 
ATOM     90  F   UNL     1      -4.720   3.899 -13.286  1.00  0.00    -0.206 F 
ATOM     91  C   UNL     1      -6.292   6.883 -11.976  1.00  0.00     0.022 A 
BRANCH  88  92
ATOM     92  S   UNL     1      -6.071   8.327  -9.600  1.00  0.00     0.124 S 
ATOM     93  O   UNL     1      -6.419   7.536  -8.424  1.00  0.00    -0.237 OA
ATOM     94  O   UNL     1      -4.858   9.132  -9.490  1.00  0.00    -0.237 OA
ATOM     95  O   UNL     1      -7.195   8.989 -10.258  1.00  0.00    -0.744 OA
ENDBRANCH  88  92
ENDBRANCH  62  85
ENDBRANCH  36  37
ENDBRANCH  28  31
ENDBRANCH  26  27
ENDBRANCH   1  26
TORSDOF 15
