REMARK SMILES Cc1cc(Cl)cc2c1O[C@H](C(F)(F)F)C(C(=O)NCCCNC(=O)c1ccc(-c3c4nc(c(-c5cc(S(=O)(=O)[O-])ccc5F)c5ccc([nH]5)c(-c5cc(S(=O)(=O)[O-])ccc5F)c5nc(c(-c6cc(S(=O)(=O)[O-])ccc6F)c6ccc3[nH]6)C=C5)C=C4)cc1)=C2
REMARK SMILES IDX 21 1 20 2 19 3 18 4 16 5 17 6 15 8 1 9 2 10 3 11 8 12 4 13
REMARK SMILES IDX 7 14 9 15 5 16 6 17 88 18 10 19 11 20 12 21 13 22 14 23
REMARK SMILES IDX 22 24 23 25 24 27 25 28 26 29 87 30 27 31 86 32 28 33 29 34
REMARK SMILES IDX 30 35 80 36 31 37 85 38 79 39 81 40 32 41 84 42 78 43 77 44
REMARK SMILES IDX 33 46 65 47 45 48 64 49 46 50 49 51 63 52 82 53 47 54 48 55
REMARK SMILES IDX 62 57 83 58 50 59 34 60 35 61 43 62 36 63 42 64 44 65 41 66
REMARK SMILES IDX 37 67 38 68 39 69 40 70 66 71 67 72 75 73 68 74 74 75 76 76
REMARK SMILES IDX 73 77 69 78 70 79 71 80 72 81 51 82 52 83 60 84 53 85 59 86
REMARK SMILES IDX 61 87 58 88 54 89 55 90 56 91 57 92
REMARK H PARENT 18 7 22 26 81 45 49 56
REMARK Flexibility Score: inf
ROOT
ATOM      1  C   UNL     1      -1.486  -5.653   6.554  1.00  0.00     0.118 C 
ENDROOT
BRANCH   1   2
ATOM      2  C   UNL     1      -1.097  -4.851   5.318  1.00  0.00     0.042 C 
BRANCH   2   3
ATOM      3  C   UNL     1      -2.159  -3.831   4.935  1.00  0.00     0.118 C 
BRANCH   3   4
ATOM      4  N   UNL     1      -2.102  -2.642   5.773  1.00  0.00    -0.352 N 
ATOM      5  C   UNL     1      -1.721  -1.351   5.638  1.00  0.00     0.251 C 
ATOM      6  O   UNL     1      -1.869  -0.649   6.644  1.00  0.00    -0.270 OA
ATOM      7  H   UNL     1      -2.429  -2.827   6.683  1.00  0.00     0.163 HD
BRANCH   5   8
ATOM      8  C   UNL     1      -1.160  -0.747   4.396  1.00  0.00     0.067 C 
ATOM      9  C   UNL     1       1.068   0.193  -0.155  1.00  0.00     0.048 C 
ATOM     10  C   UNL     1       0.654   1.011   1.035  1.00  0.00    -0.007 A 
ATOM     11  C   UNL     1       0.857   2.398   1.022  1.00  0.00     0.027 A 
ATOM     12  C   UNL     1       0.107   0.424   2.183  1.00  0.00     0.131 A 
ATOM     13  C   UNL     1       0.507   3.171   2.130  1.00  0.00     0.042 A 
ATOM     14  C   UNL     1      -0.240   1.197   3.298  1.00  0.00     0.019 A 
ATOM     15  O   UNL     1      -0.031  -0.936   2.190  1.00  0.00    -0.475 OA
ATOM     16  Cl  UNL     1       0.761   4.873   2.093  1.00  0.00    -0.084 Cl
ATOM     17  C   UNL     1      -0.038   2.579   3.269  1.00  0.00     0.032 A 
ATOM     18  C   UNL     1      -0.774   0.540   4.486  1.00  0.00     0.025 C 
ATOM     19  C   UNL     1      -1.038  -1.472   3.087  1.00  0.00     0.314 C 
BRANCH  19  20
ATOM     20  C   UNL     1      -2.385  -1.579   2.345  1.00  0.00     0.429 C 
ATOM     21  F   UNL     1      -2.324  -2.530   1.381  1.00  0.00    -0.167 F 
ATOM     22  F   UNL     1      -3.406  -1.928   3.164  1.00  0.00    -0.167 F 
ATOM     23  F   UNL     1      -2.748  -0.421   1.748  1.00  0.00    -0.167 F 
ENDBRANCH  19  20
ENDBRANCH   5   8
ENDBRANCH   3   4
ENDBRANCH   2   3
ENDBRANCH   1   2
BRANCH   1  24
ATOM     24  N   UNL     1      -2.677  -6.466   6.318  1.00  0.00    -0.352 N 
ATOM     25  C   UNL     1      -2.802  -7.822   6.149  1.00  0.00     0.251 C 
ATOM     26  H   UNL     1      -3.522  -5.962   6.273  1.00  0.00     0.163 HD
ATOM     27  O   UNL     1      -3.839  -8.278   5.671  1.00  0.00    -0.269 OA
BRANCH  25  28
ATOM     28  C   UNL     1      -1.694  -8.719   6.533  1.00  0.00     0.039 A 
ATOM     29  C   UNL     1      -1.381  -9.811   5.721  1.00  0.00     0.014 A 
ATOM     30  C   UNL     1      -0.977  -8.487   7.709  1.00  0.00     0.014 A 
ATOM     31  C   UNL     1      -0.299 -10.627   6.055  1.00  0.00     0.010 A 
ATOM     32  C   UNL     1       0.155  -9.240   7.989  1.00  0.00     0.010 A 
ATOM     33  C   UNL     1       0.501 -10.323   7.170  1.00  0.00    -0.014 A 
BRANCH  33  34
ATOM     34  C   UNL     1       1.688 -11.142   7.518  1.00  0.00     0.031 A 
ATOM     35  C   UNL     1       1.723 -11.886   8.825  1.00  0.00     0.074 A 
ATOM     36  C   UNL     1       2.745 -11.172   6.682  1.00  0.00     0.049 A 
ATOM     37  N   UNL     1       2.696 -12.581   9.351  1.00  0.00    -0.248 NA
ATOM     38  C   UNL     1       0.515 -11.815   9.664  1.00  0.00     0.031 C 
ATOM     39  C   UNL     1       2.832 -10.467   5.400  1.00  0.00     0.029 A 
ATOM     40  N   UNL     1       3.947 -11.826   6.779  1.00  0.00    -0.354 N 
ATOM     41  C   UNL     1       2.221 -13.027  10.579  1.00  0.00     0.074 A 
ATOM     42  C   UNL     1       0.899 -12.467  10.751  1.00  0.00     0.031 C 
ATOM     43  C   UNL     1       4.000 -10.765   4.811  1.00  0.00     0.029 A 
ATOM     44  C   UNL     1       4.768 -11.640   5.691  1.00  0.00     0.049 A 
ATOM     45  H   UNL     1       4.198 -12.378   7.555  1.00  0.00     0.167 HD
ATOM     46  C   UNL     1       2.819 -13.856  11.466  1.00  0.00     0.034 A 
ATOM     47  C   UNL     1       6.001 -12.120   5.434  1.00  0.00     0.034 A 
ATOM     48  C   UNL     1       4.122 -14.432  11.268  1.00  0.00     0.049 A 
ATOM     49  C   UNL     1       6.659 -13.012   6.455  1.00  0.00     0.074 A 
ATOM     50  C   UNL     1       4.808 -15.309  12.089  1.00  0.00     0.029 A 
ATOM     51  N   UNL     1       4.933 -14.198  10.166  1.00  0.00    -0.354 N 
ATOM     52  N   UNL     1       6.192 -13.421   7.612  1.00  0.00    -0.248 NA
ATOM     53  C   UNL     1       8.006 -13.505   6.138  1.00  0.00     0.031 C 
ATOM     54  C   UNL     1       6.053 -15.565  11.509  1.00  0.00     0.029 A 
ATOM     55  C   UNL     1       6.119 -14.899  10.296  1.00  0.00     0.049 A 
ATOM     56  H   UNL     1       4.698 -13.619   9.405  1.00  0.00     0.167 HD
ATOM     57  C   UNL     1       7.180 -14.241   8.149  1.00  0.00     0.074 A 
ATOM     58  C   UNL     1       8.264 -14.273   7.189  1.00  0.00     0.031 C 
ATOM     59  C   UNL     1       7.187 -14.911   9.328  1.00  0.00     0.034 A 
BRANCH  46  60
ATOM     60  C   UNL     1       2.066 -14.197  12.724  1.00  0.00     0.023 A 
ATOM     61  C   UNL     1       0.900 -14.980  12.685  1.00  0.00     0.031 A 
ATOM     62  C   UNL     1       2.530 -13.759  13.976  1.00  0.00     0.131 A 
ATOM     63  C   UNL     1       0.214 -15.270  13.873  1.00  0.00     0.055 A 
ATOM     64  C   UNL     1       1.879 -14.104  15.161  1.00  0.00     0.041 A 
ATOM     65  F   UNL     1       3.628 -12.992  14.067  1.00  0.00    -0.206 F 
ATOM     66  C   UNL     1       0.710 -14.860  15.113  1.00  0.00     0.022 A 
BRANCH  63  67
ATOM     67  S   UNL     1      -1.375 -16.135  13.769  1.00  0.00     0.124 S 
ATOM     68  O   UNL     1      -2.203 -15.144  13.085  1.00  0.00    -0.237 OA
ATOM     69  O   UNL     1      -1.040 -17.327  12.999  1.00  0.00    -0.237 OA
ATOM     70  O   UNL     1      -1.726 -16.375  15.167  1.00  0.00    -0.744 OA
ENDBRANCH  63  67
ENDBRANCH  46  60
BRANCH  47  71
ATOM     71  C   UNL     1       6.690 -11.780   4.159  1.00  0.00     0.023 A 
ATOM     72  C   UNL     1       6.938 -12.767   3.192  1.00  0.00     0.031 A 
ATOM     73  C   UNL     1       7.120 -10.468   3.890  1.00  0.00     0.131 A 
ATOM     74  C   UNL     1       7.625 -12.435   2.014  1.00  0.00     0.055 A 
ATOM     75  C   UNL     1       7.766 -10.134   2.699  1.00  0.00     0.041 A 
ATOM     76  F   UNL     1       6.898  -9.486   4.778  1.00  0.00    -0.206 F 
ATOM     77  C   UNL     1       8.030 -11.123   1.755  1.00  0.00     0.022 A 
BRANCH  74  78
ATOM     78  S   UNL     1       8.025 -13.757   0.839  1.00  0.00     0.124 S 
ATOM     79  O   UNL     1       8.894 -14.612   1.639  1.00  0.00    -0.237 OA
ATOM     80  O   UNL     1       6.705 -14.294   0.526  1.00  0.00    -0.237 OA
ATOM     81  O   UNL     1       8.682 -13.049  -0.258  1.00  0.00    -0.744 OA
ENDBRANCH  74  78
ENDBRANCH  47  71
BRANCH  59  82
ATOM     82  C   UNL     1       8.390 -15.761   9.634  1.00  0.00     0.023 A 
ATOM     83  C   UNL     1       9.624 -15.185   9.975  1.00  0.00     0.031 A 
ATOM     84  C   UNL     1       8.279 -17.162   9.644  1.00  0.00     0.131 A 
ATOM     85  C   UNL     1      10.712 -16.011  10.290  1.00  0.00     0.055 A 
ATOM     86  C   UNL     1       9.352 -17.978  10.003  1.00  0.00     0.041 A 
ATOM     87  F   UNL     1       7.117 -17.757   9.331  1.00  0.00    -0.206 F 
ATOM     88  C   UNL     1      10.579 -17.402  10.324  1.00  0.00     0.022 A 
BRANCH  85  89
ATOM     89  S   UNL     1      12.318 -15.243  10.630  1.00  0.00     0.124 S 
ATOM     90  O   UNL     1      12.642 -14.638   9.342  1.00  0.00    -0.237 OA
ATOM     91  O   UNL     1      12.001 -14.312  11.709  1.00  0.00    -0.237 OA
ATOM     92  O   UNL     1      13.163 -16.371  11.016  1.00  0.00    -0.744 OA
ENDBRANCH  85  89
ENDBRANCH  59  82
ENDBRANCH  33  34
ENDBRANCH  25  28
ENDBRANCH   1  24
TORSDOF 14
