REMARK SMILES CCC(CC)(NC(=O)NC[C@H](C)[NH+]1CCCCC1)C(=O)NCCCNC(=O)c1ccc(-c2c3nc(c(-c4cc(S(=O)(=O)[O-])ccc4F)c4ccc([nH]4)c(-c4cc(S(=O)(=O)[O-])ccc4F)c4nc(c(-c5cc(S(=O)(=O)[O-])ccc5F)c5ccc2[nH]5)C=C4)C=C3)cc1
REMARK SMILES IDX 22 1 21 2 19 3 20 4 3 6 2 7 1 8 4 9 5 10 6 11 7 12 8 14 9 15
REMARK SMILES IDX 10 17 11 18 12 19 13 20 14 21 18 22 15 24 17 25 16 26 23 27
REMARK SMILES IDX 24 28 25 29 26 30 27 32 28 33 29 34 90 35 30 36 89 37 31 38
REMARK SMILES IDX 32 39 33 40 83 41 34 42 88 43 82 44 84 45 35 46 87 47 81 48
REMARK SMILES IDX 80 49 36 51 68 52 48 53 67 54 49 55 52 56 66 57 85 58 50 59
REMARK SMILES IDX 51 60 65 62 86 63 53 64 37 65 38 66 46 67 39 68 45 69 47 70
REMARK SMILES IDX 44 71 40 72 41 73 42 74 43 75 69 76 70 77 78 78 71 79 77 80
REMARK SMILES IDX 79 81 76 82 72 83 73 84 74 85 75 86 54 87 55 88 63 89 56 90
REMARK SMILES IDX 62 91 64 92 61 93 57 94 58 95 59 96 60 97
REMARK H PARENT 21 5 6 13 9 16 13 23 25 31 84 50 52 61
REMARK Flexibility Score: inf
ROOT
ATOM      1  C   UNL     1       5.610  -2.175   2.238  1.00  0.00     0.117 C 
ENDROOT
BRANCH   1   2
ATOM      2  N   UNL     1       5.491  -3.772   2.355  1.00  0.00    -0.354 N 
ATOM      3  C   UNL     1       6.125  -4.953   2.202  1.00  0.00     0.245 C 
ATOM      4  O   UNL     1       5.368  -5.900   2.482  1.00  0.00    -0.272 OA
ATOM      5  H   UNL     1       4.578  -3.973   2.665  1.00  0.00     0.163 HD
BRANCH   3   6
ATOM      6  C   UNL     1       7.644  -5.227   1.951  1.00  0.00     0.120 C 
BRANCH   6   7
ATOM      7  C   UNL     1       7.959  -6.744   1.736  1.00  0.00     0.035 C 
ATOM      8  C   UNL     1       7.424  -7.769   2.727  1.00  0.00     0.007 C 
ENDBRANCH   6   7
BRANCH   6   9
ATOM      9  C   UNL     1       8.254  -4.702   3.299  1.00  0.00     0.035 C 
ATOM     10  C   UNL     1       9.766  -4.704   3.455  1.00  0.00     0.007 C 
ENDBRANCH   6   9
BRANCH   6  11
ATOM     11  N   UNL     1       8.313  -4.555   0.814  1.00  0.00    -0.324 N 
ATOM     12  C   UNL     1       8.134  -4.495  -0.516  1.00  0.00     0.315 C 
ATOM     13  H   UNL     1       9.084  -4.016   1.106  1.00  0.00     0.166 HD
ATOM     14  O   UNL     1       9.108  -4.158  -1.193  1.00  0.00    -0.249 OA
ATOM     15  N   UNL     1       6.957  -4.631  -1.139  1.00  0.00    -0.332 N 
ATOM     16  H   UNL     1       6.998  -4.351  -2.082  1.00  0.00     0.165 HD
BRANCH  15  17
ATOM     17  C   UNL     1       5.637  -5.092  -0.757  1.00  0.00     0.182 C 
BRANCH  17  18
ATOM     18  C   UNL     1       4.524  -4.066  -0.342  1.00  0.00     0.200 C 
ATOM     19  C   UNL     1       3.558  -3.843  -1.518  1.00  0.00     0.077 C 
BRANCH  18  20
ATOM     20  N   UNL     1       4.804  -2.759   0.280  1.00  0.00    -0.331 N 
ATOM     21  C   UNL     1       6.494  -2.079   0.297  1.00  0.00     0.262 C 
ATOM     22  C   UNL     1       3.583  -2.272   1.569  1.00  0.00     0.262 C 
ATOM     23  H   UNL     1       4.609  -2.105  -0.477  1.00  0.00     0.348 HD
ATOM     24  C   UNL     1       7.008  -0.605   1.485  1.00  0.00     0.062 C 
ATOM     25  C   UNL     1       3.923  -0.780   2.754  1.00  0.00     0.062 C 
ATOM     26  C   UNL     1       5.739  -0.070   2.834  1.00  0.00     0.012 C 
ENDBRANCH  18  20
ENDBRANCH  17  18
ENDBRANCH  15  17
ENDBRANCH   6  11
ENDBRANCH   3   6
ENDBRANCH   1   2
BRANCH   1  27
ATOM     27  C   UNL     1       4.917  -0.716   0.858  1.00  0.00     0.042 C 
BRANCH  27  28
ATOM     28  C   UNL     1       3.787  -0.564  -0.374  1.00  0.00     0.118 C 
BRANCH  28  29
ATOM     29  N   UNL     1       2.390  -0.280  -0.040  1.00  0.00    -0.352 N 
ATOM     30  C   UNL     1       1.673   0.869  -0.227  1.00  0.00     0.251 C 
ATOM     31  H   UNL     1       1.897  -1.022   0.380  1.00  0.00     0.163 HD
ATOM     32  O   UNL     1       0.631   1.070   0.366  1.00  0.00    -0.269 OA
BRANCH  30  33
ATOM     33  C   UNL     1       2.158   1.776  -1.269  1.00  0.00     0.039 A 
ATOM     34  C   UNL     1       2.352   3.124  -0.992  1.00  0.00     0.014 A 
ATOM     35  C   UNL     1       2.441   1.222  -2.524  1.00  0.00     0.014 A 
ATOM     36  C   UNL     1       2.865   3.936  -1.996  1.00  0.00     0.010 A 
ATOM     37  C   UNL     1       3.022   2.012  -3.491  1.00  0.00     0.010 A 
ATOM     38  C   UNL     1       3.206   3.378  -3.240  1.00  0.00    -0.014 A 
BRANCH  38  39
ATOM     39  C   UNL     1       3.696   4.212  -4.349  1.00  0.00     0.031 A 
ATOM     40  C   UNL     1       2.824   4.364  -5.561  1.00  0.00     0.074 A 
ATOM     41  C   UNL     1       4.940   4.714  -4.287  1.00  0.00     0.049 A 
ATOM     42  N   UNL     1       3.092   4.927  -6.708  1.00  0.00    -0.248 NA
ATOM     43  C   UNL     1       1.488   3.747  -5.489  1.00  0.00     0.031 C 
ATOM     44  C   UNL     1       5.865   4.542  -3.163  1.00  0.00     0.029 A 
ATOM     45  N   UNL     1       5.647   5.452  -5.193  1.00  0.00    -0.354 N 
ATOM     46  C   UNL     1       1.970   4.708  -7.500  1.00  0.00     0.074 A 
ATOM     47  C   UNL     1       1.055   3.897  -6.729  1.00  0.00     0.031 C 
ATOM     48  C   UNL     1       7.014   5.179  -3.441  1.00  0.00     0.029 A 
ATOM     49  C   UNL     1       6.917   5.768  -4.772  1.00  0.00     0.049 A 
ATOM     50  H   UNL     1       5.283   5.731  -6.064  1.00  0.00     0.167 HD
ATOM     51  C   UNL     1       1.724   5.171  -8.749  1.00  0.00     0.034 A 
ATOM     52  C   UNL     1       7.886   6.453  -5.406  1.00  0.00     0.034 A 
ATOM     53  C   UNL     1       2.662   5.998  -9.466  1.00  0.00     0.049 A 
ATOM     54  C   UNL     1       7.578   6.988  -6.781  1.00  0.00     0.074 A 
ATOM     55  C   UNL     1       2.525   6.592 -10.706  1.00  0.00     0.029 A 
ATOM     56  N   UNL     1       3.925   6.346  -8.993  1.00  0.00    -0.354 N 
ATOM     57  N   UNL     1       6.489   6.834  -7.502  1.00  0.00    -0.248 NA
ATOM     58  C   UNL     1       8.618   7.800  -7.420  1.00  0.00     0.031 C 
ATOM     59  C   UNL     1       3.721   7.255 -11.004  1.00  0.00     0.029 A 
ATOM     60  C   UNL     1       4.583   7.130  -9.924  1.00  0.00     0.049 A 
ATOM     61  H   UNL     1       4.295   6.073  -8.123  1.00  0.00     0.167 HD
ATOM     62  C   UNL     1       6.705   7.549  -8.674  1.00  0.00     0.074 A 
ATOM     63  C   UNL     1       8.020   8.152  -8.549  1.00  0.00     0.031 C 
ATOM     64  C   UNL     1       5.902   7.697  -9.759  1.00  0.00     0.034 A 
BRANCH  51  65
ATOM     65  C   UNL     1       0.417   4.773  -9.393  1.00  0.00     0.023 A 
ATOM     66  C   UNL     1      -0.822   5.113  -8.820  1.00  0.00     0.031 A 
ATOM     67  C   UNL     1       0.404   3.990 -10.560  1.00  0.00     0.131 A 
ATOM     68  C   UNL     1      -2.011   4.594  -9.354  1.00  0.00     0.055 A 
ATOM     69  C   UNL     1      -0.790   3.550 -11.139  1.00  0.00     0.041 A 
ATOM     70  F   UNL     1       1.552   3.612 -11.144  1.00  0.00    -0.206 F 
ATOM     71  C   UNL     1      -2.006   3.836 -10.526  1.00  0.00     0.022 A 
BRANCH  68  72
ATOM     72  S   UNL     1      -3.545   4.791  -8.405  1.00  0.00     0.124 S 
ATOM     73  O   UNL     1      -3.218   4.087  -7.167  1.00  0.00    -0.237 OA
ATOM     74  O   UNL     1      -3.669   6.240  -8.301  1.00  0.00    -0.237 OA
ATOM     75  O   UNL     1      -4.551   4.137  -9.239  1.00  0.00    -0.744 OA
ENDBRANCH  68  72
ENDBRANCH  51  65
BRANCH  52  76
ATOM     76  C   UNL     1       9.202   6.684  -4.751  1.00  0.00     0.023 A 
ATOM     77  C   UNL     1       9.609   7.977  -4.389  1.00  0.00     0.031 A 
ATOM     78  C   UNL     1      10.079   5.618  -4.481  1.00  0.00     0.131 A 
ATOM     79  C   UNL     1      10.873   8.180  -3.816  1.00  0.00     0.055 A 
ATOM     80  C   UNL     1      11.318   5.819  -3.869  1.00  0.00     0.041 A 
ATOM     81  F   UNL     1       9.734   4.358  -4.792  1.00  0.00    -0.206 F 
ATOM     82  C   UNL     1      11.727   7.109  -3.544  1.00  0.00     0.022 A 
BRANCH  79  83
ATOM     83  S   UNL     1      11.417   9.880  -3.495  1.00  0.00     0.124 S 
ATOM     84  O   UNL     1      11.300  10.487  -4.816  1.00  0.00    -0.237 OA
ATOM     85  O   UNL     1      10.448  10.323  -2.497  1.00  0.00    -0.237 OA
ATOM     86  O   UNL     1      12.783   9.714  -3.003  1.00  0.00    -0.744 OA
ENDBRANCH  79  83
ENDBRANCH  52  76
BRANCH  64  87
ATOM     87  C   UNL     1       6.431   8.566 -10.869  1.00  0.00     0.023 A 
ATOM     88  C   UNL     1       7.528   8.166 -11.649  1.00  0.00     0.031 A 
ATOM     89  C   UNL     1       5.836   9.810 -11.140  1.00  0.00     0.131 A 
ATOM     90  C   UNL     1       8.035   9.029 -12.629  1.00  0.00     0.055 A 
ATOM     91  C   UNL     1       6.306  10.638 -12.158  1.00  0.00     0.041 A 
ATOM     92  F   UNL     1       4.785  10.236 -10.421  1.00  0.00    -0.206 F 
ATOM     93  C   UNL     1       7.421  10.255 -12.900  1.00  0.00     0.022 A 
BRANCH  90  94
ATOM     94  S   UNL     1       9.566   8.567 -13.482  1.00  0.00     0.124 S 
ATOM     95  O   UNL     1      10.510   8.463 -12.374  1.00  0.00    -0.237 OA
ATOM     96  O   UNL     1       9.197   7.310 -14.126  1.00  0.00    -0.237 OA
ATOM     97  O   UNL     1       9.800   9.685 -14.394  1.00  0.00    -0.744 OA
ENDBRANCH  90  94
ENDBRANCH  64  87
ENDBRANCH  38  39
ENDBRANCH  30  33
ENDBRANCH  28  29
ENDBRANCH  27  28
ENDBRANCH   1  27
TORSDOF 19
