REMARK SMILES C[C@H]1[C@H](C(=O)NCCCNC(=O)c2ccc(-c3c4nc(c(-c5cc(S(=O)(=O)[O-])ccc5F)c5ccc([nH]5)c(-c5cc(S(=O)(=O)[O-])ccc5F)c5nc(c(-c6cc(S(=O)(=O)[O-])ccc6F)c6ccc3[nH]6)C=C5)C=C4)cc2)CC[N@@H+]1[C@@H](c1ccccc1)c1ccco1
REMARK SMILES IDX 8 1 7 2 6 3 4 4 5 5 3 7 1 8 2 9 78 10 76 11 77 12 79 14
REMARK SMILES IDX 80 15 81 16 85 17 82 18 84 19 83 20 86 21 87 22 90 23 88 24
REMARK SMILES IDX 89 25 9 26 10 27 11 28 12 30 13 31 14 32 75 33 15 34 74 35
REMARK SMILES IDX 16 36 17 37 18 38 68 39 19 40 73 41 67 42 69 43 20 44 72 45
REMARK SMILES IDX 66 46 65 47 21 49 53 50 33 51 52 52 34 53 37 54 51 55 70 56
REMARK SMILES IDX 35 57 36 58 50 60 71 61 38 62 22 63 23 64 31 65 24 66 30 67
REMARK SMILES IDX 32 68 29 69 25 70 26 71 27 72 28 73 54 74 55 75 63 76 56 77
REMARK SMILES IDX 62 78 64 79 61 80 57 81 58 82 59 83 60 84 39 85 40 86 48 87
REMARK SMILES IDX 41 88 47 89 49 90 46 91 42 92 43 93 44 94 45 95
REMARK H PARENT 6 6 78 13 10 29 69 48 37 59
REMARK Flexibility Score: inf
ROOT
ATOM      1  C   UNL     1       0.493   1.093   4.137  1.00  0.00     0.042 C 
ENDROOT
BRANCH   1   2
ATOM      2  C   UNL     1      -0.475   1.592   3.072  1.00  0.00     0.117 C 
BRANCH   2   3
ATOM      3  N   UNL     1       0.110   2.574   2.190  1.00  0.00    -0.356 N 
ATOM      4  C   UNL     1       0.349   2.508   0.855  1.00  0.00     0.229 C 
ATOM      5  O   UNL     1       0.747   3.548   0.316  1.00  0.00    -0.275 OA
ATOM      6  H   UNL     1       0.375   3.419   2.622  1.00  0.00     0.163 HD
BRANCH   4   7
ATOM      7  C   UNL     1       0.099   1.266  -0.006  1.00  0.00     0.142 C 
ATOM      8  C   UNL     1       1.916  -0.431  -0.307  1.00  0.00     0.076 C 
ATOM      9  C   UNL     1       0.639  -0.095   0.480  1.00  0.00     0.194 C 
ATOM     10  N   UNL     1      -0.399  -1.103   0.156  1.00  0.00    -0.319 N 
ATOM     11  C   UNL     1      -1.361   1.007  -0.344  1.00  0.00     0.081 C 
ATOM     12  C   UNL     1      -1.367  -0.469  -0.727  1.00  0.00     0.264 C 
ATOM     13  H   UNL     1       0.032  -1.874  -0.355  1.00  0.00     0.349 HD
BRANCH  10  14
ATOM     14  C   UNL     1      -0.898  -1.964   1.264  1.00  0.00     0.283 C 
BRANCH  14  15
ATOM     15  C   UNL     1      -1.845  -1.391   2.332  1.00  0.00     0.017 A 
ATOM     16  C   UNL     1      -1.600  -1.700   3.685  1.00  0.00     0.010 A 
ATOM     17  C   UNL     1      -3.027  -0.686   2.045  1.00  0.00     0.010 A 
ATOM     18  C   UNL     1      -2.440  -1.234   4.699  1.00  0.00     0.001 A 
ATOM     19  C   UNL     1      -3.845  -0.182   3.061  1.00  0.00     0.001 A 
ATOM     20  C   UNL     1      -3.543  -0.446   4.389  1.00  0.00     0.000 A 
ENDBRANCH  14  15
BRANCH  14  21
ATOM     21  C   UNL     1      -1.403  -3.310   0.785  1.00  0.00     0.165 A 
ATOM     22  C   UNL     1      -0.788  -4.396   0.189  1.00  0.00     0.052 A 
ATOM     23  O   UNL     1      -2.690  -3.648   1.113  1.00  0.00    -0.463 OA
ATOM     24  C   UNL     1      -1.727  -5.459   0.219  1.00  0.00     0.042 A 
ATOM     25  C   UNL     1      -2.863  -4.954   0.802  1.00  0.00     0.195 A 
ENDBRANCH  14  21
ENDBRANCH  10  14
ENDBRANCH   4   7
ENDBRANCH   2   3
ENDBRANCH   1   2
BRANCH   1  26
ATOM     26  C   UNL     1       0.350   1.801   5.479  1.00  0.00     0.118 C 
BRANCH  26  27
ATOM     27  N   UNL     1      -0.972   1.653   6.085  1.00  0.00    -0.352 N 
ATOM     28  C   UNL     1      -1.423   0.980   7.193  1.00  0.00     0.251 C 
ATOM     29  H   UNL     1      -1.683   2.132   5.599  1.00  0.00     0.163 HD
ATOM     30  O   UNL     1      -2.640   0.929   7.394  1.00  0.00    -0.269 OA
BRANCH  28  31
ATOM     31  C   UNL     1      -0.507   0.285   8.123  1.00  0.00     0.039 A 
ATOM     32  C   UNL     1      -0.936  -0.892   8.751  1.00  0.00     0.014 A 
ATOM     33  C   UNL     1       0.748   0.803   8.431  1.00  0.00     0.014 A 
ATOM     34  C   UNL     1      -0.089  -1.567   9.636  1.00  0.00     0.010 A 
ATOM     35  C   UNL     1       1.634   0.069   9.212  1.00  0.00     0.010 A 
ATOM     36  C   UNL     1       1.219  -1.108   9.850  1.00  0.00    -0.014 A 
BRANCH  36  37
ATOM     37  C   UNL     1       2.158  -1.783  10.787  1.00  0.00     0.031 A 
ATOM     38  C   UNL     1       2.730  -1.005  11.946  1.00  0.00     0.074 A 
ATOM     39  C   UNL     1       2.564  -3.046  10.551  1.00  0.00     0.049 A 
ATOM     40  N   UNL     1       3.695  -1.325  12.770  1.00  0.00    -0.248 NA
ATOM     41  C   UNL     1       2.173   0.339  12.172  1.00  0.00     0.031 C 
ATOM     42  C   UNL     1       2.109  -3.890   9.445  1.00  0.00     0.029 A 
ATOM     43  N   UNL     1       3.467  -3.835  11.219  1.00  0.00    -0.354 N 
ATOM     44  C   UNL     1       3.880  -0.213  13.586  1.00  0.00     0.074 A 
ATOM     45  C   UNL     1       2.984   0.814  13.103  1.00  0.00     0.031 C 
ATOM     46  C   UNL     1       2.720  -5.083   9.521  1.00  0.00     0.029 A 
ATOM     47  C   UNL     1       3.652  -5.071  10.644  1.00  0.00     0.049 A 
ATOM     48  H   UNL     1       3.938  -3.543  12.033  1.00  0.00     0.167 HD
ATOM     49  C   UNL     1       4.698  -0.071  14.659  1.00  0.00     0.034 A 
ATOM     50  C   UNL     1       4.494  -6.072  10.971  1.00  0.00     0.034 A 
ATOM     51  C   UNL     1       5.562  -1.121  15.141  1.00  0.00     0.049 A 
ATOM     52  C   UNL     1       5.405  -5.891  12.160  1.00  0.00     0.074 A 
ATOM     53  C   UNL     1       6.396  -1.113  16.245  1.00  0.00     0.029 A 
ATOM     54  N   UNL     1       5.703  -2.369  14.547  1.00  0.00    -0.354 N 
ATOM     55  N   UNL     1       5.546  -4.846  12.943  1.00  0.00    -0.248 NA
ATOM     56  C   UNL     1       6.258  -7.031  12.516  1.00  0.00     0.031 C 
ATOM     57  C   UNL     1       7.091  -2.327  16.278  1.00  0.00     0.029 A 
ATOM     58  C   UNL     1       6.629  -3.129  15.246  1.00  0.00     0.049 A 
ATOM     59  H   UNL     1       5.216  -2.671  13.746  1.00  0.00     0.167 HD
ATOM     60  C   UNL     1       6.485  -5.215  13.903  1.00  0.00     0.074 A 
ATOM     61  C   UNL     1       6.854  -6.586  13.612  1.00  0.00     0.031 C 
ATOM     62  C   UNL     1       6.997  -4.490  14.932  1.00  0.00     0.034 A 
BRANCH  49  63
ATOM     63  C   UNL     1       4.701   1.269  15.361  1.00  0.00     0.023 A 
ATOM     64  C   UNL     1       3.537   1.800  15.945  1.00  0.00     0.031 A 
ATOM     65  C   UNL     1       5.871   2.047  15.413  1.00  0.00     0.131 A 
ATOM     66  C   UNL     1       3.544   3.102  16.469  1.00  0.00     0.055 A 
ATOM     67  C   UNL     1       5.895   3.304  16.023  1.00  0.00     0.041 A 
ATOM     68  F   UNL     1       7.011   1.608  14.855  1.00  0.00    -0.206 F 
ATOM     69  C   UNL     1       4.722   3.847  16.538  1.00  0.00     0.022 A 
BRANCH  66  70
ATOM     70  S   UNL     1       1.957   3.867  16.901  1.00  0.00     0.124 S 
ATOM     71  O   UNL     1       1.247   3.811  15.625  1.00  0.00    -0.237 OA
ATOM     72  O   UNL     1       1.457   2.986  17.950  1.00  0.00    -0.237 OA
ATOM     73  O   UNL     1       2.332   5.210  17.339  1.00  0.00    -0.744 OA
ENDBRANCH  66  70
ENDBRANCH  49  63
BRANCH  50  74
ATOM     74  C   UNL     1       4.530  -7.324  10.161  1.00  0.00     0.023 A 
ATOM     75  C   UNL     1       4.163  -8.559  10.720  1.00  0.00     0.031 A 
ATOM     76  C   UNL     1       4.962  -7.311   8.822  1.00  0.00     0.131 A 
ATOM     77  C   UNL     1       4.280  -9.735   9.961  1.00  0.00     0.055 A 
ATOM     78  C   UNL     1       5.021  -8.475   8.053  1.00  0.00     0.041 A 
ATOM     79  F   UNL     1       5.321  -6.158   8.235  1.00  0.00    -0.206 F 
ATOM     80  C   UNL     1       4.692  -9.699   8.627  1.00  0.00     0.022 A 
BRANCH  77  81
ATOM     81  S   UNL     1       3.969 -11.327  10.772  1.00  0.00     0.124 S 
ATOM     82  O   UNL     1       4.937 -11.298  11.863  1.00  0.00    -0.237 OA
ATOM     83  O   UNL     1       2.567 -11.203  11.154  1.00  0.00    -0.237 OA
ATOM     84  O   UNL     1       4.242 -12.304   9.720  1.00  0.00    -0.744 OA
ENDBRANCH  77  81
ENDBRANCH  50  74
BRANCH  62  85
ATOM     85  C   UNL     1       7.979  -5.192  15.839  1.00  0.00     0.023 A 
ATOM     86  C   UNL     1       9.228  -5.637  15.373  1.00  0.00     0.031 A 
ATOM     87  C   UNL     1       7.648  -5.443  17.183  1.00  0.00     0.131 A 
ATOM     88  C   UNL     1      10.068  -6.374  16.221  1.00  0.00     0.055 A 
ATOM     89  C   UNL     1       8.521  -6.110  18.044  1.00  0.00     0.041 A 
ATOM     90  F   UNL     1       6.468  -5.044  17.683  1.00  0.00    -0.206 F 
ATOM     91  C   UNL     1       9.732  -6.596  17.559  1.00  0.00     0.022 A 
BRANCH  88  92
ATOM     92  S   UNL     1      11.550  -7.146  15.517  1.00  0.00     0.124 S 
ATOM     93  O   UNL     1      10.986  -7.963  14.448  1.00  0.00    -0.237 OA
ATOM     94  O   UNL     1      12.332  -5.990  15.091  1.00  0.00    -0.237 OA
ATOM     95  O   UNL     1      12.113  -7.895  16.639  1.00  0.00    -0.744 OA
ENDBRANCH  88  92
ENDBRANCH  62  85
ENDBRANCH  36  37
ENDBRANCH  28  31
ENDBRANCH  26  27
ENDBRANCH   1  26
TORSDOF 16
