REMARK SMILES CC(C)c1ccc([C@]2(C(=O)NCCCNC(=O)c3ccc(-c4c5nc(c(-c6cc(S(=O)(=O)[O-])ccc6F)c6ccc([nH]6)c(-c6cc(S(=O)(=O)[O-])ccc6F)c6nc(c(-c7cc(S(=O)(=O)[O-])ccc7F)c7ccc4[nH]7)C=C6)C=C5)cc3)CCC[C@@H]2C)cc1
REMARK SMILES IDX 13 1 12 2 11 3 9 4 10 5 8 7 81 8 84 9 82 10 83 11 85 12 7 13
REMARK SMILES IDX 4 14 5 15 87 16 6 17 86 18 2 19 1 20 3 21 14 22 15 23 16 24
REMARK SMILES IDX 17 26 18 27 19 28 80 29 20 30 79 31 21 32 22 33 23 34 73 35
REMARK SMILES IDX 24 36 78 37 72 38 74 39 25 40 77 41 71 42 70 43 26 45 58 46
REMARK SMILES IDX 38 47 57 48 39 49 42 50 56 51 75 52 40 53 41 54 55 56 76 57
REMARK SMILES IDX 43 58 27 59 28 60 36 61 29 62 35 63 37 64 34 65 30 66 31 67
REMARK SMILES IDX 32 68 33 69 59 70 60 71 68 72 61 73 67 74 69 75 66 76 62 77
REMARK SMILES IDX 63 78 64 79 65 80 44 81 45 82 53 83 46 84 52 85 54 86 51 87
REMARK SMILES IDX 47 88 48 89 49 90 50 91
REMARK H PARENT 11 6 15 25 74 44 42 55
REMARK Flexibility Score: inf
ROOT
ATOM      1  C   UNL     1      -9.066  -2.431  -0.272  1.00  0.00     0.042 C 
ENDROOT
BRANCH   1   2
ATOM      2  C   UNL     1      -8.283  -1.329   0.417  1.00  0.00     0.117 C 
BRANCH   2   3
ATOM      3  N   UNL     1      -6.947  -1.712   0.780  1.00  0.00    -0.355 N 
ATOM      4  C   UNL     1      -5.732  -1.266   0.387  1.00  0.00     0.230 C 
ATOM      5  O   UNL     1      -4.878  -1.419   1.276  1.00  0.00    -0.274 OA
ATOM      6  H   UNL     1      -6.909  -2.440   1.442  1.00  0.00     0.163 HD
BRANCH   4   7
ATOM      7  C   UNL     1      -5.343  -0.663  -1.042  1.00  0.00     0.077 C 
ATOM      8  C   UNL     1      -5.944  -1.496  -2.203  1.00  0.00     0.022 C 
ATOM      9  C   UNL     1      -5.896   0.785  -1.353  1.00  0.00     0.006 C 
ATOM     10  C   UNL     1      -7.169  -0.774  -2.755  1.00  0.00     0.002 C 
ATOM     11  C   UNL     1      -7.206   0.613  -2.146  1.00  0.00     0.005 C 
ATOM     12  C   UNL     1      -5.053   1.712  -2.258  1.00  0.00     0.009 C 
BRANCH   7  13
ATOM     13  C   UNL     1      -3.784  -0.755  -1.054  1.00  0.00    -0.032 A 
ATOM     14  C   UNL     1      -0.922  -0.945  -0.944  1.00  0.00    -0.045 A 
ATOM     15  C   UNL     1      -1.600   0.185  -0.473  1.00  0.00     0.004 A 
ATOM     16  C   UNL     1      -1.710  -2.002  -1.423  1.00  0.00     0.004 A 
ATOM     17  C   UNL     1      -2.997   0.253  -0.479  1.00  0.00     0.005 A 
ATOM     18  C   UNL     1      -3.111  -1.913  -1.470  1.00  0.00     0.005 A 
BRANCH  14  19
ATOM     19  C   UNL     1       0.604  -1.002  -0.990  1.00  0.00     0.013 C 
ATOM     20  C   UNL     1       1.299  -0.026  -0.025  1.00  0.00     0.012 C 
ATOM     21  C   UNL     1       1.183  -2.403  -0.743  1.00  0.00     0.012 C 
ENDBRANCH  14  19
ENDBRANCH   7  13
ENDBRANCH   4   7
ENDBRANCH   2   3
ENDBRANCH   1   2
BRANCH   1  22
ATOM     22  C   UNL     1      -9.823  -3.307   0.714  1.00  0.00     0.118 C 
BRANCH  22  23
ATOM     23  N   UNL     1     -10.876  -2.563   1.404  1.00  0.00    -0.352 N 
ATOM     24  C   UNL     1     -12.244  -2.702   1.349  1.00  0.00     0.251 C 
ATOM     25  H   UNL     1     -10.556  -1.850   2.002  1.00  0.00     0.163 HD
ATOM     26  O   UNL     1     -12.961  -1.822   1.802  1.00  0.00    -0.269 OA
BRANCH  24  27
ATOM     27  C   UNL     1     -12.828  -3.910   0.730  1.00  0.00     0.039 A 
ATOM     28  C   UNL     1     -13.967  -3.795  -0.072  1.00  0.00     0.014 A 
ATOM     29  C   UNL     1     -12.246  -5.158   0.949  1.00  0.00     0.014 A 
ATOM     30  C   UNL     1     -14.476  -4.927  -0.713  1.00  0.00     0.010 A 
ATOM     31  C   UNL     1     -12.684  -6.256   0.227  1.00  0.00     0.010 A 
ATOM     32  C   UNL     1     -13.815  -6.159  -0.598  1.00  0.00    -0.014 A 
BRANCH  32  33
ATOM     33  C   UNL     1     -14.296  -7.393  -1.266  1.00  0.00     0.031 A 
ATOM     34  C   UNL     1     -14.645  -8.586  -0.418  1.00  0.00     0.074 A 
ATOM     35  C   UNL     1     -14.298  -7.484  -2.609  1.00  0.00     0.049 A 
ATOM     36  N   UNL     1     -14.848  -9.829  -0.769  1.00  0.00    -0.248 NA
ATOM     37  C   UNL     1     -14.710  -8.352   1.033  1.00  0.00     0.031 C 
ATOM     38  C   UNL     1     -13.948  -6.404  -3.533  1.00  0.00     0.029 A 
ATOM     39  N   UNL     1     -14.576  -8.548  -3.430  1.00  0.00    -0.354 N 
ATOM     40  C   UNL     1     -15.021 -10.530   0.420  1.00  0.00     0.074 A 
ATOM     41  C   UNL     1     -14.821  -9.585   1.497  1.00  0.00     0.031 C 
ATOM     42  C   UNL     1     -14.040  -6.858  -4.793  1.00  0.00     0.029 A 
ATOM     43  C   UNL     1     -14.398  -8.273  -4.766  1.00  0.00     0.049 A 
ATOM     44  H   UNL     1     -14.874  -9.424  -3.095  1.00  0.00     0.167 HD
ATOM     45  C   UNL     1     -15.344 -11.836   0.594  1.00  0.00     0.034 A 
ATOM     46  C   UNL     1     -14.483  -9.080  -5.843  1.00  0.00     0.034 A 
ATOM     47  C   UNL     1     -15.564 -12.747  -0.501  1.00  0.00     0.049 A 
ATOM     48  C   UNL     1     -14.839 -10.530  -5.636  1.00  0.00     0.074 A 
ATOM     49  C   UNL     1     -15.946 -14.075  -0.458  1.00  0.00     0.029 A 
ATOM     50  N   UNL     1     -15.422 -12.418  -1.845  1.00  0.00    -0.354 N 
ATOM     51  N   UNL     1     -15.027 -11.180  -4.510  1.00  0.00    -0.248 NA
ATOM     52  C   UNL     1     -15.006 -11.352  -6.840  1.00  0.00     0.031 C 
ATOM     53  C   UNL     1     -15.973 -14.566  -1.768  1.00  0.00     0.029 A 
ATOM     54  C   UNL     1     -15.689 -13.523  -2.637  1.00  0.00     0.049 A 
ATOM     55  H   UNL     1     -15.169 -11.529  -2.184  1.00  0.00     0.167 HD
ATOM     56  C   UNL     1     -15.372 -12.479  -4.873  1.00  0.00     0.074 A 
ATOM     57  C   UNL     1     -15.363 -12.519  -6.322  1.00  0.00     0.031 C 
ATOM     58  C   UNL     1     -15.680 -13.539  -4.082  1.00  0.00     0.034 A 
BRANCH  45  59
ATOM     59  C   UNL     1     -15.443 -12.339   2.017  1.00  0.00     0.023 A 
ATOM     60  C   UNL     1     -16.344 -11.774   2.938  1.00  0.00     0.031 A 
ATOM     61  C   UNL     1     -14.578 -13.344   2.484  1.00  0.00     0.131 A 
ATOM     62  C   UNL     1     -16.278 -12.127   4.293  1.00  0.00     0.055 A 
ATOM     63  C   UNL     1     -14.591 -13.768   3.815  1.00  0.00     0.041 A 
ATOM     64  F   UNL     1     -13.681 -13.911   1.663  1.00  0.00    -0.206 F 
ATOM     65  C   UNL     1     -15.427 -13.142   4.735  1.00  0.00     0.022 A 
BRANCH  62  66
ATOM     66  S   UNL     1     -17.172 -11.102   5.494  1.00  0.00     0.124 S 
ATOM     67  O   UNL     1     -16.604  -9.781   5.233  1.00  0.00    -0.237 OA
ATOM     68  O   UNL     1     -18.562 -11.289   5.095  1.00  0.00    -0.237 OA
ATOM     69  O   UNL     1     -16.807 -11.685   6.783  1.00  0.00    -0.744 OA
ENDBRANCH  62  66
ENDBRANCH  45  59
BRANCH  46  70
ATOM     70  C   UNL     1     -14.220  -8.536  -7.205  1.00  0.00     0.023 A 
ATOM     71  C   UNL     1     -15.247  -8.435  -8.155  1.00  0.00     0.031 A 
ATOM     72  C   UNL     1     -12.932  -8.109  -7.578  1.00  0.00     0.131 A 
ATOM     73  C   UNL     1     -14.966  -7.952  -9.442  1.00  0.00     0.055 A 
ATOM     74  C   UNL     1     -12.667  -7.584  -8.844  1.00  0.00     0.041 A 
ATOM     75  F   UNL     1     -11.916  -8.174  -6.703  1.00  0.00    -0.206 F 
ATOM     76  C   UNL     1     -13.685  -7.512  -9.789  1.00  0.00     0.022 A 
BRANCH  73  77
ATOM     77  S   UNL     1     -16.289  -7.958 -10.682  1.00  0.00     0.124 S 
ATOM     78  O   UNL     1     -16.626  -9.376 -10.749  1.00  0.00    -0.237 OA
ATOM     79  O   UNL     1     -17.286  -7.089 -10.066  1.00  0.00    -0.237 OA
ATOM     80  O   UNL     1     -15.642  -7.412 -11.873  1.00  0.00    -0.744 OA
ENDBRANCH  73  77
ENDBRANCH  46  70
BRANCH  58  81
ATOM     81  C   UNL     1     -16.107 -14.812  -4.767  1.00  0.00     0.023 A 
ATOM     82  C   UNL     1     -15.211 -15.602  -5.506  1.00  0.00     0.031 A 
ATOM     83  C   UNL     1     -17.438 -15.254  -4.645  1.00  0.00     0.131 A 
ATOM     84  C   UNL     1     -15.666 -16.776  -6.125  1.00  0.00     0.055 A 
ATOM     85  C   UNL     1     -17.870 -16.450  -5.216  1.00  0.00     0.041 A 
ATOM     86  F   UNL     1     -18.335 -14.536  -3.950  1.00  0.00    -0.206 F 
ATOM     87  C   UNL     1     -16.984 -17.215  -5.968  1.00  0.00     0.022 A 
BRANCH  84  88
ATOM     88  S   UNL     1     -14.526 -17.699  -7.193  1.00  0.00     0.124 S 
ATOM     89  O   UNL     1     -14.200 -16.708  -8.214  1.00  0.00    -0.237 OA
ATOM     90  O   UNL     1     -13.448 -18.047  -6.274  1.00  0.00    -0.237 OA
ATOM     91  O   UNL     1     -15.331 -18.827  -7.659  1.00  0.00    -0.744 OA
ENDBRANCH  84  88
ENDBRANCH  58  81
ENDBRANCH  32  33
ENDBRANCH  24  27
ENDBRANCH  22  23
ENDBRANCH   1  22
TORSDOF 15
