REMARK SMILES CC1(C)[C@H](C(=O)NCCCNC(=O)c2ccc(-c3c4nc(c(-c5cc(S(=O)(=O)[O-])ccc5F)c5ccc([nH]5)c(-c5cc(S(=O)(=O)[O-])ccc5F)c5nc(c(-c6cc(S(=O)(=O)[O-])ccc6F)c6ccc3[nH]6)C=C5)C=C4)cc2)[C@H]1C(=O)Nc1cccc2[nH]ccc12
REMARK SMILES IDX 9 1 8 2 7 3 5 4 6 5 4 7 1 8 2 9 3 10 77 11 78 12 79 13 80 14
REMARK SMILES IDX 81 16 82 17 89 18 83 19 85 20 88 21 84 22 86 23 87 24 10 26
REMARK SMILES IDX 11 27 12 28 13 30 14 31 15 32 76 33 16 34 75 35 17 36 18 37
REMARK SMILES IDX 19 38 69 39 20 40 74 41 68 42 70 43 21 44 73 45 67 46 66 47
REMARK SMILES IDX 22 49 54 50 34 51 53 52 35 53 38 54 52 55 71 56 36 57 37 58
REMARK SMILES IDX 51 60 72 61 39 62 23 63 24 64 32 65 25 66 31 67 33 68 30 69
REMARK SMILES IDX 26 70 27 71 28 72 29 73 55 74 56 75 64 76 57 77 63 78 65 79
REMARK SMILES IDX 62 80 58 81 59 82 60 83 61 84 40 85 41 86 49 87 42 88 48 89
REMARK SMILES IDX 50 90 47 91 43 92 44 93 45 94 46 95
REMARK H PARENT 7 6 80 15 86 25 11 29 70 48 38 59
REMARK Flexibility Score: inf
ROOT
ATOM      1  C   UNL     1      -0.652   4.059  -0.657  1.00  0.00     0.042 C 
ENDROOT
BRANCH   1   2
ATOM      2  C   UNL     1      -1.820   3.183  -0.214  1.00  0.00     0.117 C 
BRANCH   2   3
ATOM      3  N   UNL     1      -2.163   2.199  -1.214  1.00  0.00    -0.356 N 
ATOM      4  C   UNL     1      -1.817   0.901  -1.441  1.00  0.00     0.224 C 
ATOM      5  O   UNL     1      -2.362   0.381  -2.420  1.00  0.00    -0.275 OA
ATOM      6  H   UNL     1      -2.792   2.546  -1.887  1.00  0.00     0.163 HD
BRANCH   4   7
ATOM      7  C   UNL     1      -0.890   0.038  -0.659  1.00  0.00     0.098 C 
ATOM      8  C   UNL     1       1.561  -0.458  -0.323  1.00  0.00     0.013 C 
ATOM      9  C   UNL     1       0.388   0.377   0.120  1.00  0.00    -0.011 C 
ATOM     10  C   UNL     1       0.905   1.649   0.731  1.00  0.00     0.013 C 
ATOM     11  C   UNL     1      -0.885  -0.148   0.813  1.00  0.00     0.098 C 
BRANCH  11  12
ATOM     12  C   UNL     1      -0.913  -1.381   1.660  1.00  0.00     0.228 C 
ATOM     13  O   UNL     1      -0.878  -1.215   2.880  1.00  0.00    -0.274 OA
ATOM     14  N   UNL     1      -1.253  -2.627   1.192  1.00  0.00    -0.325 N 
ATOM     15  H   UNL     1      -1.865  -3.139   1.769  1.00  0.00     0.169 HD
BRANCH  14  16
ATOM     16  C   UNL     1      -0.858  -3.276   0.020  1.00  0.00     0.050 A 
ATOM     17  C   UNL     1      -1.857  -3.804  -0.806  1.00  0.00     0.027 A 
ATOM     18  C   UNL     1       0.492  -3.565  -0.286  1.00  0.00     0.023 A 
ATOM     19  C   UNL     1      -1.530  -4.413  -2.016  1.00  0.00     0.004 A 
ATOM     20  C   UNL     1       0.789  -4.109  -1.538  1.00  0.00     0.047 A 
ATOM     21  C   UNL     1       1.731  -3.496   0.418  1.00  0.00     0.030 A 
ATOM     22  C   UNL     1      -0.202  -4.517  -2.436  1.00  0.00     0.027 A 
ATOM     23  N   UNL     1       2.161  -4.119  -1.664  1.00  0.00    -0.361 N 
ATOM     24  C   UNL     1       2.742  -3.798  -0.467  1.00  0.00     0.083 A 
ATOM     25  H   UNL     1       2.651  -4.325  -2.492  1.00  0.00     0.166 HD
ENDBRANCH  14  16
ENDBRANCH  11  12
ENDBRANCH   4   7
ENDBRANCH   2   3
ENDBRANCH   1   2
BRANCH   1  26
ATOM     26  C   UNL     1      -1.033   5.175  -1.620  1.00  0.00     0.118 C 
BRANCH  26  27
ATOM     27  N   UNL     1      -1.831   6.208  -0.978  1.00  0.00    -0.352 N 
ATOM     28  C   UNL     1      -1.518   7.504  -0.650  1.00  0.00     0.251 C 
ATOM     29  H   UNL     1      -2.746   5.932  -0.740  1.00  0.00     0.163 HD
ATOM     30  O   UNL     1      -2.262   8.114   0.115  1.00  0.00    -0.269 OA
BRANCH  28  31
ATOM     31  C   UNL     1      -0.306   8.166  -1.188  1.00  0.00     0.039 A 
ATOM     32  C   UNL     1       0.393   9.063  -0.373  1.00  0.00     0.014 A 
ATOM     33  C   UNL     1       0.114   7.964  -2.506  1.00  0.00     0.014 A 
ATOM     34  C   UNL     1       1.534   9.711  -0.860  1.00  0.00     0.010 A 
ATOM     35  C   UNL     1       1.298   8.541  -2.960  1.00  0.00     0.010 A 
ATOM     36  C   UNL     1       2.014   9.434  -2.149  1.00  0.00    -0.014 A 
BRANCH  36  37
ATOM     37  C   UNL     1       3.234  10.095  -2.688  1.00  0.00     0.031 A 
ATOM     38  C   UNL     1       3.127  10.983  -3.901  1.00  0.00     0.074 A 
ATOM     39  C   UNL     1       4.436   9.854  -2.128  1.00  0.00     0.049 A 
ATOM     40  N   UNL     1       4.077  11.551  -4.600  1.00  0.00    -0.248 NA
ATOM     41  C   UNL     1       1.772  11.240  -4.413  1.00  0.00     0.031 C 
ATOM     42  C   UNL     1       4.671   8.999  -0.963  1.00  0.00     0.029 A 
ATOM     43  N   UNL     1       5.691  10.297  -2.469  1.00  0.00    -0.354 N 
ATOM     44  C   UNL     1       3.436  12.218  -5.640  1.00  0.00     0.074 A 
ATOM     45  C   UNL     1       2.023  11.929  -5.515  1.00  0.00     0.031 C 
ATOM     46  C   UNL     1       5.983   8.999  -0.673  1.00  0.00     0.029 A 
ATOM     47  C   UNL     1       6.691   9.807  -1.661  1.00  0.00     0.049 A 
ATOM     48  H   UNL     1       5.859  10.909  -3.222  1.00  0.00     0.167 HD
ATOM     49  C   UNL     1       3.971  13.019  -6.594  1.00  0.00     0.034 A 
ATOM     50  C   UNL     1       8.028   9.975  -1.720  1.00  0.00     0.034 A 
ATOM     51  C   UNL     1       5.379  13.315  -6.694  1.00  0.00     0.049 A 
ATOM     52  C   UNL     1       8.604  10.840  -2.816  1.00  0.00     0.074 A 
ATOM     53  C   UNL     1       6.027  14.135  -7.601  1.00  0.00     0.029 A 
ATOM     54  N   UNL     1       6.359  12.802  -5.853  1.00  0.00    -0.354 N 
ATOM     55  N   UNL     1       7.979  11.481  -3.777  1.00  0.00    -0.248 NA
ATOM     56  C   UNL     1      10.062  11.013  -2.828  1.00  0.00     0.031 C 
ATOM     57  C   UNL     1       7.401  14.072  -7.348  1.00  0.00     0.029 A 
ATOM     58  C   UNL     1       7.606  13.273  -6.234  1.00  0.00     0.049 A 
ATOM     59  H   UNL     1       6.193  12.194  -5.098  1.00  0.00     0.167 HD
ATOM     60  C   UNL     1       8.967  12.166  -4.479  1.00  0.00     0.074 A 
ATOM     61  C   UNL     1      10.224  11.869  -3.826  1.00  0.00     0.031 C 
ATOM     62  C   UNL     1       8.848  12.973  -5.564  1.00  0.00     0.034 A 
BRANCH  49  63
ATOM     63  C   UNL     1       3.029  13.618  -7.612  1.00  0.00     0.023 A 
ATOM     64  C   UNL     1       2.016  14.518  -7.237  1.00  0.00     0.031 A 
ATOM     65  C   UNL     1       3.135  13.277  -8.972  1.00  0.00     0.131 A 
ATOM     66  C   UNL     1       1.107  14.990  -8.195  1.00  0.00     0.055 A 
ATOM     67  C   UNL     1       2.278  13.815  -9.935  1.00  0.00     0.041 A 
ATOM     68  F   UNL     1       4.069  12.408  -9.389  1.00  0.00    -0.206 F 
ATOM     69  C   UNL     1       1.247  14.666  -9.546  1.00  0.00     0.022 A 
BRANCH  66  70
ATOM     70  S   UNL     1      -0.339  15.927  -7.630  1.00  0.00     0.124 S 
ATOM     71  O   UNL     1      -1.001  14.952  -6.766  1.00  0.00    -0.237 OA
ATOM     72  O   UNL     1       0.268  17.069  -6.956  1.00  0.00    -0.237 OA
ATOM     73  O   UNL     1      -1.051  16.238  -8.867  1.00  0.00    -0.744 OA
ENDBRANCH  66  70
ENDBRANCH  49  63
BRANCH  50  74
ATOM     74  C   UNL     1       8.927   9.311  -0.731  1.00  0.00     0.023 A 
ATOM     75  C   UNL     1       9.737  10.070   0.130  1.00  0.00     0.031 A 
ATOM     76  C   UNL     1       9.046   7.911  -0.677  1.00  0.00     0.131 A 
ATOM     77  C   UNL     1      10.673   9.432   0.957  1.00  0.00     0.055 A 
ATOM     78  C   UNL     1       9.934   7.277   0.195  1.00  0.00     0.041 A 
ATOM     79  F   UNL     1       8.295   7.134  -1.475  1.00  0.00    -0.206 F 
ATOM     80  C   UNL     1      10.768   8.040   1.006  1.00  0.00     0.022 A 
BRANCH  77  81
ATOM     81  S   UNL     1      11.852  10.456   1.882  1.00  0.00     0.124 S 
ATOM     82  O   UNL     1      12.463  11.239   0.814  1.00  0.00    -0.237 OA
ATOM     83  O   UNL     1      10.972  11.183   2.790  1.00  0.00    -0.237 OA
ATOM     84  O   UNL     1      12.728   9.474   2.517  1.00  0.00    -0.744 OA
ENDBRANCH  77  81
ENDBRANCH  50  74
BRANCH  62  85
ATOM     85  C   UNL     1      10.103  13.644  -6.065  1.00  0.00     0.023 A 
ATOM     86  C   UNL     1      11.154  12.915  -6.648  1.00  0.00     0.031 A 
ATOM     87  C   UNL     1      10.246  15.039  -5.952  1.00  0.00     0.131 A 
ATOM     88  C   UNL     1      12.323  13.578  -7.050  1.00  0.00     0.055 A 
ATOM     89  C   UNL     1      11.386  15.700  -6.408  1.00  0.00     0.041 A 
ATOM     90  F   UNL     1       9.273  15.783  -5.402  1.00  0.00    -0.206 F 
ATOM     91  C   UNL     1      12.439  14.967  -6.950  1.00  0.00     0.022 A 
BRANCH  88  92
ATOM     92  S   UNL     1      13.728  12.590  -7.633  1.00  0.00     0.124 S 
ATOM     93  O   UNL     1      14.002  11.741  -6.479  1.00  0.00    -0.237 OA
ATOM     94  O   UNL     1      13.172  11.916  -8.802  1.00  0.00    -0.237 OA
ATOM     95  O   UNL     1      14.753  13.591  -7.925  1.00  0.00    -0.744 OA
ENDBRANCH  88  92
ENDBRANCH  62  85
ENDBRANCH  36  37
ENDBRANCH  28  31
ENDBRANCH  26  27
ENDBRANCH   1  26
TORSDOF 15
