REMARK SMILES COc1cc(F)ccc1NCC(C)(C)C(=O)NCCCNC(=O)c1ccc(-c2c3nc(c(-c4cc(S(=O)(=O)[O-])ccc4F)c4ccc([nH]4)c(-c4cc(S(=O)(=O)[O-])ccc4F)c4nc(c(-c5cc(S(=O)(=O)[O-])ccc5F)c5ccc2[nH]5)C=C4)C=C3)cc1
REMARK SMILES IDX 18 1 17 2 15 3 16 4 12 6 13 7 14 8 11 9 10 10 9 12 3 13 4 14
REMARK SMILES IDX 5 15 8 16 6 17 7 18 2 19 1 20 19 21 20 22 21 23 22 24 23 26
REMARK SMILES IDX 24 27 25 28 86 29 26 30 85 31 27 32 28 33 29 34 79 35 30 36
REMARK SMILES IDX 84 37 78 38 80 39 31 40 83 41 77 42 76 43 32 45 64 46 44 47
REMARK SMILES IDX 63 48 45 49 48 50 62 51 81 52 46 53 47 54 61 56 82 57 49 58
REMARK SMILES IDX 33 59 34 60 42 61 35 62 41 63 43 64 40 65 36 66 37 67 38 68
REMARK SMILES IDX 39 69 65 70 66 71 74 72 67 73 73 74 75 75 72 76 68 77 69 78
REMARK SMILES IDX 70 79 71 80 50 81 51 82 59 83 52 84 58 85 60 86 57 87 53 88
REMARK SMILES IDX 54 89 55 90 56 91
REMARK H PARENT 17 5 10 11 21 25 80 44 48 55
REMARK Flexibility Score: inf
ROOT
ATOM      1  C   UNL     1      -3.577   5.988  -3.291  1.00  0.00     0.117 C 
ENDROOT
BRANCH   1   2
ATOM      2  N   UNL     1      -2.320   5.813  -2.587  1.00  0.00    -0.356 N 
ATOM      3  C   UNL     1      -2.020   5.421  -1.319  1.00  0.00     0.227 C 
ATOM      4  O   UNL     1      -0.881   5.711  -0.943  1.00  0.00    -0.274 OA
ATOM      5  H   UNL     1      -1.528   6.018  -3.134  1.00  0.00     0.163 HD
BRANCH   3   6
ATOM      6  C   UNL     1      -3.046   4.730  -0.401  1.00  0.00     0.061 C 
ATOM      7  C   UNL     1      -3.720   3.518  -1.068  1.00  0.00     0.023 C 
ATOM      8  C   UNL     1      -4.094   5.773   0.039  1.00  0.00     0.023 C 
BRANCH   6   9
ATOM      9  C   UNL     1      -2.345   4.247   0.904  1.00  0.00     0.129 C 
BRANCH   9  10
ATOM     10  N   UNL     1      -1.339   3.217   0.696  1.00  0.00    -0.381 N 
ATOM     11  H   UNL     1      -1.641   2.378   0.278  1.00  0.00     0.160 HD
BRANCH  10  12
ATOM     12  C   UNL     1       0.006   3.300   1.031  1.00  0.00     0.077 A 
ATOM     13  C   UNL     1       0.871   2.238   0.657  1.00  0.00     0.144 A 
ATOM     14  C   UNL     1       2.231   2.276   0.981  1.00  0.00     0.087 A 
ATOM     15  C   UNL     1       2.734   3.358   1.691  1.00  0.00     0.127 A 
ATOM     16  C   UNL     1       0.558   4.371   1.747  1.00  0.00     0.032 A 
ATOM     17  F   UNL     1       4.037   3.394   2.002  1.00  0.00    -0.207 F 
ATOM     18  C   UNL     1       1.914   4.405   2.077  1.00  0.00     0.041 A 
BRANCH  13  19
ATOM     19  O   UNL     1       0.288   1.228  -0.080  1.00  0.00    -0.494 OA
ATOM     20  C   UNL     1       0.904  -0.049   0.021  1.00  0.00     0.278 C 
ENDBRANCH  13  19
ENDBRANCH  10  12
ENDBRANCH   9  10
ENDBRANCH   6   9
ENDBRANCH   3   6
ENDBRANCH   1   2
BRANCH   1  21
ATOM     21  C   UNL     1      -3.918   7.464  -3.459  1.00  0.00     0.042 C 
BRANCH  21  22
ATOM     22  C   UNL     1      -2.958   8.216  -4.373  1.00  0.00     0.118 C 
BRANCH  22  23
ATOM     23  N   UNL     1      -2.973   7.702  -5.736  1.00  0.00    -0.352 N 
ATOM     24  C   UNL     1      -3.368   8.308  -6.903  1.00  0.00     0.251 C 
ATOM     25  H   UNL     1      -2.650   6.777  -5.836  1.00  0.00     0.163 HD
ATOM     26  O   UNL     1      -3.521   7.625  -7.914  1.00  0.00    -0.269 OA
BRANCH  24  27
ATOM     27  C   UNL     1      -3.629   9.763  -6.937  1.00  0.00     0.039 A 
ATOM     28  C   UNL     1      -4.730  10.239  -7.652  1.00  0.00     0.014 A 
ATOM     29  C   UNL     1      -2.786  10.658  -6.272  1.00  0.00     0.014 A 
ATOM     30  C   UNL     1      -5.027  11.604  -7.635  1.00  0.00     0.010 A 
ATOM     31  C   UNL     1      -3.135  12.001  -6.180  1.00  0.00     0.010 A 
ATOM     32  C   UNL     1      -4.259  12.490  -6.861  1.00  0.00    -0.014 A 
BRANCH  32  33
ATOM     33  C   UNL     1      -4.619  13.927  -6.746  1.00  0.00     0.031 A 
ATOM     34  C   UNL     1      -3.664  14.987  -7.226  1.00  0.00     0.074 A 
ATOM     35  C   UNL     1      -5.783  14.278  -6.163  1.00  0.00     0.049 A 
ATOM     36  N   UNL     1      -3.767  16.288  -7.141  1.00  0.00    -0.248 NA
ATOM     37  C   UNL     1      -2.420  14.525  -7.863  1.00  0.00     0.031 C 
ATOM     38  C   UNL     1      -6.777  13.342  -5.632  1.00  0.00     0.029 A 
ATOM     39  N   UNL     1      -6.331  15.513  -5.919  1.00  0.00    -0.354 N 
ATOM     40  C   UNL     1      -2.604  16.799  -7.706  1.00  0.00     0.074 A 
ATOM     41  C   UNL     1      -1.783  15.667  -8.076  1.00  0.00     0.031 C 
ATOM     42  C   UNL     1      -7.830  14.034  -5.168  1.00  0.00     0.029 A 
ATOM     43  C   UNL     1      -7.565  15.461  -5.314  1.00  0.00     0.049 A 
ATOM     44  H   UNL     1      -5.882  16.357  -6.155  1.00  0.00     0.167 HD
ATOM     45  C   UNL     1      -2.265  18.092  -7.920  1.00  0.00     0.034 A 
ATOM     46  C   UNL     1      -8.389  16.449  -4.911  1.00  0.00     0.034 A 
ATOM     47  C   UNL     1      -3.101  19.211  -7.566  1.00  0.00     0.049 A 
ATOM     48  C   UNL     1      -7.972  17.880  -5.121  1.00  0.00     0.074 A 
ATOM     49  C   UNL     1      -2.868  20.558  -7.781  1.00  0.00     0.029 A 
ATOM     50  N   UNL     1      -4.328  19.117  -6.924  1.00  0.00    -0.354 N 
ATOM     51  N   UNL     1      -6.870  18.343  -5.664  1.00  0.00    -0.248 NA
ATOM     52  C   UNL     1      -8.903  18.920  -4.663  1.00  0.00     0.031 C 
ATOM     53  C   UNL     1      -3.918  21.280  -7.210  1.00  0.00     0.029 A 
ATOM     54  C   UNL     1      -4.847  20.383  -6.708  1.00  0.00     0.049 A 
ATOM     55  H   UNL     1      -4.765  18.275  -6.661  1.00  0.00     0.167 HD
ATOM     56  C   UNL     1      -6.988  19.729  -5.636  1.00  0.00     0.074 A 
ATOM     57  C   UNL     1      -8.267  20.027  -5.024  1.00  0.00     0.031 C 
ATOM     58  C   UNL     1      -6.118  20.668  -6.085  1.00  0.00     0.034 A 
BRANCH  45  59
ATOM     59  C   UNL     1      -0.930  18.372  -8.560  1.00  0.00     0.023 A 
ATOM     60  C   UNL     1      -0.664  18.012  -9.892  1.00  0.00     0.031 A 
ATOM     61  C   UNL     1       0.077  19.038  -7.841  1.00  0.00     0.131 A 
ATOM     62  C   UNL     1       0.593  18.283 -10.452  1.00  0.00     0.055 A 
ATOM     63  C   UNL     1       1.303  19.364  -8.424  1.00  0.00     0.041 A 
ATOM     64  F   UNL     1      -0.117  19.390  -6.560  1.00  0.00    -0.206 F 
ATOM     65  C   UNL     1       1.569  18.980  -9.735  1.00  0.00     0.022 A 
BRANCH  62  66
ATOM     66  S   UNL     1       0.963  17.644 -12.107  1.00  0.00     0.124 S 
ATOM     67  O   UNL     1       0.901  16.201 -11.885  1.00  0.00    -0.237 OA
ATOM     68  O   UNL     1      -0.110  18.212 -12.914  1.00  0.00    -0.237 OA
ATOM     69  O   UNL     1       2.298  18.169 -12.386  1.00  0.00    -0.744 OA
ENDBRANCH  62  66
ENDBRANCH  45  59
BRANCH  46  70
ATOM     70  C   UNL     1      -9.690  16.113  -4.268  1.00  0.00     0.023 A 
ATOM     71  C   UNL     1     -10.905  16.366  -4.923  1.00  0.00     0.031 A 
ATOM     72  C   UNL     1      -9.735  15.515  -2.996  1.00  0.00     0.131 A 
ATOM     73  C   UNL     1     -12.117  16.038  -4.297  1.00  0.00     0.055 A 
ATOM     74  C   UNL     1     -10.941  15.154  -2.394  1.00  0.00     0.041 A 
ATOM     75  F   UNL     1      -8.599  15.243  -2.334  1.00  0.00    -0.206 F 
ATOM     76  C   UNL     1     -12.143  15.420  -3.043  1.00  0.00     0.022 A 
BRANCH  73  77
ATOM     77  S   UNL     1     -13.672  16.448  -5.136  1.00  0.00     0.124 S 
ATOM     78  O   UNL     1     -13.615  17.905  -5.168  1.00  0.00    -0.237 OA
ATOM     79  O   UNL     1     -13.515  15.770  -6.418  1.00  0.00    -0.237 OA
ATOM     80  O   UNL     1     -14.692  15.881  -4.256  1.00  0.00    -0.744 OA
ENDBRANCH  73  77
ENDBRANCH  46  70
BRANCH  58  81
ATOM     81  C   UNL     1      -6.525  22.113  -5.967  1.00  0.00     0.023 A 
ATOM     82  C   UNL     1      -6.570  22.766  -4.725  1.00  0.00     0.031 A 
ATOM     83  C   UNL     1      -6.809  22.860  -7.125  1.00  0.00     0.131 A 
ATOM     84  C   UNL     1      -6.913  24.125  -4.667  1.00  0.00     0.055 A 
ATOM     85  C   UNL     1      -7.101  24.222  -7.064  1.00  0.00     0.041 A 
ATOM     86  F   UNL     1      -6.776  22.281  -8.336  1.00  0.00    -0.206 F 
ATOM     87  C   UNL     1      -7.159  24.861  -5.829  1.00  0.00     0.022 A 
BRANCH  84  88
ATOM     88  S   UNL     1      -7.062  24.918  -3.043  1.00  0.00     0.124 S 
ATOM     89  O   UNL     1      -8.184  24.192  -2.455  1.00  0.00    -0.237 OA
ATOM     90  O   UNL     1      -5.756  24.665  -2.445  1.00  0.00    -0.237 OA
ATOM     91  O   UNL     1      -7.332  26.318  -3.368  1.00  0.00    -0.744 OA
ENDBRANCH  84  88
ENDBRANCH  58  81
ENDBRANCH  32  33
ENDBRANCH  24  27
ENDBRANCH  22  23
ENDBRANCH  21  22
ENDBRANCH   1  21
TORSDOF 17
