REMARK SMILES O=C(NCCCNC(=O)c1cc(=O)[nH]c2c(Br)cccc12)c1ccc(-c2c3nc(c(-c4cc(S(=O)(=O)[O-])ccc4F)c4ccc([nH]4)c(-c4cc(S(=O)(=O)[O-])ccc4F)c4nc(c(-c5cc(S(=O)(=O)[O-])ccc5F)c5ccc2[nH]5)C=C4)C=C3)cc1
REMARK SMILES IDX 1 1 2 2 3 3 22 5 23 6 84 7 24 8 83 9 25 10 26 11 27 12 77 13
REMARK SMILES IDX 28 14 82 15 76 16 78 17 29 18 81 19 75 20 74 21 30 23 62 24
REMARK SMILES IDX 42 25 61 26 43 27 46 28 60 29 79 30 44 31 45 32 59 34 80 35
REMARK SMILES IDX 47 36 31 37 32 38 40 39 33 40 39 41 41 42 38 43 34 44 35 45
REMARK SMILES IDX 36 46 37 47 63 48 64 49 72 50 65 51 71 52 73 53 70 54 66 55
REMARK SMILES IDX 67 56 68 57 69 58 48 59 49 60 57 61 50 62 56 63 58 64 55 65
REMARK SMILES IDX 51 66 52 67 53 68 54 69 4 70 5 71 6 72 7 73 8 74 9 76 10 77
REMARK SMILES IDX 11 78 21 79 12 80 15 81 20 82 13 83 14 84 16 85 19 86 17 88
REMARK SMILES IDX 18 89
REMARK H PARENT 3 4 78 22 46 33 7 75 14 87
REMARK Flexibility Score: inf
ROOT
ATOM      1  O   UNL     1       1.103   0.182  -0.077  1.00  0.00    -0.269 OA
ATOM      2  C   UNL     1       2.325   0.105   0.025  1.00  0.00     0.251 C 
ATOM      3  N   UNL     1       3.093   1.172  -0.373  1.00  0.00    -0.352 N 
ATOM      4  H   UNL     1       2.587   1.991  -0.576  1.00  0.00     0.163 HD
ENDROOT
BRANCH   2   5
ATOM      5  C   UNL     1       2.949  -1.125   0.560  1.00  0.00     0.039 A 
ATOM      6  C   UNL     1       2.372  -2.360   0.253  1.00  0.00     0.014 A 
ATOM      7  C   UNL     1       4.066  -1.072   1.398  1.00  0.00     0.014 A 
ATOM      8  C   UNL     1       2.934  -3.534   0.760  1.00  0.00     0.010 A 
ATOM      9  C   UNL     1       4.691  -2.246   1.806  1.00  0.00     0.010 A 
ATOM     10  C   UNL     1       4.113  -3.490   1.525  1.00  0.00    -0.014 A 
BRANCH  10  11
ATOM     11  C   UNL     1       4.717  -4.733   2.071  1.00  0.00     0.031 A 
ATOM     12  C   UNL     1       4.851  -4.928   3.558  1.00  0.00     0.074 A 
ATOM     13  C   UNL     1       5.164  -5.683   1.227  1.00  0.00     0.049 A 
ATOM     14  N   UNL     1       5.320  -5.957   4.215  1.00  0.00    -0.248 NA
ATOM     15  C   UNL     1       4.433  -3.811   4.421  1.00  0.00     0.031 C 
ATOM     16  C   UNL     1       5.151  -5.578  -0.232  1.00  0.00     0.029 A 
ATOM     17  N   UNL     1       5.706  -6.921   1.468  1.00  0.00    -0.354 N 
ATOM     18  C   UNL     1       5.250  -5.613   5.560  1.00  0.00     0.074 A 
ATOM     19  C   UNL     1       4.785  -4.247   5.621  1.00  0.00     0.031 C 
ATOM     20  C   UNL     1       5.611  -6.722  -0.756  1.00  0.00     0.029 A 
ATOM     21  C   UNL     1       5.997  -7.628   0.325  1.00  0.00     0.049 A 
ATOM     22  H   UNL     1       5.870  -7.270   2.374  1.00  0.00     0.167 HD
ATOM     23  C   UNL     1       5.503  -6.379   6.648  1.00  0.00     0.034 A 
ATOM     24  C   UNL     1       6.507  -8.866   0.161  1.00  0.00     0.034 A 
ATOM     25  C   UNL     1       5.951  -7.746   6.571  1.00  0.00     0.049 A 
ATOM     26  C   UNL     1       6.786  -9.706   1.380  1.00  0.00     0.074 A 
ATOM     27  C   UNL     1       6.186  -8.627   7.610  1.00  0.00     0.029 A 
ATOM     28  N   UNL     1       6.234  -8.431   5.397  1.00  0.00    -0.354 N 
ATOM     29  N   UNL     1       6.614  -9.404   2.646  1.00  0.00    -0.248 NA
ATOM     30  C   UNL     1       7.311 -11.059   1.154  1.00  0.00     0.031 C 
ATOM     31  C   UNL     1       6.680  -9.816   7.071  1.00  0.00     0.029 A 
ATOM     32  C   UNL     1       6.676  -9.712   5.689  1.00  0.00     0.049 A 
ATOM     33  H   UNL     1       6.135  -8.062   4.490  1.00  0.00     0.167 HD
ATOM     34  C   UNL     1       7.003 -10.529   3.368  1.00  0.00     0.074 A 
ATOM     35  C   UNL     1       7.376 -11.534   2.392  1.00  0.00     0.031 C 
ATOM     36  C   UNL     1       7.059 -10.708   4.713  1.00  0.00     0.034 A 
BRANCH  23  37
ATOM     37  C   UNL     1       5.270  -5.780   8.016  1.00  0.00     0.023 A 
ATOM     38  C   UNL     1       6.325  -5.692   8.942  1.00  0.00     0.031 A 
ATOM     39  C   UNL     1       3.983  -5.394   8.441  1.00  0.00     0.131 A 
ATOM     40  C   UNL     1       6.071  -5.258  10.250  1.00  0.00     0.055 A 
ATOM     41  C   UNL     1       3.746  -4.909   9.727  1.00  0.00     0.041 A 
ATOM     42  F   UNL     1       2.937  -5.464   7.601  1.00  0.00    -0.206 F 
ATOM     43  C   UNL     1       4.791  -4.853  10.643  1.00  0.00     0.022 A 
BRANCH  40  44
ATOM     44  S   UNL     1       7.370  -5.271  11.514  1.00  0.00     0.124 S 
ATOM     45  O   UNL     1       7.432  -3.862  11.895  1.00  0.00    -0.237 OA
ATOM     46  O   UNL     1       6.806  -6.165  12.521  1.00  0.00    -0.237 OA
ATOM     47  O   UNL     1       8.543  -5.775  10.808  1.00  0.00    -0.744 OA
ENDBRANCH  40  44
ENDBRANCH  23  37
BRANCH  24  48
ATOM     48  C   UNL     1       6.696  -9.382  -1.227  1.00  0.00     0.023 A 
ATOM     49  C   UNL     1       7.562  -8.729  -2.125  1.00  0.00     0.031 A 
ATOM     50  C   UNL     1       5.904 -10.432  -1.720  1.00  0.00     0.131 A 
ATOM     51  C   UNL     1       7.542  -9.068  -3.483  1.00  0.00     0.055 A 
ATOM     52  C   UNL     1       5.949 -10.822  -3.060  1.00  0.00     0.041 A 
ATOM     53  F   UNL     1       5.053 -11.077  -0.907  1.00  0.00    -0.206 F 
ATOM     54  C   UNL     1       6.754 -10.123  -3.954  1.00  0.00     0.022 A 
BRANCH  51  55
ATOM     55  S   UNL     1       8.410  -8.046  -4.706  1.00  0.00     0.124 S 
ATOM     56  O   UNL     1       9.276  -9.019  -5.362  1.00  0.00    -0.237 OA
ATOM     57  O   UNL     1       7.300  -7.543  -5.512  1.00  0.00    -0.237 OA
ATOM     58  O   UNL     1       9.090  -7.041  -3.895  1.00  0.00    -0.744 OA
ENDBRANCH  51  55
ENDBRANCH  24  48
BRANCH  36  59
ATOM     59  C   UNL     1       7.574 -12.028   5.244  1.00  0.00     0.023 A 
ATOM     60  C   UNL     1       6.759 -12.833   6.064  1.00  0.00     0.031 A 
ATOM     61  C   UNL     1       8.913 -12.418   5.057  1.00  0.00     0.131 A 
ATOM     62  C   UNL     1       7.301 -13.959   6.699  1.00  0.00     0.055 A 
ATOM     63  C   UNL     1       9.431 -13.573   5.644  1.00  0.00     0.041 A 
ATOM     64  F   UNL     1       9.739 -11.678   4.299  1.00  0.00    -0.206 F 
ATOM     65  C   UNL     1       8.628 -14.340   6.482  1.00  0.00     0.022 A 
BRANCH  62  66
ATOM     66  S   UNL     1       6.337 -14.912   7.905  1.00  0.00     0.124 S 
ATOM     67  O   UNL     1       6.292 -16.232   7.280  1.00  0.00    -0.237 OA
ATOM     68  O   UNL     1       7.166 -14.817   9.104  1.00  0.00    -0.237 OA
ATOM     69  O   UNL     1       5.059 -14.210   7.969  1.00  0.00    -0.744 OA
ENDBRANCH  62  66
ENDBRANCH  36  59
ENDBRANCH  10  11
ENDBRANCH   2   5
BRANCH   3  70
ATOM     70  C   UNL     1       4.534   1.287  -0.542  1.00  0.00     0.118 C 
BRANCH  70  71
ATOM     71  C   UNL     1       4.939   1.616  -1.971  1.00  0.00     0.042 C 
BRANCH  71  72
ATOM     72  C   UNL     1       4.365   2.920  -2.502  1.00  0.00     0.118 C 
BRANCH  72  73
ATOM     73  N   UNL     1       4.800   4.081  -1.736  1.00  0.00    -0.352 N 
ATOM     74  C   UNL     1       5.581   5.136  -2.109  1.00  0.00     0.252 C 
ATOM     75  H   UNL     1       4.481   4.108  -0.805  1.00  0.00     0.163 HD
ATOM     76  O   UNL     1       5.900   5.984  -1.279  1.00  0.00    -0.269 OA
BRANCH  74  77
ATOM     77  C   UNL     1       6.046   5.226  -3.516  1.00  0.00     0.054 A 
ATOM     78  C   UNL     1       5.089   5.293  -4.455  1.00  0.00     0.086 A 
ATOM     79  C   UNL     1       7.466   5.343  -3.895  1.00  0.00     0.012 A 
ATOM     80  C   UNL     1       5.427   5.321  -5.888  1.00  0.00     0.249 A 
ATOM     81  C   UNL     1       7.788   5.420  -5.261  1.00  0.00     0.063 A 
ATOM     82  C   UNL     1       8.506   5.383  -2.955  1.00  0.00     0.011 A 
ATOM     83  O   UNL     1       4.542   5.285  -6.738  1.00  0.00    -0.270 OA
ATOM     84  N   UNL     1       6.749   5.380  -6.207  1.00  0.00    -0.321 N 
ATOM     85  C   UNL     1       9.123   5.541  -5.671  1.00  0.00     0.042 A 
ATOM     86  C   UNL     1       9.835   5.509  -3.367  1.00  0.00     0.002 A 
ATOM     87  H   UNL     1       6.993   5.396  -7.161  1.00  0.00     0.170 HD
ATOM     88  Br  UNL     1       9.589   5.666  -7.507  1.00  0.00    -0.049 Br
ATOM     89  C   UNL     1      10.145   5.590  -4.724  1.00  0.00     0.018 A 
ENDBRANCH  74  77
ENDBRANCH  72  73
ENDBRANCH  71  72
ENDBRANCH  70  71
ENDBRANCH   3  70
TORSDOF 13
