REMARK SMILES O=C(NCCCNC(=O)[C@H]1CC[C@H]2CCCC[C@@H]2[N@H+]1[C@@H]1CCCSC1)c1ccc(-c2c3nc(c(-c4cc(S(=O)(=O)[O-])ccc4F)c4ccc([nH]4)c(-c4cc(S(=O)(=O)[O-])ccc4F)c4nc(c(-c5cc(S(=O)(=O)[O-])ccc5F)c5ccc2[nH]5)C=C4)C=C3)cc1
REMARK SMILES IDX 4 1 3 2 1 3 2 4 26 6 27 7 88 8 28 9 87 10 29 11 30 12 31 13
REMARK SMILES IDX 81 14 32 15 86 16 80 17 82 18 33 19 85 20 79 21 78 22 34 24
REMARK SMILES IDX 66 25 46 26 65 27 47 28 50 29 64 30 83 31 48 32 49 33 63 35
REMARK SMILES IDX 84 36 51 37 35 38 36 39 44 40 37 41 43 42 45 43 42 44 38 45
REMARK SMILES IDX 39 46 40 47 41 48 67 49 68 50 76 51 69 52 75 53 77 54 74 55
REMARK SMILES IDX 70 56 71 57 72 58 73 59 52 60 53 61 61 62 54 63 60 64 62 65
REMARK SMILES IDX 59 66 55 67 56 68 57 69 58 70 5 71 6 72 7 73 8 74 9 76 10 77
REMARK SMILES IDX 11 78 19 79 12 80 18 81 13 83 17 84 14 85 16 86 15 87 20 88
REMARK SMILES IDX 21 89 25 90 22 91 24 92 23 93
REMARK H PARENT 3 5 82 23 50 34 7 75 19 82
REMARK Flexibility Score: inf
ROOT
ATOM      1  C   UNL     1       4.218   0.034  -1.508  1.00  0.00     0.118 C 
ENDROOT
BRANCH   1   2
ATOM      2  N   UNL     1       2.811   0.173  -1.169  1.00  0.00    -0.352 N 
ATOM      3  O   UNL     1       0.954   0.008   0.084  1.00  0.00    -0.269 OA
ATOM      4  C   UNL     1       2.185   0.057   0.048  1.00  0.00     0.251 C 
ATOM      5  H   UNL     1       2.217   0.381  -1.926  1.00  0.00     0.163 HD
BRANCH   4   6
ATOM      6  C   UNL     1       2.965  -0.019   1.306  1.00  0.00     0.039 A 
ATOM      7  C   UNL     1       4.098   0.773   1.503  1.00  0.00     0.014 A 
ATOM      8  C   UNL     1       2.525  -0.861   2.332  1.00  0.00     0.014 A 
ATOM      9  C   UNL     1       4.867   0.619   2.652  1.00  0.00     0.010 A 
ATOM     10  C   UNL     1       3.240  -0.936   3.533  1.00  0.00     0.010 A 
ATOM     11  C   UNL     1       4.430  -0.210   3.697  1.00  0.00    -0.014 A 
BRANCH  11  12
ATOM     12  C   UNL     1       5.188  -0.228   4.978  1.00  0.00     0.031 A 
ATOM     13  C   UNL     1       5.837  -1.486   5.484  1.00  0.00     0.074 A 
ATOM     14  C   UNL     1       5.297   0.920   5.677  1.00  0.00     0.049 A 
ATOM     15  N   UNL     1       6.518  -1.676   6.587  1.00  0.00    -0.248 NA
ATOM     16  C   UNL     1       5.693  -2.690   4.654  1.00  0.00     0.031 C 
ATOM     17  C   UNL     1       4.705   2.202   5.284  1.00  0.00     0.029 A 
ATOM     18  N   UNL     1       5.950   1.206   6.849  1.00  0.00    -0.354 N 
ATOM     19  C   UNL     1       6.874  -3.021   6.592  1.00  0.00     0.074 A 
ATOM     20  C   UNL     1       6.297  -3.606   5.398  1.00  0.00     0.031 C 
ATOM     21  C   UNL     1       5.061   3.143   6.169  1.00  0.00     0.029 A 
ATOM     22  C   UNL     1       5.834   2.522   7.236  1.00  0.00     0.049 A 
ATOM     23  H   UNL     1       6.453   0.535   7.364  1.00  0.00     0.167 HD
ATOM     24  C   UNL     1       7.618  -3.697   7.504  1.00  0.00     0.034 A 
ATOM     25  C   UNL     1       6.272   3.156   8.340  1.00  0.00     0.034 A 
ATOM     26  C   UNL     1       8.182  -3.090   8.689  1.00  0.00     0.049 A 
ATOM     27  C   UNL     1       7.046   2.370   9.364  1.00  0.00     0.074 A 
ATOM     28  C   UNL     1       8.976  -3.675   9.662  1.00  0.00     0.029 A 
ATOM     29  N   UNL     1       8.002  -1.766   9.073  1.00  0.00    -0.354 N 
ATOM     30  N   UNL     1       7.387   1.102   9.344  1.00  0.00    -0.248 NA
ATOM     31  C   UNL     1       7.494   3.099  10.555  1.00  0.00     0.031 C 
ATOM     32  C   UNL     1       9.207  -2.731  10.669  1.00  0.00     0.029 A 
ATOM     33  C   UNL     1       8.637  -1.528  10.285  1.00  0.00     0.049 A 
ATOM     34  H   UNL     1       7.498  -1.094   8.560  1.00  0.00     0.167 HD
ATOM     35  C   UNL     1       8.113   0.888  10.512  1.00  0.00     0.074 A 
ATOM     36  C   UNL     1       8.177   2.163  11.198  1.00  0.00     0.031 C 
ATOM     37  C   UNL     1       8.678  -0.257  10.972  1.00  0.00     0.034 A 
BRANCH  24  38
ATOM     38  C   UNL     1       7.822  -5.179   7.282  1.00  0.00     0.023 A 
ATOM     39  C   UNL     1       8.514  -5.679   6.163  1.00  0.00     0.031 A 
ATOM     40  C   UNL     1       7.306  -6.111   8.201  1.00  0.00     0.131 A 
ATOM     41  C   UNL     1       8.612  -7.065   5.960  1.00  0.00     0.055 A 
ATOM     42  C   UNL     1       7.477  -7.487   8.035  1.00  0.00     0.041 A 
ATOM     43  F   UNL     1       6.618  -5.699   9.278  1.00  0.00    -0.206 F 
ATOM     44  C   UNL     1       8.122  -7.972   6.902  1.00  0.00     0.022 A 
BRANCH  41  45
ATOM     45  S   UNL     1       9.267  -7.669   4.379  1.00  0.00     0.124 S 
ATOM     46  O   UNL     1       8.353  -7.048   3.422  1.00  0.00    -0.237 OA
ATOM     47  O   UNL     1      10.632  -7.156   4.385  1.00  0.00    -0.237 OA
ATOM     48  O   UNL     1       9.146  -9.121   4.489  1.00  0.00    -0.744 OA
ENDBRANCH  41  45
ENDBRANCH  24  38
BRANCH  25  49
ATOM     49  C   UNL     1       5.955   4.597   8.554  1.00  0.00     0.023 A 
ATOM     50  C   UNL     1       6.972   5.561   8.638  1.00  0.00     0.031 A 
ATOM     51  C   UNL     1       4.624   5.028   8.709  1.00  0.00     0.131 A 
ATOM     52  C   UNL     1       6.645   6.898   8.913  1.00  0.00     0.055 A 
ATOM     53  C   UNL     1       4.301   6.369   8.919  1.00  0.00     0.041 A 
ATOM     54  F   UNL     1       3.612   4.148   8.637  1.00  0.00    -0.206 F 
ATOM     55  C   UNL     1       5.316   7.311   9.036  1.00  0.00     0.022 A 
BRANCH  52  56
ATOM     56  S   UNL     1       7.992   8.078   9.199  1.00  0.00     0.124 S 
ATOM     57  O   UNL     1       8.703   7.454  10.309  1.00  0.00    -0.237 OA
ATOM     58  O   UNL     1       8.679   8.072   7.912  1.00  0.00    -0.237 OA
ATOM     59  O   UNL     1       7.292   9.320   9.524  1.00  0.00    -0.744 OA
ENDBRANCH  52  56
ENDBRANCH  25  49
BRANCH  37  60
ATOM     60  C   UNL     1       9.453  -0.162  12.265  1.00  0.00     0.023 A 
ATOM     61  C   UNL     1       8.825   0.138  13.487  1.00  0.00     0.031 A 
ATOM     62  C   UNL     1      10.847  -0.351  12.268  1.00  0.00     0.131 A 
ATOM     63  C   UNL     1       9.595   0.301  14.648  1.00  0.00     0.055 A 
ATOM     64  C   UNL     1      11.600  -0.255  13.439  1.00  0.00     0.041 A 
ATOM     65  F   UNL     1      11.502  -0.633  11.130  1.00  0.00    -0.206 F 
ATOM     66  C   UNL     1      10.976   0.088  14.636  1.00  0.00     0.022 A 
BRANCH  63  67
ATOM     67  S   UNL     1       8.784   0.899  16.156  1.00  0.00     0.124 S 
ATOM     68  O   UNL     1       8.227   2.174  15.716  1.00  0.00    -0.237 OA
ATOM     69  O   UNL     1       7.817  -0.158  16.431  1.00  0.00    -0.237 OA
ATOM     70  O   UNL     1       9.880   1.000  17.118  1.00  0.00    -0.744 OA
ENDBRANCH  63  67
ENDBRANCH  37  60
ENDBRANCH  11  12
ENDBRANCH   4   6
ENDBRANCH   1   2
BRANCH   1  71
ATOM     71  C   UNL     1       4.493  -1.203  -2.349  1.00  0.00     0.042 C 
BRANCH  71  72
ATOM     72  C   UNL     1       4.046  -1.087  -3.800  1.00  0.00     0.118 C 
BRANCH  72  73
ATOM     73  N   UNL     1       4.845  -0.115  -4.529  1.00  0.00    -0.351 N 
ATOM     74  C   UNL     1       5.882  -0.321  -5.400  1.00  0.00     0.278 C 
ATOM     75  H   UNL     1       4.606   0.828  -4.374  1.00  0.00     0.163 HD
ATOM     76  O   UNL     1       6.463   0.675  -5.839  1.00  0.00    -0.268 OA
BRANCH  74  77
ATOM     77  C   UNL     1       6.222  -1.752  -5.872  1.00  0.00     0.274 C 
ATOM     78  C   UNL     1       7.181  -1.759  -7.083  1.00  0.00     0.076 C 
ATOM     79  N   UNL     1       6.629  -2.669  -4.780  1.00  0.00    -0.319 N 
ATOM     80  C   UNL     1       7.753  -3.151  -7.392  1.00  0.00     0.016 C 
ATOM     81  C   UNL     1       6.771  -4.058  -5.250  1.00  0.00     0.188 C 
ATOM     82  H   UNL     1       5.833  -2.650  -4.143  1.00  0.00     0.349 HD
ATOM     83  C   UNL     1       6.848  -4.217  -6.788  1.00  0.00     0.048 C 
ATOM     84  C   UNL     1       5.585  -4.912  -4.769  1.00  0.00     0.065 C 
ATOM     85  C   UNL     1       7.269  -5.655  -7.098  1.00  0.00     0.010 C 
ATOM     86  C   UNL     1       5.810  -6.387  -5.120  1.00  0.00     0.006 C 
ATOM     87  C   UNL     1       6.198  -6.623  -6.584  1.00  0.00     0.001 C 
BRANCH  79  88
ATOM     88  C   UNL     1       7.699  -2.203  -3.851  1.00  0.00     0.194 C 
ATOM     89  C   UNL     1       9.133  -2.154  -4.423  1.00  0.00     0.067 C 
ATOM     90  C   UNL     1       7.687  -3.052  -2.547  1.00  0.00     0.134 C 
ATOM     91  C   UNL     1      10.163  -1.560  -3.454  1.00  0.00     0.017 C 
ATOM     92  S   UNL     1       8.709  -2.303  -1.246  1.00  0.00    -0.156 SA
ATOM     93  C   UNL     1      10.284  -2.312  -2.137  1.00  0.00     0.070 C 
ENDBRANCH  79  88
ENDBRANCH  74  77
ENDBRANCH  72  73
ENDBRANCH  71  72
ENDBRANCH   1  71
TORSDOF 14
