REMARK SMILES O=C(NCCCNC(=O)c1ccc(COc2cccc(Cl)c2Cl)o1)c1ccc(-c2c3nc(c(-c4cc(S(=O)(=O)[O-])ccc4F)c4ccc([nH]4)c(-c4cc(S(=O)(=O)[O-])ccc4F)c4nc(c(-c5cc(S(=O)(=O)[O-])ccc5F)c5ccc2[nH]5)C=C4)C=C3)cc1
REMARK SMILES IDX 5 1 4 2 3 3 1 4 2 5 25 7 26 8 87 9 27 10 86 11 28 12 29 13
REMARK SMILES IDX 30 14 80 15 31 16 85 17 79 18 81 19 32 20 84 21 78 22 77 23
REMARK SMILES IDX 33 25 65 26 45 27 64 28 46 29 49 30 63 31 82 32 47 33 48 34
REMARK SMILES IDX 62 36 83 37 50 38 34 39 35 40 43 41 36 42 42 43 44 44 41 45
REMARK SMILES IDX 37 46 38 47 39 48 40 49 66 50 67 51 75 52 68 53 74 54 76 55
REMARK SMILES IDX 73 56 69 57 70 58 71 59 72 60 51 61 52 62 60 63 53 64 59 65
REMARK SMILES IDX 61 66 58 67 54 68 55 69 56 70 57 71 6 72 7 73 8 74 9 76
REMARK SMILES IDX 10 77 11 78 24 79 12 80 13 81 14 82 15 83 16 84 17 85 22 86
REMARK SMILES IDX 18 87 20 88 23 89 19 90 21 91
REMARK H PARENT 3 6 81 24 49 35 7 75
REMARK Flexibility Score: inf
ROOT
ATOM      1  C   UNL     1       4.603   0.293  -2.789  1.00  0.00     0.042 C 
ENDROOT
BRANCH   1   2
ATOM      2  C   UNL     1       4.488   0.864  -1.379  1.00  0.00     0.118 C 
BRANCH   2   3
ATOM      3  N   UNL     1       3.110   0.882  -0.900  1.00  0.00    -0.352 N 
ATOM      4  O   UNL     1       1.273   0.167   0.172  1.00  0.00    -0.269 OA
ATOM      5  C   UNL     1       2.500   0.151   0.090  1.00  0.00     0.251 C 
ATOM      6  H   UNL     1       2.522   1.523  -1.361  1.00  0.00     0.163 HD
BRANCH   5   7
ATOM      7  C   UNL     1       3.294  -0.650   1.049  1.00  0.00     0.039 A 
ATOM      8  C   UNL     1       4.486  -0.157   1.582  1.00  0.00     0.014 A 
ATOM      9  C   UNL     1       2.804  -1.891   1.475  1.00  0.00     0.014 A 
ATOM     10  C   UNL     1       5.252  -0.955   2.424  1.00  0.00     0.010 A 
ATOM     11  C   UNL     1       3.535  -2.657   2.391  1.00  0.00     0.010 A 
ATOM     12  C   UNL     1       4.780  -2.207   2.852  1.00  0.00    -0.014 A 
BRANCH  12  13
ATOM     13  C   UNL     1       5.597  -2.981   3.823  1.00  0.00     0.031 A 
ATOM     14  C   UNL     1       6.243  -4.282   3.437  1.00  0.00     0.074 A 
ATOM     15  C   UNL     1       5.810  -2.452   5.044  1.00  0.00     0.049 A 
ATOM     16  N   UNL     1       7.068  -5.028   4.127  1.00  0.00    -0.248 NA
ATOM     17  C   UNL     1       5.909  -4.824   2.112  1.00  0.00     0.031 C 
ATOM     18  C   UNL     1       5.205  -1.212   5.539  1.00  0.00     0.029 A 
ATOM     19  N   UNL     1       6.619  -2.859   6.073  1.00  0.00    -0.354 N 
ATOM     20  C   UNL     1       7.345  -6.133   3.329  1.00  0.00     0.074 A 
ATOM     21  C   UNL     1       6.572  -5.972   2.114  1.00  0.00     0.031 C 
ATOM     22  C   UNL     1       5.716  -0.924   6.745  1.00  0.00     0.029 A 
ATOM     23  C   UNL     1       6.649  -1.978   7.128  1.00  0.00     0.049 A 
ATOM     24  H   UNL     1       7.130  -3.701   6.057  1.00  0.00     0.167 HD
ATOM     25  C   UNL     1       8.171  -7.179   3.584  1.00  0.00     0.034 A 
ATOM     26  C   UNL     1       7.353  -2.008   8.275  1.00  0.00     0.034 A 
ATOM     27  C   UNL     1       8.937  -7.324   4.800  1.00  0.00     0.049 A 
ATOM     28  C   UNL     1       8.299  -3.151   8.511  1.00  0.00     0.074 A 
ATOM     29  C   UNL     1       9.796  -8.347   5.167  1.00  0.00     0.029 A 
ATOM     30  N   UNL     1       8.938  -6.414   5.850  1.00  0.00    -0.354 N 
ATOM     31  N   UNL     1       8.544  -4.188   7.745  1.00  0.00    -0.248 NA
ATOM     32  C   UNL     1       9.066  -3.124   9.762  1.00  0.00     0.031 C 
ATOM     33  C   UNL     1      10.284  -8.074   6.452  1.00  0.00     0.029 A 
ATOM     34  C   UNL     1       9.772  -6.856   6.866  1.00  0.00     0.049 A 
ATOM     35  H   UNL     1       8.422  -5.576   5.869  1.00  0.00     0.167 HD
ATOM     36  C   UNL     1       9.487  -4.946   8.428  1.00  0.00     0.074 A 
ATOM     37  C   UNL     1       9.797  -4.223   9.647  1.00  0.00     0.031 C 
ATOM     38  C   UNL     1      10.039  -6.138   8.089  1.00  0.00     0.034 A 
BRANCH  25  39
ATOM     39  C   UNL     1       8.249  -8.265   2.541  1.00  0.00     0.023 A 
ATOM     40  C   UNL     1       8.818  -8.035   1.276  1.00  0.00     0.031 A 
ATOM     41  C   UNL     1       7.720  -9.541   2.803  1.00  0.00     0.131 A 
ATOM     42  C   UNL     1       8.790  -9.044   0.301  1.00  0.00     0.055 A 
ATOM     43  C   UNL     1       7.755 -10.563   1.852  1.00  0.00     0.041 A 
ATOM     44  F   UNL     1       7.146  -9.812   3.986  1.00  0.00    -0.206 F 
ATOM     45  C   UNL     1       8.282 -10.314   0.588  1.00  0.00     0.022 A 
BRANCH  42  46
ATOM     46  S   UNL     1       9.321  -8.640  -1.386  1.00  0.00     0.124 S 
ATOM     47  O   UNL     1       8.368  -7.595  -1.754  1.00  0.00    -0.237 OA
ATOM     48  O   UNL     1      10.700  -8.207  -1.189  1.00  0.00    -0.237 OA
ATOM     49  O   UNL     1       9.161  -9.901  -2.108  1.00  0.00    -0.744 OA
ENDBRANCH  42  46
ENDBRANCH  25  39
BRANCH  26  50
ATOM     50  C   UNL     1       7.178  -0.931   9.286  1.00  0.00     0.023 A 
ATOM     51  C   UNL     1       8.208  -0.021   9.566  1.00  0.00     0.031 A 
ATOM     52  C   UNL     1       5.970  -0.804   9.992  1.00  0.00     0.131 A 
ATOM     53  C   UNL     1       8.020   0.963  10.549  1.00  0.00     0.055 A 
ATOM     54  C   UNL     1       5.774   0.199  10.941  1.00  0.00     0.041 A 
ATOM     55  F   UNL     1       4.951  -1.645   9.749  1.00  0.00    -0.206 F 
ATOM     56  C   UNL     1       6.807   1.084  11.231  1.00  0.00     0.022 A 
BRANCH  53  57
ATOM     57  S   UNL     1       9.409   2.050  10.970  1.00  0.00     0.124 S 
ATOM     58  O   UNL     1      10.450   1.089  11.318  1.00  0.00    -0.237 OA
ATOM     59  O   UNL     1       9.604   2.784   9.723  1.00  0.00    -0.237 OA
ATOM     60  O   UNL     1       8.895   2.844  12.084  1.00  0.00    -0.744 OA
ENDBRANCH  53  57
ENDBRANCH  26  50
BRANCH  38  61
ATOM     61  C   UNL     1      11.024  -6.718   9.068  1.00  0.00     0.023 A 
ATOM     62  C   UNL     1      10.602  -7.210  10.315  1.00  0.00     0.031 A 
ATOM     63  C   UNL     1      12.397  -6.734   8.773  1.00  0.00     0.131 A 
ATOM     64  C   UNL     1      11.552  -7.646  11.249  1.00  0.00     0.055 A 
ATOM     65  C   UNL     1      13.334  -7.212   9.690  1.00  0.00     0.041 A 
ATOM     66  F   UNL     1      12.848  -6.273   7.596  1.00  0.00    -0.206 F 
ATOM     67  C   UNL     1      12.915  -7.658  10.941  1.00  0.00     0.022 A 
BRANCH  64  68
ATOM     68  S   UNL     1      10.989  -8.109  12.910  1.00  0.00     0.124 S 
ATOM     69  O   UNL     1      10.305  -6.897  13.350  1.00  0.00    -0.237 OA
ATOM     70  O   UNL     1      10.136  -9.261  12.639  1.00  0.00    -0.237 OA
ATOM     71  O   UNL     1      12.230  -8.412  13.621  1.00  0.00    -0.744 OA
ENDBRANCH  64  68
ENDBRANCH  38  61
ENDBRANCH  12  13
ENDBRANCH   5   7
ENDBRANCH   2   3
ENDBRANCH   1   2
BRANCH   1  72
ATOM     72  C   UNL     1       3.933   1.154  -3.853  1.00  0.00     0.118 C 
BRANCH  72  73
ATOM     73  N   UNL     1       4.606   2.427  -4.033  1.00  0.00    -0.349 N 
ATOM     74  C   UNL     1       5.649   2.771  -4.862  1.00  0.00     0.286 C 
ATOM     75  H   UNL     1       4.261   3.160  -3.474  1.00  0.00     0.163 HD
ATOM     76  O   UNL     1       6.196   3.853  -4.633  1.00  0.00    -0.266 OA
BRANCH  74  77
ATOM     77  C   UNL     1       6.043   1.900  -5.949  1.00  0.00     0.191 A 
ATOM     78  C   UNL     1       5.341   1.102  -6.835  1.00  0.00     0.057 A 
ATOM     79  O   UNL     1       7.369   1.879  -6.295  1.00  0.00    -0.452 OA
ATOM     80  C   UNL     1       6.282   0.545  -7.734  1.00  0.00     0.050 A 
ATOM     81  C   UNL     1       7.507   1.069  -7.382  1.00  0.00     0.142 A 
BRANCH  81  82
ATOM     82  C   UNL     1       8.863   0.974  -7.986  1.00  0.00     0.304 C 
BRANCH  82  83
ATOM     83  O   UNL     1       9.324   2.291  -8.346  1.00  0.00    -0.484 OA
BRANCH  83  84
ATOM     84  C   UNL     1       8.774   2.739  -9.522  1.00  0.00     0.140 A 
ATOM     85  C   UNL     1       7.626   3.534  -9.433  1.00  0.00     0.048 A 
ATOM     86  C   UNL     1       9.381   2.501 -10.762  1.00  0.00     0.101 A 
ATOM     87  C   UNL     1       7.032   4.039 -10.587  1.00  0.00     0.005 A 
ATOM     88  C   UNL     1       8.785   3.025 -11.918  1.00  0.00     0.063 A 
ATOM     89  Cl  UNL     1      10.849   1.585 -10.839  1.00  0.00    -0.079 Cl
ATOM     90  C   UNL     1       7.609   3.781 -11.829  1.00  0.00     0.022 A 
ATOM     91  Cl  UNL     1       9.451   2.785 -13.497  1.00  0.00    -0.083 Cl
ENDBRANCH  83  84
ENDBRANCH  82  83
ENDBRANCH  81  82
ENDBRANCH  74  77
ENDBRANCH  72  73
ENDBRANCH   1  72
TORSDOF 16
