REMARK SMILES O=C(C[C@@H]1C(=O)NCC[N@@H+]1Cc1ccc(F)c(F)c1)NCCCNC(=O)c1ccc(-c2c3nc(c(-c4cc(S(=O)(=O)[O-])ccc4F)c4ccc([nH]4)c(-c4cc(S(=O)(=O)[O-])ccc4F)c4nc(c(-c5cc(S(=O)(=O)[O-])ccc5F)c5ccc2[nH]5)C=C4)C=C3)cc1
REMARK SMILES IDX 22 1 21 2 20 3 1 4 2 5 3 7 4 8 5 9 10 10 6 11 7 12 9 13 8 15
REMARK SMILES IDX 11 17 12 18 13 19 19 20 14 21 17 22 15 23 18 24 16 25 23 26
REMARK SMILES IDX 24 27 25 28 26 30 27 31 28 32 89 33 29 34 88 35 30 36 31 37
REMARK SMILES IDX 32 38 82 39 33 40 87 41 81 42 83 43 34 44 86 45 80 46 79 47
REMARK SMILES IDX 35 49 67 50 47 51 66 52 48 53 51 54 65 55 84 56 49 57 50 58
REMARK SMILES IDX 64 60 85 61 52 62 36 63 37 64 45 65 38 66 44 67 46 68 43 69
REMARK SMILES IDX 39 70 40 71 41 72 42 73 68 74 69 75 77 76 70 77 76 78 78 79
REMARK SMILES IDX 75 80 71 81 72 82 73 83 74 84 53 85 54 86 62 87 55 88 61 89
REMARK SMILES IDX 63 90 60 91 56 92 57 93 58 94 59 95
REMARK H PARENT 20 6 10 14 7 16 24 29 83 48 51 59
REMARK Flexibility Score: inf
ROOT
ATOM      1  C   UNL     1       1.601   0.958   3.789  1.00  0.00     0.042 C 
ENDROOT
BRANCH   1   2
ATOM      2  C   UNL     1       1.209   1.179   2.329  1.00  0.00     0.117 C 
BRANCH   2   3
ATOM      3  N   UNL     1       1.845   0.279   1.388  1.00  0.00    -0.356 N 
ATOM      4  O   UNL     1       0.851   1.229  -0.454  1.00  0.00    -0.275 OA
ATOM      5  C   UNL     1       1.663   0.444   0.024  1.00  0.00     0.226 C 
ATOM      6  H   UNL     1       2.411  -0.455   1.720  1.00  0.00     0.163 HD
BRANCH   5   7
ATOM      7  C   UNL     1       2.580  -0.396  -0.832  1.00  0.00     0.175 C 
BRANCH   7   8
ATOM      8  C   UNL     1       3.642   0.386  -1.649  1.00  0.00     0.283 C 
ATOM      9  C   UNL     1       4.908  -0.496  -1.857  1.00  0.00     0.279 C 
ATOM     10  N   UNL     1       3.998   1.789  -1.322  1.00  0.00    -0.319 N 
ATOM     11  O   UNL     1       4.900  -1.719  -1.715  1.00  0.00    -0.268 OA
ATOM     12  N   UNL     1       6.054   0.107  -2.311  1.00  0.00    -0.345 N 
ATOM     13  C   UNL     1       4.944   2.329  -2.307  1.00  0.00     0.284 C 
ATOM     14  H   UNL     1       3.082   2.233  -1.397  1.00  0.00     0.349 HD
ATOM     15  C   UNL     1       6.252   1.540  -2.369  1.00  0.00     0.177 C 
ATOM     16  H   UNL     1       6.789  -0.472  -2.617  1.00  0.00     0.163 HD
BRANCH  10  17
ATOM     17  C   UNL     1       4.260   2.219   0.050  1.00  0.00     0.299 C 
BRANCH  17  18
ATOM     18  C   UNL     1       5.414   1.631   0.831  1.00  0.00     0.009 A 
ATOM     19  C   UNL     1       6.415   2.485   1.332  1.00  0.00     0.013 A 
ATOM     20  C   UNL     1       5.465   0.280   1.199  1.00  0.00     0.052 A 
ATOM     21  C   UNL     1       7.441   1.995   2.149  1.00  0.00     0.043 A 
ATOM     22  C   UNL     1       6.491  -0.205   2.004  1.00  0.00     0.159 A 
ATOM     23  C   UNL     1       7.475   0.647   2.476  1.00  0.00     0.158 A 
ATOM     24  F   UNL     1       6.489  -1.500   2.349  1.00  0.00    -0.204 F 
ATOM     25  F   UNL     1       8.441   0.181   3.277  1.00  0.00    -0.204 F 
ENDBRANCH  17  18
ENDBRANCH  10  17
ENDBRANCH   7   8
ENDBRANCH   5   7
ENDBRANCH   2   3
ENDBRANCH   1   2
BRANCH   1  26
ATOM     26  C   UNL     1       3.084   1.096   4.136  1.00  0.00     0.118 C 
BRANCH  26  27
ATOM     27  N   UNL     1       3.644   2.415   3.902  1.00  0.00    -0.352 N 
ATOM     28  C   UNL     1       4.617   3.098   4.600  1.00  0.00     0.251 C 
ATOM     29  H   UNL     1       3.273   2.895   3.126  1.00  0.00     0.163 HD
ATOM     30  O   UNL     1       4.934   4.225   4.222  1.00  0.00    -0.269 OA
BRANCH  28  31
ATOM     31  C   UNL     1       5.248   2.525   5.819  1.00  0.00     0.039 A 
ATOM     32  C   UNL     1       5.428   3.362   6.928  1.00  0.00     0.014 A 
ATOM     33  C   UNL     1       5.677   1.197   5.890  1.00  0.00     0.014 A 
ATOM     34  C   UNL     1       5.949   2.849   8.122  1.00  0.00     0.010 A 
ATOM     35  C   UNL     1       6.156   0.674   7.097  1.00  0.00     0.010 A 
ATOM     36  C   UNL     1       6.278   1.488   8.233  1.00  0.00    -0.014 A 
BRANCH  36  37
ATOM     37  C   UNL     1       6.668   0.904   9.547  1.00  0.00     0.031 A 
ATOM     38  C   UNL     1       8.058   0.385   9.795  1.00  0.00     0.074 A 
ATOM     39  C   UNL     1       5.734   0.787  10.514  1.00  0.00     0.049 A 
ATOM     40  N   UNL     1       8.559  -0.151  10.881  1.00  0.00    -0.248 NA
ATOM     41  C   UNL     1       9.000   0.457   8.670  1.00  0.00     0.031 C 
ATOM     42  C   UNL     1       4.333   1.193  10.384  1.00  0.00     0.029 A 
ATOM     43  N   UNL     1       5.817   0.288  11.790  1.00  0.00    -0.354 N 
ATOM     44  C   UNL     1       9.876  -0.479  10.575  1.00  0.00     0.074 A 
ATOM     45  C   UNL     1      10.074  -0.127   9.182  1.00  0.00     0.031 C 
ATOM     46  C   UNL     1       3.694   0.944  11.538  1.00  0.00     0.029 A 
ATOM     47  C   UNL     1       4.628   0.336  12.481  1.00  0.00     0.049 A 
ATOM     48  H   UNL     1       6.649  -0.071  12.175  1.00  0.00     0.167 HD
ATOM     49  C   UNL     1      10.833  -1.006  11.381  1.00  0.00     0.034 A 
ATOM     50  C   UNL     1       4.319  -0.061  13.731  1.00  0.00     0.034 A 
ATOM     51  C   UNL     1      10.625  -1.363  12.767  1.00  0.00     0.049 A 
ATOM     52  C   UNL     1       5.397  -0.641  14.608  1.00  0.00     0.074 A 
ATOM     53  C   UNL     1      11.545  -1.852  13.680  1.00  0.00     0.029 A 
ATOM     54  N   UNL     1       9.411  -1.286  13.438  1.00  0.00    -0.354 N 
ATOM     55  N   UNL     1       6.657  -0.875  14.324  1.00  0.00    -0.248 NA
ATOM     56  C   UNL     1       5.013  -0.990  15.982  1.00  0.00     0.031 C 
ATOM     57  C   UNL     1      10.877  -2.126  14.881  1.00  0.00     0.029 A 
ATOM     58  C   UNL     1       9.553  -1.743  14.742  1.00  0.00     0.049 A 
ATOM     59  H   UNL     1       8.571  -0.955  13.046  1.00  0.00     0.167 HD
ATOM     60  C   UNL     1       7.221  -1.373  15.495  1.00  0.00     0.074 A 
ATOM     61  C   UNL     1       6.169  -1.387  16.491  1.00  0.00     0.031 C 
ATOM     62  C   UNL     1       8.497  -1.777  15.726  1.00  0.00     0.034 A 
BRANCH  49  63
ATOM     63  C   UNL     1      12.193  -1.250  10.770  1.00  0.00     0.023 A 
ATOM     64  C   UNL     1      12.991  -0.190  10.303  1.00  0.00     0.031 A 
ATOM     65  C   UNL     1      12.695  -2.557  10.640  1.00  0.00     0.131 A 
ATOM     66  C   UNL     1      14.212  -0.459   9.666  1.00  0.00     0.055 A 
ATOM     67  C   UNL     1      13.945  -2.813  10.072  1.00  0.00     0.041 A 
ATOM     68  F   UNL     1      11.974  -3.611  11.054  1.00  0.00    -0.206 F 
ATOM     69  C   UNL     1      14.705  -1.762   9.567  1.00  0.00     0.022 A 
BRANCH  66  70
ATOM     70  S   UNL     1      15.085   0.907   8.852  1.00  0.00     0.124 S 
ATOM     71  O   UNL     1      14.082   1.371   7.895  1.00  0.00    -0.237 OA
ATOM     72  O   UNL     1      15.370   1.806   9.964  1.00  0.00    -0.237 OA
ATOM     73  O   UNL     1      16.252   0.262   8.255  1.00  0.00    -0.744 OA
ENDBRANCH  66  70
ENDBRANCH  49  63
BRANCH  50  74
ATOM     74  C   UNL     1       2.927   0.079  14.240  1.00  0.00     0.023 A 
ATOM     75  C   UNL     1       2.624   0.978  15.274  1.00  0.00     0.031 A 
ATOM     76  C   UNL     1       1.887  -0.713  13.724  1.00  0.00     0.131 A 
ATOM     77  C   UNL     1       1.322   1.032  15.793  1.00  0.00     0.055 A 
ATOM     78  C   UNL     1       0.583  -0.623  14.213  1.00  0.00     0.041 A 
ATOM     79  F   UNL     1       2.124  -1.580  12.727  1.00  0.00    -0.206 F 
ATOM     80  C   UNL     1       0.297   0.245  15.263  1.00  0.00     0.022 A 
BRANCH  77  81
ATOM     81  S   UNL     1       1.002   2.099  17.224  1.00  0.00     0.124 S 
ATOM     82  O   UNL     1       1.933   1.562  18.210  1.00  0.00    -0.237 OA
ATOM     83  O   UNL     1       1.322   3.420  16.693  1.00  0.00    -0.237 OA
ATOM     84  O   UNL     1      -0.412   1.870  17.510  1.00  0.00    -0.744 OA
ENDBRANCH  77  81
ENDBRANCH  50  74
BRANCH  62  85
ATOM     85  C   UNL     1       8.822  -2.232  17.129  1.00  0.00     0.023 A 
ATOM     86  C   UNL     1       8.251  -3.394  17.681  1.00  0.00     0.031 A 
ATOM     87  C   UNL     1       9.676  -1.467  17.942  1.00  0.00     0.131 A 
ATOM     88  C   UNL     1       8.488  -3.719  19.026  1.00  0.00     0.055 A 
ATOM     89  C   UNL     1       9.955  -1.828  19.261  1.00  0.00     0.041 A 
ATOM     90  F   UNL     1      10.247  -0.347  17.470  1.00  0.00    -0.206 F 
ATOM     91  C   UNL     1       9.346  -2.950  19.816  1.00  0.00     0.022 A 
BRANCH  88  92
ATOM     92  S   UNL     1       7.568  -5.098  19.765  1.00  0.00     0.124 S 
ATOM     93  O   UNL     1       6.184  -4.716  19.504  1.00  0.00    -0.237 OA
ATOM     94  O   UNL     1       8.066  -6.244  19.011  1.00  0.00    -0.237 OA
ATOM     95  O   UNL     1       7.966  -5.062  21.171  1.00  0.00    -0.744 OA
ENDBRANCH  88  92
ENDBRANCH  62  85
ENDBRANCH  36  37
ENDBRANCH  28  31
ENDBRANCH  26  27
ENDBRANCH   1  26
TORSDOF 16
