REMARK SMILES O=C(CNC(=O)CN1C(=O)S/C(=C\c2cccc(Br)c2)C1=O)NCCCNC(=O)c1ccc(-c2c3nc(c(-c4cc(S(=O)(=O)[O-])ccc4F)c4ccc([nH]4)c(-c4cc(S(=O)(=O)[O-])ccc4F)c4nc(c(-c5cc(S(=O)(=O)[O-])ccc5F)c5ccc2[nH]5)C=C4)C=C3)cc1
REMARK SMILES IDX 24 1 23 2 1 3 2 4 3 6 4 7 5 8 6 10 7 11 8 12 9 13 21 14
REMARK SMILES IDX 10 15 11 16 12 17 22 18 13 19 14 20 15 21 20 22 16 23 18 24
REMARK SMILES IDX 17 25 19 26 25 27 26 28 27 29 28 30 29 32 30 33 31 34 92 35
REMARK SMILES IDX 32 36 91 37 33 38 34 39 35 40 85 41 36 42 90 43 84 44 86 45
REMARK SMILES IDX 37 46 89 47 83 48 82 49 38 51 70 52 50 53 69 54 51 55 54 56
REMARK SMILES IDX 68 57 87 58 52 59 53 60 67 62 88 63 55 64 39 65 40 66 48 67
REMARK SMILES IDX 41 68 47 69 49 70 46 71 42 72 43 73 44 74 45 75 71 76 72 77
REMARK SMILES IDX 80 78 73 79 79 80 81 81 78 82 74 83 75 84 76 85 77 86 56 87
REMARK SMILES IDX 57 88 65 89 58 90 64 91 66 92 63 93 59 94 60 95 61 96 62 97
REMARK H PARENT 23 5 4 9 27 31 86 50 54 61
REMARK Flexibility Score: inf
ROOT
ATOM      1  C   UNL     1       1.749   2.092   1.452  1.00  0.00     0.117 C 
ENDROOT
BRANCH   1   2
ATOM      2  N   UNL     1       2.437   1.237   0.494  1.00  0.00    -0.355 N 
ATOM      3  O   UNL     1       0.793  -0.355   0.259  1.00  0.00    -0.273 OA
ATOM      4  C   UNL     1       1.886   0.099  -0.063  1.00  0.00     0.239 C 
ATOM      5  H   UNL     1       3.352   1.485   0.227  1.00  0.00     0.163 HD
BRANCH   4   6
ATOM      6  C   UNL     1       2.812  -0.645  -1.040  1.00  0.00     0.216 C 
BRANCH   6   7
ATOM      7  N   UNL     1       3.830   0.227  -1.610  1.00  0.00    -0.345 N 
ATOM      8  C   UNL     1       5.182   0.125  -1.681  1.00  0.00     0.240 C 
ATOM      9  H   UNL     1       3.470   1.046  -2.020  1.00  0.00     0.164 HD
ATOM     10  O   UNL     1       5.739   0.923  -2.444  1.00  0.00    -0.273 OA
BRANCH   8  11
ATOM     11  C   UNL     1       5.983  -1.018  -1.048  1.00  0.00     0.229 C 
BRANCH  11  12
ATOM     12  N   UNL     1       5.649  -1.395   0.311  1.00  0.00    -0.259 N 
ATOM     13  C   UNL     1       5.275  -2.674   0.631  1.00  0.00     0.294 C 
ATOM     14  C   UNL     1       5.875  -0.543   1.361  1.00  0.00     0.268 C 
ATOM     15  O   UNL     1       5.132  -3.603  -0.141  1.00  0.00    -0.261 OA
ATOM     16  S   UNL     1       5.005  -2.818   2.357  1.00  0.00    -0.022 SA
ATOM     17  C   UNL     1       5.532  -1.219   2.647  1.00  0.00     0.083 C 
ATOM     18  O   UNL     1       6.230   0.623   1.262  1.00  0.00    -0.268 OA
ATOM     19  C   UNL     1       5.582  -0.563   3.808  1.00  0.00     0.029 C 
BRANCH  19  20
ATOM     20  C   UNL     1       5.102  -0.987   5.132  1.00  0.00    -0.023 A 
ATOM     21  C   UNL     1       5.809  -1.914   5.894  1.00  0.00     0.008 A 
ATOM     22  C   UNL     1       3.967  -0.381   5.700  1.00  0.00     0.023 A 
ATOM     23  C   UNL     1       5.386  -2.225   7.193  1.00  0.00     0.002 A 
ATOM     24  C   UNL     1       3.544  -0.696   6.988  1.00  0.00     0.018 A 
ATOM     25  C   UNL     1       4.252  -1.619   7.741  1.00  0.00     0.016 A 
ATOM     26  Br  UNL     1       2.002   0.156   7.678  1.00  0.00    -0.051 Br
ENDBRANCH  19  20
ENDBRANCH  11  12
ENDBRANCH   8  11
ENDBRANCH   6   7
ENDBRANCH   4   6
ENDBRANCH   1   2
BRANCH   1  27
ATOM     27  C   UNL     1       2.224   1.898   2.902  1.00  0.00     0.042 C 
BRANCH  27  28
ATOM     28  C   UNL     1       3.718   2.197   3.144  1.00  0.00     0.118 C 
BRANCH  28  29
ATOM     29  N   UNL     1       4.040   3.458   3.791  1.00  0.00    -0.352 N 
ATOM     30  C   UNL     1       4.854   3.838   4.849  1.00  0.00     0.251 C 
ATOM     31  H   UNL     1       3.571   4.222   3.384  1.00  0.00     0.163 HD
ATOM     32  O   UNL     1       5.095   5.046   4.932  1.00  0.00    -0.269 OA
BRANCH  30  33
ATOM     33  C   UNL     1       5.384   2.970   5.952  1.00  0.00     0.039 A 
ATOM     34  C   UNL     1       5.034   3.307   7.262  1.00  0.00     0.014 A 
ATOM     35  C   UNL     1       6.407   2.034   5.832  1.00  0.00     0.014 A 
ATOM     36  C   UNL     1       5.596   2.646   8.388  1.00  0.00     0.010 A 
ATOM     37  C   UNL     1       6.854   1.267   6.960  1.00  0.00     0.010 A 
ATOM     38  C   UNL     1       6.436   1.519   8.282  1.00  0.00    -0.014 A 
BRANCH  38  39
ATOM     39  C   UNL     1       6.799   0.666   9.525  1.00  0.00     0.031 A 
ATOM     40  C   UNL     1       8.171   0.010   9.766  1.00  0.00     0.074 A 
ATOM     41  C   UNL     1       5.865   0.377  10.478  1.00  0.00     0.049 A 
ATOM     42  N   UNL     1       8.577  -0.729  10.785  1.00  0.00    -0.248 NA
ATOM     43  C   UNL     1       9.198   0.154   8.730  1.00  0.00     0.031 C 
ATOM     44  C   UNL     1       4.456   0.771  10.439  1.00  0.00     0.029 A 
ATOM     45  N   UNL     1       5.944  -0.328  11.672  1.00  0.00    -0.354 N 
ATOM     46  C   UNL     1       9.881  -1.140  10.497  1.00  0.00     0.074 A 
ATOM     47  C   UNL     1      10.151  -0.665   9.156  1.00  0.00     0.031 C 
ATOM     48  C   UNL     1       3.826   0.355  11.545  1.00  0.00     0.029 A 
ATOM     49  C   UNL     1       4.761  -0.375  12.388  1.00  0.00     0.049 A 
ATOM     50  H   UNL     1       6.773  -0.759  11.983  1.00  0.00     0.167 HD
ATOM     51  C   UNL     1      10.806  -1.787  11.266  1.00  0.00     0.034 A 
ATOM     52  C   UNL     1       4.421  -0.914  13.582  1.00  0.00     0.034 A 
ATOM     53  C   UNL     1      10.600  -2.239  12.626  1.00  0.00     0.049 A 
ATOM     54  C   UNL     1       5.452  -1.611  14.432  1.00  0.00     0.074 A 
ATOM     55  C   UNL     1      11.529  -2.785  13.504  1.00  0.00     0.029 A 
ATOM     56  N   UNL     1       9.395  -2.217  13.310  1.00  0.00    -0.354 N 
ATOM     57  N   UNL     1       6.715  -1.845  14.173  1.00  0.00    -0.248 NA
ATOM     58  C   UNL     1       5.015  -2.085  15.755  1.00  0.00     0.031 C 
ATOM     59  C   UNL     1      10.871  -3.164  14.680  1.00  0.00     0.029 A 
ATOM     60  C   UNL     1       9.550  -2.770  14.577  1.00  0.00     0.049 A 
ATOM     61  H   UNL     1       8.550  -1.862  12.950  1.00  0.00     0.167 HD
ATOM     62  C   UNL     1       7.231  -2.442  15.324  1.00  0.00     0.074 A 
ATOM     63  C   UNL     1       6.150  -2.518  16.279  1.00  0.00     0.031 C 
ATOM     64  C   UNL     1       8.496  -2.871  15.559  1.00  0.00     0.034 A 
BRANCH  51  65
ATOM     65  C   UNL     1      12.183  -2.022  10.663  1.00  0.00     0.023 A 
ATOM     66  C   UNL     1      12.987  -0.948  10.243  1.00  0.00     0.031 A 
ATOM     67  C   UNL     1      12.708  -3.320  10.517  1.00  0.00     0.131 A 
ATOM     68  C   UNL     1      14.211  -1.189   9.603  1.00  0.00     0.055 A 
ATOM     69  C   UNL     1      13.977  -3.549   9.974  1.00  0.00     0.041 A 
ATOM     70  F   UNL     1      11.999  -4.394  10.900  1.00  0.00    -0.206 F 
ATOM     71  C   UNL     1      14.727  -2.481   9.491  1.00  0.00     0.022 A 
BRANCH  68  72
ATOM     72  S   UNL     1      15.027   0.196   8.763  1.00  0.00     0.124 S 
ATOM     73  O   UNL     1      13.985   0.627   7.834  1.00  0.00    -0.237 OA
ATOM     74  O   UNL     1      15.318   1.106   9.865  1.00  0.00    -0.237 OA
ATOM     75  O   UNL     1      16.193  -0.422   8.136  1.00  0.00    -0.744 OA
ENDBRANCH  68  72
ENDBRANCH  51  65
BRANCH  52  76
ATOM     76  C   UNL     1       3.018  -0.797  14.097  1.00  0.00     0.023 A 
ATOM     77  C   UNL     1       2.731  -0.054  15.256  1.00  0.00     0.031 A 
ATOM     78  C   UNL     1       1.959  -1.487  13.481  1.00  0.00     0.131 A 
ATOM     79  C   UNL     1       1.436  -0.070  15.799  1.00  0.00     0.055 A 
ATOM     80  C   UNL     1       0.658  -1.448  13.990  1.00  0.00     0.041 A 
ATOM     81  F   UNL     1       2.175  -2.209  12.370  1.00  0.00    -0.206 F 
ATOM     82  C   UNL     1       0.395  -0.750  15.165  1.00  0.00     0.022 A 
BRANCH  79  83
ATOM     83  S   UNL     1       1.155   0.724  17.407  1.00  0.00     0.124 S 
ATOM     84  O   UNL     1       2.086  -0.002  18.262  1.00  0.00    -0.237 OA
ATOM     85  O   UNL     1       1.496   2.114  17.122  1.00  0.00    -0.237 OA
ATOM     86  O   UNL     1      -0.261   0.472  17.668  1.00  0.00    -0.744 OA
ENDBRANCH  79  83
ENDBRANCH  52  76
BRANCH  64  87
ATOM     87  C   UNL     1       8.810  -3.409  16.939  1.00  0.00     0.023 A 
ATOM     88  C   UNL     1       8.165  -4.544  17.466  1.00  0.00     0.031 A 
ATOM     89  C   UNL     1       9.735  -2.744  17.765  1.00  0.00     0.131 A 
ATOM     90  C   UNL     1       8.388  -4.926  18.799  1.00  0.00     0.055 A 
ATOM     91  C   UNL     1      10.012  -3.176  19.065  1.00  0.00     0.041 A 
ATOM     92  F   UNL     1      10.381  -1.651  17.329  1.00  0.00    -0.206 F 
ATOM     93  C   UNL     1       9.322  -4.261  19.596  1.00  0.00     0.022 A 
BRANCH  90  94
ATOM     94  S   UNL     1       7.338  -6.219  19.523  1.00  0.00     0.124 S 
ATOM     95  O   UNL     1       6.000  -5.689  19.287  1.00  0.00    -0.237 OA
ATOM     96  O   UNL     1       7.706  -7.393  18.739  1.00  0.00    -0.237 OA
ATOM     97  O   UNL     1       7.754  -6.254  20.924  1.00  0.00    -0.744 OA
ENDBRANCH  90  94
ENDBRANCH  64  87
ENDBRANCH  38  39
ENDBRANCH  30  33
ENDBRANCH  28  29
ENDBRANCH  27  28
ENDBRANCH   1  27
TORSDOF 17
