REMARK SMILES Cc1ccccc1-n1nc(Cl)c(C(=O)NCCCNC(=O)c2ccc(-c3c4nc(c(-c5cc(S(=O)(=O)[O-])ccc5F)c5ccc([nH]5)c(-c5cc(S(=O)(=O)[O-])ccc5F)c5nc(c(-c6cc(S(=O)(=O)[O-])ccc6F)c6ccc3[nH]6)C=C5)C=C4)cc2)n1
REMARK SMILES IDX 18 1 17 2 16 3 15 4 13 5 14 6 12 8 8 9 9 10 85 11 10 12
REMARK SMILES IDX 11 13 7 14 1 15 2 16 3 17 4 18 6 19 5 20 19 21 20 22 21 24
REMARK SMILES IDX 22 25 23 26 84 27 24 28 83 29 25 30 26 31 27 32 77 33 28 34
REMARK SMILES IDX 82 35 76 36 78 37 29 38 81 39 75 40 74 41 30 43 62 44 42 45
REMARK SMILES IDX 61 46 43 47 46 48 60 49 79 50 44 51 45 52 59 54 80 55 47 56
REMARK SMILES IDX 31 57 32 58 40 59 33 60 39 61 41 62 38 63 34 64 35 65 36 66
REMARK SMILES IDX 37 67 63 68 64 69 72 70 65 71 71 72 73 73 70 74 66 75 67 76
REMARK SMILES IDX 68 77 69 78 48 79 49 80 57 81 50 82 56 83 58 84 55 85 51 86
REMARK SMILES IDX 52 87 53 88 54 89
REMARK H PARENT 15 7 19 23 78 42 46 53
REMARK Flexibility Score: inf
ROOT
ATOM      1  C   UNL     1       2.960   2.185  -5.166  1.00  0.00     0.118 C 
ENDROOT
BRANCH   1   2
ATOM      2  C   UNL     1       2.640   2.188  -3.671  1.00  0.00     0.042 C 
BRANCH   2   3
ATOM      3  C   UNL     1       3.877   2.448  -2.809  1.00  0.00     0.118 C 
BRANCH   3   4
ATOM      4  N   UNL     1       4.018   3.846  -2.408  1.00  0.00    -0.350 N 
ATOM      5  C   UNL     1       3.371   4.566  -1.423  1.00  0.00     0.275 C 
ATOM      6  O   UNL     1       3.707   5.736  -1.239  1.00  0.00    -0.267 OA
ATOM      7  H   UNL     1       4.682   4.358  -2.924  1.00  0.00     0.163 HD
BRANCH   5   8
ATOM      8  C   UNL     1       2.291   3.956  -0.640  1.00  0.00     0.189 A 
ATOM      9  N   UNL     1       0.917   2.548   0.141  1.00  0.00    -0.149 N 
ATOM     10  N   UNL     1       0.492   3.698   0.716  1.00  0.00    -0.135 NA
ATOM     11  N   UNL     1       1.970   2.653  -0.688  1.00  0.00    -0.141 NA
ATOM     12  C   UNL     1       1.410   4.569   0.278  1.00  0.00     0.184 A 
ATOM     13  Cl  UNL     1       1.372   6.173   0.821  1.00  0.00    -0.058 Cl
BRANCH   9  14
ATOM     14  C   UNL     1       0.227   1.315   0.282  1.00  0.00     0.089 A 
ATOM     15  C   UNL     1       2.374  -0.095  -0.015  1.00  0.00     0.047 C 
ATOM     16  C   UNL     1       0.880   0.072   0.110  1.00  0.00    -0.023 A 
ATOM     17  C   UNL     1       0.099  -1.095   0.075  1.00  0.00     0.006 A 
ATOM     18  C   UNL     1      -1.283  -1.041   0.257  1.00  0.00     0.000 A 
ATOM     19  C   UNL     1      -1.157   1.355   0.526  1.00  0.00     0.030 A 
ATOM     20  C   UNL     1      -1.907   0.179   0.500  1.00  0.00     0.002 A 
ENDBRANCH   9  14
ENDBRANCH   5   8
ENDBRANCH   3   4
ENDBRANCH   2   3
ENDBRANCH   1   2
BRANCH   1  21
ATOM     21  N   UNL     1       3.084   0.852  -5.746  1.00  0.00    -0.352 N 
ATOM     22  C   UNL     1       3.337   0.517  -7.073  1.00  0.00     0.251 C 
ATOM     23  H   UNL     1       2.975   0.097  -5.122  1.00  0.00     0.163 HD
ATOM     24  O   UNL     1       3.385  -0.643  -7.457  1.00  0.00    -0.269 OA
BRANCH  22  25
ATOM     25  C   UNL     1       3.664   1.620  -7.997  1.00  0.00     0.039 A 
ATOM     26  C   UNL     1       4.974   1.671  -8.484  1.00  0.00     0.014 A 
ATOM     27  C   UNL     1       2.808   2.712  -8.110  1.00  0.00     0.014 A 
ATOM     28  C   UNL     1       5.505   2.902  -8.859  1.00  0.00     0.010 A 
ATOM     29  C   UNL     1       3.357   3.946  -8.410  1.00  0.00     0.010 A 
ATOM     30  C   UNL     1       4.726   4.049  -8.697  1.00  0.00    -0.014 A 
BRANCH  30  31
ATOM     31  C   UNL     1       5.310   5.385  -8.599  1.00  0.00     0.031 A 
ATOM     32  C   UNL     1       5.088   6.398  -9.650  1.00  0.00     0.074 A 
ATOM     33  C   UNL     1       6.043   5.713  -7.510  1.00  0.00     0.049 A 
ATOM     34  N   UNL     1       5.764   7.492  -9.754  1.00  0.00    -0.248 NA
ATOM     35  C   UNL     1       4.143   6.207 -10.745  1.00  0.00     0.031 C 
ATOM     36  C   UNL     1       6.478   7.044  -7.094  1.00  0.00     0.029 A 
ATOM     37  N   UNL     1       6.803   4.840  -6.728  1.00  0.00    -0.354 N 
ATOM     38  C   UNL     1       5.182   8.263 -10.727  1.00  0.00     0.074 A 
ATOM     39  C   UNL     1       4.273   7.367 -11.396  1.00  0.00     0.031 C 
ATOM     40  C   UNL     1       7.602   6.923  -6.373  1.00  0.00     0.029 A 
ATOM     41  C   UNL     1       7.993   5.528  -6.407  1.00  0.00     0.049 A 
ATOM     42  H   UNL     1       6.557   3.927  -6.454  1.00  0.00     0.167 HD
ATOM     43  C   UNL     1       5.466   9.596 -10.763  1.00  0.00     0.034 A 
ATOM     44  C   UNL     1       9.206   5.046  -6.808  1.00  0.00     0.034 A 
ATOM     45  C   UNL     1       6.687   9.899 -10.002  1.00  0.00     0.049 A 
ATOM     46  C   UNL     1       9.965   5.968  -7.740  1.00  0.00     0.074 A 
ATOM     47  C   UNL     1       6.990  10.549  -8.819  1.00  0.00     0.029 A 
ATOM     48  N   UNL     1       7.864   9.278 -10.399  1.00  0.00    -0.354 N 
ATOM     49  N   UNL     1       9.531   7.130  -8.146  1.00  0.00    -0.248 NA
ATOM     50  C   UNL     1      11.241   5.608  -8.359  1.00  0.00     0.031 C 
ATOM     51  C   UNL     1       8.354  10.261  -8.490  1.00  0.00     0.029 A 
ATOM     52  C   UNL     1       8.885   9.466  -9.490  1.00  0.00     0.049 A 
ATOM     53  H   UNL     1       7.959   8.763 -11.233  1.00  0.00     0.167 HD
ATOM     54  C   UNL     1      10.393   7.640  -9.081  1.00  0.00     0.074 A 
ATOM     55  C   UNL     1      11.450   6.649  -9.181  1.00  0.00     0.031 C 
ATOM     56  C   UNL     1      10.163   8.813  -9.743  1.00  0.00     0.034 A 
BRANCH  43  57
ATOM     57  C   UNL     1       4.572  10.668 -11.370  1.00  0.00     0.023 A 
ATOM     58  C   UNL     1       4.899  12.027 -11.159  1.00  0.00     0.031 A 
ATOM     59  C   UNL     1       3.345  10.456 -12.039  1.00  0.00     0.131 A 
ATOM     60  C   UNL     1       4.040  13.068 -11.572  1.00  0.00     0.055 A 
ATOM     61  C   UNL     1       2.515  11.491 -12.489  1.00  0.00     0.041 A 
ATOM     62  F   UNL     1       2.834   9.243 -12.261  1.00  0.00    -0.206 F 
ATOM     63  C   UNL     1       2.854  12.806 -12.249  1.00  0.00     0.022 A 
BRANCH  60  64
ATOM     64  S   UNL     1       4.444  14.784 -11.143  1.00  0.00     0.124 S 
ATOM     65  O   UNL     1       4.497  14.733  -9.686  1.00  0.00    -0.237 OA
ATOM     66  O   UNL     1       5.713  14.985 -11.834  1.00  0.00    -0.237 OA
ATOM     67  O   UNL     1       3.319  15.544 -11.689  1.00  0.00    -0.744 OA
ENDBRANCH  60  64
ENDBRANCH  43  57
BRANCH  44  68
ATOM     68  C   UNL     1       9.269   3.557  -6.777  1.00  0.00     0.023 A 
ATOM     69  C   UNL     1       8.957   2.944  -5.544  1.00  0.00     0.031 A 
ATOM     70  C   UNL     1       9.220   2.766  -7.931  1.00  0.00     0.131 A 
ATOM     71  C   UNL     1       8.417   1.653  -5.513  1.00  0.00     0.055 A 
ATOM     72  C   UNL     1       8.769   1.440  -7.882  1.00  0.00     0.041 A 
ATOM     73  F   UNL     1       9.477   3.294  -9.137  1.00  0.00    -0.206 F 
ATOM     74  C   UNL     1       8.314   0.896  -6.679  1.00  0.00     0.022 A 
BRANCH  71  75
ATOM     75  S   UNL     1       7.564   1.108  -4.003  1.00  0.00     0.124 S 
ATOM     76  O   UNL     1       8.584   0.306  -3.340  1.00  0.00    -0.237 OA
ATOM     77  O   UNL     1       7.220   2.369  -3.348  1.00  0.00    -0.237 OA
ATOM     78  O   UNL     1       6.411   0.371  -4.516  1.00  0.00    -0.744 OA
ENDBRANCH  71  75
ENDBRANCH  44  68
BRANCH  56  79
ATOM     79  C   UNL     1      11.138   9.396 -10.735  1.00  0.00     0.023 A 
ATOM     80  C   UNL     1      12.528   9.324 -10.541  1.00  0.00     0.031 A 
ATOM     81  C   UNL     1      10.704  10.105 -11.877  1.00  0.00     0.131 A 
ATOM     82  C   UNL     1      13.418   9.855 -11.491  1.00  0.00     0.055 A 
ATOM     83  C   UNL     1      11.590  10.707 -12.775  1.00  0.00     0.041 A 
ATOM     84  F   UNL     1       9.405  10.208 -12.190  1.00  0.00    -0.206 F 
ATOM     85  C   UNL     1      12.959  10.571 -12.595  1.00  0.00     0.022 A 
BRANCH  82  86
ATOM     86  S   UNL     1      15.187   9.516 -11.302  1.00  0.00     0.124 S 
ATOM     87  O   UNL     1      15.472  10.040  -9.970  1.00  0.00    -0.237 OA
ATOM     88  O   UNL     1      15.225   8.061 -11.433  1.00  0.00    -0.237 OA
ATOM     89  O   UNL     1      15.801  10.251 -12.406  1.00  0.00    -0.744 OA
ENDBRANCH  82  86
ENDBRANCH  56  79
ENDBRANCH  30  31
ENDBRANCH  22  25
ENDBRANCH   1  21
TORSDOF 14
