REMARK SMILES O=C(Cc1ccc(NC(=O)Nc2ccc(Br)cc2)cc1)NCCCNC(=O)c1ccc(-c2c3nc(c(-c4cc(S(=O)(=O)[O-])ccc4F)c4ccc([nH]4)c(-c4cc(S(=O)(=O)[O-])ccc4F)c4nc(c(-c5cc(S(=O)(=O)[O-])ccc5F)c5ccc2[nH]5)C=C4)C=C3)cc1
REMARK SMILES IDX 23 1 22 2 21 3 1 4 2 5 3 7 4 8 5 9 20 10 6 11 19 12 7 13
REMARK SMILES IDX 8 14 9 15 10 17 11 18 12 20 13 21 18 22 14 23 17 24 15 25
REMARK SMILES IDX 16 26 24 27 25 28 26 29 27 31 28 32 29 33 90 34 30 35 89 36
REMARK SMILES IDX 31 37 32 38 33 39 83 40 34 41 88 42 82 43 84 44 35 45 87 46
REMARK SMILES IDX 81 47 80 48 36 50 68 51 48 52 67 53 49 54 52 55 66 56 85 57
REMARK SMILES IDX 50 58 51 59 65 61 86 62 53 63 37 64 38 65 46 66 39 67 45 68
REMARK SMILES IDX 47 69 44 70 40 71 41 72 42 73 43 74 69 75 70 76 78 77 71 78
REMARK SMILES IDX 77 79 79 80 76 81 72 82 73 83 74 84 75 85 54 86 55 87 63 88
REMARK SMILES IDX 56 89 62 90 64 91 61 92 57 93 58 94 59 95 60 96
REMARK H PARENT 21 6 8 16 11 19 25 30 84 49 52 60
REMARK Flexibility Score: inf
ROOT
ATOM      1  C   UNL     1       2.731  -1.072  -3.297  1.00  0.00     0.042 C 
ENDROOT
BRANCH   1   2
ATOM      2  C   UNL     1       2.288  -1.037  -1.843  1.00  0.00     0.117 C 
BRANCH   2   3
ATOM      3  N   UNL     1       2.946  -0.026  -1.034  1.00  0.00    -0.356 N 
ATOM      4  O   UNL     1       1.034   0.617   0.075  1.00  0.00    -0.275 OA
ATOM      5  C   UNL     1       2.249   0.701  -0.086  1.00  0.00     0.224 C 
ATOM      6  H   UNL     1       3.907   0.145  -1.163  1.00  0.00     0.163 HD
BRANCH   5   7
ATOM      7  C   UNL     1       3.109   1.603   0.792  1.00  0.00     0.135 C 
BRANCH   7   8
ATOM      8  C   UNL     1       3.769   0.871   1.940  1.00  0.00    -0.039 A 
ATOM      9  C   UNL     1       3.085  -0.093   2.693  1.00  0.00     0.006 A 
ATOM     10  C   UNL     1       5.093   1.162   2.284  1.00  0.00     0.006 A 
ATOM     11  C   UNL     1       3.759  -0.861   3.652  1.00  0.00     0.026 A 
ATOM     12  C   UNL     1       5.765   0.381   3.228  1.00  0.00     0.026 A 
ATOM     13  C   UNL     1       5.130  -0.708   3.833  1.00  0.00     0.042 A 
BRANCH  13  14
ATOM     14  N   UNL     1       5.950  -1.583   4.562  1.00  0.00    -0.308 N 
ATOM     15  C   UNL     1       5.852  -2.850   5.008  1.00  0.00     0.323 C 
ATOM     16  H   UNL     1       6.809  -1.169   4.807  1.00  0.00     0.171 HD
ATOM     17  O   UNL     1       6.630  -3.191   5.908  1.00  0.00    -0.248 OA
ATOM     18  N   UNL     1       4.974  -3.774   4.576  1.00  0.00    -0.308 N 
ATOM     19  H   UNL     1       4.838  -4.499   5.228  1.00  0.00     0.171 HD
BRANCH  18  20
ATOM     20  C   UNL     1       4.209  -3.946   3.416  1.00  0.00     0.042 A 
ATOM     21  C   UNL     1       3.063  -4.740   3.540  1.00  0.00     0.027 A 
ATOM     22  C   UNL     1       4.501  -3.359   2.185  1.00  0.00     0.027 A 
ATOM     23  C   UNL     1       2.135  -4.810   2.502  1.00  0.00     0.018 A 
ATOM     24  C   UNL     1       3.571  -3.428   1.141  1.00  0.00     0.018 A 
ATOM     25  C   UNL     1       2.377  -4.125   1.317  1.00  0.00     0.018 A 
ATOM     26  Br  UNL     1       1.050  -4.140  -0.028  1.00  0.00    -0.051 Br
ENDBRANCH  18  20
ENDBRANCH  13  14
ENDBRANCH   7   8
ENDBRANCH   5   7
ENDBRANCH   2   3
ENDBRANCH   1   2
BRANCH   1  27
ATOM     27  C   UNL     1       4.178  -1.495  -3.524  1.00  0.00     0.118 C 
BRANCH  27  28
ATOM     28  N   UNL     1       4.467  -2.883  -3.177  1.00  0.00    -0.352 N 
ATOM     29  C   UNL     1       5.076  -3.873  -3.920  1.00  0.00     0.251 C 
ATOM     30  H   UNL     1       4.183  -3.154  -2.274  1.00  0.00     0.163 HD
ATOM     31  O   UNL     1       5.176  -5.005  -3.453  1.00  0.00    -0.269 OA
BRANCH  29  32
ATOM     32  C   UNL     1       5.552  -3.591  -5.293  1.00  0.00     0.039 A 
ATOM     33  C   UNL     1       5.223  -4.479  -6.322  1.00  0.00     0.014 A 
ATOM     34  C   UNL     1       6.263  -2.426  -5.583  1.00  0.00     0.014 A 
ATOM     35  C   UNL     1       5.490  -4.135  -7.651  1.00  0.00     0.010 A 
ATOM     36  C   UNL     1       6.443  -2.042  -6.908  1.00  0.00     0.010 A 
ATOM     37  C   UNL     1       6.037  -2.880  -7.960  1.00  0.00    -0.014 A 
BRANCH  37  38
ATOM     38  C   UNL     1       6.167  -2.391  -9.361  1.00  0.00     0.031 A 
ATOM     39  C   UNL     1       7.517  -1.994  -9.894  1.00  0.00     0.074 A 
ATOM     40  C   UNL     1       5.062  -2.184 -10.108  1.00  0.00     0.049 A 
ATOM     41  N   UNL     1       7.821  -1.354 -10.993  1.00  0.00    -0.248 NA
ATOM     42  C   UNL     1       8.674  -2.327  -9.051  1.00  0.00     0.031 C 
ATOM     43  C   UNL     1       3.689  -2.489  -9.698  1.00  0.00     0.029 A 
ATOM     44  N   UNL     1       4.915  -1.642 -11.363  1.00  0.00    -0.354 N 
ATOM     45  C   UNL     1       9.200  -1.174 -10.957  1.00  0.00     0.074 A 
ATOM     46  C   UNL     1       9.660  -1.728  -9.701  1.00  0.00     0.031 C 
ATOM     47  C   UNL     1       2.846  -2.145 -10.684  1.00  0.00     0.029 A 
ATOM     48  C   UNL     1       3.605  -1.540 -11.773  1.00  0.00     0.049 A 
ATOM     49  H   UNL     1       5.676  -1.353 -11.916  1.00  0.00     0.167 HD
ATOM     50  C   UNL     1      10.008  -0.615 -11.893  1.00  0.00     0.034 A 
ATOM     51  C   UNL     1       3.070  -0.998 -12.886  1.00  0.00     0.034 A 
ATOM     52  C   UNL     1       9.539  -0.098 -13.155  1.00  0.00     0.049 A 
ATOM     53  C   UNL     1       3.986  -0.376 -13.910  1.00  0.00     0.074 A 
ATOM     54  C   UNL     1      10.278   0.429 -14.200  1.00  0.00     0.029 A 
ATOM     55  N   UNL     1       8.207  -0.044 -13.545  1.00  0.00    -0.354 N 
ATOM     56  N   UNL     1       5.291  -0.238 -13.873  1.00  0.00    -0.248 NA
ATOM     57  C   UNL     1       3.358   0.161 -15.125  1.00  0.00     0.031 C 
ATOM     58  C   UNL     1       9.391   0.853 -15.196  1.00  0.00     0.029 A 
ATOM     59  C   UNL     1       8.103   0.527 -14.804  1.00  0.00     0.049 A 
ATOM     60  H   UNL     1       7.447  -0.365 -13.007  1.00  0.00     0.167 HD
ATOM     61  C   UNL     1       5.642   0.367 -15.076  1.00  0.00     0.074 A 
ATOM     62  C   UNL     1       4.413   0.568 -15.816  1.00  0.00     0.031 C 
ATOM     63  C   UNL     1       6.871   0.718 -15.531  1.00  0.00     0.034 A 
BRANCH  50  64
ATOM     64  C   UNL     1      11.480  -0.517 -11.567  1.00  0.00     0.023 A 
ATOM     65  C   UNL     1      12.267  -1.662 -11.358  1.00  0.00     0.031 A 
ATOM     66  C   UNL     1      12.097   0.739 -11.430  1.00  0.00     0.131 A 
ATOM     67  C   UNL     1      13.598  -1.530 -10.937  1.00  0.00     0.055 A 
ATOM     68  C   UNL     1      13.447   0.863 -11.097  1.00  0.00     0.041 A 
ATOM     69  F   UNL     1      11.393   1.869 -11.599  1.00  0.00    -0.206 F 
ATOM     70  C   UNL     1      14.202  -0.276 -10.830  1.00  0.00     0.022 A 
BRANCH  67  71
ATOM     71  S   UNL     1      14.479  -3.015 -10.382  1.00  0.00     0.124 S 
ATOM     72  O   UNL     1      13.629  -3.465  -9.281  1.00  0.00    -0.237 OA
ATOM     73  O   UNL     1      14.473  -3.851 -11.576  1.00  0.00    -0.237 OA
ATOM     74  O   UNL     1      15.789  -2.506  -9.980  1.00  0.00    -0.744 OA
ENDBRANCH  67  71
ENDBRANCH  50  64
BRANCH  51  75
ATOM     75  C   UNL     1       1.593  -0.995 -13.091  1.00  0.00     0.023 A 
ATOM     76  C   UNL     1       1.009  -1.736 -14.130  1.00  0.00     0.031 A 
ATOM     77  C   UNL     1       0.747  -0.222 -12.276  1.00  0.00     0.131 A 
ATOM     78  C   UNL     1      -0.373  -1.656 -14.356  1.00  0.00     0.055 A 
ATOM     79  C   UNL     1      -0.634  -0.185 -12.473  1.00  0.00     0.041 A 
ATOM     80  F   UNL     1       1.254   0.500 -11.264  1.00  0.00    -0.206 F 
ATOM     81  C   UNL     1      -1.201  -0.895 -13.528  1.00  0.00     0.022 A 
BRANCH  78  82
ATOM     82  S   UNL     1      -1.067  -2.502 -15.804  1.00  0.00     0.124 S 
ATOM     83  O   UNL     1      -0.321  -1.883 -16.894  1.00  0.00    -0.237 OA
ATOM     84  O   UNL     1      -0.750  -3.897 -15.519  1.00  0.00    -0.237 OA
ATOM     85  O   UNL     1      -2.487  -2.163 -15.748  1.00  0.00    -0.744 OA
ENDBRANCH  78  82
ENDBRANCH  51  75
BRANCH  63  86
ATOM     86  C   UNL     1       6.952   1.294 -16.921  1.00  0.00     0.023 A 
ATOM     87  C   UNL     1       6.468   2.578 -17.223  1.00  0.00     0.031 A 
ATOM     88  C   UNL     1       7.539   0.544 -17.956  1.00  0.00     0.131 A 
ATOM     89  C   UNL     1       6.547   3.060 -18.539  1.00  0.00     0.055 A 
ATOM     90  C   UNL     1       7.658   1.047 -19.251  1.00  0.00     0.041 A 
ATOM     91  F   UNL     1       8.016  -0.689 -17.718  1.00  0.00    -0.206 F 
ATOM     92  C   UNL     1       7.153   2.309 -19.550  1.00  0.00     0.022 A 
BRANCH  89  93
ATOM     93  S   UNL     1       5.798   4.666 -18.927  1.00  0.00     0.124 S 
ATOM     94  O   UNL     1       4.393   4.429 -18.615  1.00  0.00    -0.237 OA
ATOM     95  O   UNL     1       6.508   5.569 -18.027  1.00  0.00    -0.237 OA
ATOM     96  O   UNL     1       6.096   4.849 -20.347  1.00  0.00    -0.744 OA
ENDBRANCH  89  93
ENDBRANCH  63  86
ENDBRANCH  37  38
ENDBRANCH  29  32
ENDBRANCH  27  28
ENDBRANCH   1  27
TORSDOF 16
