REMARK SMILES C=C(C)COc1ccc2nc(C)n(-c3cccc(C(=O)NCCCNC(=O)c4ccc(-c5c6nc(c(-c7cc(S(=O)(=O)[O-])ccc7F)c7ccc([nH]7)c(-c7cc(S(=O)(=O)[O-])ccc7F)c7nc(c(-c8cc(S(=O)(=O)[O-])ccc8F)c8ccc5[nH]8)C=C7)C=C6)cc4)c3)c(=O)c2c1
REMARK SMILES IDX 22 1 21 2 19 3 20 4 18 6 14 7 15 8 91 9 16 10 17 11 13 12
REMARK SMILES IDX 6 13 7 14 95 15 8 16 94 17 9 18 92 19 10 20 93 21 11 22
REMARK SMILES IDX 12 23 5 24 4 25 2 26 1 27 3 28 23 29 24 30 25 31 26 32 27 34
REMARK SMILES IDX 28 35 29 36 90 37 30 38 89 39 31 40 32 41 33 42 83 43 34 44
REMARK SMILES IDX 88 45 82 46 84 47 35 48 87 49 81 50 80 51 36 53 68 54 48 55
REMARK SMILES IDX 67 56 49 57 52 58 66 59 85 60 50 61 51 62 65 64 86 65 53 66
REMARK SMILES IDX 37 67 38 68 46 69 39 70 45 71 47 72 44 73 40 74 41 75 42 76
REMARK SMILES IDX 43 77 69 78 70 79 78 80 71 81 77 82 79 83 76 84 72 85 73 86
REMARK SMILES IDX 74 87 75 88 54 89 55 90 63 91 56 92 62 93 64 94 61 95 57 96
REMARK SMILES IDX 58 97 59 98 60 99
REMARK H PARENT 21 5 25 33 84 52 52 63
REMARK Flexibility Score: inf
ROOT
ATOM      1  C   UNL     1      -0.606   0.930  10.103  1.00  0.00     0.118 C 
ENDROOT
BRANCH   1   2
ATOM      2  N   UNL     1      -0.091   0.665  11.445  1.00  0.00    -0.352 N 
ATOM      3  C   UNL     1       0.772  -0.270  11.969  1.00  0.00     0.251 C 
ATOM      4  O   UNL     1       1.010  -0.218  13.177  1.00  0.00    -0.269 OA
ATOM      5  H   UNL     1      -0.436   1.292  12.121  1.00  0.00     0.163 HD
BRANCH   3   6
ATOM      6  C   UNL     1       1.370  -1.375  11.173  1.00  0.00     0.041 A 
ATOM      7  C   UNL     1       1.814  -2.442   9.045  1.00  0.00     0.051 A 
ATOM      8  C   UNL     1       2.146  -3.628   9.711  1.00  0.00     0.027 A 
ATOM      9  C   UNL     1       1.590  -1.287   9.802  1.00  0.00     0.040 A 
ATOM     10  C   UNL     1       2.107  -3.687  11.104  1.00  0.00     0.003 A 
ATOM     11  C   UNL     1       1.669  -2.577  11.829  1.00  0.00     0.014 A 
BRANCH   7  12
ATOM     12  N   UNL     1       1.487  -2.419   7.647  1.00  0.00    -0.264 N 
ATOM     13  C   UNL     1       1.394  -0.238   3.295  1.00  0.00     0.120 A 
ATOM     14  C   UNL     1       0.523  -1.241   2.867  1.00  0.00     0.049 A 
ATOM     15  C   UNL     1       1.903  -0.270   4.594  1.00  0.00     0.062 A 
ATOM     16  C   UNL     1       0.130  -2.249   3.742  1.00  0.00     0.033 A 
ATOM     17  C   UNL     1       1.503  -1.294   5.465  1.00  0.00     0.070 A 
ATOM     18  C   UNL     1       0.621  -2.282   5.044  1.00  0.00     0.078 A 
ATOM     19  C   UNL     1       1.983  -1.364   6.860  1.00  0.00     0.266 A 
ATOM     20  N   UNL     1       0.172  -3.294   5.883  1.00  0.00    -0.234 NA
ATOM     21  O   UNL     1       2.778  -0.505   7.243  1.00  0.00    -0.268 OA
ATOM     22  C   UNL     1       0.566  -3.315   7.115  1.00  0.00     0.113 A 
ATOM     23  C   UNL     1      -0.116  -4.363   7.976  1.00  0.00     0.088 C 
BRANCH  13  24
ATOM     24  O   UNL     1       1.848   0.744   2.453  1.00  0.00    -0.489 OA
BRANCH  24  25
ATOM     25  C   UNL     1       0.795   1.547   1.889  1.00  0.00     0.260 C 
BRANCH  25  26
ATOM     26  C   UNL     1       0.239   0.985   0.596  1.00  0.00    -0.043 C 
ATOM     27  C   UNL     1       0.994   0.349  -0.318  1.00  0.00     0.011 C 
ATOM     28  C   UNL     1      -1.249   1.121   0.424  1.00  0.00     0.042 C 
ENDBRANCH  25  26
ENDBRANCH  24  25
ENDBRANCH  13  24
ENDBRANCH   7  12
ENDBRANCH   3   6
ENDBRANCH   1   2
BRANCH   1  29
ATOM     29  C   UNL     1      -2.123   0.985  10.009  1.00  0.00     0.042 C 
BRANCH  29  30
ATOM     30  C   UNL     1      -2.780   2.062  10.854  1.00  0.00     0.118 C 
BRANCH  30  31
ATOM     31  N   UNL     1      -2.486   3.416  10.403  1.00  0.00    -0.352 N 
ATOM     32  C   UNL     1      -3.196   4.306   9.624  1.00  0.00     0.251 C 
ATOM     33  H   UNL     1      -1.616   3.760  10.711  1.00  0.00     0.163 HD
ATOM     34  O   UNL     1      -2.651   5.345   9.272  1.00  0.00    -0.269 OA
BRANCH  32  35
ATOM     35  C   UNL     1      -4.574   4.004   9.165  1.00  0.00     0.039 A 
ATOM     36  C   UNL     1      -5.498   3.365   9.987  1.00  0.00     0.014 A 
ATOM     37  C   UNL     1      -4.961   4.389   7.876  1.00  0.00     0.014 A 
ATOM     38  C   UNL     1      -6.698   2.901   9.457  1.00  0.00     0.010 A 
ATOM     39  C   UNL     1      -6.223   4.031   7.382  1.00  0.00     0.010 A 
ATOM     40  C   UNL     1      -7.078   3.223   8.145  1.00  0.00    -0.014 A 
BRANCH  40  41
ATOM     41  C   UNL     1      -8.361   2.693   7.600  1.00  0.00     0.031 A 
ATOM     42  C   UNL     1      -8.368   1.779   6.400  1.00  0.00     0.074 A 
ATOM     43  C   UNL     1      -9.518   2.974   8.234  1.00  0.00     0.049 A 
ATOM     44  N   UNL     1      -9.385   1.206   5.808  1.00  0.00    -0.248 NA
ATOM     45  C   UNL     1      -7.069   1.466   5.780  1.00  0.00     0.031 C 
ATOM     46  C   UNL     1      -9.637   3.832   9.415  1.00  0.00     0.029 A 
ATOM     47  N   UNL     1     -10.805   2.549   8.007  1.00  0.00    -0.354 N 
ATOM     48  C   UNL     1      -8.855   0.486   4.741  1.00  0.00     0.074 A 
ATOM     49  C   UNL     1      -7.429   0.720   4.744  1.00  0.00     0.031 C 
ATOM     50  C   UNL     1     -10.902   3.806   9.854  1.00  0.00     0.029 A 
ATOM     51  C   UNL     1     -11.710   3.004   8.940  1.00  0.00     0.049 A 
ATOM     52  H   UNL     1     -11.056   1.972   7.249  1.00  0.00     0.167 HD
ATOM     53  C   UNL     1      -9.497  -0.310   3.853  1.00  0.00     0.034 A 
ATOM     54  C   UNL     1     -13.042   2.811   9.047  1.00  0.00     0.034 A 
ATOM     55  C   UNL     1     -10.915  -0.564   3.881  1.00  0.00     0.049 A 
ATOM     56  C   UNL     1     -13.734   1.949   8.023  1.00  0.00     0.074 A 
ATOM     57  C   UNL     1     -11.655  -1.362   3.026  1.00  0.00     0.029 A 
ATOM     58  N   UNL     1     -11.802  -0.048   4.814  1.00  0.00    -0.354 N 
ATOM     59  N   UNL     1     -13.211   1.269   7.030  1.00  0.00    -0.248 NA
ATOM     60  C   UNL     1     -15.195   1.831   8.124  1.00  0.00     0.031 C 
ATOM     61  C   UNL     1     -12.993  -1.288   3.409  1.00  0.00     0.029 A 
ATOM     62  C   UNL     1     -13.084  -0.498   4.543  1.00  0.00     0.049 A 
ATOM     63  H   UNL     1     -11.557   0.549   5.558  1.00  0.00     0.167 HD
ATOM     64  C   UNL     1     -14.275   0.626   6.404  1.00  0.00     0.074 A 
ATOM     65  C   UNL     1     -15.467   0.976   7.147  1.00  0.00     0.031 C 
ATOM     66  C   UNL     1     -14.263  -0.172   5.307  1.00  0.00     0.034 A 
BRANCH  53  67
ATOM     67  C   UNL     1      -8.695  -0.997   2.776  1.00  0.00     0.023 A 
ATOM     68  C   UNL     1      -8.929  -0.691   1.421  1.00  0.00     0.031 A 
ATOM     69  C   UNL     1      -7.820  -2.055   3.078  1.00  0.00     0.131 A 
ATOM     70  C   UNL     1      -8.330  -1.465   0.419  1.00  0.00     0.055 A 
ATOM     71  C   UNL     1      -7.195  -2.798   2.075  1.00  0.00     0.041 A 
ATOM     72  F   UNL     1      -7.562  -2.382   4.354  1.00  0.00    -0.206 F 
ATOM     73  C   UNL     1      -7.461  -2.513   0.739  1.00  0.00     0.022 A 
BRANCH  70  74
ATOM     74  S   UNL     1      -8.702  -1.183  -1.333  1.00  0.00     0.124 S 
ATOM     75  O   UNL     1      -7.370  -0.954  -1.889  1.00  0.00    -0.237 OA
ATOM     76  O   UNL     1      -9.331  -2.443  -1.718  1.00  0.00    -0.237 OA
ATOM     77  O   UNL     1      -9.577  -0.016  -1.323  1.00  0.00    -0.744 OA
ENDBRANCH  70  74
ENDBRANCH  53  67
BRANCH  54  78
ATOM     78  C   UNL     1     -13.785   3.420  10.191  1.00  0.00     0.023 A 
ATOM     79  C   UNL     1     -13.802   4.813  10.389  1.00  0.00     0.031 A 
ATOM     80  C   UNL     1     -14.414   2.611  11.153  1.00  0.00     0.131 A 
ATOM     81  C   UNL     1     -14.367   5.347  11.554  1.00  0.00     0.055 A 
ATOM     82  C   UNL     1     -15.044   3.154  12.275  1.00  0.00     0.041 A 
ATOM     83  F   UNL     1     -14.418   1.276  11.016  1.00  0.00    -0.206 F 
ATOM     84  C   UNL     1     -15.005   4.528  12.490  1.00  0.00     0.022 A 
BRANCH  81  85
ATOM     85  S   UNL     1     -14.160   7.103  11.963  1.00  0.00     0.124 S 
ATOM     86  O   UNL     1     -15.533   7.592  11.905  1.00  0.00    -0.237 OA
ATOM     87  O   UNL     1     -13.569   7.034  13.298  1.00  0.00    -0.237 OA
ATOM     88  O   UNL     1     -13.267   7.595  10.919  1.00  0.00    -0.744 OA
ENDBRANCH  81  85
ENDBRANCH  54  78
BRANCH  66  89
ATOM     89  C   UNL     1     -15.567  -0.757   4.823  1.00  0.00     0.023 A 
ATOM     90  C   UNL     1     -15.747  -2.154   4.814  1.00  0.00     0.031 A 
ATOM     91  C   UNL     1     -16.551   0.046   4.223  1.00  0.00     0.131 A 
ATOM     92  C   UNL     1     -16.864  -2.707   4.176  1.00  0.00     0.055 A 
ATOM     93  C   UNL     1     -17.686  -0.508   3.630  1.00  0.00     0.041 A 
ATOM     94  F   UNL     1     -16.416   1.382   4.197  1.00  0.00    -0.206 F 
ATOM     95  C   UNL     1     -17.838  -1.891   3.591  1.00  0.00     0.022 A 
BRANCH  92  96
ATOM     96  S   UNL     1     -17.046  -4.504   3.999  1.00  0.00     0.124 S 
ATOM     97  O   UNL     1     -18.303  -4.750   4.703  1.00  0.00    -0.237 OA
ATOM     98  O   UNL     1     -17.101  -4.665   2.549  1.00  0.00    -0.237 OA
ATOM     99  O   UNL     1     -15.855  -5.045   4.647  1.00  0.00    -0.744 OA
ENDBRANCH  92  96
ENDBRANCH  66  89
ENDBRANCH  40  41
ENDBRANCH  32  35
ENDBRANCH  30  31
ENDBRANCH  29  30
ENDBRANCH   1  29
TORSDOF 17
