REMARK SMILES CC1(C)C(C(=O)N2CCOC[C@H]2C(=O)NCCCNC(=O)c2ccc(-c3c4nc(c(-c5cc(S(=O)(=O)[O-])ccc5F)c5ccc([nH]5)c(-c5cc(S(=O)(=O)[O-])ccc5F)c5nc(c(-c6cc(S(=O)(=O)[O-])ccc6F)c6ccc3[nH]6)C=C5)C=C4)cc2)C1(C)C
REMARK SMILES IDX 17 1 16 2 15 3 13 4 14 5 12 7 7 8 8 9 9 10 11 11 10 12 5 13
REMARK SMILES IDX 6 14 4 15 1 16 2 17 3 18 85 19 86 20 87 21 18 22 19 23 20 24
REMARK SMILES IDX 21 26 22 27 23 28 84 29 24 30 83 31 25 32 26 33 27 34 77 35
REMARK SMILES IDX 28 36 82 37 76 38 78 39 29 40 81 41 75 42 74 43 30 45 62 46
REMARK SMILES IDX 42 47 61 48 43 49 46 50 60 51 79 52 44 53 45 54 59 56 80 57
REMARK SMILES IDX 47 58 31 59 32 60 40 61 33 62 39 63 41 64 38 65 34 66 35 67
REMARK SMILES IDX 36 68 37 69 63 70 64 71 72 72 65 73 71 74 73 75 70 76 66 77
REMARK SMILES IDX 67 78 68 79 69 80 48 81 49 82 57 83 50 84 56 85 58 86 55 87
REMARK SMILES IDX 51 88 52 89 53 90 54 91
REMARK H PARENT 15 6 19 25 78 44 46 55
REMARK Flexibility Score: inf
ROOT
ATOM      1  C   UNL     1      -4.777  -1.461   4.038  1.00  0.00     0.042 C 
ENDROOT
BRANCH   1   2
ATOM      2  C   UNL     1      -5.057  -2.935   3.762  1.00  0.00     0.117 C 
BRANCH   2   3
ATOM      3  N   UNL     1      -5.333  -3.189   2.358  1.00  0.00    -0.354 N 
ATOM      4  C   UNL     1      -4.611  -3.672   1.313  1.00  0.00     0.245 C 
ATOM      5  O   UNL     1      -5.244  -3.741   0.249  1.00  0.00    -0.273 OA
ATOM      6  H   UNL     1      -6.256  -2.957   2.106  1.00  0.00     0.163 HD
BRANCH   4   7
ATOM      7  C   UNL     1      -3.109  -4.075   1.336  1.00  0.00     0.200 C 
ATOM      8  N   UNL     1      -2.123  -2.982   1.203  1.00  0.00    -0.326 N 
ATOM      9  C   UNL     1      -1.827  -2.319   2.447  1.00  0.00     0.149 C 
ATOM     10  C   UNL     1      -1.388  -3.327   3.518  1.00  0.00     0.181 C 
ATOM     11  C   UNL     1      -2.671  -5.045   2.439  1.00  0.00     0.195 C 
ATOM     12  O   UNL     1      -2.317  -4.409   3.675  1.00  0.00    -0.377 OA
BRANCH   8  13
ATOM     13  C   UNL     1      -1.508  -2.783  -0.025  1.00  0.00     0.227 C 
ATOM     14  O   UNL     1      -1.897  -3.382  -1.019  1.00  0.00    -0.275 OA
BRANCH  13  15
ATOM     15  C   UNL     1      -0.327  -1.882  -0.254  1.00  0.00     0.091 C 
ATOM     16  C   UNL     1       1.471  -0.052  -0.251  1.00  0.00     0.012 C 
ATOM     17  C   UNL     1       0.898  -1.291   0.444  1.00  0.00    -0.017 C 
ATOM     18  C   UNL     1       1.165  -1.179   1.924  1.00  0.00     0.012 C 
ATOM     19  C   UNL     1       1.026  -2.646  -0.246  1.00  0.00    -0.017 C 
ATOM     20  C   UNL     1       1.813  -2.769  -1.528  1.00  0.00     0.012 C 
ATOM     21  C   UNL     1       1.111  -3.929   0.560  1.00  0.00     0.012 C 
ENDBRANCH  13  15
ENDBRANCH   8  13
ENDBRANCH   4   7
ENDBRANCH   2   3
ENDBRANCH   1   2
BRANCH   1  22
ATOM     22  C   UNL     1      -5.918  -0.739   4.730  1.00  0.00     0.118 C 
BRANCH  22  23
ATOM     23  N   UNL     1      -6.061  -1.143   6.120  1.00  0.00    -0.352 N 
ATOM     24  C   UNL     1      -5.965  -0.407   7.277  1.00  0.00     0.251 C 
ATOM     25  H   UNL     1      -6.258  -2.098   6.254  1.00  0.00     0.163 HD
ATOM     26  O   UNL     1      -5.927  -1.001   8.352  1.00  0.00    -0.269 OA
BRANCH  24  27
ATOM     27  C   UNL     1      -5.877   1.074   7.243  1.00  0.00     0.039 A 
ATOM     28  C   UNL     1      -5.096   1.726   8.203  1.00  0.00     0.014 A 
ATOM     29  C   UNL     1      -6.577   1.829   6.300  1.00  0.00     0.014 A 
ATOM     30  C   UNL     1      -4.976   3.119   8.181  1.00  0.00     0.010 A 
ATOM     31  C   UNL     1      -6.370   3.203   6.210  1.00  0.00     0.010 A 
ATOM     32  C   UNL     1      -5.586   3.868   7.163  1.00  0.00    -0.014 A 
BRANCH  32  33
ATOM     33  C   UNL     1      -5.465   5.349   7.102  1.00  0.00     0.031 A 
ATOM     34  C   UNL     1      -6.705   6.202   7.199  1.00  0.00     0.074 A 
ATOM     35  C   UNL     1      -4.263   5.920   6.893  1.00  0.00     0.049 A 
ATOM     36  N   UNL     1      -6.836   7.496   7.056  1.00  0.00    -0.248 NA
ATOM     37  C   UNL     1      -7.971   5.496   7.447  1.00  0.00     0.031 C 
ATOM     38  C   UNL     1      -2.998   5.198   6.739  1.00  0.00     0.029 A 
ATOM     39  N   UNL     1      -3.907   7.239   6.764  1.00  0.00    -0.354 N 
ATOM     40  C   UNL     1      -8.199   7.753   7.171  1.00  0.00     0.074 A 
ATOM     41  C   UNL     1      -8.855   6.473   7.323  1.00  0.00     0.031 C 
ATOM     42  C   UNL     1      -2.003   6.083   6.565  1.00  0.00     0.029 A 
ATOM     43  C   UNL     1      -2.562   7.431   6.545  1.00  0.00     0.049 A 
ATOM     44  H   UNL     1      -4.553   7.979   6.822  1.00  0.00     0.167 HD
ATOM     45  C   UNL     1      -8.842   8.947   7.177  1.00  0.00     0.034 A 
ATOM     46  C   UNL     1      -1.861   8.564   6.339  1.00  0.00     0.034 A 
ATOM     47  C   UNL     1      -8.166  10.216   7.059  1.00  0.00     0.049 A 
ATOM     48  C   UNL     1      -2.596   9.881   6.347  1.00  0.00     0.074 A 
ATOM     49  C   UNL     1      -8.703  11.489   7.122  1.00  0.00     0.029 A 
ATOM     50  N   UNL     1      -6.801  10.370   6.850  1.00  0.00    -0.354 N 
ATOM     51  N   UNL     1      -3.880  10.110   6.506  1.00  0.00    -0.248 NA
ATOM     52  C   UNL     1      -1.786  11.091   6.156  1.00  0.00     0.031 C 
ATOM     53  C   UNL     1      -7.675  12.410   6.890  1.00  0.00     0.029 A 
ATOM     54  C   UNL     1      -6.483  11.716   6.753  1.00  0.00     0.049 A 
ATOM     55  H   UNL     1      -6.154   9.632   6.782  1.00  0.00     0.167 HD
ATOM     56  C   UNL     1      -4.026  11.493   6.457  1.00  0.00     0.074 A 
ATOM     57  C   UNL     1      -2.698  12.044   6.275  1.00  0.00     0.031 C 
ATOM     58  C   UNL     1      -5.154  12.243   6.555  1.00  0.00     0.034 A 
BRANCH  45  59
ATOM     59  C   UNL     1     -10.348   8.926   7.299  1.00  0.00     0.023 A 
ATOM     60  C   UNL     1     -10.991   8.395   8.431  1.00  0.00     0.031 A 
ATOM     61  C   UNL     1     -11.155   9.405   6.252  1.00  0.00     0.131 A 
ATOM     62  C   UNL     1     -12.389   8.273   8.453  1.00  0.00     0.055 A 
ATOM     63  C   UNL     1     -12.550   9.362   6.317  1.00  0.00     0.041 A 
ATOM     64  F   UNL     1     -10.602   9.906   5.136  1.00  0.00    -0.206 F 
ATOM     65  C   UNL     1     -13.175   8.777   7.415  1.00  0.00     0.022 A 
BRANCH  62  66
ATOM     66  S   UNL     1     -13.151   7.308   9.786  1.00  0.00     0.124 S 
ATOM     67  O   UNL     1     -12.523   6.002   9.599  1.00  0.00    -0.237 OA
ATOM     68  O   UNL     1     -12.751   8.045  10.979  1.00  0.00    -0.237 OA
ATOM     69  O   UNL     1     -14.578   7.356   9.471  1.00  0.00    -0.744 OA
ENDBRANCH  62  66
ENDBRANCH  45  59
BRANCH  46  70
ATOM     70  C   UNL     1      -0.391   8.513   6.101  1.00  0.00     0.023 A 
ATOM     71  C   UNL     1       0.510   9.080   7.016  1.00  0.00     0.031 A 
ATOM     72  C   UNL     1       0.136   7.928   4.935  1.00  0.00     0.131 A 
ATOM     73  C   UNL     1       1.885   9.091   6.731  1.00  0.00     0.055 A 
ATOM     74  C   UNL     1       1.508   7.897   4.680  1.00  0.00     0.041 A 
ATOM     75  F   UNL     1      -0.680   7.364   4.030  1.00  0.00    -0.206 F 
ATOM     76  C   UNL     1       2.390   8.493   5.575  1.00  0.00     0.022 A 
BRANCH  73  77
ATOM     77  S   UNL     1       2.999   9.971   7.860  1.00  0.00     0.124 S 
ATOM     78  O   UNL     1       2.440  11.318   7.839  1.00  0.00    -0.237 OA
ATOM     79  O   UNL     1       2.824   9.223   9.100  1.00  0.00    -0.237 OA
ATOM     80  O   UNL     1       4.308   9.827   7.227  1.00  0.00    -0.744 OA
ENDBRANCH  73  77
ENDBRANCH  46  70
BRANCH  58  81
ATOM     81  C   UNL     1      -4.983  13.741   6.497  1.00  0.00     0.023 A 
ATOM     82  C   UNL     1      -4.569  14.389   5.321  1.00  0.00     0.031 A 
ATOM     83  C   UNL     1      -5.227  14.526   7.637  1.00  0.00     0.131 A 
ATOM     84  C   UNL     1      -4.357  15.775   5.326  1.00  0.00     0.055 A 
ATOM     85  C   UNL     1      -5.072  15.912   7.620  1.00  0.00     0.041 A 
ATOM     86  F   UNL     1      -5.623  13.957   8.787  1.00  0.00    -0.206 F 
ATOM     87  C   UNL     1      -4.622  16.543   6.463  1.00  0.00     0.022 A 
BRANCH  84  88
ATOM     88  S   UNL     1      -3.644  16.552   3.851  1.00  0.00     0.124 S 
ATOM     89  O   UNL     1      -2.372  15.848   3.723  1.00  0.00    -0.237 OA
ATOM     90  O   UNL     1      -4.642  16.256   2.828  1.00  0.00    -0.237 OA
ATOM     91  O   UNL     1      -3.537  17.962   4.223  1.00  0.00    -0.744 OA
ENDBRANCH  84  88
ENDBRANCH  58  81
ENDBRANCH  32  33
ENDBRANCH  24  27
ENDBRANCH  22  23
ENDBRANCH   1  22
TORSDOF 15
