REMARK SMILES C=C[C@@H](C)Oc1cnc2ccccc2c1C(=O)NCCCNC(=O)c1ccc(-c2c3nc(c(-c4cc(S(=O)(=O)[O-])ccc4F)c4ccc([nH]4)c(-c4cc(S(=O)(=O)[O-])ccc4F)c4nc(c(-c5cc(S(=O)(=O)[O-])ccc5F)c5ccc2[nH]5)C=C4)C=C3)cc1
REMARK SMILES IDX 20 1 19 2 18 3 16 4 17 5 15 7 6 8 7 9 8 10 14 11 9 12 13 13
REMARK SMILES IDX 10 14 12 15 11 16 5 17 3 18 4 19 2 20 1 21 21 22 22 23 23 24
REMARK SMILES IDX 24 26 25 27 26 28 87 29 27 30 86 31 28 32 29 33 30 34 80 35
REMARK SMILES IDX 31 36 85 37 79 38 81 39 32 40 84 41 78 42 77 43 33 45 65 46
REMARK SMILES IDX 45 47 64 48 46 49 49 50 63 51 82 52 47 53 48 54 62 56 83 57
REMARK SMILES IDX 50 58 34 59 35 60 43 61 36 62 42 63 44 64 41 65 37 66 38 67
REMARK SMILES IDX 39 68 40 69 66 70 67 71 75 72 68 73 74 74 76 75 73 76 69 77
REMARK SMILES IDX 70 78 71 79 72 80 51 81 52 82 60 83 53 84 59 85 61 86 58 87
REMARK SMILES IDX 54 88 55 89 56 90 57 91
REMARK H PARENT 18 6 22 25 81 44 49 55
REMARK Flexibility Score: inf
ROOT
ATOM      1  C   UNL     1      -5.185  -2.406   6.840  1.00  0.00     0.042 C 
ENDROOT
BRANCH   1   2
ATOM      2  C   UNL     1      -4.901  -2.924   5.420  1.00  0.00     0.118 C 
BRANCH   2   3
ATOM      3  N   UNL     1      -4.408  -1.836   4.588  1.00  0.00    -0.352 N 
ATOM      4  C   UNL     1      -3.189  -1.363   4.157  1.00  0.00     0.255 C 
ATOM      5  O   UNL     1      -3.273  -0.258   3.611  1.00  0.00    -0.269 OA
ATOM      6  H   UNL     1      -5.148  -1.289   4.238  1.00  0.00     0.163 HD
BRANCH   4   7
ATOM      7  C   UNL     1      -1.856  -2.080   4.198  1.00  0.00     0.092 A 
ATOM      8  C   UNL     1      -0.977  -1.829   3.116  1.00  0.00     0.151 A 
ATOM      9  C   UNL     1       0.225  -2.515   3.083  1.00  0.00     0.159 A 
ATOM     10  N   UNL     1       0.579  -3.483   3.945  1.00  0.00    -0.252 NA
ATOM     11  C   UNL     1      -1.399  -2.959   5.231  1.00  0.00     0.017 A 
ATOM     12  C   UNL     1      -0.207  -3.686   5.000  1.00  0.00     0.071 A 
ATOM     13  C   UNL     1      -1.966  -3.122   6.513  1.00  0.00     0.011 A 
ATOM     14  C   UNL     1       0.233  -4.632   5.916  1.00  0.00     0.029 A 
ATOM     15  C   UNL     1      -1.531  -4.085   7.426  1.00  0.00     0.001 A 
ATOM     16  C   UNL     1      -0.437  -4.866   7.112  1.00  0.00     0.002 A 
BRANCH   8  17
ATOM     17  O   UNL     1      -1.222  -0.826   2.222  1.00  0.00    -0.484 OA
BRANCH  17  18
ATOM     18  C   UNL     1      -1.131  -1.047   0.807  1.00  0.00     0.192 C 
ATOM     19  C   UNL     1      -1.824  -2.324   0.334  1.00  0.00     0.057 C 
BRANCH  18  20
ATOM     20  C   UNL     1       0.285  -0.922   0.293  1.00  0.00     0.009 C 
ATOM     21  C   UNL     1       0.845   0.223  -0.122  1.00  0.00     0.008 C 
ENDBRANCH  18  20
ENDBRANCH  17  18
ENDBRANCH   8  17
ENDBRANCH   4   7
ENDBRANCH   2   3
ENDBRANCH   1   2
BRANCH   1  22
ATOM     22  C   UNL     1      -6.577  -1.821   7.048  1.00  0.00     0.118 C 
BRANCH  22  23
ATOM     23  N   UNL     1      -7.563  -2.853   7.317  1.00  0.00    -0.352 N 
ATOM     24  C   UNL     1      -8.227  -3.171   8.478  1.00  0.00     0.251 C 
ATOM     25  H   UNL     1      -7.793  -3.416   6.543  1.00  0.00     0.163 HD
ATOM     26  O   UNL     1      -8.813  -4.256   8.533  1.00  0.00    -0.269 OA
BRANCH  24  27
ATOM     27  C   UNL     1      -8.246  -2.265   9.656  1.00  0.00     0.039 A 
ATOM     28  C   UNL     1      -8.301  -2.829  10.937  1.00  0.00     0.014 A 
ATOM     29  C   UNL     1      -8.288  -0.874   9.527  1.00  0.00     0.014 A 
ATOM     30  C   UNL     1      -8.354  -2.009  12.071  1.00  0.00     0.010 A 
ATOM     31  C   UNL     1      -8.247  -0.057  10.659  1.00  0.00     0.010 A 
ATOM     32  C   UNL     1      -8.301  -0.612  11.945  1.00  0.00    -0.014 A 
BRANCH  32  33
ATOM     33  C   UNL     1      -8.351   0.280  13.139  1.00  0.00     0.031 A 
ATOM     34  C   UNL     1      -9.493   1.251  13.310  1.00  0.00     0.074 A 
ATOM     35  C   UNL     1      -7.352   0.252  14.044  1.00  0.00     0.049 A 
ATOM     36  N   UNL     1      -9.680   2.162  14.232  1.00  0.00    -0.248 NA
ATOM     37  C   UNL     1     -10.547   1.214  12.286  1.00  0.00     0.031 C 
ATOM     38  C   UNL     1      -6.173  -0.614  13.975  1.00  0.00     0.029 A 
ATOM     39  N   UNL     1      -7.161   0.975  15.197  1.00  0.00    -0.354 N 
ATOM     40  C   UNL     1     -10.859   2.818  13.888  1.00  0.00     0.074 A 
ATOM     41  C   UNL     1     -11.304   2.243  12.636  1.00  0.00     0.031 C 
ATOM     42  C   UNL     1      -5.400  -0.394  15.051  1.00  0.00     0.029 A 
ATOM     43  C   UNL     1      -6.000   0.658  15.865  1.00  0.00     0.049 A 
ATOM     44  H   UNL     1      -7.797   1.655  15.516  1.00  0.00     0.167 HD
ATOM     45  C   UNL     1     -11.523   3.790  14.563  1.00  0.00     0.034 A 
ATOM     46  C   UNL     1      -5.474   1.163  16.999  1.00  0.00     0.034 A 
ATOM     47  C   UNL     1     -11.078   4.338  15.821  1.00  0.00     0.049 A 
ATOM     48  C   UNL     1      -6.228   2.244  17.733  1.00  0.00     0.074 A 
ATOM     49  C   UNL     1     -11.690   5.295  16.613  1.00  0.00     0.029 A 
ATOM     50  N   UNL     1      -9.906   3.977  16.475  1.00  0.00    -0.354 N 
ATOM     51  N   UNL     1      -7.360   2.827  17.410  1.00  0.00    -0.248 NA
ATOM     52  C   UNL     1      -5.642   2.721  18.991  1.00  0.00     0.031 C 
ATOM     53  C   UNL     1     -10.863   5.554  17.712  1.00  0.00     0.029 A 
ATOM     54  C   UNL     1      -9.770   4.704  17.648  1.00  0.00     0.049 A 
ATOM     55  H   UNL     1      -9.265   3.303  16.153  1.00  0.00     0.167 HD
ATOM     56  C   UNL     1      -7.640   3.712  18.449  1.00  0.00     0.074 A 
ATOM     57  C   UNL     1      -6.565   3.575  19.410  1.00  0.00     0.031 C 
ATOM     58  C   UNL     1      -8.692   4.557  18.598  1.00  0.00     0.034 A 
BRANCH  45  59
ATOM     59  C   UNL     1     -12.789   4.331  13.936  1.00  0.00     0.023 A 
ATOM     60  C   UNL     1     -13.907   3.510  13.702  1.00  0.00     0.031 A 
ATOM     61  C   UNL     1     -12.871   5.677  13.537  1.00  0.00     0.131 A 
ATOM     62  C   UNL     1     -15.020   4.017  13.013  1.00  0.00     0.055 A 
ATOM     63  C   UNL     1     -14.017   6.198  12.930  1.00  0.00     0.041 A 
ATOM     64  F   UNL     1     -11.832   6.508  13.715  1.00  0.00    -0.206 F 
ATOM     65  C   UNL     1     -15.093   5.362  12.649  1.00  0.00     0.022 A 
BRANCH  62  66
ATOM     66  S   UNL     1     -16.301   2.857  12.463  1.00  0.00     0.124 S 
ATOM     67  O   UNL     1     -15.532   1.952  11.611  1.00  0.00    -0.237 OA
ATOM     68  O   UNL     1     -16.778   2.293  13.724  1.00  0.00    -0.237 OA
ATOM     69  O   UNL     1     -17.255   3.706  11.759  1.00  0.00    -0.744 OA
ENDBRANCH  62  66
ENDBRANCH  45  59
BRANCH  46  70
ATOM     70  C   UNL     1      -4.172   0.656  17.522  1.00  0.00     0.023 A 
ATOM     71  C   UNL     1      -4.099  -0.014  18.754  1.00  0.00     0.031 A 
ATOM     72  C   UNL     1      -2.973   0.872  16.818  1.00  0.00     0.131 A 
ATOM     73  C   UNL     1      -2.852  -0.400  19.269  1.00  0.00     0.055 A 
ATOM     74  C   UNL     1      -1.741   0.438  17.310  1.00  0.00     0.041 A 
ATOM     75  F   UNL     1      -2.986   1.501  15.633  1.00  0.00    -0.206 F 
ATOM     76  C   UNL     1      -1.673  -0.190  18.550  1.00  0.00     0.022 A 
BRANCH  73  77
ATOM     77  S   UNL     1      -2.783  -1.103  20.940  1.00  0.00     0.124 S 
ATOM     78  O   UNL     1      -3.395  -0.045  21.734  1.00  0.00    -0.237 OA
ATOM     79  O   UNL     1      -3.566  -2.325  20.785  1.00  0.00    -0.237 OA
ATOM     80  O   UNL     1      -1.353  -1.307  21.164  1.00  0.00    -0.744 OA
ENDBRANCH  73  77
ENDBRANCH  46  70
BRANCH  58  81
ATOM     81  C   UNL     1      -8.756   5.350  19.880  1.00  0.00     0.023 A 
ATOM     82  C   UNL     1      -7.809   6.342  20.190  1.00  0.00     0.031 A 
ATOM     83  C   UNL     1      -9.774   5.092  20.816  1.00  0.00     0.131 A 
ATOM     84  C   UNL     1      -7.862   6.994  21.432  1.00  0.00     0.055 A 
ATOM     85  C   UNL     1      -9.858   5.788  22.022  1.00  0.00     0.041 A 
ATOM     86  F   UNL     1     -10.705   4.155  20.572  1.00  0.00    -0.206 F 
ATOM     87  C   UNL     1      -8.889   6.735  22.343  1.00  0.00     0.022 A 
BRANCH  84  88
ATOM     88  S   UNL     1      -6.507   8.112  21.886  1.00  0.00     0.124 S 
ATOM     89  O   UNL     1      -5.343   7.239  21.776  1.00  0.00    -0.237 OA
ATOM     90  O   UNL     1      -6.616   9.159  20.876  1.00  0.00    -0.237 OA
ATOM     91  O   UNL     1      -6.846   8.526  23.246  1.00  0.00    -0.744 OA
ENDBRANCH  84  88
ENDBRANCH  58  81
ENDBRANCH  32  33
ENDBRANCH  24  27
ENDBRANCH  22  23
ENDBRANCH   1  22
TORSDOF 16
