REMARK SMILES CCC[C@@H]([NH2+]Cc1cc(Cl)cs1)C(=O)NCCCNC(=O)c1ccc(-c2c3nc(c(-c4cc(S(=O)(=O)[O-])ccc4F)c4ccc([nH]4)c(-c4cc(S(=O)(=O)[O-])ccc4F)c4nc(c(-c5cc(S(=O)(=O)[O-])ccc5F)c5ccc2[nH]5)C=C4)C=C3)cc1
REMARK SMILES IDX 17 1 16 2 15 3 13 4 14 5 4 7 3 8 2 9 1 10 5 11 6 14 7 15
REMARK SMILES IDX 8 16 12 17 9 18 11 19 10 20 18 21 19 22 20 23 21 25 22 26
REMARK SMILES IDX 23 27 84 28 24 29 83 30 25 31 26 32 27 33 77 34 28 35 82 36
REMARK SMILES IDX 76 37 78 38 29 39 81 40 75 41 74 42 30 44 62 45 42 46 61 47
REMARK SMILES IDX 43 48 46 49 60 50 79 51 44 52 45 53 59 55 80 56 47 57 31 58
REMARK SMILES IDX 32 59 40 60 33 61 39 62 41 63 38 64 34 65 35 66 36 67 37 68
REMARK SMILES IDX 63 69 64 70 72 71 65 72 71 73 73 74 70 75 66 76 67 77 68 78
REMARK SMILES IDX 69 79 48 80 49 81 57 82 50 83 56 84 58 85 55 86 51 87 52 88
REMARK SMILES IDX 53 89 54 90
REMARK H PARENT 15 6 5 12 5 13 19 24 78 43 46 54
REMARK Flexibility Score: inf
ROOT
ATOM      1  C   UNL     1       0.314  -0.725   5.997  1.00  0.00     0.042 C 
ENDROOT
BRANCH   1   2
ATOM      2  C   UNL     1      -0.380   0.457   5.327  1.00  0.00     0.118 C 
BRANCH   2   3
ATOM      3  N   UNL     1       0.547   1.536   5.029  1.00  0.00    -0.351 N 
ATOM      4  C   UNL     1       0.990   2.011   3.830  1.00  0.00     0.278 C 
ATOM      5  O   UNL     1       1.761   2.976   3.849  1.00  0.00    -0.268 OA
ATOM      6  H   UNL     1       0.914   1.997   5.818  1.00  0.00     0.163 HD
BRANCH   4   7
ATOM      7  C   UNL     1       0.539   1.394   2.485  1.00  0.00     0.272 C 
BRANCH   7   8
ATOM      8  C   UNL     1       1.103  -0.036   2.338  1.00  0.00     0.075 C 
BRANCH   8   9
ATOM      9  C   UNL     1       0.731  -0.788   1.056  1.00  0.00     0.003 C 
ATOM     10  C   UNL     1       1.314  -0.174  -0.204  1.00  0.00     0.004 C 
ENDBRANCH   8   9
ENDBRANCH   7   8
BRANCH   7  11
ATOM     11  N   UNL     1      -0.934   1.441   2.328  1.00  0.00    -0.332 N 
ATOM     12  H   UNL     1      -1.351   0.857   3.053  1.00  0.00     0.347 HD
ATOM     13  H   UNL     1      -1.135   1.111   1.384  1.00  0.00     0.347 HD
BRANCH  11  14
ATOM     14  C   UNL     1      -1.516   2.784   2.432  1.00  0.00     0.309 C 
BRANCH  14  15
ATOM     15  C   UNL     1      -1.208   3.711   1.287  1.00  0.00     0.060 A 
ATOM     16  C   UNL     1      -1.048   5.085   1.347  1.00  0.00     0.041 A 
ATOM     17  S   UNL     1      -1.099   3.153  -0.334  1.00  0.00    -0.141 S 
ATOM     18  C   UNL     1      -0.767   5.659   0.077  1.00  0.00     0.052 A 
ATOM     19  C   UNL     1      -0.717   4.713  -0.918  1.00  0.00     0.085 A 
ATOM     20  Cl  UNL     1      -0.523   7.333  -0.153  1.00  0.00    -0.083 Cl
ENDBRANCH  14  15
ENDBRANCH  11  14
ENDBRANCH   7  11
ENDBRANCH   4   7
ENDBRANCH   2   3
ENDBRANCH   1   2
BRANCH   1  21
ATOM     21  C   UNL     1       0.890  -0.416   7.375  1.00  0.00     0.118 C 
BRANCH  21  22
ATOM     22  N   UNL     1      -0.137  -0.057   8.342  1.00  0.00    -0.352 N 
ATOM     23  C   UNL     1      -0.471  -0.642   9.536  1.00  0.00     0.251 C 
ATOM     24  H   UNL     1      -0.677   0.730   8.101  1.00  0.00     0.163 HD
ATOM     25  O   UNL     1      -1.515  -0.294  10.096  1.00  0.00    -0.269 OA
BRANCH  23  26
ATOM     26  C   UNL     1       0.380  -1.689  10.140  1.00  0.00     0.039 A 
ATOM     27  C   UNL     1      -0.236  -2.779  10.762  1.00  0.00     0.014 A 
ATOM     28  C   UNL     1       1.775  -1.596  10.124  1.00  0.00     0.014 A 
ATOM     29  C   UNL     1       0.543  -3.800  11.309  1.00  0.00     0.010 A 
ATOM     30  C   UNL     1       2.550  -2.654  10.597  1.00  0.00     0.010 A 
ATOM     31  C   UNL     1       1.943  -3.767  11.197  1.00  0.00    -0.014 A 
BRANCH  31  32
ATOM     32  C   UNL     1       2.772  -4.900  11.685  1.00  0.00     0.031 A 
ATOM     33  C   UNL     1       3.766  -4.702  12.797  1.00  0.00     0.074 A 
ATOM     34  C   UNL     1       2.670  -6.098  11.079  1.00  0.00     0.049 A 
ATOM     35  N   UNL     1       4.587  -5.566  13.338  1.00  0.00    -0.248 NA
ATOM     36  C   UNL     1       3.874  -3.345  13.349  1.00  0.00     0.031 C 
ATOM     37  C   UNL     1       1.795  -6.394   9.942  1.00  0.00     0.029 A 
ATOM     38  N   UNL     1       3.309  -7.287  11.323  1.00  0.00    -0.354 N 
ATOM     39  C   UNL     1       5.320  -4.856  14.284  1.00  0.00     0.074 A 
ATOM     40  C   UNL     1       4.888  -3.477  14.190  1.00  0.00     0.031 C 
ATOM     41  C   UNL     1       1.935  -7.684   9.602  1.00  0.00     0.029 A 
ATOM     42  C   UNL     1       2.937  -8.298  10.468  1.00  0.00     0.049 A 
ATOM     43  H   UNL     1       3.971  -7.406  12.042  1.00  0.00     0.167 HD
ATOM     44  C   UNL     1       6.247  -5.316  15.162  1.00  0.00     0.034 A 
ATOM     45  C   UNL     1       3.361  -9.574  10.379  1.00  0.00     0.034 A 
ATOM     46  C   UNL     1       6.661  -6.699  15.237  1.00  0.00     0.049 A 
ATOM     47  C   UNL     1       4.385 -10.069  11.363  1.00  0.00     0.074 A 
ATOM     48  C   UNL     1       7.524  -7.294  16.140  1.00  0.00     0.029 A 
ATOM     49  N   UNL     1       6.257  -7.701  14.361  1.00  0.00    -0.354 N 
ATOM     50  N   UNL     1       5.003  -9.408  12.316  1.00  0.00    -0.248 NA
ATOM     51  C   UNL     1       4.756 -11.485  11.271  1.00  0.00     0.031 C 
ATOM     52  C   UNL     1       7.705  -8.630  15.763  1.00  0.00     0.029 A 
ATOM     53  C   UNL     1       6.889  -8.897  14.674  1.00  0.00     0.049 A 
ATOM     54  H   UNL     1       5.615  -7.580  13.624  1.00  0.00     0.167 HD
ATOM     55  C   UNL     1       5.830 -10.333  12.945  1.00  0.00     0.074 A 
ATOM     56  C   UNL     1       5.607 -11.603  12.281  1.00  0.00     0.031 C 
ATOM     57  C   UNL     1       6.692 -10.150  13.979  1.00  0.00     0.034 A 
BRANCH  44  58
ATOM     58  C   UNL     1       6.896  -4.301  16.078  1.00  0.00     0.023 A 
ATOM     59  C   UNL     1       6.143  -3.527  16.981  1.00  0.00     0.031 A 
ATOM     60  C   UNL     1       8.281  -4.062  16.012  1.00  0.00     0.131 A 
ATOM     61  C   UNL     1       6.756  -2.488  17.698  1.00  0.00     0.055 A 
ATOM     62  C   UNL     1       8.901  -3.089  16.800  1.00  0.00     0.041 A 
ATOM     63  F   UNL     1       9.055  -4.752  15.160  1.00  0.00    -0.206 F 
ATOM     64  C   UNL     1       8.135  -2.280  17.633  1.00  0.00     0.022 A 
BRANCH  61  65
ATOM     65  S   UNL     1       5.697  -1.296  18.567  1.00  0.00     0.124 S 
ATOM     66  O   UNL     1       4.822  -0.839  17.490  1.00  0.00    -0.237 OA
ATOM     67  O   UNL     1       5.071  -2.122  19.592  1.00  0.00    -0.237 OA
ATOM     68  O   UNL     1       6.641  -0.295  19.059  1.00  0.00    -0.744 OA
ENDBRANCH  61  65
ENDBRANCH  44  58
BRANCH  45  69
ATOM     69  C   UNL     1       2.823 -10.460   9.309  1.00  0.00     0.023 A 
ATOM     70  C   UNL     1       1.996 -11.553   9.611  1.00  0.00     0.031 A 
ATOM     71  C   UNL     1       3.124 -10.212   7.957  1.00  0.00     0.131 A 
ATOM     72  C   UNL     1       1.518 -12.373   8.577  1.00  0.00     0.055 A 
ATOM     73  C   UNL     1       2.610 -11.003   6.930  1.00  0.00     0.041 A 
ATOM     74  F   UNL     1       3.901  -9.172   7.616  1.00  0.00    -0.206 F 
ATOM     75  C   UNL     1       1.808 -12.097   7.238  1.00  0.00     0.022 A 
BRANCH  72  76
ATOM     76  S   UNL     1       0.539 -13.838   9.008  1.00  0.00     0.124 S 
ATOM     77  O   UNL     1       1.485 -14.604   9.810  1.00  0.00    -0.237 OA
ATOM     78  O   UNL     1      -0.586 -13.250   9.729  1.00  0.00    -0.237 OA
ATOM     79  O   UNL     1       0.206 -14.419   7.709  1.00  0.00    -0.744 OA
ENDBRANCH  72  76
ENDBRANCH  45  69
BRANCH  57  80
ATOM     80  C   UNL     1       7.450 -11.368  14.454  1.00  0.00     0.023 A 
ATOM     81  C   UNL     1       8.382 -12.025  13.630  1.00  0.00     0.031 A 
ATOM     82  C   UNL     1       7.214 -11.900  15.735  1.00  0.00     0.131 A 
ATOM     83  C   UNL     1       8.990 -13.212  14.066  1.00  0.00     0.055 A 
ATOM     84  C   UNL     1       7.875 -13.042  16.190  1.00  0.00     0.041 A 
ATOM     85  F   UNL     1       6.332 -11.320  16.564  1.00  0.00    -0.206 F 
ATOM     86  C   UNL     1       8.756 -13.715  15.348  1.00  0.00     0.022 A 
BRANCH  83  87
ATOM     87  S   UNL     1       9.998 -14.157  12.891  1.00  0.00     0.124 S 
ATOM     88  O   UNL     1       9.053 -14.391  11.803  1.00  0.00    -0.237 OA
ATOM     89  O   UNL     1      11.089 -13.233  12.601  1.00  0.00    -0.237 OA
ATOM     90  O   UNL     1      10.378 -15.349  13.647  1.00  0.00    -0.744 OA
ENDBRANCH  83  87
ENDBRANCH  57  80
ENDBRANCH  31  32
ENDBRANCH  23  26
ENDBRANCH  21  22
ENDBRANCH   1  21
TORSDOF 18
