REMARK SMILES C[NH+]1CCC2(CC1)OC[C@H](C(=O)NCCCNC(=O)c1ccc(-c3c4nc(c(-c5cc(S(=O)(=O)[O-])ccc5F)c5ccc([nH]5)c(-c5cc(S(=O)(=O)[O-])ccc5F)c5nc(c(-c6cc(S(=O)(=O)[O-])ccc6F)c6ccc3[nH]6)C=C5)C=C4)cc1)N2C(=O)c1cc(C(F)(F)F)cc(C(F)(F)F)c1
REMARK SMILES IDX 15 1 14 2 13 3 11 4 12 5 10 7 1 8 2 9 3 10 7 11 4 13 6 14
REMARK SMILES IDX 5 15 8 16 83 17 9 18 84 19 85 20 86 21 87 22 99 23 88 24
REMARK SMILES IDX 94 25 93 26 89 27 90 28 91 29 92 30 95 31 96 32 97 33 98 34
REMARK SMILES IDX 16 35 17 36 18 37 19 39 20 40 21 41 82 42 22 43 81 44 23 45
REMARK SMILES IDX 24 46 25 47 75 48 26 49 80 50 74 51 76 52 27 53 79 54 73 55
REMARK SMILES IDX 72 56 28 58 60 59 40 60 59 61 41 62 44 63 58 64 77 65 42 66
REMARK SMILES IDX 43 67 57 69 78 70 45 71 29 72 30 73 38 74 31 75 37 76 39 77
REMARK SMILES IDX 36 78 32 79 33 80 34 81 35 82 61 83 62 84 70 85 63 86 69 87
REMARK SMILES IDX 71 88 68 89 64 90 65 91 66 92 67 93 46 94 47 95 55 96 48 97
REMARK SMILES IDX 54 98 56 99 53 100 49 101 50 102 51 103 52 104
REMARK H PARENT 13 6 2 12 17 38 76 57 44 68
REMARK Flexibility Score: inf
ROOT
ATOM      1  C   UNL     1       6.665  -4.358   1.167  1.00  0.00     0.042 C 
ENDROOT
BRANCH   1   2
ATOM      2  C   UNL     1       5.190  -4.023   1.134  1.00  0.00     0.117 C 
BRANCH   2   3
ATOM      3  N   UNL     1       4.314  -5.134   1.482  1.00  0.00    -0.354 N 
ATOM      4  C   UNL     1       3.241  -5.260   2.316  1.00  0.00     0.245 C 
ATOM      5  O   UNL     1       2.534  -6.253   2.092  1.00  0.00    -0.273 OA
ATOM      6  H   UNL     1       4.545  -5.971   1.017  1.00  0.00     0.163 HD
BRANCH   4   7
ATOM      7  C   UNL     1       2.809  -4.241   3.409  1.00  0.00     0.203 C 
ATOM      8  C   UNL     1       1.328   0.704  -0.312  1.00  0.00     0.332 C 
ATOM      9  N   UNL     1       0.872  -0.385   0.540  1.00  0.00    -0.337 N 
ATOM     10  C   UNL     1       1.450  -1.658   0.142  1.00  0.00     0.267 C 
ATOM     11  C   UNL     1       0.878  -0.053   1.963  1.00  0.00     0.267 C 
ATOM     12  H   UNL     1      -0.126  -0.524   0.381  1.00  0.00     0.347 HD
ATOM     13  C   UNL     1       2.618  -2.131   0.968  1.00  0.00     0.120 C 
ATOM     14  C   UNL     1       1.905  -0.704   2.878  1.00  0.00     0.120 C 
ATOM     15  C   UNL     1       2.384  -2.095   2.481  1.00  0.00     0.155 C 
ATOM     16  O   UNL     1       3.722  -2.129   3.097  1.00  0.00    -0.352 OA
ATOM     17  N   UNL     1       1.748  -3.313   3.013  1.00  0.00    -0.295 N 
ATOM     18  C   UNL     1       3.854  -3.301   3.918  1.00  0.00     0.198 C 
BRANCH  17  19
ATOM     19  C   UNL     1       0.441  -3.687   3.298  1.00  0.00     0.256 C 
ATOM     20  O   UNL     1       0.148  -4.734   3.874  1.00  0.00    -0.269 OA
BRANCH  19  21
ATOM     21  C   UNL     1      -0.701  -2.810   3.006  1.00  0.00     0.041 A 
ATOM     22  C   UNL     1      -1.319  -2.103   4.045  1.00  0.00     0.027 A 
ATOM     23  C   UNL     1      -1.226  -2.756   1.718  1.00  0.00     0.027 A 
ATOM     24  C   UNL     1      -2.389  -1.234   3.768  1.00  0.00     0.057 A 
ATOM     25  C   UNL     1      -2.196  -1.796   1.392  1.00  0.00     0.057 A 
ATOM     26  C   UNL     1      -2.789  -1.056   2.430  1.00  0.00     0.026 A 
BRANCH  24  27
ATOM     27  C   UNL     1      -3.072  -0.484   4.886  1.00  0.00     0.416 C 
ATOM     28  F   UNL     1      -3.764  -1.309   5.718  1.00  0.00    -0.166 F 
ATOM     29  F   UNL     1      -2.194   0.197   5.672  1.00  0.00    -0.166 F 
ATOM     30  F   UNL     1      -3.971   0.441   4.446  1.00  0.00    -0.166 F 
ENDBRANCH  24  27
BRANCH  25  31
ATOM     31  C   UNL     1      -2.515  -1.477  -0.051  1.00  0.00     0.416 C 
ATOM     32  F   UNL     1      -3.817  -1.722  -0.361  1.00  0.00    -0.166 F 
ATOM     33  F   UNL     1      -2.309  -0.161  -0.346  1.00  0.00    -0.166 F 
ATOM     34  F   UNL     1      -1.774  -2.183  -0.949  1.00  0.00    -0.166 F 
ENDBRANCH  25  31
ENDBRANCH  19  21
ENDBRANCH  17  19
ENDBRANCH   4   7
ENDBRANCH   2   3
ENDBRANCH   1   2
BRANCH   1  35
ATOM     35  C   UNL     1       7.122  -5.124  -0.062  1.00  0.00     0.118 C 
BRANCH  35  36
ATOM     36  N   UNL     1       6.979  -4.349  -1.294  1.00  0.00    -0.352 N 
ATOM     37  C   UNL     1       7.930  -3.834  -2.144  1.00  0.00     0.251 C 
ATOM     38  H   UNL     1       6.049  -4.166  -1.559  1.00  0.00     0.163 HD
ATOM     39  O   UNL     1       7.595  -3.027  -3.003  1.00  0.00    -0.269 OA
BRANCH  37  40
ATOM     40  C   UNL     1       9.346  -4.236  -2.002  1.00  0.00     0.039 A 
ATOM     41  C   UNL     1      10.352  -3.285  -2.182  1.00  0.00     0.014 A 
ATOM     42  C   UNL     1       9.679  -5.553  -1.682  1.00  0.00     0.014 A 
ATOM     43  C   UNL     1      11.683  -3.640  -1.954  1.00  0.00     0.010 A 
ATOM     44  C   UNL     1      10.983  -5.870  -1.333  1.00  0.00     0.010 A 
ATOM     45  C   UNL     1      12.004  -4.921  -1.477  1.00  0.00    -0.014 A 
BRANCH  45  46
ATOM     46  C   UNL     1      13.399  -5.305  -1.143  1.00  0.00     0.031 A 
ATOM     47  C   UNL     1      14.048  -6.461  -1.857  1.00  0.00     0.074 A 
ATOM     48  C   UNL     1      14.048  -4.668  -0.149  1.00  0.00     0.049 A 
ATOM     49  N   UNL     1      15.210  -7.021  -1.643  1.00  0.00    -0.248 NA
ATOM     50  C   UNL     1      13.264  -7.097  -2.928  1.00  0.00     0.031 C 
ATOM     51  C   UNL     1      13.499  -3.570   0.651  1.00  0.00     0.029 A 
ATOM     52  N   UNL     1      15.305  -4.856   0.368  1.00  0.00    -0.354 N 
ATOM     53  C   UNL     1      15.291  -8.078  -2.543  1.00  0.00     0.074 A 
ATOM     54  C   UNL     1      14.024  -8.134  -3.238  1.00  0.00     0.031 C 
ATOM     55  C   UNL     1      14.423  -3.165   1.536  1.00  0.00     0.029 A 
ATOM     56  C   UNL     1      15.608  -4.007   1.407  1.00  0.00     0.049 A 
ATOM     57  H   UNL     1      15.931  -5.535   0.027  1.00  0.00     0.167 HD
ATOM     58  C   UNL     1      16.338  -8.902  -2.794  1.00  0.00     0.034 A 
ATOM     59  C   UNL     1      16.708  -3.928   2.181  1.00  0.00     0.034 A 
ATOM     60  C   UNL     1      17.595  -8.825  -2.090  1.00  0.00     0.049 A 
ATOM     61  C   UNL     1      17.851  -4.873   1.911  1.00  0.00     0.074 A 
ATOM     62  C   UNL     1      18.739  -9.578  -2.282  1.00  0.00     0.029 A 
ATOM     63  N   UNL     1      17.870  -7.945  -1.049  1.00  0.00    -0.354 N 
ATOM     64  N   UNL     1      17.933  -5.836   1.021  1.00  0.00    -0.248 NA
ATOM     65  C   UNL     1      19.052  -4.713   2.737  1.00  0.00     0.031 C 
ATOM     66  C   UNL     1      19.675  -9.207  -1.311  1.00  0.00     0.029 A 
ATOM     67  C   UNL     1      19.153  -8.159  -0.569  1.00  0.00     0.049 A 
ATOM     68  H   UNL     1      17.244  -7.268  -0.703  1.00  0.00     0.167 HD
ATOM     69  C   UNL     1      19.207  -6.378   1.164  1.00  0.00     0.074 A 
ATOM     70  C   UNL     1      19.861  -5.621   2.212  1.00  0.00     0.031 C 
ATOM     71  C   UNL     1      19.786  -7.404   0.488  1.00  0.00     0.034 A 
BRANCH  58  72
ATOM     72  C   UNL     1      16.147  -9.959  -3.858  1.00  0.00     0.023 A 
ATOM     73  C   UNL     1      15.843  -9.616  -5.188  1.00  0.00     0.031 A 
ATOM     74  C   UNL     1      16.218 -11.325  -3.535  1.00  0.00     0.131 A 
ATOM     75  C   UNL     1      15.524 -10.618  -6.117  1.00  0.00     0.055 A 
ATOM     76  C   UNL     1      15.996 -12.321  -4.490  1.00  0.00     0.041 A 
ATOM     77  F   UNL     1      16.481 -11.719  -2.279  1.00  0.00    -0.206 F 
ATOM     78  C   UNL     1      15.627 -11.970  -5.785  1.00  0.00     0.022 A 
BRANCH  75  79
ATOM     79  S   UNL     1      14.800 -10.122  -7.705  1.00  0.00     0.124 S 
ATOM     80  O   UNL     1      13.618  -9.379  -7.270  1.00  0.00    -0.237 OA
ATOM     81  O   UNL     1      15.867  -9.330  -8.305  1.00  0.00    -0.237 OA
ATOM     82  O   UNL     1      14.517 -11.395  -8.365  1.00  0.00    -0.744 OA
ENDBRANCH  75  79
ENDBRANCH  58  72
BRANCH  59  83
ATOM     83  C   UNL     1      16.776  -2.932   3.290  1.00  0.00     0.023 A 
ATOM     84  C   UNL     1      17.713  -1.887   3.276  1.00  0.00     0.031 A 
ATOM     85  C   UNL     1      15.912  -3.027   4.396  1.00  0.00     0.131 A 
ATOM     86  C   UNL     1      17.793  -1.004   4.364  1.00  0.00     0.055 A 
ATOM     87  C   UNL     1      15.957  -2.112   5.450  1.00  0.00     0.041 A 
ATOM     88  F   UNL     1      14.993  -4.003   4.459  1.00  0.00    -0.206 F 
ATOM     89  C   UNL     1      16.911  -1.100   5.443  1.00  0.00     0.022 A 
BRANCH  86  90
ATOM     90  S   UNL     1      19.124   0.228   4.389  1.00  0.00     0.124 S 
ATOM     91  O   UNL     1      20.310  -0.616   4.308  1.00  0.00    -0.237 OA
ATOM     92  O   UNL     1      18.820   1.026   3.206  1.00  0.00    -0.237 OA
ATOM     93  O   UNL     1      18.929   0.913   5.666  1.00  0.00    -0.744 OA
ENDBRANCH  86  90
ENDBRANCH  59  83
BRANCH  71  94
ATOM     94  C   UNL     1      21.217  -7.736   0.838  1.00  0.00     0.023 A 
ATOM     95  C   UNL     1      21.576  -8.236   2.102  1.00  0.00     0.031 A 
ATOM     96  C   UNL     1      22.238  -7.542  -0.110  1.00  0.00     0.131 A 
ATOM     97  C   UNL     1      22.926  -8.468   2.404  1.00  0.00     0.055 A 
ATOM     98  C   UNL     1      23.571  -7.841   0.173  1.00  0.00     0.041 A 
ATOM     99  F   UNL     1      21.955  -7.062  -1.331  1.00  0.00    -0.206 F 
ATOM    100  C   UNL     1      23.923  -8.293   1.441  1.00  0.00     0.022 A 
BRANCH  97 101
ATOM    101  S   UNL     1      23.374  -8.900   4.107  1.00  0.00     0.124 S 
ATOM    102  O   UNL     1      22.849  -7.763   4.856  1.00  0.00    -0.237 OA
ATOM    103  O   UNL     1      22.678 -10.168   4.301  1.00  0.00    -0.237 OA
ATOM    104  O   UNL     1      24.832  -8.994   4.064  1.00  0.00    -0.744 OA
ENDBRANCH  97 101
ENDBRANCH  71  94
ENDBRANCH  45  46
ENDBRANCH  37  40
ENDBRANCH  35  36
ENDBRANCH   1  35
TORSDOF 17
