REMARK SMILES COCc1cccc(C(=O)N2C[C@@H](O)C[C@@H]2C(=O)NCCCNC(=O)c2ccc(-c3c4nc(c(-c5cc(S(=O)(=O)[O-])ccc5F)c5ccc([nH]5)c(-c5cc(S(=O)(=O)[O-])ccc5F)c5nc(c(-c6cc(S(=O)(=O)[O-])ccc6F)c6ccc3[nH]6)C=C5)C=C4)cc2)c1
REMARK SMILES IDX 20 1 19 2 17 3 18 4 16 6 11 7 12 8 13 9 15 10 9 11 10 12
REMARK SMILES IDX 8 13 4 14 5 15 89 16 6 17 7 18 3 19 2 20 1 21 14 22 21 24
REMARK SMILES IDX 22 25 23 26 24 27 25 29 26 30 27 31 88 32 28 33 87 34 29 35
REMARK SMILES IDX 30 36 31 37 81 38 32 39 86 40 80 41 82 42 33 43 85 44 79 45
REMARK SMILES IDX 78 46 34 48 66 49 46 50 65 51 47 52 50 53 64 54 83 55 48 56
REMARK SMILES IDX 49 57 63 59 84 60 51 61 35 62 36 63 44 64 37 65 43 66 45 67
REMARK SMILES IDX 42 68 38 69 39 70 40 71 41 72 67 73 68 74 76 75 69 76 75 77
REMARK SMILES IDX 77 78 74 79 70 80 71 81 72 82 73 83 52 84 53 85 61 86 54 87
REMARK SMILES IDX 60 88 62 89 59 90 55 91 56 92 57 93 58 94
REMARK H PARENT 19 5 14 23 23 28 82 47 50 58
REMARK Flexibility Score: inf
ROOT
ATOM      1  C   UNL     1      -2.054  -6.004   0.083  1.00  0.00     0.117 C 
ENDROOT
BRANCH   1   2
ATOM      2  N   UNL     1      -2.160  -4.578   0.326  1.00  0.00    -0.354 N 
ATOM      3  C   UNL     1      -1.182  -3.711   0.725  1.00  0.00     0.242 C 
ATOM      4  O   UNL     1      -1.444  -2.507   0.758  1.00  0.00    -0.273 OA
ATOM      5  H   UNL     1      -3.051  -4.184   0.186  1.00  0.00     0.163 HD
BRANCH   3   6
ATOM      6  C   UNL     1       0.229  -4.269   1.002  1.00  0.00     0.177 C 
ATOM      7  N   UNL     1       1.030  -3.328   1.780  1.00  0.00    -0.324 N 
ATOM      8  C   UNL     1       2.249  -2.973   1.077  1.00  0.00     0.152 C 
ATOM      9  C   UNL     1       1.850  -3.138  -0.385  1.00  0.00     0.136 C 
ATOM     10  C   UNL     1       0.976  -4.395  -0.337  1.00  0.00     0.069 C 
BRANCH   7  11
ATOM     11  C   UNL     1       0.626  -2.975   3.053  1.00  0.00     0.254 C 
ATOM     12  O   UNL     1       0.129  -3.801   3.815  1.00  0.00    -0.269 OA
BRANCH  11  13
ATOM     13  C   UNL     1       0.596  -1.520   3.412  1.00  0.00     0.040 A 
ATOM     14  C   UNL     1       0.587   0.837   2.719  1.00  0.00    -0.022 A 
ATOM     15  C   UNL     1       0.214   1.196   4.018  1.00  0.00     0.006 A 
ATOM     16  C   UNL     1       0.753  -0.524   2.440  1.00  0.00     0.020 A 
ATOM     17  C   UNL     1       0.026   0.217   5.001  1.00  0.00     0.001 A 
ATOM     18  C   UNL     1       0.222  -1.135   4.702  1.00  0.00     0.014 A 
BRANCH  14  19
ATOM     19  C   UNL     1       0.860   1.879   1.656  1.00  0.00     0.195 C 
BRANCH  19  20
ATOM     20  O   UNL     1       0.066   1.762   0.475  1.00  0.00    -0.380 OA
ATOM     21  C   UNL     1       0.539   0.824  -0.482  1.00  0.00     0.195 C 
ENDBRANCH  19  20
ENDBRANCH  14  19
ENDBRANCH  11  13
ENDBRANCH   7  11
BRANCH   9  22
ATOM     22  O   UNL     1       2.952  -3.284  -1.261  1.00  0.00    -0.391 OA
ATOM     23  H   UNL     1       3.481  -4.052  -0.991  1.00  0.00     0.211 HD
ENDBRANCH   9  22
ENDBRANCH   3   6
ENDBRANCH   1   2
BRANCH   1  24
ATOM     24  C   UNL     1      -2.704  -6.838   1.178  1.00  0.00     0.042 C 
BRANCH  24  25
ATOM     25  C   UNL     1      -4.213  -6.644   1.291  1.00  0.00     0.118 C 
BRANCH  25  26
ATOM     26  N   UNL     1      -4.918  -6.995   0.065  1.00  0.00    -0.352 N 
ATOM     27  C   UNL     1      -5.893  -7.936  -0.167  1.00  0.00     0.251 C 
ATOM     28  H   UNL     1      -4.653  -6.473  -0.726  1.00  0.00     0.163 HD
ATOM     29  O   UNL     1      -6.203  -8.195  -1.325  1.00  0.00    -0.269 OA
BRANCH  27  30
ATOM     30  C   UNL     1      -6.543  -8.645   0.957  1.00  0.00     0.039 A 
ATOM     31  C   UNL     1      -6.824 -10.008   0.820  1.00  0.00     0.014 A 
ATOM     32  C   UNL     1      -6.901  -7.976   2.130  1.00  0.00     0.014 A 
ATOM     33  C   UNL     1      -7.395 -10.710   1.884  1.00  0.00     0.010 A 
ATOM     34  C   UNL     1      -7.391  -8.694   3.219  1.00  0.00     0.010 A 
ATOM     35  C   UNL     1      -7.645 -10.069   3.108  1.00  0.00    -0.014 A 
BRANCH  35  36
ATOM     36  C   UNL     1      -8.166 -10.824   4.280  1.00  0.00     0.031 A 
ATOM     37  C   UNL     1      -9.501 -10.470   4.880  1.00  0.00     0.074 A 
ATOM     38  C   UNL     1      -7.407 -11.785   4.843  1.00  0.00     0.049 A 
ATOM     39  N   UNL     1     -10.090 -10.964   5.939  1.00  0.00    -0.248 NA
ATOM     40  C   UNL     1     -10.258  -9.399   4.217  1.00  0.00     0.031 C 
ATOM     41  C   UNL     1      -6.075 -12.185   4.382  1.00  0.00     0.029 A 
ATOM     42  N   UNL     1      -7.635 -12.591   5.931  1.00  0.00    -0.354 N 
ATOM     43  C   UNL     1     -11.278 -10.254   6.079  1.00  0.00     0.074 A 
ATOM     44  C   UNL     1     -11.291  -9.254   5.032  1.00  0.00     0.031 C 
ATOM     45  C   UNL     1      -5.616 -13.172   5.166  1.00  0.00     0.029 A 
ATOM     46  C   UNL     1      -6.591 -13.440   6.218  1.00  0.00     0.049 A 
ATOM     47  H   UNL     1      -8.468 -12.564   6.455  1.00  0.00     0.167 HD
ATOM     48  C   UNL     1     -12.273 -10.434   6.984  1.00  0.00     0.034 A 
ATOM     49  C   UNL     1      -6.425 -14.320   7.226  1.00  0.00     0.034 A 
ATOM     50  C   UNL     1     -12.241 -11.440   8.019  1.00  0.00     0.049 A 
ATOM     51  C   UNL     1      -7.531 -14.486   8.236  1.00  0.00     0.074 A 
ATOM     52  C   UNL     1     -13.221 -11.753   8.946  1.00  0.00     0.029 A 
ATOM     53  N   UNL     1     -11.168 -12.284   8.279  1.00  0.00    -0.354 N 
ATOM     54  N   UNL     1      -8.680 -13.854   8.315  1.00  0.00    -0.248 NA
ATOM     55  C   UNL     1      -7.325 -15.493   9.285  1.00  0.00     0.031 C 
ATOM     56  C   UNL     1     -12.709 -12.722   9.816  1.00  0.00     0.029 A 
ATOM     57  C   UNL     1     -11.446 -13.086   9.377  1.00  0.00     0.049 A 
ATOM     58  H   UNL     1     -10.332 -12.310   7.760  1.00  0.00     0.167 HD
ATOM     59  C   UNL     1      -9.344 -14.408   9.407  1.00  0.00     0.074 A 
ATOM     60  C   UNL     1      -8.475 -15.436   9.941  1.00  0.00     0.031 C 
ATOM     61  C   UNL     1     -10.565 -14.098   9.916  1.00  0.00     0.034 A 
BRANCH  48  62
ATOM     62  C   UNL     1     -13.458  -9.497   6.911  1.00  0.00     0.023 A 
ATOM     63  C   UNL     1     -14.276  -9.420   5.769  1.00  0.00     0.031 A 
ATOM     64  C   UNL     1     -13.757  -8.641   7.987  1.00  0.00     0.131 A 
ATOM     65  C   UNL     1     -15.289  -8.453   5.693  1.00  0.00     0.055 A 
ATOM     66  C   UNL     1     -14.826  -7.744   7.941  1.00  0.00     0.041 A 
ATOM     67  F   UNL     1     -13.003  -8.649   9.097  1.00  0.00    -0.206 F 
ATOM     68  C   UNL     1     -15.588  -7.632   6.783  1.00  0.00     0.022 A 
BRANCH  65  69
ATOM     69  S   UNL     1     -16.095  -8.167   4.093  1.00  0.00     0.124 S 
ATOM     70  O   UNL     1     -14.951  -7.858   3.238  1.00  0.00    -0.237 OA
ATOM     71  O   UNL     1     -16.755  -9.443   3.841  1.00  0.00    -0.237 OA
ATOM     72  O   UNL     1     -16.989  -7.042   4.355  1.00  0.00    -0.744 OA
ENDBRANCH  65  69
ENDBRANCH  48  62
BRANCH  49  73
ATOM     73  C   UNL     1      -5.154 -15.092   7.346  1.00  0.00     0.023 A 
ATOM     74  C   UNL     1      -5.133 -16.490   7.225  1.00  0.00     0.031 A 
ATOM     75  C   UNL     1      -3.938 -14.436   7.614  1.00  0.00     0.131 A 
ATOM     76  C   UNL     1      -3.930 -17.191   7.412  1.00  0.00     0.055 A 
ATOM     77  C   UNL     1      -2.735 -15.132   7.742  1.00  0.00     0.041 A 
ATOM     78  F   UNL     1      -3.900 -13.100   7.736  1.00  0.00    -0.206 F 
ATOM     79  C   UNL     1      -2.729 -16.520   7.653  1.00  0.00     0.022 A 
BRANCH  76  80
ATOM     80  S   UNL     1      -3.971 -19.005   7.417  1.00  0.00     0.124 S 
ATOM     81  O   UNL     1      -4.909 -19.277   8.500  1.00  0.00    -0.237 OA
ATOM     82  O   UNL     1      -4.443 -19.301   6.069  1.00  0.00    -0.237 OA
ATOM     83  O   UNL     1      -2.583 -19.375   7.684  1.00  0.00    -0.744 OA
ENDBRANCH  76  80
ENDBRANCH  49  73
BRANCH  61  84
ATOM     84  C   UNL     1     -11.049 -14.916  11.091  1.00  0.00     0.023 A 
ATOM     85  C   UNL     1     -10.405 -14.880  12.340  1.00  0.00     0.031 A 
ATOM     86  C   UNL     1     -12.170 -15.755  10.951  1.00  0.00     0.131 A 
ATOM     87  C   UNL     1     -10.850 -15.710  13.381  1.00  0.00     0.055 A 
ATOM     88  C   UNL     1     -12.650 -16.526  12.011  1.00  0.00     0.041 A 
ATOM     89  F   UNL     1     -12.822 -15.838   9.780  1.00  0.00    -0.206 F 
ATOM     90  C   UNL     1     -11.980 -16.517  13.230  1.00  0.00     0.022 A 
BRANCH  87  91
ATOM     91  S   UNL     1      -9.866 -15.803  14.903  1.00  0.00     0.124 S 
ATOM     92  O   UNL     1      -8.566 -16.230  14.397  1.00  0.00    -0.237 OA
ATOM     93  O   UNL     1      -9.938 -14.435  15.405  1.00  0.00    -0.237 OA
ATOM     94  O   UNL     1     -10.574 -16.797  15.708  1.00  0.00    -0.744 OA
ENDBRANCH  87  91
ENDBRANCH  61  84
ENDBRANCH  35  36
ENDBRANCH  27  30
ENDBRANCH  25  26
ENDBRANCH  24  25
ENDBRANCH   1  24
TORSDOF 18
