REMARK SMILES N#CCSCC(=O)N1Cc2ccccc2C[C@@H]1C(=O)NCCCNC(=O)c1ccc(-c2c3nc(c(-c4cc(S(=O)(=O)[O-])ccc4F)c4ccc([nH]4)c(-c4cc(S(=O)(=O)[O-])ccc4F)c4nc(c(-c5cc(S(=O)(=O)[O-])ccc5F)c5ccc2[nH]5)C=C4)C=C3)cc1
REMARK SMILES IDX 21 1 20 2 18 3 19 4 17 6 8 7 9 8 10 9 16 10 11 11 15 12
REMARK SMILES IDX 12 13 14 14 13 15 6 16 7 17 5 18 4 19 3 20 2 21 1 22 22 23
REMARK SMILES IDX 23 24 24 25 25 26 26 28 27 29 28 30 89 31 29 32 88 33 30 34
REMARK SMILES IDX 31 35 32 36 82 37 33 38 87 39 81 40 83 41 34 42 86 43 80 44
REMARK SMILES IDX 79 45 35 47 67 48 47 49 66 50 48 51 51 52 65 53 84 54 49 55
REMARK SMILES IDX 50 56 64 58 85 59 52 60 36 61 37 62 45 63 38 64 44 65 46 66
REMARK SMILES IDX 43 67 39 68 40 69 41 70 42 71 68 72 69 73 77 74 70 75 76 76
REMARK SMILES IDX 78 77 75 78 71 79 72 80 73 81 74 82 53 83 54 84 62 85 55 86
REMARK SMILES IDX 61 87 63 88 60 89 56 90 57 91 58 92 59 93
REMARK H PARENT 20 5 24 27 83 46 51 57
REMARK Flexibility Score: inf
ROOT
ATOM      1  C   UNL     1       5.493  -3.207   1.903  1.00  0.00     0.117 C 
ENDROOT
BRANCH   1   2
ATOM      2  N   UNL     1       6.179  -1.954   1.607  1.00  0.00    -0.354 N 
ATOM      3  C   UNL     1       6.805  -1.446   0.511  1.00  0.00     0.243 C 
ATOM      4  O   UNL     1       7.314  -0.327   0.673  1.00  0.00    -0.273 OA
ATOM      5  H   UNL     1       6.191  -1.336   2.373  1.00  0.00     0.163 HD
BRANCH   3   6
ATOM      6  C   UNL     1       6.972  -2.159  -0.865  1.00  0.00     0.179 C 
ATOM      7  N   UNL     1       6.044  -3.263  -1.145  1.00  0.00    -0.325 N 
ATOM      8  C   UNL     1       6.574  -4.647  -1.044  1.00  0.00     0.156 C 
ATOM      9  C   UNL     1       7.842  -4.789  -0.233  1.00  0.00    -0.025 A 
ATOM     10  C   UNL     1       8.453  -2.526  -1.035  1.00  0.00     0.071 C 
ATOM     11  C   UNL     1       8.123  -5.950   0.498  1.00  0.00     0.006 A 
ATOM     12  C   UNL     1       8.768  -3.736  -0.212  1.00  0.00    -0.040 A 
ATOM     13  C   UNL     1       9.274  -6.023   1.288  1.00  0.00     0.000 A 
ATOM     14  C   UNL     1       9.924  -3.814   0.569  1.00  0.00     0.004 A 
ATOM     15  C   UNL     1      10.166  -4.953   1.332  1.00  0.00     0.000 A 
BRANCH   7  16
ATOM     16  C   UNL     1       4.698  -3.110  -1.454  1.00  0.00     0.233 C 
ATOM     17  O   UNL     1       3.936  -4.079  -1.314  1.00  0.00    -0.274 OA
BRANCH  16  18
ATOM     18  C   UNL     1       4.100  -1.879  -2.142  1.00  0.00     0.170 C 
BRANCH  18  19
ATOM     19  S   UNL     1       4.570  -0.185  -1.722  1.00  0.00    -0.137 SA
BRANCH  19  20
ATOM     20  C   UNL     1       3.851   0.027  -0.066  1.00  0.00     0.189 C 
BRANCH  20  21
ATOM     21  C   UNL     1       2.331   0.027  -0.066  1.00  0.00     0.073 C 
ATOM     22  N   UNL     1       1.070   0.027  -0.066  1.00  0.00    -0.197 NA
ENDBRANCH  20  21
ENDBRANCH  19  20
ENDBRANCH  18  19
ENDBRANCH  16  18
ENDBRANCH   7  16
ENDBRANCH   3   6
ENDBRANCH   1   2
BRANCH   1  23
ATOM     23  C   UNL     1       6.337  -4.119   2.779  1.00  0.00     0.042 C 
BRANCH  23  24
ATOM     24  C   UNL     1       6.267  -3.775   4.256  1.00  0.00     0.118 C 
BRANCH  24  25
ATOM     25  N   UNL     1       5.008  -4.191   4.859  1.00  0.00    -0.352 N 
ATOM     26  C   UNL     1       4.744  -5.183   5.770  1.00  0.00     0.251 C 
ATOM     27  H   UNL     1       4.220  -3.678   4.566  1.00  0.00     0.163 HD
ATOM     28  O   UNL     1       3.569  -5.507   5.966  1.00  0.00    -0.269 OA
BRANCH  26  29
ATOM     29  C   UNL     1       5.833  -5.879   6.494  1.00  0.00     0.039 A 
ATOM     30  C   UNL     1       5.695  -7.241   6.781  1.00  0.00     0.014 A 
ATOM     31  C   UNL     1       6.971  -5.198   6.930  1.00  0.00     0.014 A 
ATOM     32  C   UNL     1       6.719  -7.924   7.446  1.00  0.00     0.010 A 
ATOM     33  C   UNL     1       8.033  -5.899   7.496  1.00  0.00     0.010 A 
ATOM     34  C   UNL     1       7.915  -7.268   7.777  1.00  0.00    -0.014 A 
BRANCH  34  35
ATOM     35  C   UNL     1       9.034  -7.972   8.462  1.00  0.00     0.031 A 
ATOM     36  C   UNL     1       9.493  -7.500   9.819  1.00  0.00     0.074 A 
ATOM     37  C   UNL     1       9.671  -8.990   7.849  1.00  0.00     0.049 A 
ATOM     38  N   UNL     1      10.525  -7.883  10.525  1.00  0.00    -0.248 NA
ATOM     39  C   UNL     1       8.702  -6.430  10.448  1.00  0.00     0.031 C 
ATOM     40  C   UNL     1       9.338  -9.524   6.526  1.00  0.00     0.029 A 
ATOM     41  N   UNL     1      10.740  -9.753   8.251  1.00  0.00    -0.354 N 
ATOM     42  C   UNL     1      10.511  -7.098  11.675  1.00  0.00     0.074 A 
ATOM     43  C   UNL     1       9.414  -6.166  11.532  1.00  0.00     0.031 C 
ATOM     44  C   UNL     1      10.171 -10.537   6.237  1.00  0.00     0.029 A 
ATOM     45  C   UNL     1      11.133 -10.692   7.324  1.00  0.00     0.049 A 
ATOM     46  H   UNL     1      11.185  -9.639   9.122  1.00  0.00     0.167 HD
ATOM     47  C   UNL     1      11.315  -7.169  12.764  1.00  0.00     0.034 A 
ATOM     48  C   UNL     1      12.163 -11.563   7.338  1.00  0.00     0.034 A 
ATOM     49  C   UNL     1      12.394  -8.115  12.903  1.00  0.00     0.049 A 
ATOM     50  C   UNL     1      13.070 -11.594   8.546  1.00  0.00     0.074 A 
ATOM     51  C   UNL     1      13.262  -8.284  13.968  1.00  0.00     0.029 A 
ATOM     52  N   UNL     1      12.750  -9.059  11.948  1.00  0.00    -0.354 N 
ATOM     53  N   UNL     1      13.027 -10.856   9.632  1.00  0.00    -0.248 NA
ATOM     54  C   UNL     1      14.156 -12.584   8.537  1.00  0.00     0.031 C 
ATOM     55  C   UNL     1      14.175  -9.289  13.635  1.00  0.00     0.029 A 
ATOM     56  C   UNL     1      13.832  -9.801  12.394  1.00  0.00     0.049 A 
ATOM     57  H   UNL     1      12.300  -9.182  11.081  1.00  0.00     0.167 HD
ATOM     58  C   UNL     1      14.054 -11.325  10.449  1.00  0.00     0.074 A 
ATOM     59  C   UNL     1      14.685 -12.416   9.739  1.00  0.00     0.031 C 
ATOM     60  C   UNL     1      14.441 -10.894  11.677  1.00  0.00     0.034 A 
BRANCH  47  61
ATOM     61  C   UNL     1      11.054  -6.194  13.887  1.00  0.00     0.023 A 
ATOM     62  C   UNL     1       9.847  -6.213  14.606  1.00  0.00     0.031 A 
ATOM     63  C   UNL     1      12.015  -5.230  14.240  1.00  0.00     0.131 A 
ATOM     64  C   UNL     1       9.602  -5.246  15.592  1.00  0.00     0.055 A 
ATOM     65  C   UNL     1      11.799  -4.323  15.279  1.00  0.00     0.041 A 
ATOM     66  F   UNL     1      13.179  -5.149  13.575  1.00  0.00    -0.206 F 
ATOM     67  C   UNL     1      10.581  -4.319  15.954  1.00  0.00     0.022 A 
BRANCH  64  68
ATOM     68  S   UNL     1       7.939  -5.139  16.305  1.00  0.00     0.124 S 
ATOM     69  O   UNL     1       7.133  -4.838  15.124  1.00  0.00    -0.237 OA
ATOM     70  O   UNL     1       7.755  -6.466  16.881  1.00  0.00    -0.237 OA
ATOM     71  O   UNL     1       8.049  -4.049  17.271  1.00  0.00    -0.744 OA
ENDBRANCH  64  68
ENDBRANCH  47  61
BRANCH  48  72
ATOM     72  C   UNL     1      12.420 -12.465   6.176  1.00  0.00     0.023 A 
ATOM     73  C   UNL     1      12.395 -13.861   6.324  1.00  0.00     0.031 A 
ATOM     74  C   UNL     1      12.779 -11.946   4.919  1.00  0.00     0.131 A 
ATOM     75  C   UNL     1      12.795 -14.687   5.262  1.00  0.00     0.055 A 
ATOM     76  C   UNL     1      13.108 -12.774   3.843  1.00  0.00     0.041 A 
ATOM     77  F   UNL     1      12.817 -10.619   4.716  1.00  0.00    -0.206 F 
ATOM     78  C   UNL     1      13.138 -14.153   4.018  1.00  0.00     0.022 A 
BRANCH  75  79
ATOM     79  S   UNL     1      12.996 -16.463   5.574  1.00  0.00     0.124 S 
ATOM     80  O   UNL     1      13.908 -16.461   6.713  1.00  0.00    -0.237 OA
ATOM     81  O   UNL     1      11.625 -16.877   5.850  1.00  0.00    -0.237 OA
ATOM     82  O   UNL     1      13.560 -16.965   4.323  1.00  0.00    -0.744 OA
ENDBRANCH  75  79
ENDBRANCH  48  72
BRANCH  60  83
ATOM     83  C   UNL     1      15.555 -11.654  12.354  1.00  0.00     0.023 A 
ATOM     84  C   UNL     1      16.870 -11.643  11.857  1.00  0.00     0.031 A 
ATOM     85  C   UNL     1      15.291 -12.402  13.515  1.00  0.00     0.131 A 
ATOM     86  C   UNL     1      17.860 -12.412  12.488  1.00  0.00     0.055 A 
ATOM     87  C   UNL     1      16.293 -13.114  14.174  1.00  0.00     0.041 A 
ATOM     88  F   UNL     1      14.053 -12.447  14.032  1.00  0.00    -0.206 F 
ATOM     89  C   UNL     1      17.584 -13.133  13.653  1.00  0.00     0.022 A 
BRANCH  86  90
ATOM     90  S   UNL     1      19.497 -12.526  11.715  1.00  0.00     0.124 S 
ATOM     91  O   UNL     1      19.175 -13.080  10.404  1.00  0.00    -0.237 OA
ATOM     92  O   UNL     1      19.946 -11.138  11.728  1.00  0.00    -0.237 OA
ATOM     93  O   UNL     1      20.234 -13.423  12.604  1.00  0.00    -0.744 OA
ENDBRANCH  86  90
ENDBRANCH  60  83
ENDBRANCH  34  35
ENDBRANCH  26  29
ENDBRANCH  24  25
ENDBRANCH  23  24
ENDBRANCH   1  23
TORSDOF 18
