REMARK SMILES Cc1ccc(F)cc1NC(=O)c1nn(C)cc1C(=O)NCCCNC(=O)c1ccc(-c2c3nc(c(-c4cc(S(=O)(=O)[O-])ccc4F)c4ccc([nH]4)c(-c4cc(S(=O)(=O)[O-])ccc4F)c4nc(c(-c5cc(S(=O)(=O)[O-])ccc5F)c5ccc2[nH]5)C=C4)C=C3)cc1
REMARK SMILES IDX 22 1 21 2 20 3 18 4 19 5 17 7 12 8 13 9 14 10 16 11 15 12
REMARK SMILES IDX 10 13 9 14 11 16 8 17 1 18 2 19 3 20 4 21 7 22 5 23 6 24
REMARK SMILES IDX 23 25 24 26 25 27 26 29 27 30 28 31 89 32 29 33 88 34 30 35
REMARK SMILES IDX 31 36 32 37 82 38 33 39 87 40 81 41 83 42 34 43 86 44 80 45
REMARK SMILES IDX 79 46 35 48 67 49 47 50 66 51 48 52 51 53 65 54 84 55 49 56
REMARK SMILES IDX 50 57 64 59 85 60 52 61 36 62 37 63 45 64 38 65 44 66 46 67
REMARK SMILES IDX 43 68 39 69 40 70 41 71 42 72 68 73 69 74 77 75 70 76 76 77
REMARK SMILES IDX 78 78 75 79 71 80 72 81 73 82 74 83 53 84 54 85 62 86 55 87
REMARK SMILES IDX 61 88 63 89 60 90 56 91 57 92 58 93 59 94
REMARK H PARENT 20 6 9 15 24 28 83 47 51 58
REMARK Flexibility Score: inf
ROOT
ATOM      1  C   UNL     1      -4.025  -0.235  -2.250  1.00  0.00     0.042 C 
ENDROOT
BRANCH   1   2
ATOM      2  C   UNL     1      -3.574  -1.558  -2.865  1.00  0.00     0.118 C 
BRANCH   2   3
ATOM      3  N   UNL     1      -2.134  -1.739  -2.891  1.00  0.00    -0.352 N 
ATOM      4  C   UNL     1      -1.250  -2.488  -2.155  1.00  0.00     0.255 C 
ATOM      5  O   UNL     1      -0.072  -2.438  -2.517  1.00  0.00    -0.269 OA
ATOM      6  H   UNL     1      -1.693  -1.205  -3.591  1.00  0.00     0.163 HD
BRANCH   4   7
ATOM      7  C   UNL     1      -1.637  -3.278  -0.994  1.00  0.00     0.090 A 
ATOM      8  C   UNL     1      -0.733  -3.766   0.021  1.00  0.00     0.163 A 
ATOM      9  N   UNL     1      -1.384  -4.471   0.967  1.00  0.00    -0.167 NA
ATOM     10  N   UNL     1      -2.662  -4.435   0.585  1.00  0.00    -0.274 N 
ATOM     11  C   UNL     1      -2.863  -3.773  -0.589  1.00  0.00     0.123 A 
ATOM     12  C   UNL     1      -3.666  -5.057   1.414  1.00  0.00     0.173 C 
BRANCH   8  13
ATOM     13  C   UNL     1       0.721  -3.591   0.125  1.00  0.00     0.277 C 
ATOM     14  N   UNL     1       1.294  -2.339   0.240  1.00  0.00    -0.320 N 
ATOM     15  H   UNL     1       2.278  -2.358   0.221  1.00  0.00     0.170 HD
ATOM     16  O   UNL     1       1.488  -4.559   0.105  1.00  0.00    -0.267 OA
BRANCH  14  17
ATOM     17  C   UNL     1       0.766  -1.040   0.380  1.00  0.00     0.047 A 
ATOM     18  C   UNL     1       3.056   0.001  -0.239  1.00  0.00     0.046 C 
ATOM     19  C   UNL     1       1.586   0.075   0.090  1.00  0.00    -0.027 A 
ATOM     20  C   UNL     1       1.024   1.370   0.112  1.00  0.00     0.008 A 
ATOM     21  C   UNL     1      -0.314   1.568   0.437  1.00  0.00     0.039 A 
ATOM     22  C   UNL     1      -0.549  -0.809   0.795  1.00  0.00     0.065 A 
ATOM     23  C   UNL     1      -1.081   0.476   0.796  1.00  0.00     0.125 A 
ATOM     24  F   UNL     1      -2.362   0.653   1.143  1.00  0.00    -0.207 F 
ENDBRANCH  14  17
ENDBRANCH   8  13
ENDBRANCH   4   7
ENDBRANCH   2   3
ENDBRANCH   1   2
BRANCH   1  25
ATOM     25  C   UNL     1      -3.707   1.006  -3.086  1.00  0.00     0.118 C 
BRANCH  25  26
ATOM     26  N   UNL     1      -4.267   0.937  -4.429  1.00  0.00    -0.352 N 
ATOM     27  C   UNL     1      -5.247   1.661  -5.059  1.00  0.00     0.251 C 
ATOM     28  H   UNL     1      -3.865   0.236  -4.992  1.00  0.00     0.163 HD
ATOM     29  O   UNL     1      -5.691   1.224  -6.120  1.00  0.00    -0.269 OA
BRANCH  27  30
ATOM     30  C   UNL     1      -5.780   2.931  -4.510  1.00  0.00     0.039 A 
ATOM     31  C   UNL     1      -7.123   3.246  -4.756  1.00  0.00     0.014 A 
ATOM     32  C   UNL     1      -4.972   3.860  -3.851  1.00  0.00     0.014 A 
ATOM     33  C   UNL     1      -7.659   4.456  -4.305  1.00  0.00     0.010 A 
ATOM     34  C   UNL     1      -5.524   5.039  -3.341  1.00  0.00     0.010 A 
ATOM     35  C   UNL     1      -6.873   5.354  -3.567  1.00  0.00    -0.014 A 
BRANCH  35  36
ATOM     36  C   UNL     1      -7.460   6.611  -3.024  1.00  0.00     0.031 A 
ATOM     37  C   UNL     1      -6.980   7.956  -3.504  1.00  0.00     0.074 A 
ATOM     38  C   UNL     1      -8.400   6.536  -2.061  1.00  0.00     0.049 A 
ATOM     39  N   UNL     1      -7.357   9.152  -3.126  1.00  0.00    -0.248 NA
ATOM     40  C   UNL     1      -5.920   7.959  -4.523  1.00  0.00     0.031 C 
ATOM     41  C   UNL     1      -8.907   5.293  -1.472  1.00  0.00     0.029 A 
ATOM     42  N   UNL     1      -9.094   7.519  -1.399  1.00  0.00    -0.354 N 
ATOM     43  C   UNL     1      -6.570  10.048  -3.843  1.00  0.00     0.074 A 
ATOM     44  C   UNL     1      -5.664   9.254  -4.646  1.00  0.00     0.031 C 
ATOM     45  C   UNL     1      -9.841   5.588  -0.554  1.00  0.00     0.029 A 
ATOM     46  C   UNL     1      -9.977   7.038  -0.459  1.00  0.00     0.049 A 
ATOM     47  H   UNL     1      -8.971   8.479  -1.581  1.00  0.00     0.167 HD
ATOM     48  C   UNL     1      -6.611  11.404  -3.843  1.00  0.00     0.034 A 
ATOM     49  C   UNL     1     -10.797   7.688   0.390  1.00  0.00     0.034 A 
ATOM     50  C   UNL     1      -7.540  12.182  -3.057  1.00  0.00     0.049 A 
ATOM     51  C   UNL     1     -10.843   9.194   0.348  1.00  0.00     0.074 A 
ATOM     52  C   UNL     1      -7.722  13.555  -3.049  1.00  0.00     0.029 A 
ATOM     53  N   UNL     1      -8.437  11.660  -2.135  1.00  0.00    -0.354 N 
ATOM     54  N   UNL     1     -10.144  10.021  -0.396  1.00  0.00    -0.248 NA
ATOM     55  C   UNL     1     -11.801   9.852   1.245  1.00  0.00     0.031 C 
ATOM     56  C   UNL     1      -8.681  13.867  -2.078  1.00  0.00     0.029 A 
ATOM     57  C   UNL     1      -9.150  12.685  -1.529  1.00  0.00     0.049 A 
ATOM     58  H   UNL     1      -8.551  10.702  -1.939  1.00  0.00     0.167 HD
ATOM     59  C   UNL     1     -10.596  11.296  -0.068  1.00  0.00     0.074 A 
ATOM     60  C   UNL     1     -11.645  11.125   0.916  1.00  0.00     0.031 C 
ATOM     61  C   UNL     1     -10.180  12.502  -0.534  1.00  0.00     0.034 A 
BRANCH  48  62
ATOM     62  C   UNL     1      -5.607  12.138  -4.700  1.00  0.00     0.023 A 
ATOM     63  C   UNL     1      -5.616  12.042  -6.103  1.00  0.00     0.031 A 
ATOM     64  C   UNL     1      -4.628  12.953  -4.103  1.00  0.00     0.131 A 
ATOM     65  C   UNL     1      -4.631  12.699  -6.857  1.00  0.00     0.055 A 
ATOM     66  C   UNL     1      -3.695  13.662  -4.863  1.00  0.00     0.041 A 
ATOM     67  F   UNL     1      -4.558  13.070  -2.768  1.00  0.00    -0.206 F 
ATOM     68  C   UNL     1      -3.686  13.528  -6.248  1.00  0.00     0.022 A 
BRANCH  65  69
ATOM     69  S   UNL     1      -4.533  12.366  -8.637  1.00  0.00     0.124 S 
ATOM     70  O   UNL     1      -4.276  10.928  -8.653  1.00  0.00    -0.237 OA
ATOM     71  O   UNL     1      -5.847  12.786  -9.110  1.00  0.00    -0.237 OA
ATOM     72  O   UNL     1      -3.415  13.197  -9.080  1.00  0.00    -0.744 OA
ENDBRANCH  65  69
ENDBRANCH  48  62
BRANCH  49  73
ATOM     73  C   UNL     1     -11.636   6.929   1.362  1.00  0.00     0.023 A 
ATOM     74  C   UNL     1     -13.037   6.957   1.289  1.00  0.00     0.031 A 
ATOM     75  C   UNL     1     -11.044   6.205   2.412  1.00  0.00     0.131 A 
ATOM     76  C   UNL     1     -13.802   6.319   2.279  1.00  0.00     0.055 A 
ATOM     77  C   UNL     1     -11.809   5.527   3.363  1.00  0.00     0.041 A 
ATOM     78  F   UNL     1      -9.708   6.139   2.524  1.00  0.00    -0.206 F 
ATOM     79  C   UNL     1     -13.197   5.595   3.309  1.00  0.00     0.022 A 
BRANCH  76  80
ATOM     80  S   UNL     1     -15.604   6.532   2.254  1.00  0.00     0.124 S 
ATOM     81  O   UNL     1     -15.733   7.984   2.274  1.00  0.00    -0.237 OA
ATOM     82  O   UNL     1     -15.967   5.872   1.005  1.00  0.00    -0.237 OA
ATOM     83  O   UNL     1     -16.043   5.848   3.469  1.00  0.00    -0.744 OA
ENDBRANCH  76  80
ENDBRANCH  49  73
BRANCH  61  84
ATOM     84  C   UNL     1     -10.890  13.719   0.004  1.00  0.00     0.023 A 
ATOM     85  C   UNL     1     -10.789  14.092   1.356  1.00  0.00     0.031 A 
ATOM     86  C   UNL     1     -11.709  14.494  -0.836  1.00  0.00     0.131 A 
ATOM     87  C   UNL     1     -11.548  15.165   1.845  1.00  0.00     0.055 A 
ATOM     88  C   UNL     1     -12.413  15.601  -0.357  1.00  0.00     0.041 A 
ATOM     89  F   UNL     1     -11.844  14.184  -2.135  1.00  0.00    -0.206 F 
ATOM     90  C   UNL     1     -12.348  15.931   0.993  1.00  0.00     0.022 A 
BRANCH  87  91
ATOM     91  S   UNL     1     -11.563  15.477   3.632  1.00  0.00     0.124 S 
ATOM     92  O   UNL     1     -12.022  14.196   4.160  1.00  0.00    -0.237 OA
ATOM     93  O   UNL     1     -10.170  15.815   3.901  1.00  0.00    -0.237 OA
ATOM     94  O   UNL     1     -12.509  16.582   3.779  1.00  0.00    -0.744 OA
ENDBRANCH  87  91
ENDBRANCH  61  84
ENDBRANCH  35  36
ENDBRANCH  27  30
ENDBRANCH  25  26
ENDBRANCH   1  25
TORSDOF 15
