REMARK SMILES CN(C)S(=O)(=O)c1c[nH]c(C(=O)NCCCNC(=O)c2ccc(-c3c4nc(c(-c5cc(S(=O)(=O)[O-])ccc5F)c5ccc([nH]5)c(-c5cc(S(=O)(=O)[O-])ccc5F)c5nc(c(-c6cc(S(=O)(=O)[O-])ccc6F)c6ccc3[nH]6)C=C5)C=C4)cc2)c1
REMARK SMILES IDX 15 1 14 2 13 3 11 4 12 5 10 7 7 8 8 9 83 10 9 11 4 13 5 14
REMARK SMILES IDX 6 15 2 16 1 17 3 18 16 19 17 20 18 21 19 23 20 24 21 25
REMARK SMILES IDX 82 26 22 27 81 28 23 29 24 30 25 31 75 32 26 33 80 34 74 35
REMARK SMILES IDX 76 36 27 37 79 38 73 39 72 40 28 42 60 43 40 44 59 45 41 46
REMARK SMILES IDX 44 47 58 48 77 49 42 50 43 51 57 53 78 54 45 55 29 56 30 57
REMARK SMILES IDX 38 58 31 59 37 60 39 61 36 62 32 63 33 64 34 65 35 66 61 67
REMARK SMILES IDX 62 68 70 69 63 70 69 71 71 72 68 73 64 74 65 75 66 76 67 77
REMARK SMILES IDX 46 78 47 79 55 80 48 81 54 82 56 83 53 84 49 85 50 86 51 87
REMARK SMILES IDX 52 88
REMARK H PARENT 13 6 9 12 17 22 76 41 44 52
REMARK Flexibility Score: inf
ROOT
ATOM      1  C   UNL     1      -0.033  -4.380   6.676  1.00  0.00     0.042 C 
ENDROOT
BRANCH   1   2
ATOM      2  C   UNL     1      -1.252  -3.459   6.577  1.00  0.00     0.118 C 
BRANCH   2   3
ATOM      3  N   UNL     1      -1.157  -2.336   7.489  1.00  0.00    -0.351 N 
ATOM      4  C   UNL     1      -0.717  -1.054   7.296  1.00  0.00     0.267 C 
ATOM      5  O   UNL     1      -0.867  -0.260   8.225  1.00  0.00    -0.268 OA
ATOM      6  H   UNL     1      -1.461  -2.529   8.405  1.00  0.00     0.163 HD
BRANCH   4   7
ATOM      7  C   UNL     1      -0.146  -0.621   6.037  1.00  0.00     0.105 A 
ATOM      8  C   UNL     1       0.687  -0.300   3.946  1.00  0.00     0.100 A 
ATOM      9  C   UNL     1       0.486   0.939   4.515  1.00  0.00     0.104 A 
ATOM     10  C   UNL     1       0.355  -1.273   4.923  1.00  0.00     0.055 A 
ATOM     11  N   UNL     1       0.019   0.732   5.785  1.00  0.00    -0.356 N 
ATOM     12  H   UNL     1      -0.174   1.448   6.433  1.00  0.00     0.166 HD
BRANCH   8  13
ATOM     13  S   UNL     1       1.226  -0.646   2.343  1.00  0.00     0.244 S 
ATOM     14  O   UNL     1       0.735  -1.991   2.078  1.00  0.00    -0.207 OA
ATOM     15  O   UNL     1       2.631  -0.341   2.357  1.00  0.00    -0.207 OA
BRANCH  13  16
ATOM     16  N   UNL     1       0.445   0.406   1.243  1.00  0.00    -0.204 NA
ATOM     17  C   UNL     1       0.956   0.243  -0.137  1.00  0.00     0.124 C 
ATOM     18  C   UNL     1      -1.033   0.354   1.278  1.00  0.00     0.124 C 
ENDBRANCH  13  16
ENDBRANCH   8  13
ENDBRANCH   4   7
ENDBRANCH   2   3
ENDBRANCH   1   2
BRANCH   1  19
ATOM     19  C   UNL     1      -0.194  -5.425   7.782  1.00  0.00     0.118 C 
BRANCH  19  20
ATOM     20  N   UNL     1      -1.212  -6.399   7.412  1.00  0.00    -0.352 N 
ATOM     21  C   UNL     1      -1.742  -7.463   8.089  1.00  0.00     0.251 C 
ATOM     22  H   UNL     1      -1.586  -6.268   6.511  1.00  0.00     0.163 HD
ATOM     23  O   UNL     1      -2.394  -8.285   7.445  1.00  0.00    -0.269 OA
BRANCH  21  24
ATOM     24  C   UNL     1      -1.528  -7.679   9.537  1.00  0.00     0.039 A 
ATOM     25  C   UNL     1      -1.377  -9.005   9.966  1.00  0.00     0.014 A 
ATOM     26  C   UNL     1      -1.550  -6.644  10.477  1.00  0.00     0.014 A 
ATOM     27  C   UNL     1      -1.180  -9.288  11.313  1.00  0.00     0.010 A 
ATOM     28  C   UNL     1      -1.333  -6.921  11.829  1.00  0.00     0.010 A 
ATOM     29  C   UNL     1      -1.124  -8.243  12.243  1.00  0.00    -0.014 A 
BRANCH  29  30
ATOM     30  C   UNL     1      -0.630  -8.551  13.610  1.00  0.00     0.031 A 
ATOM     31  C   UNL     1       0.915  -8.709  13.628  1.00  0.00     0.074 A 
ATOM     32  C   UNL     1      -1.565  -8.683  14.602  1.00  0.00     0.049 A 
ATOM     33  N   UNL     1       1.693  -9.409  14.398  1.00  0.00    -0.248 NA
ATOM     34  C   UNL     1       1.708  -8.046  12.550  1.00  0.00     0.031 C 
ATOM     35  C   UNL     1      -3.023  -8.466  14.432  1.00  0.00     0.029 A 
ATOM     36  N   UNL     1      -1.502  -9.018  15.940  1.00  0.00    -0.354 N 
ATOM     37  C   UNL     1       3.034  -9.072  14.074  1.00  0.00     0.074 A 
ATOM     38  C   UNL     1       2.972  -8.360  12.836  1.00  0.00     0.031 C 
ATOM     39  C   UNL     1      -3.696  -8.741  15.575  1.00  0.00     0.029 A 
ATOM     40  C   UNL     1      -2.758  -9.145  16.605  1.00  0.00     0.049 A 
ATOM     41  H   UNL     1      -0.646  -9.161  16.405  1.00  0.00     0.167 HD
ATOM     42  C   UNL     1       4.093  -9.255  14.922  1.00  0.00     0.034 A 
ATOM     43  C   UNL     1      -3.025  -9.574  17.881  1.00  0.00     0.034 A 
ATOM     44  C   UNL     1       3.647  -9.898  16.111  1.00  0.00     0.049 A 
ATOM     45  C   UNL     1      -1.701  -9.722  18.499  1.00  0.00     0.074 A 
ATOM     46  C   UNL     1       3.235 -11.169  16.400  1.00  0.00     0.029 A 
ATOM     47  N   UNL     1       3.355  -9.082  17.179  1.00  0.00    -0.354 N 
ATOM     48  N   UNL     1      -0.961  -8.735  18.899  1.00  0.00    -0.248 NA
ATOM     49  C   UNL     1      -1.132 -11.068  18.645  1.00  0.00     0.031 C 
ATOM     50  C   UNL     1       2.285 -10.980  17.426  1.00  0.00     0.029 A 
ATOM     51  C   UNL     1       2.272  -9.633  17.811  1.00  0.00     0.049 A 
ATOM     52  H   UNL     1       3.832  -8.261  17.439  1.00  0.00     0.167 HD
ATOM     53  C   UNL     1       0.267  -9.323  19.049  1.00  0.00     0.074 A 
ATOM     54  C   UNL     1       0.027 -10.740  19.210  1.00  0.00     0.031 C 
ATOM     55  C   UNL     1       1.359  -8.739  18.494  1.00  0.00     0.034 A 
BRANCH  42  56
ATOM     56  C   UNL     1       5.508  -8.707  14.957  1.00  0.00     0.023 A 
ATOM     57  C   UNL     1       6.363  -9.239  15.961  1.00  0.00     0.031 A 
ATOM     58  C   UNL     1       5.962  -7.542  14.326  1.00  0.00     0.131 A 
ATOM     59  C   UNL     1       7.502  -8.556  16.406  1.00  0.00     0.055 A 
ATOM     60  C   UNL     1       7.148  -6.897  14.721  1.00  0.00     0.041 A 
ATOM     61  F   UNL     1       5.251  -6.933  13.370  1.00  0.00    -0.206 F 
ATOM     62  C   UNL     1       7.901  -7.378  15.791  1.00  0.00     0.022 A 
BRANCH  59  63
ATOM     63  S   UNL     1       8.319  -9.137  17.923  1.00  0.00     0.124 S 
ATOM     64  O   UNL     1       7.208  -9.202  18.866  1.00  0.00    -0.237 OA
ATOM     65  O   UNL     1       8.871 -10.421  17.498  1.00  0.00    -0.237 OA
ATOM     66  O   UNL     1       9.308  -8.097  18.196  1.00  0.00    -0.744 OA
ENDBRANCH  59  63
ENDBRANCH  42  56
BRANCH  43  67
ATOM     67  C   UNL     1      -4.200  -9.954  18.778  1.00  0.00     0.023 A 
ATOM     68  C   UNL     1      -5.568  -9.813  18.486  1.00  0.00     0.031 A 
ATOM     69  C   UNL     1      -3.932 -10.575  20.044  1.00  0.00     0.131 A 
ATOM     70  C   UNL     1      -6.552 -10.332  19.381  1.00  0.00     0.055 A 
ATOM     71  C   UNL     1      -4.893 -11.152  20.874  1.00  0.00     0.041 A 
ATOM     72  F   UNL     1      -2.696 -10.663  20.556  1.00  0.00    -0.206 F 
ATOM     73  C   UNL     1      -6.217 -11.044  20.536  1.00  0.00     0.022 A 
BRANCH  70  74
ATOM     74  S   UNL     1      -8.333 -10.121  19.078  1.00  0.00     0.124 S 
ATOM     75  O   UNL     1      -8.627  -8.909  19.836  1.00  0.00    -0.237 OA
ATOM     76  O   UNL     1      -8.412 -10.006  17.626  1.00  0.00    -0.237 OA
ATOM     77  O   UNL     1      -8.908 -11.350  19.628  1.00  0.00    -0.744 OA
ENDBRANCH  70  74
ENDBRANCH  43  67
BRANCH  55  78
ATOM     78  C   UNL     1       1.216  -7.232  18.267  1.00  0.00     0.023 A 
ATOM     79  C   UNL     1       0.934  -6.370  19.344  1.00  0.00     0.031 A 
ATOM     80  C   UNL     1       1.222  -6.635  16.992  1.00  0.00     0.131 A 
ATOM     81  C   UNL     1       0.650  -5.005  19.126  1.00  0.00     0.055 A 
ATOM     82  C   UNL     1       0.953  -5.279  16.771  1.00  0.00     0.041 A 
ATOM     83  F   UNL     1       1.474  -7.354  15.902  1.00  0.00    -0.206 F 
ATOM     84  C   UNL     1       0.658  -4.455  17.843  1.00  0.00     0.022 A 
BRANCH  81  85
ATOM     85  S   UNL     1       0.279  -3.933  20.542  1.00  0.00     0.124 S 
ATOM     86  O   UNL     1      -1.029  -4.412  20.974  1.00  0.00    -0.237 OA
ATOM     87  O   UNL     1       1.392  -4.209  21.446  1.00  0.00    -0.237 OA
ATOM     88  O   UNL     1       0.282  -2.589  19.964  1.00  0.00    -0.744 OA
ENDBRANCH  81  85
ENDBRANCH  55  78
ENDBRANCH  29  30
ENDBRANCH  21  24
ENDBRANCH  19  20
ENDBRANCH   1  19
TORSDOF 15
