REMARK SMILES CCOc1cc(/C=C(/F)C(=O)NCCCNC(=O)c2ccc(-c3c4nc(c(-c5cc(S(=O)(=O)[O-])ccc5F)c5ccc([nH]5)c(-c5cc(S(=O)(=O)[O-])ccc5F)c5nc(c(-c6cc(S(=O)(=O)[O-])ccc6F)c6ccc3[nH]6)C=C5)C=C4)cc2)ccc1O
REMARK SMILES IDX 14 1 13 2 12 3 10 4 11 5 8 7 7 8 9 9 6 10 4 11 5 12 84 13
REMARK SMILES IDX 83 14 82 15 3 16 2 17 1 18 85 19 15 21 16 22 17 23 18 25
REMARK SMILES IDX 19 26 20 27 81 28 21 29 80 30 22 31 23 32 24 33 74 34 25 35
REMARK SMILES IDX 79 36 73 37 75 38 26 39 78 40 72 41 71 42 27 44 59 45 39 46
REMARK SMILES IDX 58 47 40 48 43 49 57 50 76 51 41 52 42 53 56 55 77 56 44 57
REMARK SMILES IDX 28 58 29 59 37 60 30 61 36 62 38 63 35 64 31 65 32 66 33 67
REMARK SMILES IDX 34 68 60 69 61 70 69 71 62 72 68 73 70 74 67 75 63 76 64 77
REMARK SMILES IDX 65 78 66 79 45 80 46 81 54 82 47 83 53 84 55 85 52 86 48 87
REMARK SMILES IDX 49 88 50 89 51 90
REMARK H PARENT 12 6 85 20 16 24 75 43 43 54
REMARK Flexibility Score: inf
ROOT
ATOM      1  C   UNL     1       4.139   4.865  -6.850  1.00  0.00     0.042 C 
ENDROOT
BRANCH   1   2
ATOM      2  C   UNL     1       2.627   5.051  -6.772  1.00  0.00     0.118 C 
BRANCH   2   3
ATOM      3  N   UNL     1       1.991   4.222  -5.762  1.00  0.00    -0.350 N 
ATOM      4  C   UNL     1       1.397   4.499  -4.566  1.00  0.00     0.280 C 
ATOM      5  O   UNL     1       0.803   3.569  -4.021  1.00  0.00    -0.267 OA
ATOM      6  H   UNL     1       1.988   3.264  -5.987  1.00  0.00     0.163 HD
BRANCH   4   7
ATOM      7  C   UNL     1       1.461   5.865  -3.964  1.00  0.00     0.188 C 
ATOM      8  C   UNL     1       1.175   6.240  -2.705  1.00  0.00     0.053 C 
ATOM      9  F   UNL     1       1.806   6.858  -4.812  1.00  0.00    -0.201 F 
BRANCH   8  10
ATOM     10  C   UNL     1       0.756   5.484  -1.512  1.00  0.00    -0.019 A 
ATOM     11  C   UNL     1       0.765   3.506  -0.060  1.00  0.00     0.161 A 
ATOM     12  C   UNL     1       1.194   4.187  -1.212  1.00  0.00     0.058 A 
ATOM     13  C   UNL     1      -0.067   4.170   0.842  1.00  0.00     0.157 A 
ATOM     14  C   UNL     1      -0.470   5.481   0.591  1.00  0.00     0.051 A 
ATOM     15  C   UNL     1      -0.056   6.134  -0.573  1.00  0.00     0.012 A 
BRANCH  11  16
ATOM     16  O   UNL     1       1.311   2.259   0.081  1.00  0.00    -0.490 OA
BRANCH  16  17
ATOM     17  C   UNL     1       0.505   1.220   0.632  1.00  0.00     0.226 C 
ATOM     18  C   UNL     1       0.924  -0.098   0.000  1.00  0.00     0.049 C 
ENDBRANCH  16  17
ENDBRANCH  11  16
BRANCH  13  19
ATOM     19  O   UNL     1      -0.489   3.644   2.028  1.00  0.00    -0.504 OA
ATOM     20  H   UNL     1      -0.255   2.767   2.262  1.00  0.00     0.293 HD
ENDBRANCH  13  19
ENDBRANCH   8  10
ENDBRANCH   4   7
ENDBRANCH   2   3
ENDBRANCH   1   2
BRANCH   1  21
ATOM     21  C   UNL     1       4.603   3.423  -7.047  1.00  0.00     0.118 C 
BRANCH  21  22
ATOM     22  N   UNL     1       4.013   2.780  -8.213  1.00  0.00    -0.352 N 
ATOM     23  C   UNL     1       4.596   2.263  -9.347  1.00  0.00     0.251 C 
ATOM     24  H   UNL     1       3.032   2.704  -8.186  1.00  0.00     0.163 HD
ATOM     25  O   UNL     1       3.879   1.910 -10.277  1.00  0.00    -0.269 OA
BRANCH  23  26
ATOM     26  C   UNL     1       6.068   2.161  -9.462  1.00  0.00     0.039 A 
ATOM     27  C   UNL     1       6.673   2.517 -10.671  1.00  0.00     0.014 A 
ATOM     28  C   UNL     1       6.851   1.704  -8.400  1.00  0.00     0.014 A 
ATOM     29  C   UNL     1       8.065   2.491 -10.786  1.00  0.00     0.010 A 
ATOM     30  C   UNL     1       8.241   1.757  -8.489  1.00  0.00     0.010 A 
ATOM     31  C   UNL     1       8.865   2.155  -9.682  1.00  0.00    -0.014 A 
BRANCH  31  32
ATOM     32  C   UNL     1      10.350   2.223  -9.755  1.00  0.00     0.031 A 
ATOM     33  C   UNL     1      11.178   0.981  -9.564  1.00  0.00     0.074 A 
ATOM     34  C   UNL     1      10.954   3.416  -9.932  1.00  0.00     0.049 A 
ATOM     35  N   UNL     1      12.479   0.852  -9.519  1.00  0.00    -0.248 NA
ATOM     36  C   UNL     1      10.443  -0.278  -9.371  1.00  0.00     0.031 C 
ATOM     37  C   UNL     1      10.262   4.697 -10.095  1.00  0.00     0.029 A 
ATOM     38  N   UNL     1      12.284   3.751  -9.999  1.00  0.00    -0.354 N 
ATOM     39  C   UNL     1      12.720  -0.497  -9.280  1.00  0.00     0.074 A 
ATOM     40  C   UNL     1      11.427  -1.130  -9.127  1.00  0.00     0.031 C 
ATOM     41  C   UNL     1      11.170   5.669 -10.273  1.00  0.00     0.029 A 
ATOM     42  C   UNL     1      12.509   5.096 -10.182  1.00  0.00     0.049 A 
ATOM     43  H   UNL     1      13.009   3.090  -9.923  1.00  0.00     0.167 HD
ATOM     44  C   UNL     1      13.907  -1.151  -9.217  1.00  0.00     0.034 A 
ATOM     45  C   UNL     1      13.661   5.794 -10.254  1.00  0.00     0.034 A 
ATOM     46  C   UNL     1      15.188  -0.504  -9.378  1.00  0.00     0.049 A 
ATOM     47  C   UNL     1      14.969   5.051 -10.137  1.00  0.00     0.074 A 
ATOM     48  C   UNL     1      16.447  -1.078  -9.386  1.00  0.00     0.029 A 
ATOM     49  N   UNL     1      15.376   0.862  -9.548  1.00  0.00    -0.354 N 
ATOM     50  N   UNL     1      15.178   3.766  -9.963  1.00  0.00    -0.248 NA
ATOM     51  C   UNL     1      16.196   5.852 -10.236  1.00  0.00     0.031 C 
ATOM     52  C   UNL     1      17.396  -0.055  -9.478  1.00  0.00     0.029 A 
ATOM     53  C   UNL     1      16.731   1.152  -9.621  1.00  0.00     0.049 A 
ATOM     54  H   UNL     1      14.653   1.528  -9.607  1.00  0.00     0.167 HD
ATOM     55  C   UNL     1      16.561   3.603  -9.968  1.00  0.00     0.074 A 
ATOM     56  C   UNL     1      17.132   4.917 -10.177  1.00  0.00     0.031 C 
ATOM     57  C   UNL     1      17.292   2.468  -9.820  1.00  0.00     0.034 A 
BRANCH  44  58
ATOM     58  C   UNL     1      13.873  -2.635  -8.931  1.00  0.00     0.023 A 
ATOM     59  C   UNL     1      13.243  -3.542  -9.801  1.00  0.00     0.031 A 
ATOM     60  C   UNL     1      14.460  -3.149  -7.761  1.00  0.00     0.131 A 
ATOM     61  C   UNL     1      13.145  -4.898  -9.451  1.00  0.00     0.055 A 
ATOM     62  C   UNL     1      14.437  -4.513  -7.461  1.00  0.00     0.041 A 
ATOM     63  F   UNL     1      15.057  -2.332  -6.879  1.00  0.00    -0.206 F 
ATOM     64  C   UNL     1      13.762  -5.394  -8.301  1.00  0.00     0.022 A 
BRANCH  61  65
ATOM     65  S   UNL     1      12.069  -5.971 -10.440  1.00  0.00     0.124 S 
ATOM     66  O   UNL     1      10.784  -5.287 -10.326  1.00  0.00    -0.237 OA
ATOM     67  O   UNL     1      12.702  -5.928 -11.753  1.00  0.00    -0.237 OA
ATOM     68  O   UNL     1      12.144  -7.259  -9.752  1.00  0.00    -0.744 OA
ENDBRANCH  61  65
ENDBRANCH  44  58
BRANCH  45  69
ATOM     69  C   UNL     1      13.641   7.275 -10.433  1.00  0.00     0.023 A 
ATOM     70  C   UNL     1      14.198   7.873 -11.575  1.00  0.00     0.031 A 
ATOM     71  C   UNL     1      13.111   8.120  -9.441  1.00  0.00     0.131 A 
ATOM     72  C   UNL     1      14.260   9.272 -11.674  1.00  0.00     0.055 A 
ATOM     73  C   UNL     1      13.120   9.510  -9.572  1.00  0.00     0.041 A 
ATOM     74  F   UNL     1      12.566   7.603  -8.328  1.00  0.00    -0.206 F 
ATOM     75  C   UNL     1      13.711  10.094 -10.688  1.00  0.00     0.022 A 
BRANCH  72  76
ATOM     76  S   UNL     1      15.161  10.004 -13.068  1.00  0.00     0.124 S 
ATOM     77  O   UNL     1      16.486   9.419 -12.903  1.00  0.00    -0.237 OA
ATOM     78  O   UNL     1      14.386   9.532 -14.210  1.00  0.00    -0.237 OA
ATOM     79  O   UNL     1      15.075  11.440 -12.810  1.00  0.00    -0.744 OA
ENDBRANCH  72  76
ENDBRANCH  45  69
BRANCH  57  80
ATOM     80  C   UNL     1      18.793   2.596  -9.931  1.00  0.00     0.023 A 
ATOM     81  C   UNL     1      19.550   3.322  -8.995  1.00  0.00     0.031 A 
ATOM     82  C   UNL     1      19.475   1.988 -11.001  1.00  0.00     0.131 A 
ATOM     83  C   UNL     1      20.933   3.471  -9.179  1.00  0.00     0.055 A 
ATOM     84  C   UNL     1      20.860   2.082 -11.140  1.00  0.00     0.041 A 
ATOM     85  F   UNL     1      18.804   1.287 -11.929  1.00  0.00    -0.206 F 
ATOM     86  C   UNL     1      21.596   2.839 -10.234  1.00  0.00     0.022 A 
BRANCH  83  87
ATOM     87  S   UNL     1      21.843   4.589  -8.077  1.00  0.00     0.124 S 
ATOM     88  O   UNL     1      21.144   5.853  -8.282  1.00  0.00    -0.237 OA
ATOM     89  O   UNL     1      21.657   3.962  -6.772  1.00  0.00    -0.237 OA
ATOM     90  O   UNL     1      23.210   4.544  -8.595  1.00  0.00    -0.744 OA
ENDBRANCH  83  87
ENDBRANCH  57  80
ENDBRANCH  31  32
ENDBRANCH  23  26
ENDBRANCH  21  22
ENDBRANCH   1  21
TORSDOF 17
