REMARK SMILES CC[C@@]1(C)NC(=O)N(/N=C/c2ccccc2C(=O)NCCCNC(=O)c2ccc(-c3c4nc(c(-c5cc(S(=O)(=O)[O-])ccc5F)c5ccc([nH]5)c(-c5cc(S(=O)(=O)[O-])ccc5F)c5nc(c(-c6cc(S(=O)(=O)[O-])ccc6F)c6ccc3[nH]6)C=C5)C=C4)cc2)C1=O
REMARK SMILES IDX 21 1 20 2 19 3 17 4 18 5 16 7 11 8 12 9 13 10 15 11 14 12
REMARK SMILES IDX 10 13 9 14 8 15 3 16 4 17 5 18 89 19 6 20 90 22 7 23 2 24
REMARK SMILES IDX 1 25 22 26 23 27 24 28 25 30 26 31 27 32 88 33 28 34 87 35
REMARK SMILES IDX 29 36 30 37 31 38 81 39 32 40 86 41 80 42 82 43 33 44 85 45
REMARK SMILES IDX 79 46 78 47 34 49 66 50 46 51 65 52 47 53 50 54 64 55 83 56
REMARK SMILES IDX 48 57 49 58 63 60 84 61 51 62 35 63 36 64 44 65 37 66 43 67
REMARK SMILES IDX 45 68 42 69 38 70 39 71 40 72 41 73 67 74 68 75 76 76 69 77
REMARK SMILES IDX 75 78 77 79 74 80 70 81 71 82 72 83 73 84 52 85 53 86 61 87
REMARK SMILES IDX 54 88 60 89 62 90 59 91 55 92 56 93 57 94 58 95
REMARK H PARENT 19 6 5 21 23 29 82 48 50 59
REMARK Flexibility Score: inf
ROOT
ATOM      1  C   UNL     1      -1.617  -4.433  -2.255  1.00  0.00     0.042 C 
ENDROOT
BRANCH   1   2
ATOM      2  C   UNL     1      -0.807  -5.596  -1.731  1.00  0.00     0.118 C 
BRANCH   2   3
ATOM      3  N   UNL     1      -1.527  -6.736  -1.220  1.00  0.00    -0.352 N 
ATOM      4  C   UNL     1      -1.085  -8.027  -1.036  1.00  0.00     0.251 C 
ATOM      5  O   UNL     1      -1.773  -8.777  -0.340  1.00  0.00    -0.269 OA
ATOM      6  H   UNL     1      -2.464  -6.569  -0.968  1.00  0.00     0.163 HD
BRANCH   4   7
ATOM      7  C   UNL     1       0.059  -8.621  -1.786  1.00  0.00     0.048 A 
ATOM      8  C   UNL     1       1.355  -8.113  -1.973  1.00  0.00     0.007 A 
ATOM      9  C   UNL     1       2.244  -8.769  -2.847  1.00  0.00     0.010 A 
ATOM     10  C   UNL     1       1.884  -9.960  -3.478  1.00  0.00     0.001 A 
ATOM     11  C   UNL     1      -0.268  -9.849  -2.407  1.00  0.00     0.014 A 
ATOM     12  C   UNL     1       0.633 -10.513  -3.240  1.00  0.00     0.001 A 
BRANCH   8  13
ATOM     13  C   UNL     1       1.902  -6.879  -1.369  1.00  0.00     0.143 C 
ATOM     14  N   UNL     1       1.574  -6.479  -0.187  1.00  0.00    -0.169 NA
BRANCH  14  15
ATOM     15  N   UNL     1       1.920  -5.200   0.226  1.00  0.00    -0.146 N 
ATOM     16  C   UNL     1       2.567  -2.923   0.394  1.00  0.00     0.120 C 
ATOM     17  C   UNL     1       3.933  -2.767   1.061  1.00  0.00     0.045 C 
ATOM     18  N   UNL     1       1.580  -3.306   1.371  1.00  0.00    -0.322 N 
ATOM     19  C   UNL     1       2.599  -4.209  -0.465  1.00  0.00     0.276 C 
ATOM     20  C   UNL     1       1.254  -4.646   1.305  1.00  0.00     0.346 C 
ATOM     21  H   UNL     1       1.180  -2.679   2.016  1.00  0.00     0.166 HD
ATOM     22  O   UNL     1       3.173  -4.286  -1.546  1.00  0.00    -0.270 OA
ATOM     23  O   UNL     1       0.414  -5.161   2.027  1.00  0.00    -0.246 OA
BRANCH  16  24
ATOM     24  C   UNL     1       2.159  -1.694  -0.431  1.00  0.00     0.035 C 
ATOM     25  C   UNL     1       2.313  -0.371   0.316  1.00  0.00     0.007 C 
ENDBRANCH  16  24
ENDBRANCH  14  15
ENDBRANCH   8  13
ENDBRANCH   4   7
ENDBRANCH   2   3
ENDBRANCH   1   2
BRANCH   1  26
ATOM     26  C   UNL     1      -2.545  -3.790  -1.233  1.00  0.00     0.118 C 
BRANCH  26  27
ATOM     27  N   UNL     1      -1.890  -3.257  -0.038  1.00  0.00    -0.352 N 
ATOM     28  C   UNL     1      -1.615  -1.968   0.365  1.00  0.00     0.251 C 
ATOM     29  H   UNL     1      -1.590  -3.947   0.597  1.00  0.00     0.163 HD
ATOM     30  O   UNL     1      -0.976  -1.782   1.401  1.00  0.00    -0.269 OA
BRANCH  28  31
ATOM     31  C   UNL     1      -1.968  -0.811  -0.490  1.00  0.00     0.039 A 
ATOM     32  C   UNL     1      -1.047   0.235  -0.596  1.00  0.00     0.014 A 
ATOM     33  C   UNL     1      -3.157  -0.745  -1.209  1.00  0.00     0.014 A 
ATOM     34  C   UNL     1      -1.223   1.245  -1.535  1.00  0.00     0.010 A 
ATOM     35  C   UNL     1      -3.308   0.214  -2.203  1.00  0.00     0.010 A 
ATOM     36  C   UNL     1      -2.336   1.211  -2.376  1.00  0.00    -0.014 A 
BRANCH  36  37
ATOM     37  C   UNL     1      -2.609   2.319  -3.313  1.00  0.00     0.031 A 
ATOM     38  C   UNL     1      -3.768   3.213  -2.993  1.00  0.00     0.074 A 
ATOM     39  C   UNL     1      -1.854   2.496  -4.412  1.00  0.00     0.049 A 
ATOM     40  N   UNL     1      -4.366   4.101  -3.736  1.00  0.00    -0.248 NA
ATOM     41  C   UNL     1      -4.359   3.043  -1.655  1.00  0.00     0.031 C 
ATOM     42  C   UNL     1      -0.667   1.710  -4.760  1.00  0.00     0.029 A 
ATOM     43  N   UNL     1      -1.972   3.392  -5.441  1.00  0.00    -0.354 N 
ATOM     44  C   UNL     1      -5.432   4.563  -2.972  1.00  0.00     0.074 A 
ATOM     45  C   UNL     1      -5.424   3.821  -1.732  1.00  0.00     0.031 C 
ATOM     46  C   UNL     1      -0.159   2.173  -5.915  1.00  0.00     0.029 A 
ATOM     47  C   UNL     1      -1.021   3.234  -6.424  1.00  0.00     0.049 A 
ATOM     48  H   UNL     1      -2.672   4.083  -5.475  1.00  0.00     0.167 HD
ATOM     49  C   UNL     1      -6.328   5.528  -3.286  1.00  0.00     0.034 A 
ATOM     50  C   UNL     1      -0.898   3.860  -7.613  1.00  0.00     0.034 A 
ATOM     51  C   UNL     1      -6.280   6.250  -4.531  1.00  0.00     0.049 A 
ATOM     52  C   UNL     1      -1.939   4.897  -7.966  1.00  0.00     0.074 A 
ATOM     53  C   UNL     1      -7.130   7.234  -4.998  1.00  0.00     0.029 A 
ATOM     54  N   UNL     1      -5.309   6.060  -5.511  1.00  0.00    -0.354 N 
ATOM     55  N   UNL     1      -2.979   5.296  -7.265  1.00  0.00    -0.248 NA
ATOM     56  C   UNL     1      -1.798   5.562  -9.265  1.00  0.00     0.031 C 
ATOM     57  C   UNL     1      -6.709   7.593  -6.284  1.00  0.00     0.029 A 
ATOM     58  C   UNL     1      -5.549   6.894  -6.588  1.00  0.00     0.049 A 
ATOM     59  H   UNL     1      -4.561   5.424  -5.447  1.00  0.00     0.167 HD
ATOM     60  C   UNL     1      -3.601   6.279  -8.029  1.00  0.00     0.074 A 
ATOM     61  C   UNL     1      -2.805   6.423  -9.234  1.00  0.00     0.031 C 
ATOM     62  C   UNL     1      -4.723   7.000  -7.770  1.00  0.00     0.034 A 
BRANCH  49  63
ATOM     63  C   UNL     1      -7.444   5.774  -2.298  1.00  0.00     0.023 A 
ATOM     64  C   UNL     1      -7.190   6.193  -0.978  1.00  0.00     0.031 A 
ATOM     65  C   UNL     1      -8.774   5.479  -2.646  1.00  0.00     0.131 A 
ATOM     66  C   UNL     1      -8.227   6.197  -0.033  1.00  0.00     0.055 A 
ATOM     67  C   UNL     1      -9.818   5.581  -1.724  1.00  0.00     0.041 A 
ATOM     68  F   UNL     1      -9.078   5.046  -3.880  1.00  0.00    -0.206 F 
ATOM     69  C   UNL     1      -9.544   5.920  -0.403  1.00  0.00     0.022 A 
BRANCH  66  70
ATOM     70  S   UNL     1      -7.798   6.381   1.721  1.00  0.00     0.124 S 
ATOM     71  O   UNL     1      -6.934   5.222   1.934  1.00  0.00    -0.237 OA
ATOM     72  O   UNL     1      -7.139   7.682   1.751  1.00  0.00    -0.237 OA
ATOM     73  O   UNL     1      -9.091   6.319   2.399  1.00  0.00    -0.744 OA
ENDBRANCH  66  70
ENDBRANCH  49  63
BRANCH  50  74
ATOM     74  C   UNL     1       0.200   3.503  -8.563  1.00  0.00     0.023 A 
ATOM     75  C   UNL     1       1.151   4.454  -8.970  1.00  0.00     0.031 A 
ATOM     76  C   UNL     1       0.292   2.212  -9.117  1.00  0.00     0.131 A 
ATOM     77  C   UNL     1       2.123   4.114  -9.927  1.00  0.00     0.055 A 
ATOM     78  C   UNL     1       1.294   1.863 -10.026  1.00  0.00     0.041 A 
ATOM     79  F   UNL     1      -0.590   1.260  -8.773  1.00  0.00    -0.206 F 
ATOM     80  C   UNL     1       2.210   2.821 -10.446  1.00  0.00     0.022 A 
BRANCH  77  81
ATOM     81  S   UNL     1       3.224   5.414 -10.554  1.00  0.00     0.124 S 
ATOM     82  O   UNL     1       2.270   6.390 -11.066  1.00  0.00    -0.237 OA
ATOM     83  O   UNL     1       3.954   5.798  -9.351  1.00  0.00    -0.237 OA
ATOM     84  O   UNL     1       4.019   4.726 -11.570  1.00  0.00    -0.744 OA
ENDBRANCH  77  81
ENDBRANCH  50  74
BRANCH  62  85
ATOM     85  C   UNL     1      -5.112   8.037  -8.793  1.00  0.00     0.023 A 
ATOM     86  C   UNL     1      -5.553   7.678 -10.076  1.00  0.00     0.031 A 
ATOM     87  C   UNL     1      -5.044   9.403  -8.468  1.00  0.00     0.131 A 
ATOM     88  C   UNL     1      -5.855   8.677 -11.011  1.00  0.00     0.055 A 
ATOM     89  C   UNL     1      -5.413  10.391  -9.379  1.00  0.00     0.041 A 
ATOM     90  F   UNL     1      -4.628   9.797  -7.253  1.00  0.00    -0.206 F 
ATOM     91  C   UNL     1      -5.809  10.031 -10.664  1.00  0.00     0.022 A 
BRANCH  88  92
ATOM     92  S   UNL     1      -6.216   8.186 -12.718  1.00  0.00     0.124 S 
ATOM     93  O   UNL     1      -4.997   7.475 -13.091  1.00  0.00    -0.237 OA
ATOM     94  O   UNL     1      -7.411   7.364 -12.561  1.00  0.00    -0.237 OA
ATOM     95  O   UNL     1      -6.426   9.460 -13.403  1.00  0.00    -0.744 OA
ENDBRANCH  88  92
ENDBRANCH  62  85
ENDBRANCH  36  37
ENDBRANCH  28  31
ENDBRANCH  26  27
ENDBRANCH   1  26
TORSDOF 16
