REMARK SMILES Cc1[nH]c2ccccc2c1/C=C1/SC(=S)N(c2cccc(C(=O)NCCCNC(=O)c3ccc(-c4c5nc(c(-c6cc(S(=O)(=O)[O-])ccc6F)c6ccc([nH]6)c(-c6cc(S(=O)(=O)[O-])ccc6F)c6nc(c(-c7cc(S(=O)(=O)[O-])ccc7F)c7ccc4[nH]7)C=C6)C=C5)cc3)c2)C1=O
REMARK SMILES IDX 26 1 25 2 24 3 22 4 23 5 21 7 17 8 18 9 94 10 19 11 20 12
REMARK SMILES IDX 16 13 11 14 12 15 13 16 95 17 14 18 96 19 15 20 10 21 1 22
REMARK SMILES IDX 2 23 3 24 4 25 9 27 5 28 8 29 6 30 7 31 27 32 28 33 29 34
REMARK SMILES IDX 30 36 31 37 32 38 93 39 33 40 92 41 34 42 35 43 36 44 86 45
REMARK SMILES IDX 37 46 91 47 85 48 87 49 38 50 90 51 84 52 83 53 39 55 71 56
REMARK SMILES IDX 51 57 70 58 52 59 55 60 69 61 88 62 53 63 54 64 68 66 89 67
REMARK SMILES IDX 56 68 40 69 41 70 49 71 42 72 48 73 50 74 47 75 43 76 44 77
REMARK SMILES IDX 45 78 46 79 72 80 73 81 81 82 74 83 80 84 82 85 79 86 75 87
REMARK SMILES IDX 76 88 77 89 78 90 57 91 58 92 66 93 59 94 65 95 67 96 64 97
REMARK SMILES IDX 60 98 61 99 62 100 63 101
REMARK H PARENT 24 6 3 26 28 35 87 54 55 65
REMARK Flexibility Score: inf
ROOT
ATOM      1  C   UNL     1      -8.461  -1.946  -2.705  1.00  0.00     0.042 C 
ENDROOT
BRANCH   1   2
ATOM      2  C   UNL     1      -8.059  -2.906  -3.817  1.00  0.00     0.118 C 
BRANCH   2   3
ATOM      3  N   UNL     1      -8.014  -2.288  -5.134  1.00  0.00    -0.352 N 
ATOM      4  C   UNL     1      -7.040  -1.890  -6.013  1.00  0.00     0.251 C 
ATOM      5  O   UNL     1      -7.437  -1.406  -7.077  1.00  0.00    -0.269 OA
ATOM      6  H   UNL     1      -8.917  -2.110  -5.484  1.00  0.00     0.163 HD
BRANCH   4   7
ATOM      7  C   UNL     1      -5.566  -1.949  -5.777  1.00  0.00     0.041 A 
ATOM      8  C   UNL     1      -3.560  -2.616  -4.544  1.00  0.00     0.051 A 
ATOM      9  C   UNL     1      -2.789  -1.780  -5.357  1.00  0.00     0.027 A 
ATOM     10  C   UNL     1      -4.933  -2.732  -4.813  1.00  0.00     0.040 A 
ATOM     11  C   UNL     1      -3.379  -1.068  -6.398  1.00  0.00     0.003 A 
ATOM     12  C   UNL     1      -4.759  -1.136  -6.591  1.00  0.00     0.014 A 
BRANCH   8  13
ATOM     13  N   UNL     1      -3.022  -3.198  -3.349  1.00  0.00    -0.261 N 
ATOM     14  C   UNL     1      -1.613  -2.500  -0.054  1.00  0.00     0.032 C 
ATOM     15  C   UNL     1      -2.102  -3.055  -1.173  1.00  0.00     0.081 C 
ATOM     16  S   UNL     1      -2.698  -4.666  -1.243  1.00  0.00    -0.054 SA
ATOM     17  C   UNL     1      -2.272  -2.386  -2.496  1.00  0.00     0.270 C 
ATOM     18  C   UNL     1      -3.288  -4.481  -2.894  1.00  0.00     0.152 C 
ATOM     19  O   UNL     1      -1.838  -1.270  -2.753  1.00  0.00    -0.268 OA
ATOM     20  S   UNL     1      -3.961  -5.784  -3.704  1.00  0.00    -0.051 S 
BRANCH  14  21
ATOM     21  C   UNL     1      -1.153  -1.159   0.074  1.00  0.00     0.004 A 
ATOM     22  C   UNL     1      -3.437   0.135   0.187  1.00  0.00     0.065 C 
ATOM     23  C   UNL     1      -1.961  -0.041   0.169  1.00  0.00     0.020 A 
ATOM     24  N   UNL     1      -1.124   1.050   0.208  1.00  0.00    -0.358 N 
ATOM     25  C   UNL     1       0.194   0.657   0.151  1.00  0.00     0.046 A 
ATOM     26  H   UNL     1      -1.426   1.984   0.268  1.00  0.00     0.166 HD
ATOM     27  C   UNL     1       0.206  -0.736   0.090  1.00  0.00     0.007 A 
ATOM     28  C   UNL     1       1.365   1.424   0.137  1.00  0.00     0.027 A 
ATOM     29  C   UNL     1       1.449  -1.399   0.027  1.00  0.00     0.011 A 
ATOM     30  C   UNL     1       2.584   0.743   0.068  1.00  0.00     0.002 A 
ATOM     31  C   UNL     1       2.629  -0.648   0.018  1.00  0.00     0.001 A 
ENDBRANCH  14  21
ENDBRANCH   8  13
ENDBRANCH   4   7
ENDBRANCH   2   3
ENDBRANCH   1   2
BRANCH   1  32
ATOM     32  C   UNL     1      -9.959  -1.660  -2.648  1.00  0.00     0.118 C 
BRANCH  32  33
ATOM     33  N   UNL     1     -10.746  -2.873  -2.461  1.00  0.00    -0.352 N 
ATOM     34  C   UNL     1     -11.515  -3.311  -1.413  1.00  0.00     0.251 C 
ATOM     35  H   UNL     1     -10.720  -3.491  -3.227  1.00  0.00     0.163 HD
ATOM     36  O   UNL     1     -11.856  -4.492  -1.396  1.00  0.00    -0.269 OA
BRANCH  34  37
ATOM     37  C   UNL     1     -11.935  -2.404  -0.321  1.00  0.00     0.039 A 
ATOM     38  C   UNL     1     -12.120  -2.938   0.958  1.00  0.00     0.014 A 
ATOM     39  C   UNL     1     -12.228  -1.059  -0.554  1.00  0.00     0.014 A 
ATOM     40  C   UNL     1     -12.553  -2.118   2.002  1.00  0.00     0.010 A 
ATOM     41  C   UNL     1     -12.566  -0.220   0.506  1.00  0.00     0.010 A 
ATOM     42  C   UNL     1     -12.752  -0.744   1.792  1.00  0.00    -0.014 A 
BRANCH  42  43
ATOM     43  C   UNL     1     -13.175   0.144   2.907  1.00  0.00     0.031 A 
ATOM     44  C   UNL     1     -14.500   0.858   2.853  1.00  0.00     0.074 A 
ATOM     45  C   UNL     1     -12.342   0.332   3.950  1.00  0.00     0.049 A 
ATOM     46  N   UNL     1     -15.036   1.676   3.723  1.00  0.00    -0.248 NA
ATOM     47  C   UNL     1     -15.314   0.653   1.646  1.00  0.00     0.031 C 
ATOM     48  C   UNL     1     -11.006  -0.256   4.079  1.00  0.00     0.029 A 
ATOM     49  N   UNL     1     -12.494   1.062   5.100  1.00  0.00    -0.354 N 
ATOM     50  C   UNL     1     -16.240   2.092   3.163  1.00  0.00     0.074 A 
ATOM     51  C   UNL     1     -16.319   1.491   1.849  1.00  0.00     0.031 C 
ATOM     52  C   UNL     1     -10.480   0.103   5.261  1.00  0.00     0.029 A 
ATOM     53  C   UNL     1     -11.422   0.971   5.957  1.00  0.00     0.049 A 
ATOM     54  H   UNL     1     -13.295   1.601   5.294  1.00  0.00     0.167 HD
ATOM     55  C   UNL     1     -17.203   2.880   3.705  1.00  0.00     0.034 A 
ATOM     56  C   UNL     1     -11.225   1.520   7.171  1.00  0.00     0.034 A 
ATOM     57  C   UNL     1     -17.114   3.455   5.026  1.00  0.00     0.049 A 
ATOM     58  C   UNL     1     -12.323   2.362   7.767  1.00  0.00     0.074 A 
ATOM     59  C   UNL     1     -18.045   4.226   5.700  1.00  0.00     0.029 A 
ATOM     60  N   UNL     1     -16.023   3.320   5.878  1.00  0.00    -0.354 N 
ATOM     61  N   UNL     1     -13.482   2.698   7.249  1.00  0.00    -0.248 NA
ATOM     62  C   UNL     1     -12.094   2.877   9.122  1.00  0.00     0.031 C 
ATOM     63  C   UNL     1     -17.497   4.604   6.931  1.00  0.00     0.029 A 
ATOM     64  C   UNL     1     -16.251   4.010   7.060  1.00  0.00     0.049 A 
ATOM     65  H   UNL     1     -15.207   2.809   5.673  1.00  0.00     0.167 HD
ATOM     66  C   UNL     1     -14.131   3.446   8.227  1.00  0.00     0.074 A 
ATOM     67  C   UNL     1     -13.245   3.481   9.374  1.00  0.00     0.031 C 
ATOM     68  C   UNL     1     -15.346   4.052   8.185  1.00  0.00     0.034 A 
BRANCH  55  69
ATOM     69  C   UNL     1     -18.420   3.173   2.857  1.00  0.00     0.023 A 
ATOM     70  C   UNL     1     -19.281   2.150   2.419  1.00  0.00     0.031 A 
ATOM     71  C   UNL     1     -18.707   4.488   2.447  1.00  0.00     0.131 A 
ATOM     72  C   UNL     1     -20.331   2.443   1.536  1.00  0.00     0.055 A 
ATOM     73  C   UNL     1     -19.806   4.785   1.637  1.00  0.00     0.041 A 
ATOM     74  F   UNL     1     -17.914   5.507   2.814  1.00  0.00    -0.206 F 
ATOM     75  C   UNL     1     -20.616   3.758   1.163  1.00  0.00     0.022 A 
BRANCH  72  76
ATOM     76  S   UNL     1     -21.227   1.065   0.766  1.00  0.00     0.124 S 
ATOM     77  O   UNL     1     -20.149   0.371   0.065  1.00  0.00    -0.237 OA
ATOM     78  O   UNL     1     -21.790   0.372   1.919  1.00  0.00    -0.237 OA
ATOM     79  O   UNL     1     -22.198   1.730  -0.100  1.00  0.00    -0.744 OA
ENDBRANCH  72  76
ENDBRANCH  55  69
BRANCH  56  80
ATOM     80  C   UNL     1      -9.957   1.277   7.915  1.00  0.00     0.023 A 
ATOM     81  C   UNL     1      -9.953   0.561   9.122  1.00  0.00     0.031 A 
ATOM     82  C   UNL     1      -8.733   1.787   7.446  1.00  0.00     0.131 A 
ATOM     83  C   UNL     1      -8.760   0.416   9.847  1.00  0.00     0.055 A 
ATOM     84  C   UNL     1      -7.539   1.596   8.145  1.00  0.00     0.041 A 
ATOM     85  F   UNL     1      -8.679   2.468   6.291  1.00  0.00    -0.206 F 
ATOM     86  C   UNL     1      -7.551   0.919   9.361  1.00  0.00     0.022 A 
BRANCH  83  87
ATOM     87  S   UNL     1      -8.826  -0.371  11.480  1.00  0.00     0.124 S 
ATOM     88  O   UNL     1      -9.790   0.471  12.178  1.00  0.00    -0.237 OA
ATOM     89  O   UNL     1      -9.273  -1.719  11.146  1.00  0.00    -0.237 OA
ATOM     90  O   UNL     1      -7.449  -0.274  11.959  1.00  0.00    -0.744 OA
ENDBRANCH  83  87
ENDBRANCH  56  80
BRANCH  68  91
ATOM     91  C   UNL     1     -15.782   4.775   9.436  1.00  0.00     0.023 A 
ATOM     92  C   UNL     1     -15.090   5.903   9.912  1.00  0.00     0.031 A 
ATOM     93  C   UNL     1     -16.867   4.298  10.191  1.00  0.00     0.131 A 
ATOM     94  C   UNL     1     -15.436   6.465  11.149  1.00  0.00     0.055 A 
ATOM     95  C   UNL     1     -17.252   4.905  11.388  1.00  0.00     0.041 A 
ATOM     96  F   UNL     1     -17.563   3.224   9.785  1.00  0.00    -0.206 F 
ATOM     97  C   UNL     1     -16.523   5.982  11.883  1.00  0.00     0.022 A 
BRANCH  94  98
ATOM     98  S   UNL     1     -14.361   7.747  11.851  1.00  0.00     0.124 S 
ATOM     99  O   UNL     1     -13.059   7.087  11.847  1.00  0.00    -0.237 OA
ATOM    100  O   UNL     1     -14.523   8.842  10.900  1.00  0.00    -0.237 OA
ATOM    101  O   UNL     1     -14.931   7.985  13.175  1.00  0.00    -0.744 OA
ENDBRANCH  94  98
ENDBRANCH  68  91
ENDBRANCH  42  43
ENDBRANCH  34  37
ENDBRANCH  32  33
ENDBRANCH   1  32
TORSDOF 15
