REMARK SMILES Cc1ccc(S(=O)(=O)N(c2ccccc2)[C@H](C)C(=O)NCCCNC(=O)c2ccc(-c3c4nc(c(-c5cc(S(=O)(=O)[O-])ccc5F)c5ccc([nH]5)c(-c5cc(S(=O)(=O)[O-])ccc5F)c5nc(c(-c6cc(S(=O)(=O)[O-])ccc6F)c6ccc3[nH]6)C=C5)C=C4)cc2)cc1
REMARK SMILES IDX 22 1 21 2 20 3 18 4 19 5 16 7 17 8 9 9 6 10 7 11 8 12 5 13
REMARK SMILES IDX 1 14 2 15 3 16 91 17 4 18 90 19 10 20 11 21 15 22 12 23
REMARK SMILES IDX 14 24 13 25 23 26 24 27 25 28 26 30 27 31 28 32 89 33 29 34
REMARK SMILES IDX 88 35 30 36 31 37 32 38 82 39 33 40 87 41 81 42 83 43 34 44
REMARK SMILES IDX 86 45 80 46 79 47 35 49 67 50 47 51 66 52 48 53 51 54 65 55
REMARK SMILES IDX 84 56 49 57 50 58 64 60 85 61 52 62 36 63 37 64 45 65 38 66
REMARK SMILES IDX 44 67 46 68 43 69 39 70 40 71 41 72 42 73 68 74 69 75 77 76
REMARK SMILES IDX 70 77 76 78 78 79 75 80 71 81 72 82 73 83 74 84 53 85 54 86
REMARK SMILES IDX 62 87 55 88 61 89 63 90 60 91 56 92 57 93 58 94 59 95
REMARK H PARENT 20 6 24 29 83 48 51 59
REMARK Flexibility Score: inf
ROOT
ATOM      1  C   UNL     1      -3.775  -1.273   1.311  1.00  0.00     0.042 C 
ENDROOT
BRANCH   1   2
ATOM      2  C   UNL     1      -5.120  -0.800   0.807  1.00  0.00     0.117 C 
BRANCH   2   3
ATOM      3  N   UNL     1      -5.662   0.362   1.474  1.00  0.00    -0.354 N 
ATOM      4  C   UNL     1      -6.187   1.497   0.921  1.00  0.00     0.243 C 
ATOM      5  O   UNL     1      -6.819   2.241   1.682  1.00  0.00    -0.273 OA
ATOM      6  H   UNL     1      -5.652   0.332   2.458  1.00  0.00     0.163 HD
BRANCH   4   7
ATOM      7  C   UNL     1      -5.913   1.934  -0.523  1.00  0.00     0.185 C 
ATOM      8  C   UNL     1      -4.406   2.096  -0.764  1.00  0.00     0.043 C 
BRANCH   7   9
ATOM      9  N   UNL     1      -6.678   1.253  -1.647  1.00  0.00    -0.254 N 
BRANCH   9  10
ATOM     10  S   UNL     1      -7.199   2.361  -2.850  1.00  0.00     0.265 S 
ATOM     11  O   UNL     1      -6.000   3.009  -3.358  1.00  0.00    -0.201 OA
ATOM     12  O   UNL     1      -8.266   3.170  -2.298  1.00  0.00    -0.201 OA
BRANCH  10  13
ATOM     13  C   UNL     1      -7.884   1.475  -4.238  1.00  0.00     0.088 A 
ATOM     14  C   UNL     1      -8.645  -0.899  -7.736  1.00  0.00     0.044 C 
ATOM     15  C   UNL     1      -8.435  -0.043  -6.524  1.00  0.00    -0.051 A 
ATOM     16  C   UNL     1      -7.926   1.253  -6.650  1.00  0.00     0.005 A 
ATOM     17  C   UNL     1      -8.768  -0.525  -5.250  1.00  0.00     0.005 A 
ATOM     18  C   UNL     1      -7.632   2.001  -5.512  1.00  0.00     0.022 A 
ATOM     19  C   UNL     1      -8.530   0.249  -4.111  1.00  0.00     0.022 A 
ENDBRANCH  10  13
ENDBRANCH   9  10
BRANCH   9  20
ATOM     20  C   UNL     1      -6.266  -0.051  -2.086  1.00  0.00     0.053 A 
ATOM     21  C   UNL     1      -6.982  -1.152  -1.590  1.00  0.00     0.027 A 
ATOM     22  C   UNL     1      -5.154  -0.266  -2.905  1.00  0.00     0.027 A 
ATOM     23  C   UNL     1      -6.584  -2.454  -1.894  1.00  0.00     0.002 A 
ATOM     24  C   UNL     1      -4.752  -1.573  -3.201  1.00  0.00     0.002 A 
ATOM     25  C   UNL     1      -5.462  -2.664  -2.692  1.00  0.00     0.000 A 
ENDBRANCH   9  20
ENDBRANCH   7   9
ENDBRANCH   4   7
ENDBRANCH   2   3
ENDBRANCH   1   2
BRANCH   1  26
ATOM     26  C   UNL     1      -3.887  -2.612   2.012  1.00  0.00     0.118 C 
BRANCH  26  27
ATOM     27  N   UNL     1      -3.959  -3.788   1.137  1.00  0.00    -0.352 N 
ATOM     28  C   UNL     1      -4.109  -5.121   1.506  1.00  0.00     0.251 C 
ATOM     29  H   UNL     1      -3.894  -3.612   0.171  1.00  0.00     0.163 HD
ATOM     30  O   UNL     1      -4.101  -6.016   0.677  1.00  0.00    -0.269 OA
BRANCH  28  31
ATOM     31  C   UNL     1      -4.384  -5.423   2.935  1.00  0.00     0.039 A 
ATOM     32  C   UNL     1      -5.569  -6.096   3.249  1.00  0.00     0.014 A 
ATOM     33  C   UNL     1      -3.673  -4.744   3.916  1.00  0.00     0.014 A 
ATOM     34  C   UNL     1      -6.182  -5.838   4.472  1.00  0.00     0.010 A 
ATOM     35  C   UNL     1      -4.358  -4.356   5.046  1.00  0.00     0.010 A 
ATOM     36  C   UNL     1      -5.642  -4.856   5.298  1.00  0.00    -0.014 A 
BRANCH  36  37
ATOM     37  C   UNL     1      -6.383  -4.186   6.364  1.00  0.00     0.031 A 
ATOM     38  C   UNL     1      -5.889  -4.249   7.758  1.00  0.00     0.074 A 
ATOM     39  C   UNL     1      -7.449  -3.406   6.063  1.00  0.00     0.049 A 
ATOM     40  N   UNL     1      -6.572  -3.877   8.784  1.00  0.00    -0.248 NA
ATOM     41  C   UNL     1      -4.593  -4.820   8.125  1.00  0.00     0.031 C 
ATOM     42  C   UNL     1      -8.092  -2.407   6.915  1.00  0.00     0.029 A 
ATOM     43  N   UNL     1      -8.334  -3.564   4.992  1.00  0.00    -0.354 N 
ATOM     44  C   UNL     1      -5.728  -3.854   9.866  1.00  0.00     0.074 A 
ATOM     45  C   UNL     1      -4.558  -4.569   9.436  1.00  0.00     0.031 C 
ATOM     46  C   UNL     1      -9.359  -2.237   6.510  1.00  0.00     0.029 A 
ATOM     47  C   UNL     1      -9.614  -3.224   5.479  1.00  0.00     0.049 A 
ATOM     48  H   UNL     1      -8.108  -3.854   4.079  1.00  0.00     0.167 HD
ATOM     49  C   UNL     1      -6.081  -3.106  10.946  1.00  0.00     0.034 A 
ATOM     50  C   UNL     1     -10.620  -4.144   5.512  1.00  0.00     0.034 A 
ATOM     51  C   UNL     1      -7.516  -2.796  10.914  1.00  0.00     0.049 A 
ATOM     52  C   UNL     1     -11.137  -4.436   6.906  1.00  0.00     0.074 A 
ATOM     53  C   UNL     1      -8.257  -1.645  10.718  1.00  0.00     0.029 A 
ATOM     54  N   UNL     1      -8.422  -3.855  10.850  1.00  0.00    -0.354 N 
ATOM     55  N   UNL     1     -10.542  -4.071   8.011  1.00  0.00    -0.248 NA
ATOM     56  C   UNL     1     -12.366  -5.178   7.161  1.00  0.00     0.031 C 
ATOM     57  C   UNL     1      -9.601  -2.032  10.443  1.00  0.00     0.029 A 
ATOM     58  C   UNL     1      -9.688  -3.413  10.521  1.00  0.00     0.049 A 
ATOM     59  H   UNL     1      -8.190  -4.797  11.018  1.00  0.00     0.167 HD
ATOM     60  C   UNL     1     -11.241  -4.542   9.097  1.00  0.00     0.074 A 
ATOM     61  C   UNL     1     -12.396  -5.196   8.505  1.00  0.00     0.031 C 
ATOM     62  C   UNL     1     -10.790  -4.367  10.381  1.00  0.00     0.034 A 
BRANCH  49  63
ATOM     63  C   UNL     1      -5.104  -2.489  11.935  1.00  0.00     0.023 A 
ATOM     64  C   UNL     1      -5.601  -1.621  12.933  1.00  0.00     0.031 A 
ATOM     65  C   UNL     1      -3.692  -2.579  11.881  1.00  0.00     0.131 A 
ATOM     66  C   UNL     1      -4.735  -0.898  13.783  1.00  0.00     0.055 A 
ATOM     67  C   UNL     1      -2.837  -1.905  12.762  1.00  0.00     0.041 A 
ATOM     68  F   UNL     1      -3.041  -3.268  10.940  1.00  0.00    -0.206 F 
ATOM     69  C   UNL     1      -3.354  -1.051  13.715  1.00  0.00     0.022 A 
BRANCH  66  70
ATOM     70  S   UNL     1      -5.426   0.316  14.940  1.00  0.00     0.124 S 
ATOM     71  O   UNL     1      -6.043   1.282  14.037  1.00  0.00    -0.237 OA
ATOM     72  O   UNL     1      -6.333  -0.497  15.741  1.00  0.00    -0.237 OA
ATOM     73  O   UNL     1      -4.249   0.810  15.655  1.00  0.00    -0.744 OA
ENDBRANCH  66  70
ENDBRANCH  49  63
BRANCH  50  74
ATOM     74  C   UNL     1     -10.558  -5.103   4.370  1.00  0.00     0.023 A 
ATOM     75  C   UNL     1     -10.622  -4.554   3.070  1.00  0.00     0.031 A 
ATOM     76  C   UNL     1     -10.034  -6.394   4.511  1.00  0.00     0.131 A 
ATOM     77  C   UNL     1     -10.011  -5.212   1.993  1.00  0.00     0.055 A 
ATOM     78  C   UNL     1      -9.490  -7.080   3.415  1.00  0.00     0.041 A 
ATOM     79  F   UNL     1      -9.907  -6.952   5.723  1.00  0.00    -0.206 F 
ATOM     80  C   UNL     1      -9.436  -6.472   2.158  1.00  0.00     0.022 A 
BRANCH  77  81
ATOM     81  S   UNL     1      -9.776  -4.284   0.448  1.00  0.00     0.124 S 
ATOM     82  O   UNL     1     -11.146  -4.100  -0.015  1.00  0.00    -0.237 OA
ATOM     83  O   UNL     1      -9.091  -3.077   0.909  1.00  0.00    -0.237 OA
ATOM     84  O   UNL     1      -8.952  -5.167  -0.373  1.00  0.00    -0.744 OA
ENDBRANCH  77  81
ENDBRANCH  50  74
BRANCH  62  85
ATOM     85  C   UNL     1     -11.354  -5.025  11.637  1.00  0.00     0.023 A 
ATOM     86  C   UNL     1     -12.325  -6.039  11.630  1.00  0.00     0.031 A 
ATOM     87  C   UNL     1     -10.867  -4.678  12.926  1.00  0.00     0.131 A 
ATOM     88  C   UNL     1     -12.824  -6.596  12.826  1.00  0.00     0.055 A 
ATOM     89  C   UNL     1     -11.309  -5.285  14.108  1.00  0.00     0.041 A 
ATOM     90  F   UNL     1      -9.926  -3.740  13.100  1.00  0.00    -0.206 F 
ATOM     91  C   UNL     1     -12.308  -6.241  14.066  1.00  0.00     0.022 A 
BRANCH  88  92
ATOM     92  S   UNL     1     -14.212  -7.758  12.719  1.00  0.00     0.124 S 
ATOM     93  O   UNL     1     -15.259  -6.925  12.133  1.00  0.00    -0.237 OA
ATOM     94  O   UNL     1     -13.678  -8.804  11.852  1.00  0.00    -0.237 OA
ATOM     95  O   UNL     1     -14.440  -8.156  14.106  1.00  0.00    -0.744 OA
ENDBRANCH  88  92
ENDBRANCH  62  85
ENDBRANCH  36  37
ENDBRANCH  28  31
ENDBRANCH  26  27
ENDBRANCH   1  26
TORSDOF 17
