REMARK SMILES C[N@@H+](CC(=O)NCCCNC(=O)c1ccc(-c2c3nc(c(-c4cc(S(=O)(=O)[O-])ccc4F)c4ccc([nH]4)c(-c4cc(S(=O)(=O)[O-])ccc4F)c4nc(c(-c5cc(S(=O)(=O)[O-])ccc5F)c5ccc2[nH]5)C=C4)C=C3)cc1)Cc1csc(-c2ccco2)n1
REMARK SMILES IDX 7 1 6 2 4 3 5 4 3 6 2 7 1 8 76 10 77 11 78 12 86 13 79 14
REMARK SMILES IDX 80 15 81 16 82 17 85 18 83 19 84 20 8 21 9 22 10 23 11 24
REMARK SMILES IDX 12 26 13 27 14 28 75 29 15 30 74 31 16 32 17 33 18 34 68 35
REMARK SMILES IDX 19 36 73 37 67 38 69 39 20 40 72 41 66 42 65 43 21 45 53 46
REMARK SMILES IDX 33 47 52 48 34 49 37 50 51 51 70 52 35 53 36 54 50 56 71 57
REMARK SMILES IDX 38 58 22 59 23 60 31 61 24 62 30 63 32 64 29 65 25 66 26 67
REMARK SMILES IDX 27 68 28 69 54 70 55 71 63 72 56 73 62 74 64 75 61 76 57 77
REMARK SMILES IDX 58 78 59 79 60 80 39 81 40 82 48 83 41 84 47 85 49 86 46 87
REMARK SMILES IDX 42 88 43 89 44 90 45 91
REMARK H PARENT 6 5 2 9 10 25 69 44 37 55
REMARK Flexibility Score: inf
ROOT
ATOM      1  C   UNL     1      -0.519  -1.309  -1.169  1.00  0.00     0.118 C 
ENDROOT
BRANCH   1   2
ATOM      2  N   UNL     1      -1.364  -1.300   0.006  1.00  0.00    -0.351 N 
ATOM      3  C   UNL     1      -1.616  -0.293   0.893  1.00  0.00     0.275 C 
ATOM      4  O   UNL     1      -2.608  -0.417   1.620  1.00  0.00    -0.269 OA
ATOM      5  H   UNL     1      -1.827  -2.148   0.195  1.00  0.00     0.163 HD
BRANCH   3   6
ATOM      6  C   UNL     1      -0.786   0.991   0.910  1.00  0.00     0.363 C 
BRANCH   6   7
ATOM      7  N   UNL     1       0.583   0.878   1.403  1.00  0.00    -0.325 N 
ATOM      8  C   UNL     1       1.683   0.890   0.476  1.00  0.00     0.333 C 
ATOM      9  H   UNL     1       0.574   1.876   1.614  1.00  0.00     0.348 HD
BRANCH   7  10
ATOM     10  C   UNL     1       0.837   0.434   2.764  1.00  0.00     0.320 C 
BRANCH  10  11
ATOM     11  C   UNL     1       0.693  -1.046   2.949  1.00  0.00     0.106 A 
ATOM     12  C   UNL     1       1.659  -2.022   2.777  1.00  0.00     0.097 A 
ATOM     13  N   UNL     1      -0.526  -1.531   3.399  1.00  0.00    -0.232 NA
ATOM     14  S   UNL     1       1.021  -3.566   3.178  1.00  0.00    -0.119 S 
ATOM     15  C   UNL     1      -0.490  -2.839   3.528  1.00  0.00     0.159 A 
BRANCH  15  16
ATOM     16  C   UNL     1      -1.651  -3.595   3.900  1.00  0.00     0.162 A 
ATOM     17  C   UNL     1      -2.974  -3.323   3.583  1.00  0.00     0.053 A 
ATOM     18  O   UNL     1      -1.616  -4.736   4.664  1.00  0.00    -0.462 OA
ATOM     19  C   UNL     1      -3.769  -4.334   4.172  1.00  0.00     0.043 A 
ATOM     20  C   UNL     1      -2.895  -5.158   4.836  1.00  0.00     0.196 A 
ENDBRANCH  15  16
ENDBRANCH  10  11
ENDBRANCH   7  10
ENDBRANCH   6   7
ENDBRANCH   3   6
ENDBRANCH   1   2
BRANCH   1  21
ATOM     21  C   UNL     1       0.681  -2.241  -1.048  1.00  0.00     0.042 C 
BRANCH  21  22
ATOM     22  C   UNL     1       0.341  -3.716  -0.871  1.00  0.00     0.118 C 
BRANCH  22  23
ATOM     23  N   UNL     1      -0.188  -4.323  -2.081  1.00  0.00    -0.352 N 
ATOM     24  C   UNL     1       0.366  -5.225  -2.958  1.00  0.00     0.251 C 
ATOM     25  H   UNL     1      -1.102  -4.039  -2.312  1.00  0.00     0.163 HD
ATOM     26  O   UNL     1      -0.218  -5.441  -4.018  1.00  0.00    -0.269 OA
BRANCH  24  27
ATOM     27  C   UNL     1       1.651  -5.913  -2.674  1.00  0.00     0.039 A 
ATOM     28  C   UNL     1       2.527  -6.153  -3.741  1.00  0.00     0.014 A 
ATOM     29  C   UNL     1       1.984  -6.385  -1.402  1.00  0.00     0.014 A 
ATOM     30  C   UNL     1       3.746  -6.806  -3.522  1.00  0.00     0.010 A 
ATOM     31  C   UNL     1       3.235  -6.962  -1.169  1.00  0.00     0.010 A 
ATOM     32  C   UNL     1       4.128  -7.188  -2.227  1.00  0.00    -0.014 A 
BRANCH  32  33
ATOM     33  C   UNL     1       5.442  -7.841  -1.971  1.00  0.00     0.031 A 
ATOM     34  C   UNL     1       5.503  -9.248  -1.433  1.00  0.00     0.074 A 
ATOM     35  C   UNL     1       6.584  -7.151  -2.166  1.00  0.00     0.049 A 
ATOM     36  N   UNL     1       6.545  -9.958  -1.081  1.00  0.00    -0.248 NA
ATOM     37  C   UNL     1       4.217  -9.933  -1.236  1.00  0.00     0.031 C 
ATOM     38  C   UNL     1       6.664  -5.767  -2.638  1.00  0.00     0.029 A 
ATOM     39  N   UNL     1       7.896  -7.511  -1.979  1.00  0.00    -0.354 N 
ATOM     40  C   UNL     1       6.041 -11.163  -0.600  1.00  0.00     0.074 A 
ATOM     41  C   UNL     1       4.598 -11.061  -0.657  1.00  0.00     0.031 C 
ATOM     42  C   UNL     1       7.953  -5.402  -2.716  1.00  0.00     0.029 A 
ATOM     43  C   UNL     1       8.792  -6.507  -2.263  1.00  0.00     0.049 A 
ATOM     44  H   UNL     1       8.170  -8.405  -1.671  1.00  0.00     0.167 HD
ATOM     45  C   UNL     1       6.717 -12.259  -0.170  1.00  0.00     0.034 A 
ATOM     46  C   UNL     1      10.136  -6.470  -2.157  1.00  0.00     0.034 A 
ATOM     47  C   UNL     1       8.157 -12.356  -0.141  1.00  0.00     0.049 A 
ATOM     48  C   UNL     1      10.868  -7.699  -1.684  1.00  0.00     0.074 A 
ATOM     49  C   UNL     1       8.942 -13.445   0.200  1.00  0.00     0.029 A 
ATOM     50  N   UNL     1       9.032 -11.324  -0.454  1.00  0.00    -0.354 N 
ATOM     51  N   UNL     1      10.378  -8.853  -1.294  1.00  0.00    -0.248 NA
ATOM     52  C   UNL     1      12.334  -7.625  -1.651  1.00  0.00     0.031 C 
ATOM     53  C   UNL     1      10.285 -13.053   0.155  1.00  0.00     0.029 A 
ATOM     54  C   UNL     1      10.345 -11.740  -0.283  1.00  0.00     0.049 A 
ATOM     55  H   UNL     1       8.760 -10.426  -0.754  1.00  0.00     0.167 HD
ATOM     56  C   UNL     1      11.479  -9.649  -0.990  1.00  0.00     0.074 A 
ATOM     57  C   UNL     1      12.656  -8.849  -1.259  1.00  0.00     0.031 C 
ATOM     58  C   UNL     1      11.512 -10.928  -0.535  1.00  0.00     0.034 A 
BRANCH  45  59
ATOM     59  C   UNL     1       5.899 -13.428   0.330  1.00  0.00     0.023 A 
ATOM     60  C   UNL     1       5.013 -14.126  -0.510  1.00  0.00     0.031 A 
ATOM     61  C   UNL     1       5.983 -13.831   1.675  1.00  0.00     0.131 A 
ATOM     62  C   UNL     1       4.187 -15.129   0.020  1.00  0.00     0.055 A 
ATOM     63  C   UNL     1       5.219 -14.887   2.177  1.00  0.00     0.041 A 
ATOM     64  F   UNL     1       6.798 -13.194   2.530  1.00  0.00    -0.206 F 
ATOM     65  C   UNL     1       4.301 -15.531   1.353  1.00  0.00     0.022 A 
BRANCH  62  66
ATOM     66  S   UNL     1       2.857 -15.793  -1.019  1.00  0.00     0.124 S 
ATOM     67  O   UNL     1       2.104 -14.584  -1.342  1.00  0.00    -0.237 OA
ATOM     68  O   UNL     1       3.592 -16.402  -2.121  1.00  0.00    -0.237 OA
ATOM     69  O   UNL     1       2.167 -16.730  -0.135  1.00  0.00    -0.744 OA
ENDBRANCH  62  66
ENDBRANCH  45  59
BRANCH  46  70
ATOM     70  C   UNL     1      10.879  -5.221  -2.488  1.00  0.00     0.023 A 
ATOM     71  C   UNL     1      11.744  -5.161  -3.592  1.00  0.00     0.031 A 
ATOM     72  C   UNL     1      10.752  -4.074  -1.685  1.00  0.00     0.131 A 
ATOM     73  C   UNL     1      12.477  -3.990  -3.842  1.00  0.00     0.055 A 
ATOM     74  C   UNL     1      11.448  -2.898  -1.964  1.00  0.00     0.041 A 
ATOM     75  F   UNL     1       9.930  -4.078  -0.623  1.00  0.00    -0.206 F 
ATOM     76  C   UNL     1      12.326  -2.855  -3.042  1.00  0.00     0.022 A 
BRANCH  73  77
ATOM     77  S   UNL     1      13.685  -3.992  -5.195  1.00  0.00     0.124 S 
ATOM     78  O   UNL     1      14.577  -5.075  -4.797  1.00  0.00    -0.237 OA
ATOM     79  O   UNL     1      12.838  -4.251  -6.355  1.00  0.00    -0.237 OA
ATOM     80  O   UNL     1      14.263  -2.651  -5.136  1.00  0.00    -0.744 OA
ENDBRANCH  73  77
ENDBRANCH  46  70
BRANCH  58  81
ATOM     81  C   UNL     1      12.873 -11.547  -0.334  1.00  0.00     0.023 A 
ATOM     82  C   UNL     1      13.749 -11.098   0.670  1.00  0.00     0.031 A 
ATOM     83  C   UNL     1      13.305 -12.592  -1.171  1.00  0.00     0.131 A 
ATOM     84  C   UNL     1      15.032 -11.656   0.779  1.00  0.00     0.055 A 
ATOM     85  C   UNL     1      14.561 -13.182  -1.021  1.00  0.00     0.041 A 
ATOM     86  F   UNL     1      12.511 -13.057  -2.148  1.00  0.00    -0.206 F 
ATOM     87  C   UNL     1      15.438 -12.706  -0.051  1.00  0.00     0.022 A 
BRANCH  84  88
ATOM     88  S   UNL     1      16.200 -10.934   1.964  1.00  0.00     0.124 S 
ATOM     89  O   UNL     1      16.279  -9.550   1.506  1.00  0.00    -0.237 OA
ATOM     90  O   UNL     1      15.524 -11.146   3.239  1.00  0.00    -0.237 OA
ATOM     91  O   UNL     1      17.417 -11.721   1.770  1.00  0.00    -0.744 OA
ENDBRANCH  84  88
ENDBRANCH  58  81
ENDBRANCH  32  33
ENDBRANCH  24  27
ENDBRANCH  22  23
ENDBRANCH  21  22
ENDBRANCH   1  21
TORSDOF 17
