REMARK SMILES CS(=O)(=O)c1ccc(C2=NN(c3ccc(C(=O)NCCCNC(=O)c4ccc(-c5c6nc(c(-c7cc(S(=O)(=O)[O-])ccc7F)c7ccc([nH]7)c(-c7cc(S(=O)(=O)[O-])ccc7F)c7nc(c(-c8cc(S(=O)(=O)[O-])ccc8F)c8ccc5[nH]8)C=C7)C=C6)cc4)cc3)[C@H](c3ccccc3)C2)cc1
REMARK SMILES IDX 20 1 19 2 18 3 16 4 17 5 15 7 12 8 13 9 89 10 14 11 88 12
REMARK SMILES IDX 11 13 9 14 10 15 97 16 90 17 8 18 5 19 6 20 99 21 7 22 98 23
REMARK SMILES IDX 2 24 1 25 3 26 4 27 91 28 92 29 96 30 93 31 95 32 94 33
REMARK SMILES IDX 21 34 22 35 23 36 24 38 25 39 26 40 87 41 27 42 86 43 28 44
REMARK SMILES IDX 29 45 30 46 80 47 31 48 85 49 79 50 81 51 32 52 84 53 78 54
REMARK SMILES IDX 77 55 33 57 65 58 45 59 64 60 46 61 49 62 63 63 82 64 47 65
REMARK SMILES IDX 48 66 62 68 83 69 50 70 34 71 35 72 43 73 36 74 42 75 44 76
REMARK SMILES IDX 41 77 37 78 38 79 39 80 40 81 66 82 67 83 75 84 68 85 74 86
REMARK SMILES IDX 76 87 73 88 69 89 70 90 71 91 72 92 51 93 52 94 60 95 53 96
REMARK SMILES IDX 59 97 61 98 58 99 54 100 55 101 56 102 57 103
REMARK H PARENT 18 6 22 37 81 56 49 67
REMARK Flexibility Score: inf
ROOT
ATOM      1  C   UNL     1       5.363   2.262 -14.579  1.00  0.00     0.042 C 
ENDROOT
BRANCH   1   2
ATOM      2  C   UNL     1       4.392   3.428 -14.403  1.00  0.00     0.118 C 
BRANCH   2   3
ATOM      3  N   UNL     1       3.017   3.032 -14.662  1.00  0.00    -0.352 N 
ATOM      4  C   UNL     1       1.963   2.832 -13.805  1.00  0.00     0.251 C 
ATOM      5  O   UNL     1       0.843   2.649 -14.279  1.00  0.00    -0.269 OA
ATOM      6  H   UNL     1       2.806   2.882 -15.612  1.00  0.00     0.163 HD
BRANCH   4   7
ATOM      7  C   UNL     1       2.127   2.894 -12.331  1.00  0.00     0.039 A 
ATOM      8  C   UNL     1       2.358   3.129  -9.536  1.00  0.00     0.060 A 
ATOM      9  C   UNL     1       1.220   3.602 -10.195  1.00  0.00     0.029 A 
ATOM     10  C   UNL     1       3.345   2.482 -10.283  1.00  0.00     0.029 A 
ATOM     11  C   UNL     1       1.100   3.481 -11.583  1.00  0.00     0.016 A 
ATOM     12  C   UNL     1       3.228   2.352 -11.666  1.00  0.00     0.016 A 
BRANCH   8  13
ATOM     13  N   UNL     1       2.518   3.280  -8.173  1.00  0.00    -0.257 N 
ATOM     14  C   UNL     1       2.103   2.806  -6.153  1.00  0.00     0.071 C 
ATOM     15  N   UNL     1       2.125   2.292  -7.342  1.00  0.00    -0.176 NA
ATOM     16  C   UNL     1       2.440   4.273  -6.075  1.00  0.00     0.091 C 
ATOM     17  C   UNL     1       2.946   4.510  -7.511  1.00  0.00     0.144 C 
BRANCH  14  18
ATOM     18  C   UNL     1       1.719   2.008  -4.976  1.00  0.00    -0.002 A 
ATOM     19  C   UNL     1       0.859   0.372  -2.897  1.00  0.00     0.067 A 
ATOM     20  C   UNL     1       1.626  -0.176  -3.927  1.00  0.00     0.021 A 
ATOM     21  C   UNL     1       0.520   1.732  -2.899  1.00  0.00     0.021 A 
ATOM     22  C   UNL     1       2.048   0.645  -4.971  1.00  0.00     0.011 A 
ATOM     23  C   UNL     1       0.964   2.557  -3.936  1.00  0.00     0.011 A 
BRANCH  19  24
ATOM     24  S   UNL     1       0.246  -0.679  -1.602  1.00  0.00     0.175 S 
ATOM     25  C   UNL     1       1.033  -0.056  -0.142  1.00  0.00     0.163 C 
ATOM     26  O   UNL     1       0.749  -2.016  -1.831  1.00  0.00    -0.224 OA
ATOM     27  O   UNL     1      -1.180  -0.421  -1.491  1.00  0.00    -0.224 OA
ENDBRANCH  19  24
ENDBRANCH  14  18
BRANCH  17  28
ATOM     28  C   UNL     1       4.444   4.724  -7.711  1.00  0.00    -0.023 A 
ATOM     29  C   UNL     1       5.421   4.332  -6.784  1.00  0.00     0.006 A 
ATOM     30  C   UNL     1       4.883   5.282  -8.929  1.00  0.00     0.006 A 
ATOM     31  C   UNL     1       6.783   4.509  -7.058  1.00  0.00     0.000 A 
ATOM     32  C   UNL     1       6.242   5.434  -9.213  1.00  0.00     0.000 A 
ATOM     33  C   UNL     1       7.193   5.053  -8.273  1.00  0.00     0.000 A 
ENDBRANCH  17  28
ENDBRANCH   8  13
ENDBRANCH   4   7
ENDBRANCH   2   3
ENDBRANCH   1   2
BRANCH   1  34
ATOM     34  C   UNL     1       5.577   1.853 -16.033  1.00  0.00     0.118 C 
BRANCH  34  35
ATOM     35  N   UNL     1       6.330   2.851 -16.778  1.00  0.00    -0.352 N 
ATOM     36  C   UNL     1       7.522   2.738 -17.450  1.00  0.00     0.251 C 
ATOM     37  H   UNL     1       5.920   3.746 -16.804  1.00  0.00     0.163 HD
ATOM     38  O   UNL     1       8.093   3.762 -17.820  1.00  0.00    -0.269 OA
BRANCH  36  39
ATOM     39  C   UNL     1       8.129   1.412 -17.712  1.00  0.00     0.039 A 
ATOM     40  C   UNL     1       9.517   1.276 -17.601  1.00  0.00     0.014 A 
ATOM     41  C   UNL     1       7.355   0.318 -18.108  1.00  0.00     0.014 A 
ATOM     42  C   UNL     1      10.118   0.035 -17.829  1.00  0.00     0.010 A 
ATOM     43  C   UNL     1       7.947  -0.935 -18.270  1.00  0.00     0.010 A 
ATOM     44  C   UNL     1       9.335  -1.090 -18.133  1.00  0.00    -0.014 A 
BRANCH  44  45
ATOM     45  C   UNL     1       9.950  -2.433 -18.306  1.00  0.00     0.031 A 
ATOM     46  C   UNL     1       9.898  -3.127 -19.640  1.00  0.00     0.074 A 
ATOM     47  C   UNL     1      10.501  -3.052 -17.243  1.00  0.00     0.049 A 
ATOM     48  N   UNL     1      10.305  -4.327 -19.966  1.00  0.00    -0.248 NA
ATOM     49  C   UNL     1       9.282  -2.380 -20.746  1.00  0.00     0.031 C 
ATOM     50  C   UNL     1      10.580  -2.495 -15.890  1.00  0.00     0.029 A 
ATOM     51  N   UNL     1      11.088  -4.287 -17.127  1.00  0.00    -0.354 N 
ATOM     52  C   UNL     1       9.984  -4.487 -21.310  1.00  0.00     0.074 A 
ATOM     53  C   UNL     1       9.300  -3.278 -21.720  1.00  0.00     0.031 C 
ATOM     54  C   UNL     1      11.195  -3.378 -15.087  1.00  0.00     0.029 A 
ATOM     55  C   UNL     1      11.513  -4.579 -15.851  1.00  0.00     0.049 A 
ATOM     56  H   UNL     1      11.196  -4.905 -17.885  1.00  0.00     0.167 HD
ATOM     57  C   UNL     1      10.252  -5.535 -22.129  1.00  0.00     0.034 A 
ATOM     58  C   UNL     1      12.081  -5.694 -15.349  1.00  0.00     0.034 A 
ATOM     59  C   UNL     1      10.943  -6.729 -21.706  1.00  0.00     0.049 A 
ATOM     60  C   UNL     1      12.347  -6.855 -16.272  1.00  0.00     0.074 A 
ATOM     61  C   UNL     1      11.315  -7.827 -22.464  1.00  0.00     0.029 A 
ATOM     62  N   UNL     1      11.360  -6.990 -20.406  1.00  0.00    -0.354 N 
ATOM     63  N   UNL     1      12.079  -6.971 -17.552  1.00  0.00    -0.248 NA
ATOM     64  C   UNL     1      13.001  -8.031 -15.684  1.00  0.00     0.031 C 
ATOM     65  C   UNL     1      11.895  -8.774 -21.613  1.00  0.00     0.029 A 
ATOM     66  C   UNL     1      11.956  -8.241 -20.336  1.00  0.00     0.049 A 
ATOM     67  H   UNL     1      11.249  -6.375 -19.645  1.00  0.00     0.167 HD
ATOM     68  C   UNL     1      12.559  -8.223 -17.928  1.00  0.00     0.074 A 
ATOM     69  C   UNL     1      13.144  -8.815 -16.742  1.00  0.00     0.031 C 
ATOM     70  C   UNL     1      12.522  -8.826 -19.143  1.00  0.00     0.034 A 
BRANCH  57  71
ATOM     71  C   UNL     1       9.768  -5.442 -23.558  1.00  0.00     0.023 A 
ATOM     72  C   UNL     1      10.245  -4.453 -24.437  1.00  0.00     0.031 A 
ATOM     73  C   UNL     1       8.798  -6.337 -24.042  1.00  0.00     0.131 A 
ATOM     74  C   UNL     1       9.698  -4.336 -25.724  1.00  0.00     0.055 A 
ATOM     75  C   UNL     1       8.317  -6.266 -25.351  1.00  0.00     0.041 A 
ATOM     76  F   UNL     1       8.290  -7.291 -23.246  1.00  0.00    -0.206 F 
ATOM     77  C   UNL     1       8.755  -5.251 -26.196  1.00  0.00     0.022 A 
BRANCH  74  78
ATOM     78  S   UNL     1      10.134  -2.884 -26.721  1.00  0.00     0.124 S 
ATOM     79  O   UNL     1       9.689  -1.791 -25.859  1.00  0.00    -0.237 OA
ATOM     80  O   UNL     1      11.576  -3.029 -26.876  1.00  0.00    -0.237 OA
ATOM     81  O   UNL     1       9.353  -3.061 -27.944  1.00  0.00    -0.744 OA
ENDBRANCH  74  78
ENDBRANCH  57  71
BRANCH  58  82
ATOM     82  C   UNL     1      12.424  -5.778 -13.901  1.00  0.00     0.023 A 
ATOM     83  C   UNL     1      13.759  -5.878 -13.479  1.00  0.00     0.031 A 
ATOM     84  C   UNL     1      11.418  -5.795 -12.919  1.00  0.00     0.131 A 
ATOM     85  C   UNL     1      14.051  -6.034 -12.115  1.00  0.00     0.055 A 
ATOM     86  C   UNL     1      11.716  -5.900 -11.559  1.00  0.00     0.041 A 
ATOM     87  F   UNL     1      10.125  -5.696 -13.269  1.00  0.00    -0.206 F 
ATOM     88  C   UNL     1      13.039  -6.034 -11.152  1.00  0.00     0.022 A 
BRANCH  85  89
ATOM     89  S   UNL     1      15.774  -6.316 -11.623  1.00  0.00     0.124 S 
ATOM     90  O   UNL     1      16.105  -7.521 -12.374  1.00  0.00    -0.237 OA
ATOM     91  O   UNL     1      16.420  -5.085 -12.065  1.00  0.00    -0.237 OA
ATOM     92  O   UNL     1      15.690  -6.487 -10.174  1.00  0.00    -0.744 OA
ENDBRANCH  85  89
ENDBRANCH  58  82
BRANCH  70  93
ATOM     93  C   UNL     1      13.175 -10.182 -19.251  1.00  0.00     0.023 A 
ATOM     94  C   UNL     1      12.652 -11.311 -18.596  1.00  0.00     0.031 A 
ATOM     95  C   UNL     1      14.350 -10.342 -20.008  1.00  0.00     0.131 A 
ATOM     96  C   UNL     1      13.333 -12.536 -18.663  1.00  0.00     0.055 A 
ATOM     97  C   UNL     1      14.991 -11.576 -20.119  1.00  0.00     0.041 A 
ATOM     98  F   UNL     1      14.896  -9.297 -20.651  1.00  0.00    -0.206 F 
ATOM     99  C   UNL     1      14.490 -12.679 -19.433  1.00  0.00     0.022 A 
BRANCH  96 100
ATOM    100  S   UNL     1      12.737 -13.921 -17.655  1.00  0.00     0.124 S 
ATOM    101  O   UNL     1      12.809 -13.367 -16.306  1.00  0.00    -0.237 OA
ATOM    102  O   UNL     1      11.395 -14.138 -18.184  1.00  0.00    -0.237 OA
ATOM    103  O   UNL     1      13.694 -14.989 -17.938  1.00  0.00    -0.744 OA
ENDBRANCH  96 100
ENDBRANCH  70  93
ENDBRANCH  44  45
ENDBRANCH  36  39
ENDBRANCH  34  35
ENDBRANCH   1  34
TORSDOF 17
