REMARK SMILES CS(=O)(=O)c1ccc(-n2nc(C(F)(F)F)cc2-c2ccc(CC(=O)NCCCNC(=O)c3ccc(-c4c5nc(c(-c6cc(S(=O)(=O)[O-])ccc6F)c6ccc([nH]6)c(-c6cc(S(=O)(=O)[O-])ccc6F)c6nc(c(-c7cc(S(=O)(=O)[O-])ccc7F)c7ccc4[nH]7)C=C6)C=C5)cc3)cc2)cc1
REMARK SMILES IDX 26 1 25 2 23 3 24 4 22 6 21 7 18 8 19 9 96 10 20 11 95 12
REMARK SMILES IDX 17 13 9 14 10 15 11 16 16 17 8 18 5 19 6 20 98 21 7 22 97 23
REMARK SMILES IDX 2 24 1 25 3 26 4 27 12 28 13 29 14 30 15 31 27 32 28 33
REMARK SMILES IDX 29 34 30 35 31 37 32 38 33 39 94 40 34 41 93 42 35 43 36 44
REMARK SMILES IDX 37 45 87 46 38 47 92 48 86 49 88 50 39 51 91 52 85 53 84 54
REMARK SMILES IDX 40 56 72 57 52 58 71 59 53 60 56 61 70 62 89 63 54 64 55 65
REMARK SMILES IDX 69 67 90 68 57 69 41 70 42 71 50 72 43 73 49 74 51 75 48 76
REMARK SMILES IDX 44 77 45 78 46 79 47 80 73 81 74 82 82 83 75 84 81 85 83 86
REMARK SMILES IDX 80 87 76 88 77 89 78 90 79 91 58 92 59 93 67 94 60 95 66 96
REMARK SMILES IDX 68 97 65 98 61 99 62 100 63 101 64 102
REMARK H PARENT 25 5 29 36 88 55 56 66
REMARK Flexibility Score: inf
ROOT
ATOM      1  C   UNL     1       5.082  -3.249   3.257  1.00  0.00     0.117 C 
ENDROOT
BRANCH   1   2
ATOM      2  N   UNL     1       5.819  -2.429   2.308  1.00  0.00    -0.356 N 
ATOM      3  C   UNL     1       6.802  -1.509   2.545  1.00  0.00     0.224 C 
ATOM      4  O   UNL     1       7.301  -0.914   1.589  1.00  0.00    -0.275 OA
ATOM      5  H   UNL     1       5.576  -2.554   1.363  1.00  0.00     0.163 HD
BRANCH   3   6
ATOM      6  C   UNL     1       7.288  -1.262   3.962  1.00  0.00     0.135 C 
BRANCH   6   7
ATOM      7  C   UNL     1       6.292  -0.530   4.830  1.00  0.00    -0.039 A 
ATOM      8  C   UNL     1       4.372   0.800   6.412  1.00  0.00     0.000 A 
ATOM      9  C   UNL     1       4.921   1.417   5.276  1.00  0.00     0.010 A 
ATOM     10  C   UNL     1       4.825  -0.471   6.771  1.00  0.00     0.010 A 
ATOM     11  C   UNL     1       5.861   0.754   4.484  1.00  0.00     0.005 A 
ATOM     12  C   UNL     1       5.785  -1.125   5.994  1.00  0.00     0.005 A 
BRANCH   8  13
ATOM     13  C   UNL     1       3.353   1.478   7.222  1.00  0.00     0.075 A 
ATOM     14  N   UNL     1       2.234   2.135   6.725  1.00  0.00    -0.233 N 
ATOM     15  N   UNL     1       1.628   2.900   7.662  1.00  0.00    -0.163 NA
ATOM     16  C   UNL     1       2.248   2.598   8.815  1.00  0.00     0.167 A 
ATOM     17  C   UNL     1       3.340   1.724   8.582  1.00  0.00     0.064 A 
BRANCH  14  18
ATOM     18  C   UNL     1       1.766   2.147   5.394  1.00  0.00     0.065 A 
ATOM     19  C   UNL     1       1.226   2.267   2.693  1.00  0.00     0.067 A 
ATOM     20  C   UNL     1       1.422   1.019   3.289  1.00  0.00     0.022 A 
ATOM     21  C   UNL     1       1.220   3.442   3.450  1.00  0.00     0.022 A 
ATOM     22  C   UNL     1       1.717   0.961   4.648  1.00  0.00     0.030 A 
ATOM     23  C   UNL     1       1.459   3.382   4.816  1.00  0.00     0.030 A 
BRANCH  19  24
ATOM     24  S   UNL     1       0.917   2.429   0.955  1.00  0.00     0.175 S 
ATOM     25  C   UNL     1       1.733   1.067   0.164  1.00  0.00     0.163 C 
ATOM     26  O   UNL     1       1.595   3.647   0.535  1.00  0.00    -0.224 OA
ATOM     27  O   UNL     1      -0.511   2.275   0.850  1.00  0.00    -0.224 OA
ENDBRANCH  19  24
ENDBRANCH  14  18
BRANCH  16  28
ATOM     28  C   UNL     1       1.818   3.176  10.133  1.00  0.00     0.435 C 
ATOM     29  F   UNL     1       1.657   4.525  10.096  1.00  0.00    -0.164 F 
ATOM     30  F   UNL     1       0.643   2.645  10.568  1.00  0.00    -0.164 F 
ATOM     31  F   UNL     1       2.732   2.927  11.113  1.00  0.00    -0.164 F 
ENDBRANCH  16  28
ENDBRANCH   8  13
ENDBRANCH   6   7
ENDBRANCH   3   6
ENDBRANCH   1   2
BRANCH   1  32
ATOM     32  C   UNL     1       3.679  -2.706   3.553  1.00  0.00     0.042 C 
BRANCH  32  33
ATOM     33  C   UNL     1       2.691  -3.035   2.445  1.00  0.00     0.118 C 
BRANCH  33  34
ATOM     34  N   UNL     1       2.315  -4.459   2.387  1.00  0.00    -0.352 N 
ATOM     35  C   UNL     1       1.365  -5.074   1.573  1.00  0.00     0.251 C 
ATOM     36  H   UNL     1       2.799  -5.054   3.005  1.00  0.00     0.163 HD
ATOM     37  O   UNL     1       0.927  -6.184   1.852  1.00  0.00    -0.269 OA
BRANCH  35  38
ATOM     38  C   UNL     1       0.912  -4.350   0.368  1.00  0.00     0.039 A 
ATOM     39  C   UNL     1      -0.408  -4.299  -0.091  1.00  0.00     0.014 A 
ATOM     40  C   UNL     1       1.887  -3.595  -0.248  1.00  0.00     0.014 A 
ATOM     41  C   UNL     1      -0.722  -3.401  -1.123  1.00  0.00     0.010 A 
ATOM     42  C   UNL     1       1.502  -2.499  -0.953  1.00  0.00     0.010 A 
ATOM     43  C   UNL     1       0.248  -2.475  -1.538  1.00  0.00    -0.014 A 
BRANCH  43  44
ATOM     44  C   UNL     1       0.034  -1.390  -2.503  1.00  0.00     0.031 A 
ATOM     45  C   UNL     1      -1.142  -0.508  -2.237  1.00  0.00     0.074 A 
ATOM     46  C   UNL     1       1.014  -1.034  -3.384  1.00  0.00     0.049 A 
ATOM     47  N   UNL     1      -2.027  -0.095  -3.077  1.00  0.00    -0.248 NA
ATOM     48  C   UNL     1      -1.399  -0.046  -0.864  1.00  0.00     0.031 C 
ATOM     49  C   UNL     1       2.342  -1.652  -3.585  1.00  0.00     0.029 A 
ATOM     50  N   UNL     1       1.099   0.052  -4.205  1.00  0.00    -0.354 N 
ATOM     51  C   UNL     1      -2.830   0.827  -2.406  1.00  0.00     0.074 A 
ATOM     52  C   UNL     1      -2.428   0.788  -1.030  1.00  0.00     0.031 C 
ATOM     53  C   UNL     1       3.159  -0.814  -4.261  1.00  0.00     0.029 A 
ATOM     54  C   UNL     1       2.374   0.311  -4.729  1.00  0.00     0.049 A 
ATOM     55  H   UNL     1       0.320   0.615  -4.415  1.00  0.00     0.167 HD
ATOM     56  C   UNL     1      -3.671   1.651  -3.088  1.00  0.00     0.034 A 
ATOM     57  C   UNL     1       2.770   1.343  -5.528  1.00  0.00     0.034 A 
ATOM     58  C   UNL     1      -3.976   1.105  -4.385  1.00  0.00     0.049 A 
ATOM     59  C   UNL     1       1.536   1.854  -6.167  1.00  0.00     0.074 A 
ATOM     60  C   UNL     1      -4.548  -0.086  -4.789  1.00  0.00     0.029 A 
ATOM     61  N   UNL     1      -3.276   1.570  -5.474  1.00  0.00    -0.354 N 
ATOM     62  N   UNL     1       0.816   1.137  -6.986  1.00  0.00    -0.248 NA
ATOM     63  C   UNL     1       0.830   2.934  -5.496  1.00  0.00     0.031 C 
ATOM     64  C   UNL     1      -3.699  -0.538  -5.840  1.00  0.00     0.029 A 
ATOM     65  C   UNL     1      -2.755   0.461  -6.102  1.00  0.00     0.049 A 
ATOM     66  H   UNL     1      -3.170   2.509  -5.750  1.00  0.00     0.167 HD
ATOM     67  C   UNL     1      -0.495   1.372  -6.603  1.00  0.00     0.074 A 
ATOM     68  C   UNL     1      -0.429   2.553  -5.737  1.00  0.00     0.031 C 
ATOM     69  C   UNL     1      -1.473   0.434  -6.781  1.00  0.00     0.034 A 
BRANCH  56  70
ATOM     70  C   UNL     1      -3.989   3.075  -2.726  1.00  0.00     0.023 A 
ATOM     71  C   UNL     1      -4.949   3.748  -3.505  1.00  0.00     0.031 A 
ATOM     72  C   UNL     1      -3.171   3.882  -1.908  1.00  0.00     0.131 A 
ATOM     73  C   UNL     1      -4.994   5.152  -3.537  1.00  0.00     0.055 A 
ATOM     74  C   UNL     1      -3.264   5.278  -1.891  1.00  0.00     0.041 A 
ATOM     75  F   UNL     1      -2.176   3.367  -1.179  1.00  0.00    -0.206 F 
ATOM     76  C   UNL     1      -4.156   5.923  -2.735  1.00  0.00     0.022 A 
BRANCH  73  77
ATOM     77  S   UNL     1      -6.027   5.943  -4.799  1.00  0.00     0.124 S 
ATOM     78  O   UNL     1      -5.562   5.290  -6.018  1.00  0.00    -0.237 OA
ATOM     79  O   UNL     1      -7.371   5.589  -4.354  1.00  0.00    -0.237 OA
ATOM     80  O   UNL     1      -5.684   7.358  -4.682  1.00  0.00    -0.744 OA
ENDBRANCH  73  77
ENDBRANCH  56  70
BRANCH  57  81
ATOM     81  C   UNL     1       4.066   2.091  -5.525  1.00  0.00     0.023 A 
ATOM     82  C   UNL     1       4.557   2.842  -6.623  1.00  0.00     0.031 A 
ATOM     83  C   UNL     1       4.728   2.282  -4.291  1.00  0.00     0.131 A 
ATOM     84  C   UNL     1       5.652   3.732  -6.455  1.00  0.00     0.055 A 
ATOM     85  C   UNL     1       5.799   3.167  -4.130  1.00  0.00     0.041 A 
ATOM     86  F   UNL     1       4.295   1.671  -3.176  1.00  0.00    -0.206 F 
ATOM     87  C   UNL     1       6.260   3.904  -5.209  1.00  0.00     0.022 A 
BRANCH  84  88
ATOM     88  S   UNL     1       6.273   4.748  -7.845  1.00  0.00     0.124 S 
ATOM     89  O   UNL     1       6.788   3.741  -8.764  1.00  0.00    -0.237 OA
ATOM     90  O   UNL     1       5.077   5.466  -8.271  1.00  0.00    -0.237 OA
ATOM     91  O   UNL     1       7.300   5.589  -7.225  1.00  0.00    -0.744 OA
ENDBRANCH  84  88
ENDBRANCH  57  81
BRANCH  69  92
ATOM     92  C   UNL     1      -1.153  -0.824  -7.577  1.00  0.00     0.023 A 
ATOM     93  C   UNL     1      -0.112  -1.738  -7.283  1.00  0.00     0.031 A 
ATOM     94  C   UNL     1      -2.058  -1.183  -8.591  1.00  0.00     0.131 A 
ATOM     95  C   UNL     1      -0.011  -2.952  -7.997  1.00  0.00     0.055 A 
ATOM     96  C   UNL     1      -1.974  -2.396  -9.273  1.00  0.00     0.041 A 
ATOM     97  F   UNL     1      -3.084  -0.374  -8.906  1.00  0.00    -0.206 F 
ATOM     98  C   UNL     1      -0.946  -3.283  -8.983  1.00  0.00     0.022 A 
BRANCH  95  99
ATOM     99  S   UNL     1       1.353  -4.123  -7.678  1.00  0.00     0.124 S 
ATOM    100  O   UNL     1       2.540  -3.276  -7.673  1.00  0.00    -0.237 OA
ATOM    101  O   UNL     1       0.981  -4.707  -6.392  1.00  0.00    -0.237 OA
ATOM    102  O   UNL     1       1.275  -5.051  -8.809  1.00  0.00    -0.744 OA
ENDBRANCH  95  99
ENDBRANCH  69  92
ENDBRANCH  43  44
ENDBRANCH  35  38
ENDBRANCH  33  34
ENDBRANCH  32  33
ENDBRANCH   1  32
TORSDOF 18
