REMARK SMILES CC1(C)CCCC[C@@]1(C(=O)NCCCNC(=O)c1ccc(-c2c3nc(c(-c4cc(S(=O)(=O)[O-])ccc4F)c4ccc([nH]4)c(-c4cc(S(=O)(=O)[O-])ccc4F)c4nc(c(-c5cc(S(=O)(=O)[O-])ccc5F)c5ccc2[nH]5)C=C4)C=C3)cc1)[NH+]1CC[NH2+]CC1
REMARK SMILES IDX 14 1 13 2 12 3 11 4 9 5 10 6 8 8 1 9 2 10 3 11 4 12 5 13
REMARK SMILES IDX 7 14 6 15 81 16 82 17 86 18 83 20 85 21 84 22 15 25 16 26
REMARK SMILES IDX 17 28 18 29 19 30 80 31 20 32 79 33 21 34 22 35 23 36 73 37
REMARK SMILES IDX 24 38 78 39 72 40 74 41 25 42 77 43 71 44 70 45 26 47 58 48
REMARK SMILES IDX 38 49 57 50 39 51 42 52 56 53 75 54 40 55 41 56 55 58 76 59
REMARK SMILES IDX 43 60 27 61 28 62 36 63 29 64 35 65 37 66 34 67 30 68 31 69
REMARK SMILES IDX 32 70 33 71 59 72 60 73 68 74 61 75 67 76 69 77 66 78 62 79
REMARK SMILES IDX 63 80 64 81 65 82 44 83 45 84 53 85 46 86 52 87 54 88 51 89
REMARK SMILES IDX 47 90 48 91 49 92 50 93
REMARK H PARENT 11 7 81 19 84 23 84 24 15 27 74 46 42 57
REMARK Flexibility Score: inf
ROOT
ATOM      1  C   UNL     1      -0.366  -7.584  -0.156  1.00  0.00     0.118 C 
ENDROOT
BRANCH   1   2
ATOM      2  C   UNL     1      -0.035  -6.412  -1.067  1.00  0.00     0.042 C 
BRANCH   2   3
ATOM      3  C   UNL     1      -0.859  -5.165  -0.780  1.00  0.00     0.118 C 
BRANCH   3   4
ATOM      4  N   UNL     1      -0.566  -4.581   0.520  1.00  0.00    -0.351 N 
ATOM      5  C   UNL     1       0.024  -3.461   1.014  1.00  0.00     0.281 C 
ATOM      6  O   UNL     1       0.072  -3.487   2.253  1.00  0.00    -0.268 OA
ATOM      7  H   UNL     1      -0.885  -5.162   1.248  1.00  0.00     0.163 HD
BRANCH   5   8
ATOM      8  C   UNL     1       0.707  -2.260   0.169  1.00  0.00     0.182 C 
ATOM      9  C   UNL     1       0.927   0.435   0.333  1.00  0.00     0.018 C 
ATOM     10  C   UNL     1       0.391  -0.874   0.989  1.00  0.00     0.029 C 
ATOM     11  C   UNL     1       0.980  -0.842   2.423  1.00  0.00     0.018 C 
ATOM     12  C   UNL     1      -1.159  -0.709   1.082  1.00  0.00     0.013 C 
ATOM     13  C   UNL     1      -1.836  -0.660  -0.288  1.00  0.00     0.001 C 
ATOM     14  C   UNL     1       0.054  -2.085  -1.231  1.00  0.00     0.080 C 
ATOM     15  C   UNL     1      -1.459  -1.842  -1.172  1.00  0.00     0.007 C 
BRANCH   8  16
ATOM     16  N   UNL     1       2.197  -2.567   0.089  1.00  0.00    -0.313 N 
ATOM     17  C   UNL     1       3.000  -1.722  -0.817  1.00  0.00     0.325 C 
ATOM     18  C   UNL     1       2.499  -3.988  -0.221  1.00  0.00     0.325 C 
ATOM     19  H   UNL     1       2.484  -2.342   1.042  1.00  0.00     0.349 HD
ATOM     20  C   UNL     1       4.505  -2.085  -0.831  1.00  0.00     0.322 C 
ATOM     21  C   UNL     1       4.004  -4.341  -0.304  1.00  0.00     0.322 C 
ATOM     22  N   UNL     1       4.748  -3.476  -1.229  1.00  0.00    -0.337 N 
ATOM     23  H   UNL     1       5.745  -3.685  -1.174  1.00  0.00     0.346 HD
ATOM     24  H   UNL     1       4.441  -3.632  -2.189  1.00  0.00     0.346 HD
ENDBRANCH   8  16
ENDBRANCH   5   8
ENDBRANCH   3   4
ENDBRANCH   2   3
ENDBRANCH   1   2
BRANCH   1  25
ATOM     25  N   UNL     1      -1.678  -8.139  -0.449  1.00  0.00    -0.352 N 
ATOM     26  C   UNL     1      -2.019  -9.319  -1.066  1.00  0.00     0.251 C 
ATOM     27  H   UNL     1      -2.439  -7.584  -0.161  1.00  0.00     0.163 HD
ATOM     28  O   UNL     1      -3.166  -9.461  -1.480  1.00  0.00    -0.269 OA
BRANCH  26  29
ATOM     29  C   UNL     1      -1.022 -10.402  -1.238  1.00  0.00     0.039 A 
ATOM     30  C   UNL     1      -1.082 -11.205  -2.381  1.00  0.00     0.014 A 
ATOM     31  C   UNL     1      -0.072 -10.676  -0.251  1.00  0.00     0.014 A 
ATOM     32  C   UNL     1      -0.177 -12.258  -2.543  1.00  0.00     0.010 A 
ATOM     33  C   UNL     1       0.893 -11.657  -0.460  1.00  0.00     0.010 A 
ATOM     34  C   UNL     1       0.827 -12.486  -1.589  1.00  0.00    -0.014 A 
BRANCH  34  35
ATOM     35  C   UNL     1       1.755 -13.642  -1.696  1.00  0.00     0.031 A 
ATOM     36  C   UNL     1       1.731 -14.710  -0.630  1.00  0.00     0.074 A 
ATOM     37  C   UNL     1       2.644 -13.709  -2.705  1.00  0.00     0.049 A 
ATOM     38  N   UNL     1       2.513 -15.747  -0.474  1.00  0.00    -0.248 NA
ATOM     39  C   UNL     1       0.717 -14.563   0.425  1.00  0.00     0.031 C 
ATOM     40  C   UNL     1       2.791 -12.716  -3.771  1.00  0.00     0.029 A 
ATOM     41  N   UNL     1       3.597 -14.651  -2.997  1.00  0.00    -0.354 N 
ATOM     42  C   UNL     1       2.105 -16.354   0.711  1.00  0.00     0.074 A 
ATOM     43  C   UNL     1       1.056 -15.527   1.265  1.00  0.00     0.031 C 
ATOM     44  C   UNL     1       3.758 -13.115  -4.613  1.00  0.00     0.029 A 
ATOM     45  C   UNL     1       4.326 -14.370  -4.129  1.00  0.00     0.049 A 
ATOM     46  H   UNL     1       3.746 -15.454  -2.447  1.00  0.00     0.167 HD
ATOM     47  C   UNL     1       2.542 -17.510   1.271  1.00  0.00     0.034 A 
ATOM     48  C   UNL     1       5.338 -15.047  -4.707  1.00  0.00     0.034 A 
ATOM     49  C   UNL     1       3.563 -18.341   0.682  1.00  0.00     0.049 A 
ATOM     50  C   UNL     1       5.790 -16.345  -4.085  1.00  0.00     0.074 A 
ATOM     51  C   UNL     1       4.053 -19.556   1.127  1.00  0.00     0.029 A 
ATOM     52  N   UNL     1       4.247 -18.044  -0.491  1.00  0.00    -0.354 N 
ATOM     53  N   UNL     1       5.368 -16.926  -2.986  1.00  0.00    -0.248 NA
ATOM     54  C   UNL     1       6.839 -17.087  -4.795  1.00  0.00     0.031 C 
ATOM     55  C   UNL     1       5.066 -19.968   0.255  1.00  0.00     0.029 A 
ATOM     56  C   UNL     1       5.162 -19.045  -0.775  1.00  0.00     0.049 A 
ATOM     57  H   UNL     1       4.103 -17.239  -1.039  1.00  0.00     0.167 HD
ATOM     58  C   UNL     1       6.075 -18.122  -2.894  1.00  0.00     0.074 A 
ATOM     59  C   UNL     1       6.941 -18.181  -4.054  1.00  0.00     0.031 C 
ATOM     60  C   UNL     1       6.013 -19.087  -1.941  1.00  0.00     0.034 A 
BRANCH  47  61
ATOM     61  C   UNL     1       1.927 -17.919   2.589  1.00  0.00     0.023 A 
ATOM     62  C   UNL     1       0.551 -18.186   2.712  1.00  0.00     0.031 A 
ATOM     63  C   UNL     1       2.714 -17.996   3.752  1.00  0.00     0.131 A 
ATOM     64  C   UNL     1      -0.009 -18.422   3.977  1.00  0.00     0.055 A 
ATOM     65  C   UNL     1       2.165 -18.323   4.994  1.00  0.00     0.041 A 
ATOM     66  F   UNL     1       4.030 -17.735   3.705  1.00  0.00    -0.206 F 
ATOM     67  C   UNL     1       0.793 -18.519   5.115  1.00  0.00     0.022 A 
BRANCH  64  68
ATOM     68  S   UNL     1      -1.816 -18.438   4.132  1.00  0.00     0.124 S 
ATOM     69  O   UNL     1      -2.163 -17.098   3.664  1.00  0.00    -0.237 OA
ATOM     70  O   UNL     1      -2.199 -19.540   3.257  1.00  0.00    -0.237 OA
ATOM     71  O   UNL     1      -2.036 -18.668   5.559  1.00  0.00    -0.744 OA
ENDBRANCH  64  68
ENDBRANCH  47  61
BRANCH  48  72
ATOM     72  C   UNL     1       5.986 -14.526  -5.944  1.00  0.00     0.023 A 
ATOM     73  C   UNL     1       5.878 -15.218  -7.161  1.00  0.00     0.031 A 
ATOM     74  C   UNL     1       6.751 -13.348  -5.921  1.00  0.00     0.131 A 
ATOM     75  C   UNL     1       6.565 -14.753  -8.294  1.00  0.00     0.055 A 
ATOM     76  C   UNL     1       7.392 -12.862  -7.062  1.00  0.00     0.041 A 
ATOM     77  F   UNL     1       6.877 -12.642  -4.785  1.00  0.00    -0.206 F 
ATOM     78  C   UNL     1       7.312 -13.574  -8.255  1.00  0.00     0.022 A 
BRANCH  75  79
ATOM     79  S   UNL     1       6.531 -15.759  -9.803  1.00  0.00     0.124 S 
ATOM     80  O   UNL     1       7.075 -17.026  -9.329  1.00  0.00    -0.237 OA
ATOM     81  O   UNL     1       5.110 -15.755 -10.136  1.00  0.00    -0.237 OA
ATOM     82  O   UNL     1       7.387 -15.017 -10.726  1.00  0.00    -0.744 OA
ENDBRANCH  75  79
ENDBRANCH  48  72
BRANCH  60  83
ATOM     83  C   UNL     1       6.861 -20.316  -2.156  1.00  0.00     0.023 A 
ATOM     84  C   UNL     1       8.264 -20.267  -2.109  1.00  0.00     0.031 A 
ATOM     85  C   UNL     1       6.248 -21.553  -2.424  1.00  0.00     0.131 A 
ATOM     86  C   UNL     1       9.011 -21.422  -2.386  1.00  0.00     0.055 A 
ATOM     87  C   UNL     1       6.995 -22.711  -2.640  1.00  0.00     0.041 A 
ATOM     88  F   UNL     1       4.910 -21.655  -2.480  1.00  0.00    -0.206 F 
ATOM     89  C   UNL     1       8.386 -22.646  -2.636  1.00  0.00     0.022 A 
BRANCH  86  90
ATOM     90  S   UNL     1      10.815 -21.282  -2.512  1.00  0.00     0.124 S 
ATOM     91  O   UNL     1      10.971 -20.271  -3.552  1.00  0.00    -0.237 OA
ATOM     92  O   UNL     1      11.190 -20.871  -1.163  1.00  0.00    -0.237 OA
ATOM     93  O   UNL     1      11.239 -22.630  -2.889  1.00  0.00    -0.744 OA
ENDBRANCH  86  90
ENDBRANCH  60  83
ENDBRANCH  34  35
ENDBRANCH  26  29
ENDBRANCH   1  25
TORSDOF 14
