REMARK SMILES O=C(NCCCNC(=O)[C@@H]([NH2+]CC1CC1)c1cccc(C2CC2)c1)c1ccc(-c2c3nc(c(-c4cc(S(=O)(=O)[O-])ccc4F)c4ccc([nH]4)c(-c4cc(S(=O)(=O)[O-])ccc4F)c4nc(c(-c5cc(S(=O)(=O)[O-])ccc5F)c5ccc2[nH]5)C=C4)C=C3)cc1
REMARK SMILES IDX 5 1 4 2 3 3 1 4 2 5 25 7 26 8 87 9 27 10 86 11 28 12 29 13
REMARK SMILES IDX 30 14 80 15 31 16 85 17 79 18 81 19 32 20 84 21 78 22 77 23
REMARK SMILES IDX 33 25 65 26 45 27 64 28 46 29 49 30 63 31 82 32 47 33 48 34
REMARK SMILES IDX 62 36 83 37 50 38 34 39 35 40 43 41 36 42 42 43 44 44 41 45
REMARK SMILES IDX 37 46 38 47 39 48 40 49 66 50 67 51 75 52 68 53 74 54 76 55
REMARK SMILES IDX 73 56 69 57 70 58 71 59 72 60 51 61 52 62 60 63 53 64 59 65
REMARK SMILES IDX 61 66 58 67 54 68 55 69 56 70 57 71 6 72 7 73 8 74 9 76
REMARK SMILES IDX 10 77 11 78 12 81 13 82 14 83 15 84 16 85 17 86 24 87 18 88
REMARK SMILES IDX 20 89 19 90 21 91 22 92 23 93
REMARK H PARENT 3 6 81 24 49 35 7 75 11 79 11 80
REMARK Flexibility Score: inf
ROOT
ATOM      1  C   UNL     1       4.952  -1.692   1.079  1.00  0.00     0.042 C 
ENDROOT
BRANCH   1   2
ATOM      2  C   UNL     1       4.451  -1.274  -0.291  1.00  0.00     0.118 C 
BRANCH   2   3
ATOM      3  N   UNL     1       3.009  -1.057  -0.327  1.00  0.00    -0.352 N 
ATOM      4  O   UNL     1       1.061   0.052  -0.135  1.00  0.00    -0.269 OA
ATOM      5  C   UNL     1       2.275   0.108  -0.285  1.00  0.00     0.251 C 
ATOM      6  H   UNL     1       2.471  -1.879  -0.391  1.00  0.00     0.163 HD
BRANCH   5   7
ATOM      7  C   UNL     1       2.952   1.420  -0.396  1.00  0.00     0.039 A 
ATOM      8  C   UNL     1       4.006   1.600  -1.288  1.00  0.00     0.014 A 
ATOM      9  C   UNL     1       2.517   2.493   0.388  1.00  0.00     0.014 A 
ATOM     10  C   UNL     1       4.757   2.764  -1.246  1.00  0.00     0.010 A 
ATOM     11  C   UNL     1       3.189   3.720   0.323  1.00  0.00     0.010 A 
ATOM     12  C   UNL     1       4.339   3.855  -0.469  1.00  0.00    -0.014 A 
BRANCH  12  13
ATOM     13  C   UNL     1       5.089   5.134  -0.575  1.00  0.00     0.031 A 
ATOM     14  C   UNL     1       5.763   5.747   0.621  1.00  0.00     0.074 A 
ATOM     15  C   UNL     1       5.197   5.713  -1.789  1.00  0.00     0.049 A 
ATOM     16  N   UNL     1       6.457   6.854   0.697  1.00  0.00    -0.248 NA
ATOM     17  C   UNL     1       5.633   5.034   1.900  1.00  0.00     0.031 C 
ATOM     18  C   UNL     1       4.581   5.203  -3.019  1.00  0.00     0.029 A 
ATOM     19  N   UNL     1       5.878   6.826  -2.203  1.00  0.00    -0.354 N 
ATOM     20  C   UNL     1       6.825   6.987   2.032  1.00  0.00     0.074 A 
ATOM     21  C   UNL     1       6.252   5.858   2.735  1.00  0.00     0.031 C 
ATOM     22  C   UNL     1       4.971   5.957  -4.055  1.00  0.00     0.029 A 
ATOM     23  C   UNL     1       5.779   7.060  -3.555  1.00  0.00     0.049 A 
ATOM     24  H   UNL     1       6.390   7.404  -1.592  1.00  0.00     0.167 HD
ATOM     25  C   UNL     1       7.575   7.959   2.610  1.00  0.00     0.034 A 
ATOM     26  C   UNL     1       6.256   8.067  -4.311  1.00  0.00     0.034 A 
ATOM     27  C   UNL     1       8.145   9.071   1.883  1.00  0.00     0.049 A 
ATOM     28  C   UNL     1       7.051   9.149  -3.638  1.00  0.00     0.074 A 
ATOM     29  C   UNL     1       8.938  10.100   2.362  1.00  0.00     0.029 A 
ATOM     30  N   UNL     1       7.977   9.305   0.522  1.00  0.00    -0.354 N 
ATOM     31  N   UNL     1       7.384   9.261  -2.373  1.00  0.00    -0.248 NA
ATOM     32  C   UNL     1       7.529  10.241  -4.491  1.00  0.00     0.031 C 
ATOM     33  C   UNL     1       9.194  10.987   1.309  1.00  0.00     0.029 A 
ATOM     34  C   UNL     1       8.625  10.476   0.154  1.00  0.00     0.049 A 
ATOM     35  H   UNL     1       7.471   8.724  -0.091  1.00  0.00     0.167 HD
ATOM     36  C   UNL     1       8.123  10.434  -2.280  1.00  0.00     0.074 A 
ATOM     37  C   UNL     1       8.208  10.976  -3.623  1.00  0.00     0.031 C 
ATOM     38  C   UNL     1       8.679  11.013  -1.186  1.00  0.00     0.034 A 
BRANCH  25  39
ATOM     39  C   UNL     1       7.774   7.891   4.107  1.00  0.00     0.023 A 
ATOM     40  C   UNL     1       8.477   6.839   4.719  1.00  0.00     0.031 A 
ATOM     41  C   UNL     1       7.233   8.889   4.938  1.00  0.00     0.131 A 
ATOM     42  C   UNL     1       8.563   6.773   6.120  1.00  0.00     0.055 A 
ATOM     43  C   UNL     1       7.388   8.859   6.326  1.00  0.00     0.041 A 
ATOM     44  F   UNL     1       6.534   9.909   4.415  1.00  0.00    -0.206 F 
ATOM     45  C   UNL     1       8.044   7.789   6.926  1.00  0.00     0.022 A 
BRANCH  42  46
ATOM     46  S   UNL     1       9.244   5.273   6.880  1.00  0.00     0.124 S 
ATOM     47  O   UNL     1       8.358   4.241   6.345  1.00  0.00    -0.237 OA
ATOM     48  O   UNL     1      10.614   5.260   6.380  1.00  0.00    -0.237 OA
ATOM     49  O   UNL     1       9.104   5.520   8.313  1.00  0.00    -0.744 OA
ENDBRANCH  42  46
ENDBRANCH  25  39
BRANCH  26  50
ATOM     50  C   UNL     1       5.949   8.119  -5.768  1.00  0.00     0.023 A 
ATOM     51  C   UNL     1       6.967   8.036  -6.729  1.00  0.00     0.031 A 
ATOM     52  C   UNL     1       4.624   8.266  -6.220  1.00  0.00     0.131 A 
ATOM     53  C   UNL     1       6.648   8.133  -8.093  1.00  0.00     0.055 A 
ATOM     54  C   UNL     1       4.306   8.304  -7.577  1.00  0.00     0.041 A 
ATOM     55  F   UNL     1       3.611   8.346  -5.342  1.00  0.00    -0.206 F 
ATOM     56  C   UNL     1       5.324   8.250  -8.523  1.00  0.00     0.022 A 
BRANCH  53  57
ATOM     57  S   UNL     1       8.000   8.181  -9.299  1.00  0.00     0.124 S 
ATOM     58  O   UNL     1       8.771   9.330  -8.838  1.00  0.00    -0.237 OA
ATOM     59  O   UNL     1       8.621   6.874  -9.110  1.00  0.00    -0.237 OA
ATOM     60  O   UNL     1       7.311   8.363 -10.575  1.00  0.00    -0.744 OA
ENDBRANCH  53  57
ENDBRANCH  26  50
BRANCH  38  61
ATOM     61  C   UNL     1       9.452  12.286  -1.420  1.00  0.00     0.023 A 
ATOM     62  C   UNL     1       8.814  13.471  -1.825  1.00  0.00     0.031 A 
ATOM     63  C   UNL     1      10.850  12.302  -1.270  1.00  0.00     0.131 A 
ATOM     64  C   UNL     1       9.579  14.607  -2.127  1.00  0.00     0.055 A 
ATOM     65  C   UNL     1      11.600  13.453  -1.513  1.00  0.00     0.041 A 
ATOM     66  F   UNL     1      11.509  11.196  -0.890  1.00  0.00    -0.206 F 
ATOM     67  C   UNL     1      10.966  14.610  -1.958  1.00  0.00     0.022 A 
BRANCH  64  68
ATOM     68  S   UNL     1       8.747  16.053  -2.840  1.00  0.00     0.124 S 
ATOM     69  O   UNL     1       8.160  15.496  -4.054  1.00  0.00    -0.237 OA
ATOM     70  O   UNL     1       7.807  16.422  -1.787  1.00  0.00    -0.237 OA
ATOM     71  O   UNL     1       9.837  17.003  -3.057  1.00  0.00    -0.744 OA
ENDBRANCH  64  68
ENDBRANCH  38  61
ENDBRANCH  12  13
ENDBRANCH   5   7
ENDBRANCH   2   3
ENDBRANCH   1   2
BRANCH   1  72
ATOM     72  C   UNL     1       4.465  -3.062   1.509  1.00  0.00     0.118 C 
BRANCH  72  73
ATOM     73  N   UNL     1       4.912  -4.125   0.631  1.00  0.00    -0.351 N 
ATOM     74  C   UNL     1       5.520  -5.304   0.947  1.00  0.00     0.283 C 
ATOM     75  H   UNL     1       4.754  -3.975  -0.329  1.00  0.00     0.163 HD
ATOM     76  O   UNL     1       5.746  -6.086   0.015  1.00  0.00    -0.268 OA
BRANCH  74  77
ATOM     77  C   UNL     1       5.931  -5.666   2.398  1.00  0.00     0.303 C 
BRANCH  77  78
ATOM     78  N   UNL     1       6.858  -4.653   2.941  1.00  0.00    -0.332 N 
ATOM     79  H   UNL     1       6.341  -3.781   3.053  1.00  0.00     0.347 HD
ATOM     80  H   UNL     1       7.628  -4.592   2.274  1.00  0.00     0.347 HD
BRANCH  78  81
ATOM     81  C   UNL     1       7.466  -4.983   4.224  1.00  0.00     0.264 C 
BRANCH  81  82
ATOM     82  C   UNL     1       8.605  -5.959   4.239  1.00  0.00     0.044 C 
ATOM     83  C   UNL     1       8.360  -7.444   4.106  1.00  0.00     0.010 C 
ATOM     84  C   UNL     1       9.146  -6.718   3.049  1.00  0.00     0.010 C 
ENDBRANCH  81  82
ENDBRANCH  78  81
ENDBRANCH  77  78
BRANCH  77  85
ATOM     85  C   UNL     1       4.734  -6.038   3.265  1.00  0.00     0.019 A 
ATOM     86  C   UNL     1       4.082  -5.150   4.130  1.00  0.00     0.010 A 
ATOM     87  C   UNL     1       4.282  -7.370   3.226  1.00  0.00     0.014 A 
ATOM     88  C   UNL     1       3.005  -5.568   4.905  1.00  0.00     0.001 A 
ATOM     89  C   UNL     1       3.262  -7.843   4.066  1.00  0.00    -0.044 A 
ATOM     90  C   UNL     1       2.609  -6.903   4.878  1.00  0.00     0.004 A 
BRANCH  89  91
ATOM     91  C   UNL     1       2.901  -9.306   4.163  1.00  0.00     0.019 C 
ATOM     92  C   UNL     1       3.835 -10.419   3.748  1.00  0.00     0.009 C 
ATOM     93  C   UNL     1       3.646 -10.120   5.203  1.00  0.00     0.009 C 
ENDBRANCH  89  91
ENDBRANCH  77  85
ENDBRANCH  74  77
ENDBRANCH  72  73
ENDBRANCH   1  72
TORSDOF 18
