REMARK SMILES O=C(NCCCNC(=O)c1cc2c(cc1NS(=O)(=O)c1cc(Cl)ccc1Cl)OCCCO2)c1ccc(-c2c3nc(c(-c4cc(S(=O)(=O)[O-])ccc4F)c4ccc([nH]4)c(-c4cc(S(=O)(=O)[O-])ccc4F)c4nc(c(-c5cc(S(=O)(=O)[O-])ccc5F)c5ccc2[nH]5)C=C4)C=C3)cc1
REMARK SMILES IDX 5 1 4 2 3 3 1 4 2 5 33 7 34 8 95 9 35 10 94 11 36 12 37 13
REMARK SMILES IDX 38 14 88 15 39 16 93 17 87 18 89 19 40 20 92 21 86 22 85 23
REMARK SMILES IDX 41 25 73 26 53 27 72 28 54 29 57 30 71 31 90 32 55 33 56 34
REMARK SMILES IDX 70 36 91 37 58 38 42 39 43 40 51 41 44 42 50 43 52 44 49 45
REMARK SMILES IDX 45 46 46 47 47 48 48 49 74 50 75 51 83 52 76 53 82 54 84 55
REMARK SMILES IDX 81 56 77 57 78 58 79 59 80 60 59 61 60 62 68 63 61 64 67 65
REMARK SMILES IDX 69 66 66 67 62 68 63 69 64 70 65 71 6 72 7 73 8 74 9 76
REMARK SMILES IDX 10 77 11 78 15 79 12 80 14 81 13 82 16 83 17 85 18 86 19 87
REMARK SMILES IDX 20 88 21 89 26 90 22 91 25 92 27 93 23 94 24 95 32 96 31 97
REMARK SMILES IDX 28 99 29 100 30 101
REMARK H PARENT 3 6 89 24 57 35 7 75 16 84
REMARK Flexibility Score: 100.00
ROOT
ATOM      1  C   UNL     1       5.016  -2.579  -1.336  1.00  0.00     0.042 C 
ENDROOT
BRANCH   1   2
ATOM      2  C   UNL     1       4.581  -1.272  -0.671  1.00  0.00     0.118 C 
BRANCH   2   3
ATOM      3  N   UNL     1       3.183  -0.909  -0.845  1.00  0.00    -0.352 N 
ATOM      4  O   UNL     1       1.160  -0.155  -0.130  1.00  0.00    -0.269 OA
ATOM      5  C   UNL     1       2.347  -0.367   0.111  1.00  0.00     0.251 C 
ATOM      6  H   UNL     1       2.793  -1.067  -1.735  1.00  0.00     0.163 HD
BRANCH   5   7
ATOM      7  C   UNL     1       2.891  -0.067   1.456  1.00  0.00     0.039 A 
ATOM      8  C   UNL     1       2.283  -0.637   2.576  1.00  0.00     0.014 A 
ATOM      9  C   UNL     1       4.028   0.736   1.605  1.00  0.00     0.014 A 
ATOM     10  C   UNL     1       2.848  -0.447   3.841  1.00  0.00     0.010 A 
ATOM     11  C   UNL     1       4.625   0.870   2.860  1.00  0.00     0.010 A 
ATOM     12  C   UNL     1       4.038   0.286   3.993  1.00  0.00    -0.014 A 
BRANCH  12  13
ATOM     13  C   UNL     1       4.654   0.457   5.338  1.00  0.00     0.031 A 
ATOM     14  C   UNL     1       4.721   1.819   5.975  1.00  0.00     0.074 A 
ATOM     15  C   UNL     1       5.165  -0.609   5.988  1.00  0.00     0.049 A 
ATOM     16  N   UNL     1       5.184   2.157   7.151  1.00  0.00    -0.248 NA
ATOM     17  C   UNL     1       4.221   2.952   5.181  1.00  0.00     0.031 C 
ATOM     18  C   UNL     1       5.207  -1.972   5.459  1.00  0.00     0.029 A 
ATOM     19  N   UNL     1       5.740  -0.718   7.232  1.00  0.00    -0.354 N 
ATOM     20  C   UNL     1       5.029   3.535   7.238  1.00  0.00     0.074 A 
ATOM     21  C   UNL     1       4.494   3.980   5.971  1.00  0.00     0.031 C 
ATOM     22  C   UNL     1       5.742  -2.785   6.383  1.00  0.00     0.029 A 
ATOM     23  C   UNL     1       6.114  -2.001   7.560  1.00  0.00     0.049 A 
ATOM     24  H   UNL     1       5.873   0.051   7.832  1.00  0.00     0.167 HD
ATOM     25  C   UNL     1       5.278   4.353   8.289  1.00  0.00     0.034 A 
ATOM     26  C   UNL     1       6.681  -2.497   8.681  1.00  0.00     0.034 A 
ATOM     27  C   UNL     1       5.788   3.899   9.557  1.00  0.00     0.049 A 
ATOM     28  C   UNL     1       6.944  -1.570   9.844  1.00  0.00     0.074 A 
ATOM     29  C   UNL     1       6.021   4.646  10.698  1.00  0.00     0.029 A 
ATOM     30  N   UNL     1       6.138   2.591   9.857  1.00  0.00    -0.354 N 
ATOM     31  N   UNL     1       6.698  -0.284   9.944  1.00  0.00    -0.248 NA
ATOM     32  C   UNL     1       7.545  -2.156  11.051  1.00  0.00     0.031 C 
ATOM     33  C   UNL     1       6.562   3.802  11.669  1.00  0.00     0.029 A 
ATOM     34  C   UNL     1       6.606   2.514  11.158  1.00  0.00     0.049 A 
ATOM     35  H   UNL     1       6.066   1.830   9.236  1.00  0.00     0.167 HD
ATOM     36  C   UNL     1       7.088   0.084  11.230  1.00  0.00     0.074 A 
ATOM     37  C   UNL     1       7.564  -1.119  11.879  1.00  0.00     0.031 C 
ATOM     38  C   UNL     1       7.058   1.309  11.813  1.00  0.00     0.034 A 
BRANCH  25  39
ATOM     39  C   UNL     1       4.971   5.822   8.142  1.00  0.00     0.023 A 
ATOM     40  C   UNL     1       6.002   6.774   8.237  1.00  0.00     0.031 A 
ATOM     41  C   UNL     1       3.647   6.283   8.024  1.00  0.00     0.131 A 
ATOM     42  C   UNL     1       5.689   8.139   8.239  1.00  0.00     0.055 A 
ATOM     43  C   UNL     1       3.344   7.644   7.984  1.00  0.00     0.041 A 
ATOM     44  F   UNL     1       2.628   5.412   7.933  1.00  0.00    -0.206 F 
ATOM     45  C   UNL     1       4.367   8.579   8.103  1.00  0.00     0.022 A 
BRANCH  42  46
ATOM     46  S   UNL     1       6.973   9.397   8.476  1.00  0.00     0.124 S 
ATOM     47  O   UNL     1       6.857  10.180   7.247  1.00  0.00    -0.237 OA
ATOM     48  O   UNL     1       6.519  10.072   9.689  1.00  0.00    -0.237 OA
ATOM     49  O   UNL     1       8.203   8.624   8.606  1.00  0.00    -0.744 OA
ENDBRANCH  42  46
ENDBRANCH  25  39
BRANCH  26  50
ATOM     50  C   UNL     1       6.958  -3.962   8.771  1.00  0.00     0.023 A 
ATOM     51  C   UNL     1       7.862  -4.586   7.892  1.00  0.00     0.031 A 
ATOM     52  C   UNL     1       6.247  -4.774   9.672  1.00  0.00     0.131 A 
ATOM     53  C   UNL     1       7.984  -5.982   7.891  1.00  0.00     0.055 A 
ATOM     54  C   UNL     1       6.423  -6.159   9.715  1.00  0.00     0.041 A 
ATOM     55  F   UNL     1       5.364  -4.229  10.522  1.00  0.00    -0.206 F 
ATOM     56  C   UNL     1       7.283  -6.771   8.809  1.00  0.00     0.022 A 
BRANCH  53  57
ATOM     57  S   UNL     1       8.955  -6.831   6.615  1.00  0.00     0.124 S 
ATOM     58  O   UNL     1       9.957  -7.534   7.410  1.00  0.00    -0.237 OA
ATOM     59  O   UNL     1       7.944  -7.677   5.984  1.00  0.00    -0.237 OA
ATOM     60  O   UNL     1       9.458  -5.743   5.783  1.00  0.00    -0.744 OA
ENDBRANCH  53  57
ENDBRANCH  26  50
BRANCH  38  61
ATOM     61  C   UNL     1       7.541   1.452  13.237  1.00  0.00     0.023 A 
ATOM     62  C   UNL     1       6.654   1.889  14.241  1.00  0.00     0.031 A 
ATOM     63  C   UNL     1       8.901   1.321  13.565  1.00  0.00     0.131 A 
ATOM     64  C   UNL     1       7.144   2.222  15.510  1.00  0.00     0.055 A 
ATOM     65  C   UNL     1       9.378   1.611  14.845  1.00  0.00     0.041 A 
ATOM     66  F   UNL     1       9.789   0.921  12.641  1.00  0.00    -0.206 F 
ATOM     67  C   UNL     1       8.501   2.079  15.819  1.00  0.00     0.022 A 
BRANCH  64  68
ATOM     68  S   UNL     1       6.062   2.946  16.774  1.00  0.00     0.124 S 
ATOM     69  O   UNL     1       6.134   1.949  17.839  1.00  0.00    -0.237 OA
ATOM     70  O   UNL     1       6.728   4.214  17.061  1.00  0.00    -0.237 OA
ATOM     71  O   UNL     1       4.767   3.054  16.110  1.00  0.00    -0.744 OA
ENDBRANCH  64  68
ENDBRANCH  38  61
ENDBRANCH  12  13
ENDBRANCH   5   7
ENDBRANCH   2   3
ENDBRANCH   1   2
BRANCH   1  72
ATOM     72  C   UNL     1       5.346  -2.477  -2.824  1.00  0.00     0.118 C 
BRANCH  72  73
ATOM     73  N   UNL     1       6.483  -1.607  -3.095  1.00  0.00    -0.352 N 
ATOM     74  C   UNL     1       7.150  -1.286  -4.246  1.00  0.00     0.253 C 
ATOM     75  H   UNL     1       6.842  -1.164  -2.293  1.00  0.00     0.163 HD
ATOM     76  O   UNL     1       8.114  -0.522  -4.214  1.00  0.00    -0.269 OA
BRANCH  74  77
ATOM     77  C   UNL     1       6.818  -1.883  -5.538  1.00  0.00     0.067 A 
ATOM     78  C   UNL     1       7.894  -2.597  -6.101  1.00  0.00     0.066 A 
ATOM     79  C   UNL     1       5.580  -1.832  -6.179  1.00  0.00     0.066 A 
ATOM     80  C   UNL     1       7.717  -3.392  -7.224  1.00  0.00     0.162 A 
ATOM     81  C   UNL     1       5.391  -2.745  -7.243  1.00  0.00     0.078 A 
ATOM     82  C   UNL     1       6.441  -3.533  -7.757  1.00  0.00     0.163 A 
BRANCH  79  83
ATOM     83  N   UNL     1       4.392  -1.252  -5.647  1.00  0.00    -0.279 N 
ATOM     84  H   UNL     1       3.700  -1.921  -5.443  1.00  0.00     0.180 HD
BRANCH  83  85
ATOM     85  S   UNL     1       3.907   0.312  -5.290  1.00  0.00     0.263 S 
ATOM     86  O   UNL     1       2.962   0.614  -6.352  1.00  0.00    -0.201 OA
ATOM     87  O   UNL     1       3.395   0.233  -3.937  1.00  0.00    -0.201 OA
BRANCH  85  88
ATOM     88  C   UNL     1       5.135   1.596  -5.350  1.00  0.00     0.107 A 
ATOM     89  C   UNL     1       4.915   2.626  -6.291  1.00  0.00     0.044 A 
ATOM     90  C   UNL     1       6.098   1.853  -4.376  1.00  0.00     0.061 A 
ATOM     91  C   UNL     1       5.735   3.758  -6.335  1.00  0.00     0.042 A 
ATOM     92  C   UNL     1       7.048   2.875  -4.554  1.00  0.00     0.023 A 
ATOM     93  Cl  UNL     1       6.007   1.308  -2.750  1.00  0.00    -0.083 Cl
ATOM     94  Cl  UNL     1       5.296   5.100  -7.319  1.00  0.00    -0.084 Cl
ATOM     95  C   UNL     1       6.860   3.842  -5.532  1.00  0.00     0.022 A 
ENDBRANCH  85  88
ENDBRANCH  83  85
ENDBRANCH  79  83
BRANCH  80  96
ATOM     96  O   UNL     1       8.818  -4.082  -7.635  1.00  0.00    -0.490 OA
BRANCH  96  97
ATOM     97  C   UNL     1       9.040  -3.938  -9.036  1.00  0.00     0.233 CG0
ATOM     98  G   UNL     1       8.254  -4.991  -9.787  1.00  0.00     0.000 G0
ENDBRANCH  96  97
ENDBRANCH  80  96
BRANCH  82  99
ATOM     99  O   UNL     1       6.098  -4.572  -8.582  1.00  0.00    -0.489 OA
BRANCH  99 100
ATOM    100  C   UNL     1       6.772  -4.639  -9.839  1.00  0.00     0.233 C 
BRANCH 100 101
ATOM    101  C   UNL     1       8.254  -4.991  -9.787  1.00  0.00     0.083 CG0
ATOM    102  G   UNL     1       9.040  -3.938  -9.036  1.00  0.00     0.000 G0
ENDBRANCH 100 101
ENDBRANCH  99 100
ENDBRANCH  82  99
ENDBRANCH  74  77
ENDBRANCH  72  73
ENDBRANCH   1  72
TORSDOF 16
