REMARK SMILES [N-]=[N+]=NC[C@@H](Nc1ccccc1Br)C(=O)NCCCNC(=O)c1ccc(-c2c3nc(c(-c4cc(S(=O)(=O)[O-])ccc4F)c4ccc([nH]4)c(-c4cc(S(=O)(=O)[O-])ccc4F)c4nc(c(-c5cc(S(=O)(=O)[O-])ccc5F)c5ccc2[nH]5)C=C4)C=C3)cc1
REMARK SMILES IDX 18 1 17 2 16 3 14 4 15 5 5 7 4 8 3 9 1 10 2 11 6 12 7 14
REMARK SMILES IDX 8 15 12 16 9 17 11 18 13 19 10 20 19 21 20 22 21 23 22 25
REMARK SMILES IDX 23 26 24 27 85 28 25 29 84 30 26 31 27 32 28 33 78 34 29 35
REMARK SMILES IDX 83 36 77 37 79 38 30 39 82 40 76 41 75 42 31 44 63 45 43 46
REMARK SMILES IDX 62 47 44 48 47 49 61 50 80 51 45 52 46 53 60 55 81 56 48 57
REMARK SMILES IDX 32 58 33 59 41 60 34 61 40 62 42 63 39 64 35 65 36 66 37 67
REMARK SMILES IDX 38 68 64 69 65 70 73 71 66 72 72 73 74 74 71 75 67 76 68 77
REMARK SMILES IDX 69 78 70 79 49 80 50 81 58 82 51 83 57 84 59 85 56 86 52 87
REMARK SMILES IDX 53 88 54 89 55 90
REMARK H PARENT 16 6 6 13 20 24 79 43 47 54
REMARK Flexibility Score: inf
ROOT
ATOM      1  C   UNL     1       4.330   4.051   2.495  1.00  0.00     0.042 C 
ENDROOT
BRANCH   1   2
ATOM      2  C   UNL     1       3.704   4.097   1.114  1.00  0.00     0.117 C 
BRANCH   2   3
ATOM      3  N   UNL     1       4.711   4.098   0.070  1.00  0.00    -0.354 N 
ATOM      4  C   UNL     1       4.859   3.277  -1.008  1.00  0.00     0.242 C 
ATOM      5  O   UNL     1       5.868   3.448  -1.703  1.00  0.00    -0.273 OA
ATOM      6  H   UNL     1       5.394   4.801   0.153  1.00  0.00     0.163 HD
BRANCH   4   7
ATOM      7  C   UNL     1       3.877   2.129  -1.314  1.00  0.00     0.174 C 
BRANCH   7   8
ATOM      8  C   UNL     1       4.154   1.010  -0.282  1.00  0.00     0.125 C 
BRANCH   8   9
ATOM      9  N   UNL     1       3.391  -0.218  -0.591  1.00  0.00    -0.091 NA
ATOM     10  N   UNL     1       1.325  -0.451   0.571  1.00  0.00    -0.003 NA
ATOM     11  N   UNL     1       2.323  -0.359   0.027  1.00  0.00     0.001 N 
ENDBRANCH   8   9
ENDBRANCH   7   8
BRANCH   7  12
ATOM     12  N   UNL     1       2.437   2.491  -1.355  1.00  0.00    -0.373 N 
ATOM     13  H   UNL     1       1.797   1.749  -1.264  1.00  0.00     0.161 HD
BRANCH  12  14
ATOM     14  C   UNL     1       1.894   3.756  -1.508  1.00  0.00     0.049 A 
ATOM     15  C   UNL     1       0.882   4.110  -0.593  1.00  0.00     0.027 A 
ATOM     16  C   UNL     1       2.348   4.762  -2.378  1.00  0.00     0.041 A 
ATOM     17  C   UNL     1       0.433   5.427  -0.461  1.00  0.00     0.002 A 
ATOM     18  C   UNL     1       1.904   6.086  -2.244  1.00  0.00     0.018 A 
ATOM     19  Br  UNL     1       3.453   4.391  -3.883  1.00  0.00    -0.049 Br
ATOM     20  C   UNL     1       0.968   6.422  -1.268  1.00  0.00     0.001 A 
ENDBRANCH  12  14
ENDBRANCH   7  12
ENDBRANCH   4   7
ENDBRANCH   2   3
ENDBRANCH   1   2
BRANCH   1  21
ATOM     21  C   UNL     1       5.068   5.333   2.852  1.00  0.00     0.118 C 
BRANCH  21  22
ATOM     22  N   UNL     1       4.173   6.479   2.956  1.00  0.00    -0.352 N 
ATOM     23  C   UNL     1       3.939   7.307   4.027  1.00  0.00     0.251 C 
ATOM     24  H   UNL     1       3.663   6.690   2.141  1.00  0.00     0.163 HD
ATOM     25  O   UNL     1       2.993   8.088   3.995  1.00  0.00    -0.269 OA
BRANCH  23  26
ATOM     26  C   UNL     1       4.812   7.227   5.217  1.00  0.00     0.039 A 
ATOM     27  C   UNL     1       4.235   7.265   6.487  1.00  0.00     0.014 A 
ATOM     28  C   UNL     1       6.196   7.092   5.076  1.00  0.00     0.014 A 
ATOM     29  C   UNL     1       5.043   7.097   7.614  1.00  0.00     0.010 A 
ATOM     30  C   UNL     1       6.981   6.822   6.191  1.00  0.00     0.010 A 
ATOM     31  C   UNL     1       6.415   6.831   7.473  1.00  0.00    -0.014 A 
BRANCH  31  32
ATOM     32  C   UNL     1       7.276   6.573   8.656  1.00  0.00     0.031 A 
ATOM     33  C   UNL     1       8.433   7.488   8.958  1.00  0.00     0.074 A 
ATOM     34  C   UNL     1       7.052   5.484   9.419  1.00  0.00     0.049 A 
ATOM     35  N   UNL     1       9.336   7.397   9.899  1.00  0.00    -0.248 NA
ATOM     36  C   UNL     1       8.617   8.640   8.061  1.00  0.00     0.031 C 
ATOM     37  C   UNL     1       5.991   4.499   9.195  1.00  0.00     0.029 A 
ATOM     38  N   UNL     1       7.704   5.017  10.533  1.00  0.00    -0.354 N 
ATOM     39  C   UNL     1      10.201   8.467   9.700  1.00  0.00     0.074 A 
ATOM     40  C   UNL     1       9.753   9.152   8.507  1.00  0.00     0.031 C 
ATOM     41  C   UNL     1       6.045   3.565  10.158  1.00  0.00     0.029 A 
ATOM     42  C   UNL     1       7.175   3.850  11.036  1.00  0.00     0.049 A 
ATOM     43  H   UNL     1       8.478   5.474  10.934  1.00  0.00     0.167 HD
ATOM     44  C   UNL     1      11.257   8.856  10.456  1.00  0.00     0.034 A 
ATOM     45  C   UNL     1       7.565   3.088  12.078  1.00  0.00     0.034 A 
ATOM     46  C   UNL     1      11.679   8.167  11.651  1.00  0.00     0.049 A 
ATOM     47  C   UNL     1       8.756   3.530  12.891  1.00  0.00     0.074 A 
ATOM     48  C   UNL     1      12.693   8.508  12.528  1.00  0.00     0.029 A 
ATOM     49  N   UNL     1      11.120   6.989  12.131  1.00  0.00    -0.354 N 
ATOM     50  N   UNL     1       9.525   4.582  12.726  1.00  0.00    -0.248 NA
ATOM     51  C   UNL     1       9.123   2.690  14.038  1.00  0.00     0.031 C 
ATOM     52  C   UNL     1      12.800   7.497  13.488  1.00  0.00     0.029 A 
ATOM     53  C   UNL     1      11.793   6.571  13.269  1.00  0.00     0.049 A 
ATOM     54  H   UNL     1      10.356   6.519  11.723  1.00  0.00     0.167 HD
ATOM     55  C   UNL     1      10.447   4.545  13.770  1.00  0.00     0.074 A 
ATOM     56  C   UNL     1      10.123   3.380  14.566  1.00  0.00     0.031 C 
ATOM     57  C   UNL     1      11.466   5.399  14.047  1.00  0.00     0.034 A 
BRANCH  44  58
ATOM     58  C   UNL     1      12.041  10.063   9.996  1.00  0.00     0.023 A 
ATOM     59  C   UNL     1      11.452  11.337   9.894  1.00  0.00     0.031 A 
ATOM     60  C   UNL     1      13.394   9.937   9.636  1.00  0.00     0.131 A 
ATOM     61  C   UNL     1      12.189  12.412   9.376  1.00  0.00     0.055 A 
ATOM     62  C   UNL     1      14.148  11.030   9.203  1.00  0.00     0.041 A 
ATOM     63  F   UNL     1      14.007   8.743   9.687  1.00  0.00    -0.206 F 
ATOM     64  C   UNL     1      13.542  12.274   9.056  1.00  0.00     0.022 A 
BRANCH  61  65
ATOM     65  S   UNL     1      11.316  13.953   8.987  1.00  0.00     0.124 S 
ATOM     66  O   UNL     1      10.309  13.489   8.036  1.00  0.00    -0.237 OA
ATOM     67  O   UNL     1      10.819  14.372  10.291  1.00  0.00    -0.237 OA
ATOM     68  O   UNL     1      12.359  14.802   8.413  1.00  0.00    -0.744 OA
ENDBRANCH  61  65
ENDBRANCH  44  58
BRANCH  45  69
ATOM     69  C   UNL     1       6.841   1.825  12.406  1.00  0.00     0.023 A 
ATOM     70  C   UNL     1       6.182   1.664  13.636  1.00  0.00     0.031 A 
ATOM     71  C   UNL     1       6.840   0.738  11.513  1.00  0.00     0.131 A 
ATOM     72  C   UNL     1       5.597   0.430  13.961  1.00  0.00     0.055 A 
ATOM     73  C   UNL     1       6.204  -0.467  11.816  1.00  0.00     0.041 A 
ATOM     74  F   UNL     1       7.452   0.836  10.322  1.00  0.00    -0.206 F 
ATOM     75  C   UNL     1       5.590  -0.632  13.053  1.00  0.00     0.022 A 
BRANCH  72  76
ATOM     76  S   UNL     1       4.934   0.197  15.633  1.00  0.00     0.124 S 
ATOM     77  O   UNL     1       6.101   0.486  16.458  1.00  0.00    -0.237 OA
ATOM     78  O   UNL     1       3.860   1.183  15.672  1.00  0.00    -0.237 OA
ATOM     79  O   UNL     1       4.497  -1.198  15.634  1.00  0.00    -0.744 OA
ENDBRANCH  72  76
ENDBRANCH  45  69
BRANCH  57  80
ATOM     80  C   UNL     1      12.271   5.125  15.295  1.00  0.00     0.023 A 
ATOM     81  C   UNL     1      13.063   3.971  15.430  1.00  0.00     0.031 A 
ATOM     82  C   UNL     1      12.235   6.030  16.372  1.00  0.00     0.131 A 
ATOM     83  C   UNL     1      13.735   3.722  16.636  1.00  0.00     0.055 A 
ATOM     84  C   UNL     1      12.963   5.812  17.542  1.00  0.00     0.041 A 
ATOM     85  F   UNL     1      11.493   7.147  16.301  1.00  0.00    -0.206 F 
ATOM     86  C   UNL     1      13.706   4.645  17.685  1.00  0.00     0.022 A 
BRANCH  83  87
ATOM     87  S   UNL     1      14.559   2.121  16.858  1.00  0.00     0.124 S 
ATOM     88  O   UNL     1      13.459   1.184  16.652  1.00  0.00    -0.237 OA
ATOM     89  O   UNL     1      15.578   2.148  15.815  1.00  0.00    -0.237 OA
ATOM     90  O   UNL     1      15.070   2.186  18.226  1.00  0.00    -0.744 OA
ENDBRANCH  83  87
ENDBRANCH  57  80
ENDBRANCH  31  32
ENDBRANCH  23  26
ENDBRANCH  21  22
ENDBRANCH   1  21
TORSDOF 17
