REMARK SMILES Cc1cscc1-c1ncc(C(=O)NCCCNC(=O)c2ccc(-c3c4nc(c(-c5cc(S(=O)(=O)[O-])ccc5F)c5ccc([nH]5)c(-c5cc(S(=O)(=O)[O-])ccc5F)c5nc(c(-c6cc(S(=O)(=O)[O-])ccc6F)c6ccc3[nH]6)C=C5)C=C4)cc2)c(=O)[nH]1
REMARK SMILES IDX 16 1 15 2 14 3 13 4 11 5 12 6 10 8 7 9 8 10 85 11 9 12 83 13
REMARK SMILES IDX 84 15 6 16 1 17 2 18 3 19 4 20 5 21 17 22 18 23 19 25 20 26
REMARK SMILES IDX 21 27 82 28 22 29 81 30 23 31 24 32 25 33 75 34 26 35 80 36
REMARK SMILES IDX 74 37 76 38 27 39 79 40 73 41 72 42 28 44 60 45 40 46 59 47
REMARK SMILES IDX 41 48 44 49 58 50 77 51 42 52 43 53 57 55 78 56 45 57 29 58
REMARK SMILES IDX 30 59 38 60 31 61 37 62 39 63 36 64 32 65 33 66 34 67 35 68
REMARK SMILES IDX 61 69 62 70 70 71 63 72 69 73 71 74 68 75 64 76 65 77 66 78
REMARK SMILES IDX 67 79 46 80 47 81 55 82 48 83 54 84 56 85 53 86 49 87 50 88
REMARK SMILES IDX 51 89 52 90
REMARK H PARENT 13 7 85 14 17 24 76 43 44 54
REMARK Flexibility Score: inf
ROOT
ATOM      1  C   UNL     1       3.622   8.546   3.430  1.00  0.00     0.118 C 
ENDROOT
BRANCH   1   2
ATOM      2  C   UNL     1       2.758   7.337   3.082  1.00  0.00     0.042 C 
BRANCH   2   3
ATOM      3  C   UNL     1       2.187   7.370   1.664  1.00  0.00     0.118 C 
BRANCH   3   4
ATOM      4  N   UNL     1       3.200   7.055   0.672  1.00  0.00    -0.352 N 
ATOM      5  C   UNL     1       3.480   5.923  -0.024  1.00  0.00     0.258 C 
ATOM      6  O   UNL     1       4.407   5.994  -0.837  1.00  0.00    -0.269 OA
ATOM      7  H   UNL     1       3.800   7.808   0.464  1.00  0.00     0.163 HD
BRANCH   5   8
ATOM      8  C   UNL     1       2.689   4.670   0.092  1.00  0.00     0.123 A 
ATOM      9  C   UNL     1       1.298   2.314  -0.097  1.00  0.00     0.141 A 
ATOM     10  N   UNL     1       2.009   2.672  -1.112  1.00  0.00    -0.237 NA
ATOM     11  N   UNL     1       1.212   3.027   1.058  1.00  0.00    -0.306 N 
ATOM     12  C   UNL     1       2.668   3.874  -0.995  1.00  0.00     0.133 A 
ATOM     13  C   UNL     1       1.979   4.134   1.271  1.00  0.00     0.264 A 
ATOM     14  H   UNL     1       0.582   2.738   1.756  1.00  0.00     0.171 HD
ATOM     15  O   UNL     1       2.079   4.583   2.407  1.00  0.00    -0.269 OA
BRANCH   9  16
ATOM     16  C   UNL     1       0.567   1.065  -0.125  1.00  0.00     0.031 A 
ATOM     17  C   UNL     1       2.627  -0.515  -0.135  1.00  0.00     0.046 C 
ATOM     18  C   UNL     1       1.156  -0.252  -0.142  1.00  0.00    -0.029 A 
ATOM     19  C   UNL     1       0.183  -1.233  -0.140  1.00  0.00     0.069 A 
ATOM     20  S   UNL     1      -1.402  -0.596  -0.122  1.00  0.00    -0.151 S 
ATOM     21  C   UNL     1      -0.814   1.007  -0.108  1.00  0.00     0.077 A 
ENDBRANCH   9  16
ENDBRANCH   5   8
ENDBRANCH   3   4
ENDBRANCH   2   3
ENDBRANCH   1   2
BRANCH   1  22
ATOM     22  N   UNL     1       2.835   9.763   3.559  1.00  0.00    -0.352 N 
ATOM     23  C   UNL     1       2.688  10.611   4.629  1.00  0.00     0.251 C 
ATOM     24  H   UNL     1       2.330  10.018   2.754  1.00  0.00     0.163 HD
ATOM     25  O   UNL     1       1.794  11.452   4.598  1.00  0.00    -0.269 OA
BRANCH  23  26
ATOM     26  C   UNL     1       3.578  10.516   5.811  1.00  0.00     0.039 A 
ATOM     27  C   UNL     1       3.029  10.718   7.081  1.00  0.00     0.014 A 
ATOM     28  C   UNL     1       4.951  10.290   5.678  1.00  0.00     0.014 A 
ATOM     29  C   UNL     1       3.843  10.645   8.216  1.00  0.00     0.010 A 
ATOM     30  C   UNL     1       5.750  10.152   6.813  1.00  0.00     0.010 A 
ATOM     31  C   UNL     1       5.207  10.335   8.094  1.00  0.00    -0.014 A 
BRANCH  31  32
ATOM     32  C   UNL     1       6.079  10.209   9.292  1.00  0.00     0.031 A 
ATOM     33  C   UNL     1       7.215  11.174   9.505  1.00  0.00     0.074 A 
ATOM     34  C   UNL     1       5.889   9.188  10.150  1.00  0.00     0.049 A 
ATOM     35  N   UNL     1       8.137  11.178  10.434  1.00  0.00    -0.248 NA
ATOM     36  C   UNL     1       7.348  12.262   8.524  1.00  0.00     0.031 C 
ATOM     37  C   UNL     1       4.848   8.164  10.026  1.00  0.00     0.029 A 
ATOM     38  N   UNL     1       6.571   8.828  11.286  1.00  0.00    -0.354 N 
ATOM     39  C   UNL     1       8.973  12.250  10.138  1.00  0.00     0.074 A 
ATOM     40  C   UNL     1       8.472  12.844   8.916  1.00  0.00     0.031 C 
ATOM     41  C   UNL     1       4.955   7.301  11.048  1.00  0.00     0.029 A 
ATOM     42  C   UNL     1       6.095   7.680  11.877  1.00  0.00     0.049 A 
ATOM     43  H   UNL     1       7.329   9.344  11.645  1.00  0.00     0.167 HD
ATOM     44  C   UNL     1      10.047  12.705  10.830  1.00  0.00     0.034 A 
ATOM     45  C   UNL     1       6.537   6.999  12.954  1.00  0.00     0.034 A 
ATOM     46  C   UNL     1      10.518  12.114  12.060  1.00  0.00     0.049 A 
ATOM     47  C   UNL     1       7.730   7.528  13.709  1.00  0.00     0.074 A 
ATOM     48  C   UNL     1      11.548  12.539  12.882  1.00  0.00     0.029 A 
ATOM     49  N   UNL     1       9.995  10.966  12.643  1.00  0.00    -0.354 N 
ATOM     50  N   UNL     1       8.472   8.580  13.450  1.00  0.00    -0.248 NA
ATOM     51  C   UNL     1       8.136   6.786  14.910  1.00  0.00     0.031 C 
ATOM     52  C   UNL     1      11.689  11.615  13.923  1.00  0.00     0.029 A 
ATOM     53  C   UNL     1      10.701  10.652  13.795  1.00  0.00     0.049 A 
ATOM     54  H   UNL     1       9.234  10.451  12.290  1.00  0.00     0.167 HD
ATOM     55  C   UNL     1       9.414   8.640  14.472  1.00  0.00     0.074 A 
ATOM     56  C   UNL     1       9.136   7.529  15.359  1.00  0.00     0.031 C 
ATOM     57  C   UNL     1      10.418   9.534  14.664  1.00  0.00     0.034 A 
BRANCH  44  58
ATOM     58  C   UNL     1      10.804  13.879  10.254  1.00  0.00     0.023 A 
ATOM     59  C   UNL     1      10.210  15.145  10.106  1.00  0.00     0.031 A 
ATOM     60  C   UNL     1      12.137  13.726   9.832  1.00  0.00     0.131 A 
ATOM     61  C   UNL     1      10.921  16.184   9.486  1.00  0.00     0.055 A 
ATOM     62  C   UNL     1      12.865  14.786   9.289  1.00  0.00     0.041 A 
ATOM     63  F   UNL     1      12.753  12.537   9.931  1.00  0.00    -0.206 F 
ATOM     64  C   UNL     1      12.253  16.021   9.099  1.00  0.00     0.022 A 
BRANCH  61  65
ATOM     65  S   UNL     1      10.036  17.713   9.073  1.00  0.00     0.124 S 
ATOM     66  O   UNL     1       8.985  17.216   8.188  1.00  0.00    -0.237 OA
ATOM     67  O   UNL     1       9.599  18.188  10.380  1.00  0.00    -0.237 OA
ATOM     68  O   UNL     1      11.055  18.533   8.419  1.00  0.00    -0.744 OA
ENDBRANCH  61  65
ENDBRANCH  44  58
BRANCH  45  69
ATOM     69  C   UNL     1       5.867   5.735  13.375  1.00  0.00     0.023 A 
ATOM     70  C   UNL     1       5.200   5.643  14.606  1.00  0.00     0.031 A 
ATOM     71  C   UNL     1       5.922   4.586  12.566  1.00  0.00     0.131 A 
ATOM     72  C   UNL     1       4.656   4.416  15.016  1.00  0.00     0.055 A 
ATOM     73  C   UNL     1       5.333   3.381  12.955  1.00  0.00     0.041 A 
ATOM     74  F   UNL     1       6.543   4.621  11.376  1.00  0.00    -0.206 F 
ATOM     75  C   UNL     1       4.707   3.288  14.194  1.00  0.00     0.022 A 
BRANCH  72  76
ATOM     76  S   UNL     1       3.952   4.292  16.684  1.00  0.00     0.124 S 
ATOM     77  O   UNL     1       5.080   4.699  17.514  1.00  0.00    -0.237 OA
ATOM     78  O   UNL     1       2.837   5.230  16.611  1.00  0.00    -0.237 OA
ATOM     79  O   UNL     1       3.575   2.884  16.790  1.00  0.00    -0.744 OA
ENDBRANCH  72  76
ENDBRANCH  45  69
BRANCH  57  80
ATOM     80  C   UNL     1      11.256   9.365  15.907  1.00  0.00     0.023 A 
ATOM     81  C   UNL     1      12.113   8.264  16.078  1.00  0.00     0.031 A 
ATOM     82  C   UNL     1      11.182  10.315  16.942  1.00  0.00     0.131 A 
ATOM     83  C   UNL     1      12.821   8.111  17.279  1.00  0.00     0.055 A 
ATOM     84  C   UNL     1      11.934  10.187  18.110  1.00  0.00     0.041 A 
ATOM     85  F   UNL     1      10.377  11.384  16.832  1.00  0.00    -0.206 F 
ATOM     86  C   UNL     1      12.749   9.074  18.290  1.00  0.00     0.022 A 
BRANCH  83  87
ATOM     87  S   UNL     1      13.772   6.589  17.542  1.00  0.00     0.124 S 
ATOM     88  O   UNL     1      12.742   5.562  17.418  1.00  0.00    -0.237 OA
ATOM     89  O   UNL     1      14.752   6.642  16.462  1.00  0.00    -0.237 OA
ATOM     90  O   UNL     1      14.323   6.756  18.886  1.00  0.00    -0.744 OA
ENDBRANCH  83  87
ENDBRANCH  57  80
ENDBRANCH  31  32
ENDBRANCH  23  26
ENDBRANCH   1  22
TORSDOF 14
