REMARK SMILES CC(C)(C)c1cc(Nc2ccccc2C(=O)NCCCNC(=O)c2ccc(-c3c4nc(c(-c5cc(S(=O)(=O)[O-])ccc5F)c5ccc([nH]5)c(-c5cc(S(=O)(=O)[O-])ccc5F)c5nc(c(-c6cc(S(=O)(=O)[O-])ccc6F)c6ccc3[nH]6)C=C5)C=C4)cc2)cc2c1OCC2(C)C
REMARK SMILES IDX 19 1 18 2 17 3 15 4 16 5 14 7 9 8 10 9 11 10 13 11 12 12
REMARK SMILES IDX 8 13 7 15 5 16 6 17 89 18 88 19 90 20 87 21 92 22 91 23
REMARK SMILES IDX 93 24 94 25 2 26 1 27 3 28 4 29 20 30 21 31 22 32 23 34
REMARK SMILES IDX 24 35 25 36 86 37 26 38 85 39 27 40 28 41 29 42 79 43 30 44
REMARK SMILES IDX 84 45 78 46 80 47 31 48 83 49 77 50 76 51 32 53 64 54 44 55
REMARK SMILES IDX 63 56 45 57 48 58 62 59 81 60 46 61 47 62 61 64 82 65 49 66
REMARK SMILES IDX 33 67 34 68 42 69 35 70 41 71 43 72 40 73 36 74 37 75 38 76
REMARK SMILES IDX 39 77 65 78 66 79 74 80 67 81 73 82 75 83 72 84 68 85 69 86
REMARK SMILES IDX 70 87 71 88 50 89 51 90 59 91 52 92 58 93 60 94 57 95 53 96
REMARK SMILES IDX 54 97 55 98 56 99
REMARK H PARENT 17 6 8 14 21 33 80 52 48 63
REMARK Flexibility Score: inf
ROOT
ATOM      1  C   UNL     1       4.309   0.686  -2.117  1.00  0.00     0.042 C 
ENDROOT
BRANCH   1   2
ATOM      2  C   UNL     1       3.535   1.091  -3.373  1.00  0.00     0.118 C 
BRANCH   2   3
ATOM      3  N   UNL     1       4.222   1.968  -4.297  1.00  0.00    -0.352 N 
ATOM      4  C   UNL     1       4.198   2.076  -5.665  1.00  0.00     0.253 C 
ATOM      5  O   UNL     1       4.920   2.964  -6.135  1.00  0.00    -0.269 OA
ATOM      6  H   UNL     1       4.824   2.612  -3.859  1.00  0.00     0.163 HD
BRANCH   4   7
ATOM      7  C   UNL     1       3.437   1.225  -6.639  1.00  0.00     0.063 A 
ATOM      8  C   UNL     1       2.122   0.725  -6.551  1.00  0.00     0.051 A 
ATOM      9  C   UNL     1       1.556   0.092  -7.688  1.00  0.00     0.027 A 
ATOM     10  C   UNL     1       2.271  -0.106  -8.865  1.00  0.00     0.002 A 
ATOM     11  C   UNL     1       4.144   1.006  -7.849  1.00  0.00     0.016 A 
ATOM     12  C   UNL     1       3.579   0.337  -8.939  1.00  0.00     0.001 A 
BRANCH   8  13
ATOM     13  N   UNL     1       1.343   0.687  -5.377  1.00  0.00    -0.355 N 
ATOM     14  H   UNL     1       0.976   1.539  -5.048  1.00  0.00     0.167 HD
BRANCH  13  15
ATOM     15  C   UNL     1       1.047  -0.486  -4.633  1.00  0.00     0.039 A 
ATOM     16  C   UNL     1       0.339  -1.476  -2.474  1.00  0.00     0.002 A 
ATOM     17  C   UNL     1       0.472  -0.371  -3.350  1.00  0.00     0.034 A 
ATOM     18  C   UNL     1       0.681  -2.718  -3.007  1.00  0.00     0.127 A 
ATOM     19  C   UNL     1       1.214  -2.861  -4.276  1.00  0.00     0.006 A 
ATOM     20  O   UNL     1       0.520  -3.918  -2.371  1.00  0.00    -0.492 OA
ATOM     21  C   UNL     1       1.405  -1.760  -5.091  1.00  0.00     0.034 A 
ATOM     22  C   UNL     1       1.520  -4.291  -4.568  1.00  0.00     0.028 C 
ATOM     23  C   UNL     1       1.146  -4.914  -3.209  1.00  0.00     0.240 C 
ATOM     24  C   UNL     1       0.636  -4.818  -5.702  1.00  0.00     0.020 C 
ATOM     25  C   UNL     1       3.000  -4.524  -4.895  1.00  0.00     0.020 C 
BRANCH  16  26
ATOM     26  C   UNL     1      -0.127  -1.283  -1.023  1.00  0.00    -0.009 C 
ATOM     27  C   UNL     1       0.314   0.087  -0.453  1.00  0.00     0.016 C 
ATOM     28  C   UNL     1       0.455  -2.331  -0.049  1.00  0.00     0.016 C 
ATOM     29  C   UNL     1      -1.660  -1.360  -0.973  1.00  0.00     0.016 C 
ENDBRANCH  16  26
ENDBRANCH  13  15
ENDBRANCH   8  13
ENDBRANCH   4   7
ENDBRANCH   2   3
ENDBRANCH   1   2
BRANCH   1  30
ATOM     30  C   UNL     1       4.785   1.826  -1.223  1.00  0.00     0.118 C 
BRANCH  30  31
ATOM     31  N   UNL     1       3.733   2.523  -0.502  1.00  0.00    -0.352 N 
ATOM     32  C   UNL     1       3.064   2.335   0.684  1.00  0.00     0.251 C 
ATOM     33  H   UNL     1       3.424   3.326  -0.980  1.00  0.00     0.163 HD
ATOM     34  O   UNL     1       2.259   3.220   0.988  1.00  0.00    -0.269 OA
BRANCH  32  35
ATOM     35  C   UNL     1       3.185   1.142   1.579  1.00  0.00     0.039 A 
ATOM     36  C   UNL     1       4.218   0.212   1.544  1.00  0.00     0.014 A 
ATOM     37  C   UNL     1       2.167   0.946   2.536  1.00  0.00     0.014 A 
ATOM     38  C   UNL     1       4.182  -0.929   2.355  1.00  0.00     0.010 A 
ATOM     39  C   UNL     1       2.162  -0.165   3.397  1.00  0.00     0.010 A 
ATOM     40  C   UNL     1       3.157  -1.139   3.292  1.00  0.00    -0.014 A 
BRANCH  40  41
ATOM     41  C   UNL     1       3.227  -2.344   4.169  1.00  0.00     0.031 A 
ATOM     42  C   UNL     1       2.240  -3.472   4.059  1.00  0.00     0.074 A 
ATOM     43  C   UNL     1       4.277  -2.475   5.004  1.00  0.00     0.049 A 
ATOM     44  N   UNL     1       2.371  -4.716   4.447  1.00  0.00    -0.248 NA
ATOM     45  C   UNL     1       0.952  -3.183   3.422  1.00  0.00     0.031 C 
ATOM     46  C   UNL     1       5.284  -1.442   5.240  1.00  0.00     0.029 A 
ATOM     47  N   UNL     1       4.693  -3.534   5.773  1.00  0.00    -0.354 N 
ATOM     48  C   UNL     1       1.221  -5.371   4.021  1.00  0.00     0.074 A 
ATOM     49  C   UNL     1       0.376  -4.378   3.400  1.00  0.00     0.031 C 
ATOM     50  C   UNL     1       6.234  -1.935   6.045  1.00  0.00     0.029 A 
ATOM     51  C   UNL     1       5.881  -3.302   6.427  1.00  0.00     0.049 A 
ATOM     52  H   UNL     1       4.190  -4.377   5.849  1.00  0.00     0.167 HD
ATOM     53  C   UNL     1       0.900  -6.681   4.139  1.00  0.00     0.034 A 
ATOM     54  C   UNL     1       6.611  -4.094   7.240  1.00  0.00     0.034 A 
ATOM     55  C   UNL     1       1.680  -7.635   4.884  1.00  0.00     0.049 A 
ATOM     56  C   UNL     1       6.162  -5.512   7.473  1.00  0.00     0.074 A 
ATOM     57  C   UNL     1       1.438  -8.986   5.059  1.00  0.00     0.029 A 
ATOM     58  N   UNL     1       2.808  -7.331   5.630  1.00  0.00    -0.354 N 
ATOM     59  N   UNL     1       5.167  -6.163   6.917  1.00  0.00    -0.248 NA
ATOM     60  C   UNL     1       6.929  -6.306   8.442  1.00  0.00     0.031 C 
ATOM     61  C   UNL     1       2.361  -9.475   5.987  1.00  0.00     0.029 A 
ATOM     62  C   UNL     1       3.230  -8.450   6.330  1.00  0.00     0.049 A 
ATOM     63  H   UNL     1       3.246  -6.449   5.657  1.00  0.00     0.167 HD
ATOM     64  C   UNL     1       5.189  -7.442   7.468  1.00  0.00     0.074 A 
ATOM     65  C   UNL     1       6.322  -7.483   8.370  1.00  0.00     0.031 C 
ATOM     66  C   UNL     1       4.342  -8.481   7.251  1.00  0.00     0.034 A 
BRANCH  53  67
ATOM     67  C   UNL     1      -0.349  -7.177   3.459  1.00  0.00     0.023 A 
ATOM     68  C   UNL     1      -1.441  -7.640   4.215  1.00  0.00     0.031 A 
ATOM     69  C   UNL     1      -0.400  -7.312   2.059  1.00  0.00     0.131 A 
ATOM     70  C   UNL     1      -2.526  -8.245   3.568  1.00  0.00     0.055 A 
ATOM     71  C   UNL     1      -1.494  -7.894   1.419  1.00  0.00     0.041 A 
ATOM     72  F   UNL     1       0.621  -6.888   1.296  1.00  0.00    -0.206 F 
ATOM     73  C   UNL     1      -2.560  -8.373   2.175  1.00  0.00     0.022 A 
BRANCH  70  74
ATOM     74  S   UNL     1      -3.919  -8.927   4.508  1.00  0.00     0.124 S 
ATOM     75  O   UNL     1      -5.055  -8.230   3.911  1.00  0.00    -0.237 OA
ATOM     76  O   UNL     1      -3.827 -10.350   4.201  1.00  0.00    -0.237 OA
ATOM     77  O   UNL     1      -3.623  -8.556   5.889  1.00  0.00    -0.744 OA
ENDBRANCH  70  74
ENDBRANCH  53  67
BRANCH  54  78
ATOM     78  C   UNL     1       7.854  -3.541   7.854  1.00  0.00     0.023 A 
ATOM     79  C   UNL     1       7.794  -2.398   8.673  1.00  0.00     0.031 A 
ATOM     80  C   UNL     1       9.119  -4.059   7.536  1.00  0.00     0.131 A 
ATOM     81  C   UNL     1       8.974  -1.756   9.067  1.00  0.00     0.055 A 
ATOM     82  C   UNL     1      10.294  -3.462   7.999  1.00  0.00     0.041 A 
ATOM     83  F   UNL     1       9.230  -5.143   6.753  1.00  0.00    -0.206 F 
ATOM     84  C   UNL     1      10.225  -2.291   8.749  1.00  0.00     0.022 A 
BRANCH  81  85
ATOM     85  S   UNL     1       8.917  -0.122   9.854  1.00  0.00     0.124 S 
ATOM     86  O   UNL     1       9.495  -0.397  11.165  1.00  0.00    -0.237 OA
ATOM     87  O   UNL     1       9.746   0.674   8.952  1.00  0.00    -0.237 OA
ATOM     88  O   UNL     1       7.498   0.215   9.846  1.00  0.00    -0.744 OA
ENDBRANCH  81  85
ENDBRANCH  54  78
BRANCH  66  89
ATOM     89  C   UNL     1       4.555  -9.754   8.034  1.00  0.00     0.023 A 
ATOM     90  C   UNL     1       4.840 -10.961   7.369  1.00  0.00     0.031 A 
ATOM     91  C   UNL     1       4.340  -9.797   9.424  1.00  0.00     0.131 A 
ATOM     92  C   UNL     1       4.864 -12.165   8.086  1.00  0.00     0.055 A 
ATOM     93  C   UNL     1       4.414 -10.992  10.141  1.00  0.00     0.041 A 
ATOM     94  F   UNL     1       4.055  -8.675  10.104  1.00  0.00    -0.206 F 
ATOM     95  C   UNL     1       4.661 -12.185   9.469  1.00  0.00     0.022 A 
BRANCH  92  96
ATOM     96  S   UNL     1       5.062 -13.756   7.236  1.00  0.00     0.124 S 
ATOM     97  O   UNL     1       6.335 -14.227   7.776  1.00  0.00    -0.237 OA
ATOM     98  O   UNL     1       3.884 -14.494   7.683  1.00  0.00    -0.237 OA
ATOM     99  O   UNL     1       5.078 -13.400   5.821  1.00  0.00    -0.744 OA
ENDBRANCH  92  96
ENDBRANCH  66  89
ENDBRANCH  40  41
ENDBRANCH  32  35
ENDBRANCH  30  31
ENDBRANCH   1  30
TORSDOF 16
