REMARK SMILES CCc1c([N+](=O)[O-])cc(C(=O)NCCCNC(=O)c2ccc(-c3c4nc(c(-c5cc(S(=O)(=O)[O-])ccc5F)c5ccc([nH]5)c(-c5cc(S(=O)(=O)[O-])ccc5F)c5nc(c(-c6cc(S(=O)(=O)[O-])ccc6F)c6ccc3[nH]6)C=C5)C=C4)cc2)n1C
REMARK SMILES IDX 15 1 14 2 13 3 12 4 10 5 11 6 9 8 3 9 4 10 82 11 8 12 83 13
REMARK SMILES IDX 2 14 1 15 5 16 6 17 7 18 16 19 17 20 18 22 19 23 20 24 81 25
REMARK SMILES IDX 21 26 80 27 22 28 23 29 24 30 74 31 25 32 79 33 73 34 75 35
REMARK SMILES IDX 26 36 78 37 72 38 71 39 27 41 59 42 39 43 58 44 40 45 43 46
REMARK SMILES IDX 57 47 76 48 41 49 42 50 56 52 77 53 44 54 28 55 29 56 37 57
REMARK SMILES IDX 30 58 36 59 38 60 35 61 31 62 32 63 33 64 34 65 60 66 61 67
REMARK SMILES IDX 69 68 62 69 68 70 70 71 67 72 63 73 64 74 65 75 66 76 45 77
REMARK SMILES IDX 46 78 54 79 47 80 53 81 55 82 52 83 48 84 49 85 50 86 51 87
REMARK H PARENT 12 7 16 21 75 40 43 51
REMARK Flexibility Score: inf
ROOT
ATOM      1  C   UNL     1       2.831  -1.330   6.469  1.00  0.00     0.118 C 
ENDROOT
BRANCH   1   2
ATOM      2  C   UNL     1       1.898  -1.060   5.296  1.00  0.00     0.042 C 
BRANCH   2   3
ATOM      3  C   UNL     1       2.411  -1.500   3.932  1.00  0.00     0.118 C 
BRANCH   3   4
ATOM      4  N   UNL     1       2.796  -2.897   3.864  1.00  0.00    -0.351 N 
ATOM      5  C   UNL     1       2.569  -3.851   2.907  1.00  0.00     0.268 C 
ATOM      6  O   UNL     1       2.962  -4.991   3.152  1.00  0.00    -0.268 OA
ATOM      7  H   UNL     1       3.309  -3.216   4.641  1.00  0.00     0.163 HD
BRANCH   5   8
ATOM      8  C   UNL     1       1.848  -3.534   1.691  1.00  0.00     0.114 A 
ATOM      9  C   UNL     1       0.948  -2.432  -0.082  1.00  0.00     0.096 A 
ATOM     10  C   UNL     1       0.445  -3.733  -0.095  1.00  0.00     0.290 A 
ATOM     11  N   UNL     1       1.972  -2.434   0.858  1.00  0.00    -0.338 N 
ATOM     12  C   UNL     1       0.987  -4.399   1.032  1.00  0.00     0.119 A 
ATOM     13  C   UNL     1       3.113  -1.538   0.842  1.00  0.00     0.150 C 
BRANCH   9  14
ATOM     14  C   UNL     1       0.574  -1.253  -0.942  1.00  0.00     0.058 C 
ATOM     15  C   UNL     1       0.617   0.099  -0.242  1.00  0.00     0.011 C 
ENDBRANCH   9  14
BRANCH  10  16
ATOM     16  N   UNL     1      -0.468  -4.321  -1.055  1.00  0.00     0.064 N 
ATOM     17  O   UNL     1      -0.732  -3.674  -2.076  1.00  0.00    -0.258 OA
ATOM     18  O   UNL     1      -0.886  -5.458  -0.801  1.00  0.00    -0.258 OA
ENDBRANCH  10  16
ENDBRANCH   5   8
ENDBRANCH   3   4
ENDBRANCH   2   3
ENDBRANCH   1   2
BRANCH   1  19
ATOM     19  N   UNL     1       4.125  -0.671   6.361  1.00  0.00    -0.352 N 
ATOM     20  C   UNL     1       4.663   0.425   6.994  1.00  0.00     0.251 C 
ATOM     21  H   UNL     1       4.731  -1.091   5.710  1.00  0.00     0.163 HD
ATOM     22  O   UNL     1       5.757   0.835   6.607  1.00  0.00    -0.269 OA
BRANCH  20  23
ATOM     23  C   UNL     1       3.949   1.146   8.077  1.00  0.00     0.039 A 
ATOM     24  C   UNL     1       4.096   2.536   8.165  1.00  0.00     0.014 A 
ATOM     25  C   UNL     1       3.165   0.489   9.023  1.00  0.00     0.014 A 
ATOM     26  C   UNL     1       3.388   3.260   9.131  1.00  0.00     0.010 A 
ATOM     27  C   UNL     1       2.368   1.219   9.905  1.00  0.00     0.010 A 
ATOM     28  C   UNL     1       2.471   2.614   9.975  1.00  0.00    -0.014 A 
BRANCH  28  29
ATOM     29  C   UNL     1       1.621   3.376  10.933  1.00  0.00     0.031 A 
ATOM     30  C   UNL     1       1.675   3.082  12.411  1.00  0.00     0.074 A 
ATOM     31  C   UNL     1       0.738   4.283  10.467  1.00  0.00     0.049 A 
ATOM     32  N   UNL     1       0.951   3.574  13.385  1.00  0.00    -0.248 NA
ATOM     33  C   UNL     1       2.640   2.061  12.840  1.00  0.00     0.031 C 
ATOM     34  C   UNL     1       0.532   4.618   9.056  1.00  0.00     0.029 A 
ATOM     35  N   UNL     1      -0.153   5.088  11.130  1.00  0.00    -0.354 N 
ATOM     36  C   UNL     1       1.351   2.900  14.535  1.00  0.00     0.074 A 
ATOM     37  C   UNL     1       2.323   1.911  14.116  1.00  0.00     0.031 C 
ATOM     38  C   UNL     1      -0.386   5.593   8.964  1.00  0.00     0.029 A 
ATOM     39  C   UNL     1      -0.867   5.921  10.301  1.00  0.00     0.049 A 
ATOM     40  H   UNL     1      -0.270   5.072  12.107  1.00  0.00     0.167 HD
ATOM     41  C   UNL     1       0.971   3.103  15.823  1.00  0.00     0.034 A 
ATOM     42  C   UNL     1      -1.802   6.848  10.583  1.00  0.00     0.034 A 
ATOM     43  C   UNL     1       0.023   4.113  16.230  1.00  0.00     0.049 A 
ATOM     44  C   UNL     1      -2.195   7.077  12.017  1.00  0.00     0.074 A 
ATOM     45  C   UNL     1      -0.385   4.454  17.509  1.00  0.00     0.029 A 
ATOM     46  N   UNL     1      -0.669   4.948  15.361  1.00  0.00    -0.354 N 
ATOM     47  N   UNL     1      -1.774   6.464  13.098  1.00  0.00    -0.248 NA
ATOM     48  C   UNL     1      -3.183   8.134  12.264  1.00  0.00     0.031 C 
ATOM     49  C   UNL     1      -1.360   5.455  17.409  1.00  0.00     0.029 A 
ATOM     50  C   UNL     1      -1.516   5.787  16.073  1.00  0.00     0.049 A 
ATOM     51  H   UNL     1      -0.572   4.946  14.382  1.00  0.00     0.167 HD
ATOM     52  C   UNL     1      -2.436   7.074  14.159  1.00  0.00     0.074 A 
ATOM     53  C   UNL     1      -3.265   8.117  13.586  1.00  0.00     0.031 C 
ATOM     54  C   UNL     1      -2.362   6.801  15.488  1.00  0.00     0.034 A 
BRANCH  41  55
ATOM     55  C   UNL     1       1.579   2.192  16.868  1.00  0.00     0.023 A 
ATOM     56  C   UNL     1       2.970   2.133  17.072  1.00  0.00     0.031 A 
ATOM     57  C   UNL     1       0.772   1.315  17.614  1.00  0.00     0.131 A 
ATOM     58  C   UNL     1       3.518   1.140  17.898  1.00  0.00     0.055 A 
ATOM     59  C   UNL     1       1.319   0.396  18.514  1.00  0.00     0.041 A 
ATOM     60  F   UNL     1      -0.561   1.310  17.457  1.00  0.00    -0.206 F 
ATOM     61  C   UNL     1       2.701   0.287  18.642  1.00  0.00     0.022 A 
BRANCH  58  62
ATOM     62  S   UNL     1       5.308   0.851  17.824  1.00  0.00     0.124 S 
ATOM     63  O   UNL     1       5.504   0.585  16.400  1.00  0.00    -0.237 OA
ATOM     64  O   UNL     1       5.851   2.110  18.320  1.00  0.00    -0.237 OA
ATOM     65  O   UNL     1       5.505  -0.303  18.698  1.00  0.00    -0.744 OA
ENDBRANCH  58  62
ENDBRANCH  41  55
BRANCH  42  66
ATOM     66  C   UNL     1      -2.413   7.651   9.489  1.00  0.00     0.023 A 
ATOM     67  C   UNL     1      -2.119   9.017   9.357  1.00  0.00     0.031 A 
ATOM     68  C   UNL     1      -3.302   7.069   8.570  1.00  0.00     0.131 A 
ATOM     69  C   UNL     1      -2.735   9.768   8.345  1.00  0.00     0.055 A 
ATOM     70  C   UNL     1      -3.884   7.813   7.542  1.00  0.00     0.041 A 
ATOM     71  F   UNL     1      -3.601   5.763   8.648  1.00  0.00    -0.206 F 
ATOM     72  C   UNL     1      -3.608   9.173   7.431  1.00  0.00     0.022 A 
BRANCH  69  73
ATOM     73  S   UNL     1      -2.405  11.549   8.264  1.00  0.00     0.124 S 
ATOM     74  O   UNL     1      -2.931  12.008   9.544  1.00  0.00    -0.237 OA
ATOM     75  O   UNL     1      -0.954  11.582   8.117  1.00  0.00    -0.237 OA
ATOM     76  O   UNL     1      -3.156  11.980   7.087  1.00  0.00    -0.744 OA
ENDBRANCH  69  73
ENDBRANCH  42  66
BRANCH  54  77
ATOM     77  C   UNL     1      -3.191   7.669  16.401  1.00  0.00     0.023 A 
ATOM     78  C   UNL     1      -4.596   7.629  16.379  1.00  0.00     0.031 A 
ATOM     79  C   UNL     1      -2.568   8.584  17.268  1.00  0.00     0.131 A 
ATOM     80  C   UNL     1      -5.334   8.533  17.157  1.00  0.00     0.055 A 
ATOM     81  C   UNL     1      -3.308   9.441  18.084  1.00  0.00     0.041 A 
ATOM     82  F   UNL     1      -1.230   8.667  17.327  1.00  0.00    -0.206 F 
ATOM     83  C   UNL     1      -4.699   9.430  18.020  1.00  0.00     0.022 A 
BRANCH  80  84
ATOM     84  S   UNL     1      -7.134   8.599  16.943  1.00  0.00     0.124 S 
ATOM     85  O   UNL     1      -7.261   8.856  15.511  1.00  0.00    -0.237 OA
ATOM     86  O   UNL     1      -7.550   7.274  17.392  1.00  0.00    -0.237 OA
ATOM     87  O   UNL     1      -7.543   9.704  17.809  1.00  0.00    -0.744 OA
ENDBRANCH  80  84
ENDBRANCH  54  77
ENDBRANCH  28  29
ENDBRANCH  20  23
ENDBRANCH   1  19
TORSDOF 15
