REMARK SMILES CN(c1ccc(C(=O)NCCCNC(=O)c2ccc(-c3c4nc(c(-c5cc(S(=O)(=O)[O-])ccc5F)c5ccc([nH]5)c(-c5cc(S(=O)(=O)[O-])ccc5F)c5nc(c(-c6cc(S(=O)(=O)[O-])ccc6F)c6ccc3[nH]6)C=C5)C=C4)cc2)cc1)S(C)(=O)=O
REMARK SMILES IDX 11 1 10 2 9 3 7 4 8 5 6 7 3 8 4 9 80 10 5 11 79 12 2 13 1 14
REMARK SMILES IDX 81 15 82 16 83 17 84 18 12 19 13 20 14 21 15 23 16 24 17 25
REMARK SMILES IDX 78 26 18 27 77 28 19 29 20 30 21 31 71 32 22 33 76 34 70 35
REMARK SMILES IDX 72 36 23 37 75 38 69 39 68 40 24 42 56 43 36 44 55 45 37 46
REMARK SMILES IDX 40 47 54 48 73 49 38 50 39 51 53 53 74 54 41 55 25 56 26 57
REMARK SMILES IDX 34 58 27 59 33 60 35 61 32 62 28 63 29 64 30 65 31 66 57 67
REMARK SMILES IDX 58 68 66 69 59 70 65 71 67 72 64 73 60 74 61 75 62 76 63 77
REMARK SMILES IDX 42 78 43 79 51 80 44 81 50 82 52 83 49 84 45 85 46 86 47 87
REMARK SMILES IDX 48 88
REMARK H PARENT 9 6 13 22 72 41 40 52
REMARK Flexibility Score: inf
ROOT
ATOM      1  C   UNL     1      -5.326  -3.643  -1.472  1.00  0.00     0.042 C 
ENDROOT
BRANCH   1   2
ATOM      2  C   UNL     1      -3.990  -4.266  -1.873  1.00  0.00     0.118 C 
BRANCH   2   3
ATOM      3  N   UNL     1      -3.742  -4.087  -3.291  1.00  0.00    -0.352 N 
ATOM      4  C   UNL     1      -2.946  -3.215  -3.986  1.00  0.00     0.251 C 
ATOM      5  O   UNL     1      -2.902  -3.337  -5.210  1.00  0.00    -0.269 OA
ATOM      6  H   UNL     1      -4.242  -4.712  -3.864  1.00  0.00     0.163 HD
BRANCH   4   7
ATOM      7  C   UNL     1      -2.084  -2.193  -3.329  1.00  0.00     0.039 A 
ATOM      8  C   UNL     1      -0.256  -0.386  -2.180  1.00  0.00     0.051 A 
ATOM      9  C   UNL     1       0.011  -0.957  -3.424  1.00  0.00     0.028 A 
ATOM     10  C   UNL     1      -1.464  -0.665  -1.540  1.00  0.00     0.028 A 
ATOM     11  C   UNL     1      -0.896  -1.854  -3.993  1.00  0.00     0.016 A 
ATOM     12  C   UNL     1      -2.384  -1.546  -2.126  1.00  0.00     0.016 A 
BRANCH   8  13
ATOM     13  N   UNL     1       0.735   0.427  -1.552  1.00  0.00    -0.274 N 
ATOM     14  C   UNL     1       1.207   0.077  -0.208  1.00  0.00     0.163 C 
BRANCH  13  15
ATOM     15  S   UNL     1       1.159   1.918  -2.217  1.00  0.00     0.231 S 
ATOM     16  C   UNL     1       0.253   3.044  -1.177  1.00  0.00     0.183 C 
ATOM     17  O   UNL     1       2.568   2.137  -1.947  1.00  0.00    -0.207 OA
ATOM     18  O   UNL     1       0.637   2.040  -3.559  1.00  0.00    -0.207 OA
ENDBRANCH  13  15
ENDBRANCH   8  13
ENDBRANCH   4   7
ENDBRANCH   2   3
ENDBRANCH   1   2
BRANCH   1  19
ATOM     19  C   UNL     1      -6.531  -4.463  -1.927  1.00  0.00     0.118 C 
BRANCH  19  20
ATOM     20  N   UNL     1      -6.610  -5.737  -1.227  1.00  0.00    -0.352 N 
ATOM     21  C   UNL     1      -7.591  -6.234  -0.407  1.00  0.00     0.251 C 
ATOM     22  H   UNL     1      -5.840  -6.335  -1.363  1.00  0.00     0.163 HD
ATOM     23  O   UNL     1      -7.341  -7.207   0.300  1.00  0.00    -0.269 OA
BRANCH  21  24
ATOM     24  C   UNL     1      -8.929  -5.604  -0.363  1.00  0.00     0.039 A 
ATOM     25  C   UNL     1      -9.590  -5.510   0.865  1.00  0.00     0.014 A 
ATOM     26  C   UNL     1      -9.554  -5.148  -1.527  1.00  0.00     0.014 A 
ATOM     27  C   UNL     1     -10.851  -4.912   0.932  1.00  0.00     0.010 A 
ATOM     28  C   UNL     1     -10.776  -4.483  -1.448  1.00  0.00     0.010 A 
ATOM     29  C   UNL     1     -11.441  -4.363  -0.218  1.00  0.00    -0.014 A 
BRANCH  29  30
ATOM     30  C   UNL     1     -12.749  -3.659  -0.149  1.00  0.00     0.031 A 
ATOM     31  C   UNL     1     -13.938  -4.196  -0.903  1.00  0.00     0.074 A 
ATOM     32  C   UNL     1     -12.847  -2.507   0.545  1.00  0.00     0.049 A 
ATOM     33  N   UNL     1     -15.137  -3.688  -1.023  1.00  0.00    -0.248 NA
ATOM     34  C   UNL     1     -13.747  -5.456  -1.640  1.00  0.00     0.031 C 
ATOM     35  C   UNL     1     -11.751  -1.872   1.282  1.00  0.00     0.029 A 
ATOM     36  N   UNL     1     -13.907  -1.655   0.738  1.00  0.00    -0.354 N 
ATOM     37  C   UNL     1     -15.835  -4.549  -1.863  1.00  0.00     0.074 A 
ATOM     38  C   UNL     1     -14.913  -5.592  -2.257  1.00  0.00     0.031 C 
ATOM     39  C   UNL     1     -12.200  -0.746   1.859  1.00  0.00     0.029 A 
ATOM     40  C   UNL     1     -13.597  -0.544   1.489  1.00  0.00     0.049 A 
ATOM     41  H   UNL     1     -14.805  -1.824   0.372  1.00  0.00     0.167 HD
ATOM     42  C   UNL     1     -17.130  -4.479  -2.258  1.00  0.00     0.034 A 
ATOM     43  C   UNL     1     -14.344   0.529   1.822  1.00  0.00     0.034 A 
ATOM     44  C   UNL     1     -18.041  -3.444  -1.835  1.00  0.00     0.049 A 
ATOM     45  C   UNL     1     -15.779   0.583   1.355  1.00  0.00     0.074 A 
ATOM     46  C   UNL     1     -19.393  -3.328  -2.108  1.00  0.00     0.029 A 
ATOM     47  N   UNL     1     -17.695  -2.341  -1.066  1.00  0.00    -0.354 N 
ATOM     48  N   UNL     1     -16.443  -0.285   0.625  1.00  0.00    -0.248 NA
ATOM     49  C   UNL     1     -16.570   1.749   1.768  1.00  0.00     0.031 C 
ATOM     50  C   UNL     1     -19.843  -2.114  -1.583  1.00  0.00     0.029 A 
ATOM     51  C   UNL     1     -18.798  -1.518  -0.895  1.00  0.00     0.049 A 
ATOM     52  H   UNL     1     -16.799  -2.169  -0.696  1.00  0.00     0.167 HD
ATOM     53  C   UNL     1     -17.739   0.217   0.526  1.00  0.00     0.074 A 
ATOM     54  C   UNL     1     -17.766   1.448   1.286  1.00  0.00     0.031 C 
ATOM     55  C   UNL     1     -18.811  -0.292  -0.133  1.00  0.00     0.034 A 
BRANCH  42  56
ATOM     56  C   UNL     1     -17.639  -5.524  -3.222  1.00  0.00     0.023 A 
ATOM     57  C   UNL     1     -17.736  -6.881  -2.872  1.00  0.00     0.031 A 
ATOM     58  C   UNL     1     -18.070  -5.142  -4.506  1.00  0.00     0.131 A 
ATOM     59  C   UNL     1     -18.212  -7.813  -3.809  1.00  0.00     0.055 A 
ATOM     60  C   UNL     1     -18.610  -6.061  -5.406  1.00  0.00     0.041 A 
ATOM     61  F   UNL     1     -17.979  -3.864  -4.904  1.00  0.00    -0.206 F 
ATOM     62  C   UNL     1     -18.676  -7.408  -5.062  1.00  0.00     0.022 A 
BRANCH  59  63
ATOM     63  S   UNL     1     -18.120  -9.578  -3.405  1.00  0.00     0.124 S 
ATOM     64  O   UNL     1     -16.684  -9.761  -3.205  1.00  0.00    -0.237 OA
ATOM     65  O   UNL     1     -18.948  -9.673  -2.208  1.00  0.00    -0.237 OA
ATOM     66  O   UNL     1     -18.664 -10.232  -4.593  1.00  0.00    -0.744 OA
ENDBRANCH  59  63
ENDBRANCH  42  56
BRANCH  43  67
ATOM     67  C   UNL     1     -13.757   1.661   2.601  1.00  0.00     0.023 A 
ATOM     68  C   UNL     1     -14.288   2.040   3.844  1.00  0.00     0.031 A 
ATOM     69  C   UNL     1     -12.709   2.437   2.073  1.00  0.00     0.131 A 
ATOM     70  C   UNL     1     -13.826   3.205   4.478  1.00  0.00     0.055 A 
ATOM     71  C   UNL     1     -12.202   3.551   2.743  1.00  0.00     0.041 A 
ATOM     72  F   UNL     1     -12.159   2.122   0.889  1.00  0.00    -0.206 F 
ATOM     73  C   UNL     1     -12.776   3.954   3.944  1.00  0.00     0.022 A 
BRANCH  70  74
ATOM     74  S   UNL     1     -14.718   3.808   5.939  1.00  0.00     0.124 S 
ATOM     75  O   UNL     1     -16.083   3.899   5.435  1.00  0.00    -0.237 OA
ATOM     76  O   UNL     1     -14.460   2.748   6.908  1.00  0.00    -0.237 OA
ATOM     77  O   UNL     1     -14.070   5.086   6.228  1.00  0.00    -0.744 OA
ENDBRANCH  70  74
ENDBRANCH  43  67
BRANCH  55  78
ATOM     78  C   UNL     1     -20.118   0.453  -0.006  1.00  0.00     0.023 A 
ATOM     79  C   UNL     1     -20.289   1.748  -0.524  1.00  0.00     0.031 A 
ATOM     80  C   UNL     1     -21.208  -0.145   0.651  1.00  0.00     0.131 A 
ATOM     81  C   UNL     1     -21.500   2.427  -0.322  1.00  0.00     0.055 A 
ATOM     82  C   UNL     1     -22.434   0.506   0.785  1.00  0.00     0.041 A 
ATOM     83  F   UNL     1     -21.101  -1.379   1.171  1.00  0.00    -0.206 F 
ATOM     84  C   UNL     1     -22.581   1.806   0.310  1.00  0.00     0.022 A 
BRANCH  81  85
ATOM     85  S   UNL     1     -21.611   4.172  -0.803  1.00  0.00     0.124 S 
ATOM     86  O   UNL     1     -20.531   4.769  -0.025  1.00  0.00    -0.237 OA
ATOM     87  O   UNL     1     -21.401   4.112  -2.246  1.00  0.00    -0.237 OA
ATOM     88  O   UNL     1     -22.960   4.556  -0.389  1.00  0.00    -0.744 OA
ENDBRANCH  81  85
ENDBRANCH  55  78
ENDBRANCH  29  30
ENDBRANCH  21  24
ENDBRANCH  19  20
ENDBRANCH   1  19
TORSDOF 15
