REMARK SMILES CCc1ccccc1NC(=O)CCCC(=O)NCCCNC(=O)c1ccc(-c2c3nc(c(-c4cc(S(=O)(=O)[O-])ccc4F)c4ccc([nH]4)c(-c4cc(S(=O)(=O)[O-])ccc4F)c4nc(c(-c5cc(S(=O)(=O)[O-])ccc5F)c5ccc2[nH]5)C=C4)C=C3)cc1
REMARK SMILES IDX 18 1 17 2 15 3 16 4 14 6 13 7 12 8 10 9 9 10 11 12 8 13 3 14
REMARK SMILES IDX 4 15 5 16 7 17 6 18 2 19 1 20 19 21 20 22 21 23 22 24 23 26
REMARK SMILES IDX 24 27 25 28 86 29 26 30 85 31 27 32 28 33 29 34 79 35 30 36
REMARK SMILES IDX 84 37 78 38 80 39 31 40 83 41 77 42 76 43 32 45 64 46 44 47
REMARK SMILES IDX 63 48 45 49 48 50 62 51 81 52 46 53 47 54 61 56 82 57 49 58
REMARK SMILES IDX 33 59 34 60 42 61 35 62 41 63 43 64 40 65 36 66 37 67 38 68
REMARK SMILES IDX 39 69 65 70 66 71 74 72 67 73 73 74 75 75 72 76 68 77 69 78
REMARK SMILES IDX 70 79 71 80 50 81 51 82 59 83 52 84 58 85 60 86 57 87 53 88
REMARK SMILES IDX 54 89 55 90 56 91
REMARK H PARENT 17 5 9 11 21 25 80 44 48 55
REMARK Flexibility Score: inf
ROOT
ATOM      1  C   UNL     1      -0.634   4.841  -4.105  1.00  0.00     0.117 C 
ENDROOT
BRANCH   1   2
ATOM      2  N   UNL     1       0.458   5.547  -4.763  1.00  0.00    -0.356 N 
ATOM      3  C   UNL     1       1.674   6.042  -4.442  1.00  0.00     0.220 C 
ATOM      4  O   UNL     1       2.300   6.516  -5.402  1.00  0.00    -0.275 OA
ATOM      5  H   UNL     1       0.252   5.709  -5.712  1.00  0.00     0.163 HD
BRANCH   3   6
ATOM      6  C   UNL     1       2.391   5.967  -3.092  1.00  0.00     0.100 C 
BRANCH   6   7
ATOM      7  C   UNL     1       1.812   6.533  -1.800  1.00  0.00     0.020 C 
BRANCH   7   8
ATOM      8  C   UNL     1       0.541   5.992  -1.161  1.00  0.00     0.101 C 
BRANCH   8   9
ATOM      9  C   UNL     1       0.553   4.915  -0.080  1.00  0.00     0.224 C 
ATOM     10  N   UNL     1       0.694   3.571  -0.185  1.00  0.00    -0.326 N 
ATOM     11  H   UNL     1       0.475   3.147   0.676  1.00  0.00     0.169 HD
ATOM     12  O   UNL     1       0.317   5.287   1.085  1.00  0.00    -0.275 OA
BRANCH  10  13
ATOM     13  C   UNL     1       1.052   2.580  -1.123  1.00  0.00     0.044 A 
ATOM     14  C   UNL     1       1.084   1.218  -0.731  1.00  0.00    -0.025 A 
ATOM     15  C   UNL     1       1.542   0.247  -1.654  1.00  0.00     0.006 A 
ATOM     16  C   UNL     1       1.940   0.592  -2.943  1.00  0.00     0.000 A 
ATOM     17  C   UNL     1       1.426   2.871  -2.420  1.00  0.00     0.026 A 
ATOM     18  C   UNL     1       1.867   1.912  -3.334  1.00  0.00     0.002 A 
BRANCH  14  19
ATOM     19  C   UNL     1       0.600   0.794   0.645  1.00  0.00     0.034 C 
ATOM     20  C   UNL     1       0.745  -0.677   1.014  1.00  0.00     0.009 C 
ENDBRANCH  14  19
ENDBRANCH  10  13
ENDBRANCH   8   9
ENDBRANCH   7   8
ENDBRANCH   6   7
ENDBRANCH   3   6
ENDBRANCH   1   2
BRANCH   1  21
ATOM     21  C   UNL     1      -1.893   5.694  -4.029  1.00  0.00     0.042 C 
BRANCH  21  22
ATOM     22  C   UNL     1      -2.956   5.211  -4.997  1.00  0.00     0.118 C 
BRANCH  22  23
ATOM     23  N   UNL     1      -3.702   4.060  -4.493  1.00  0.00    -0.352 N 
ATOM     24  C   UNL     1      -5.072   3.877  -4.469  1.00  0.00     0.251 C 
ATOM     25  H   UNL     1      -3.162   3.323  -4.126  1.00  0.00     0.163 HD
ATOM     26  O   UNL     1      -5.563   2.916  -3.897  1.00  0.00    -0.269 OA
BRANCH  24  27
ATOM     27  C   UNL     1      -5.927   4.906  -5.104  1.00  0.00     0.039 A 
ATOM     28  C   UNL     1      -6.957   5.491  -4.365  1.00  0.00     0.014 A 
ATOM     29  C   UNL     1      -5.607   5.385  -6.375  1.00  0.00     0.014 A 
ATOM     30  C   UNL     1      -7.584   6.640  -4.856  1.00  0.00     0.010 A 
ATOM     31  C   UNL     1      -6.152   6.588  -6.806  1.00  0.00     0.010 A 
ATOM     32  C   UNL     1      -7.135   7.241  -6.045  1.00  0.00    -0.014 A 
BRANCH  32  33
ATOM     33  C   UNL     1      -7.645   8.563  -6.502  1.00  0.00     0.031 A 
ATOM     34  C   UNL     1      -8.269   8.692  -7.867  1.00  0.00     0.074 A 
ATOM     35  C   UNL     1      -7.446   9.661  -5.741  1.00  0.00     0.049 A 
ATOM     36  N   UNL     1      -8.637   9.769  -8.510  1.00  0.00    -0.248 NA
ATOM     37  C   UNL     1      -8.460   7.446  -8.628  1.00  0.00     0.031 C 
ATOM     38  C   UNL     1      -6.790   9.679  -4.429  1.00  0.00     0.029 A 
ATOM     39  N   UNL     1      -7.757  10.980  -5.965  1.00  0.00    -0.354 N 
ATOM     40  C   UNL     1      -9.066   9.336  -9.760  1.00  0.00     0.074 A 
ATOM     41  C   UNL     1      -8.861   7.905  -9.804  1.00  0.00     0.031 C 
ATOM     42  C   UNL     1      -6.775  10.936  -3.957  1.00  0.00     0.029 A 
ATOM     43  C   UNL     1      -7.368  11.826  -4.949  1.00  0.00     0.049 A 
ATOM     44  H   UNL     1      -8.217  11.293  -6.777  1.00  0.00     0.167 HD
ATOM     45  C   UNL     1      -9.605  10.062 -10.770  1.00  0.00     0.034 A 
ATOM     46  C   UNL     1      -7.461  13.167  -4.836  1.00  0.00     0.034 A 
ATOM     47  C   UNL     1      -9.858  11.477 -10.690  1.00  0.00     0.049 A 
ATOM     48  C   UNL     1      -8.086  13.946  -5.968  1.00  0.00     0.074 A 
ATOM     49  C   UNL     1     -10.503  12.289 -11.607  1.00  0.00     0.029 A 
ATOM     50  N   UNL     1      -9.479  12.293  -9.633  1.00  0.00    -0.354 N 
ATOM     51  N   UNL     1      -8.561  13.504  -7.110  1.00  0.00    -0.248 NA
ATOM     52  C   UNL     1      -8.192  15.401  -5.795  1.00  0.00     0.031 C 
ATOM     53  C   UNL     1     -10.460  13.604 -11.134  1.00  0.00     0.029 A 
ATOM     54  C   UNL     1      -9.845  13.604  -9.892  1.00  0.00     0.049 A 
ATOM     55  H   UNL     1      -9.017  11.986  -8.820  1.00  0.00     0.167 HD
ATOM     56  C   UNL     1      -9.041  14.627  -7.779  1.00  0.00     0.074 A 
ATOM     57  C   UNL     1      -8.823  15.758  -6.902  1.00  0.00     0.031 C 
ATOM     58  C   UNL     1      -9.610  14.719  -9.007  1.00  0.00     0.034 A 
BRANCH  45  59
ATOM     59  C   UNL     1      -9.950   9.339 -12.047  1.00  0.00     0.023 A 
ATOM     60  C   UNL     1     -10.948   8.350 -12.092  1.00  0.00     0.031 A 
ATOM     61  C   UNL     1      -9.272   9.647 -13.240  1.00  0.00     0.131 A 
ATOM     62  C   UNL     1     -11.196   7.661 -13.288  1.00  0.00     0.055 A 
ATOM     63  C   UNL     1      -9.575   9.009 -14.444  1.00  0.00     0.041 A 
ATOM     64  F   UNL     1      -8.297  10.569 -13.253  1.00  0.00    -0.206 F 
ATOM     65  C   UNL     1     -10.535   8.001 -14.471  1.00  0.00     0.022 A 
BRANCH  62  66
ATOM     66  S   UNL     1     -12.321   6.239 -13.252  1.00  0.00     0.124 S 
ATOM     67  O   UNL     1     -11.617   5.332 -12.348  1.00  0.00    -0.237 OA
ATOM     68  O   UNL     1     -13.553   6.823 -12.737  1.00  0.00    -0.237 OA
ATOM     69  O   UNL     1     -12.371   5.806 -14.646  1.00  0.00    -0.744 OA
ENDBRANCH  62  66
ENDBRANCH  45  59
BRANCH  46  70
ATOM     70  C   UNL     1      -6.937  13.878  -3.632  1.00  0.00     0.023 A 
ATOM     71  C   UNL     1      -7.796  14.607  -2.794  1.00  0.00     0.031 A 
ATOM     72  C   UNL     1      -5.561  13.904  -3.343  1.00  0.00     0.131 A 
ATOM     73  C   UNL     1      -7.268  15.381  -1.749  1.00  0.00     0.055 A 
ATOM     74  C   UNL     1      -5.046  14.628  -2.266  1.00  0.00     0.041 A 
ATOM     75  F   UNL     1      -4.693  13.223  -4.108  1.00  0.00    -0.206 F 
ATOM     76  C   UNL     1      -5.899  15.388  -1.472  1.00  0.00     0.022 A 
BRANCH  73  77
ATOM     77  S   UNL     1      -8.386  16.475  -0.829  1.00  0.00     0.124 S 
ATOM     78  O   UNL     1      -8.989  17.256  -1.903  1.00  0.00    -0.237 OA
ATOM     79  O   UNL     1      -9.262  15.518  -0.162  1.00  0.00    -0.237 OA
ATOM     80  O   UNL     1      -7.487  17.216   0.053  1.00  0.00    -0.744 OA
ENDBRANCH  73  77
ENDBRANCH  46  70
BRANCH  58  81
ATOM     81  C   UNL     1     -10.058  16.087  -9.451  1.00  0.00     0.023 A 
ATOM     82  C   UNL     1      -9.132  17.105  -9.736  1.00  0.00     0.031 A 
ATOM     83  C   UNL     1     -11.427  16.378  -9.580  1.00  0.00     0.131 A 
ATOM     84  C   UNL     1      -9.588  18.383 -10.088  1.00  0.00     0.055 A 
ATOM     85  C   UNL     1     -11.873  17.636  -9.987  1.00  0.00     0.041 A 
ATOM     86  F   UNL     1     -12.352  15.441  -9.319  1.00  0.00    -0.206 F 
ATOM     87  C   UNL     1     -10.952  18.651 -10.231  1.00  0.00     0.022 A 
BRANCH  84  88
ATOM     88  S   UNL     1      -8.374  19.717 -10.281  1.00  0.00     0.124 S 
ATOM     89  O   UNL     1      -7.769  19.770  -8.954  1.00  0.00    -0.237 OA
ATOM     90  O   UNL     1      -7.520  19.211 -11.350  1.00  0.00    -0.237 OA
ATOM     91  O   UNL     1      -9.191  20.875 -10.637  1.00  0.00    -0.744 OA
ENDBRANCH  84  88
ENDBRANCH  58  81
ENDBRANCH  32  33
ENDBRANCH  24  27
ENDBRANCH  22  23
ENDBRANCH  21  22
ENDBRANCH   1  21
TORSDOF 18
