REMARK SMILES O=C(NCCCNC(=O)[C@@H]1C=C[C@@H](NC(=O)c2ccc3ncccc3c2)C1)c1ccc(-c2c3nc(c(-c4cc(S(=O)(=O)[O-])ccc4F)c4ccc([nH]4)c(-c4cc(S(=O)(=O)[O-])ccc4F)c4nc(c(-c5cc(S(=O)(=O)[O-])ccc5F)c5ccc2[nH]5)C=C4)C=C3)cc1
REMARK SMILES IDX 4 1 3 2 1 3 2 4 28 6 29 7 90 8 30 9 89 10 31 11 32 12 33 13
REMARK SMILES IDX 83 14 34 15 88 16 82 17 84 18 35 19 87 20 81 21 80 22 36 24
REMARK SMILES IDX 68 25 48 26 67 27 49 28 52 29 66 30 85 31 50 32 51 33 65 35
REMARK SMILES IDX 86 36 53 37 37 38 38 39 46 40 39 41 45 42 47 43 44 44 40 45
REMARK SMILES IDX 41 46 42 47 43 48 69 49 70 50 78 51 71 52 77 53 79 54 76 55
REMARK SMILES IDX 72 56 73 57 74 58 75 59 54 60 55 61 63 62 56 63 62 64 64 65
REMARK SMILES IDX 61 66 57 67 58 68 59 69 60 70 5 71 6 72 7 73 8 74 9 76 10 77
REMARK SMILES IDX 11 78 27 79 12 80 13 81 14 82 15 83 16 85 17 86 18 87 26 88
REMARK SMILES IDX 19 89 25 90 20 91 24 92 21 93 23 94 22 95
REMARK H PARENT 3 5 84 23 52 34 7 75 14 84
REMARK Flexibility Score: inf
ROOT
ATOM      1  C   UNL     1       7.249   1.297  -0.981  1.00  0.00     0.118 C 
ENDROOT
BRANCH   1   2
ATOM      2  N   UNL     1       8.484   0.996  -1.696  1.00  0.00    -0.352 N 
ATOM      3  O   UNL     1      10.350  -0.139  -2.236  1.00  0.00    -0.269 OA
ATOM      4  C   UNL     1       9.235  -0.154  -1.718  1.00  0.00     0.251 C 
ATOM      5  H   UNL     1       8.833   1.732  -2.250  1.00  0.00     0.163 HD
BRANCH   4   6
ATOM      6  C   UNL     1       8.713  -1.397  -1.110  1.00  0.00     0.039 A 
ATOM      7  C   UNL     1       7.377  -1.761  -1.278  1.00  0.00     0.014 A 
ATOM      8  C   UNL     1       9.574  -2.224  -0.382  1.00  0.00     0.014 A 
ATOM      9  C   UNL     1       6.862  -2.847  -0.584  1.00  0.00     0.010 A 
ATOM     10  C   UNL     1       9.078  -3.385   0.223  1.00  0.00     0.010 A 
ATOM     11  C   UNL     1       7.711  -3.691   0.148  1.00  0.00    -0.014 A 
BRANCH  11  12
ATOM     12  C   UNL     1       7.148  -4.931   0.741  1.00  0.00     0.031 A 
ATOM     13  C   UNL     1       7.134  -5.152   2.228  1.00  0.00     0.074 A 
ATOM     14  C   UNL     1       6.611  -5.846  -0.092  1.00  0.00     0.049 A 
ATOM     15  N   UNL     1       6.668  -6.173   2.901  1.00  0.00    -0.248 NA
ATOM     16  C   UNL     1       7.723  -4.099   3.068  1.00  0.00     0.031 C 
ATOM     17  C   UNL     1       6.577  -5.733  -1.555  1.00  0.00     0.029 A 
ATOM     18  N   UNL     1       5.974  -7.034   0.158  1.00  0.00    -0.354 N 
ATOM     19  C   UNL     1       6.924  -5.899   4.240  1.00  0.00     0.074 A 
ATOM     20  C   UNL     1       7.607  -4.623   4.282  1.00  0.00     0.031 C 
ATOM     21  C   UNL     1       5.910  -6.777  -2.064  1.00  0.00     0.029 A 
ATOM     22  C   UNL     1       5.541  -7.676  -0.980  1.00  0.00     0.049 A 
ATOM     23  H   UNL     1       5.839  -7.393   1.065  1.00  0.00     0.167 HD
ATOM     24  C   UNL     1       6.612  -6.646   5.329  1.00  0.00     0.034 A 
ATOM     25  C   UNL     1       4.942  -8.871  -1.139  1.00  0.00     0.034 A 
ATOM     26  C   UNL     1       5.920  -7.912   5.264  1.00  0.00     0.049 A 
ATOM     27  C   UNL     1       4.642  -9.690   0.086  1.00  0.00     0.074 A 
ATOM     28  C   UNL     1       5.517  -8.727   6.308  1.00  0.00     0.029 A 
ATOM     29  N   UNL     1       5.536  -8.553   4.093  1.00  0.00    -0.354 N 
ATOM     30  N   UNL     1       4.869  -9.401   1.347  1.00  0.00    -0.248 NA
ATOM     31  C   UNL     1       4.005 -10.994  -0.131  1.00  0.00     0.031 C 
ATOM     32  C   UNL     1       4.954  -9.889   5.768  1.00  0.00     0.029 A 
ATOM     33  C   UNL     1       4.935  -9.768   4.388  1.00  0.00     0.049 A 
ATOM     34  H   UNL     1       5.670  -8.197   3.185  1.00  0.00     0.167 HD
ATOM     35  C   UNL     1       4.386 -10.483   2.074  1.00  0.00     0.074 A 
ATOM     36  C   UNL     1       3.830 -11.414   1.113  1.00  0.00     0.031 C 
ATOM     37  C   UNL     1       4.402 -10.692   3.415  1.00  0.00     0.034 A 
BRANCH  24  38
ATOM     38  C   UNL     1       7.056  -6.143   6.681  1.00  0.00     0.023 A 
ATOM     39  C   UNL     1       6.518  -4.979   7.258  1.00  0.00     0.031 A 
ATOM     40  C   UNL     1       8.022  -6.856   7.415  1.00  0.00     0.131 A 
ATOM     41  C   UNL     1       6.980  -4.540   8.509  1.00  0.00     0.055 A 
ATOM     42  C   UNL     1       8.430  -6.450   8.687  1.00  0.00     0.041 A 
ATOM     43  F   UNL     1       8.585  -7.963   6.906  1.00  0.00    -0.206 F 
ATOM     44  C   UNL     1       7.914  -5.281   9.238  1.00  0.00     0.022 A 
BRANCH  41  45
ATOM     45  S   UNL     1       6.416  -2.932   9.130  1.00  0.00     0.124 S 
ATOM     46  O   UNL     1       6.888  -2.028   8.084  1.00  0.00    -0.237 OA
ATOM     47  O   UNL     1       4.971  -3.113   9.213  1.00  0.00    -0.237 OA
ATOM     48  O   UNL     1       7.102  -2.800  10.414  1.00  0.00    -0.744 OA
ENDBRANCH  41  45
ENDBRANCH  24  38
BRANCH  25  49
ATOM     49  C   UNL     1       4.635  -9.386  -2.504  1.00  0.00     0.023 A 
ATOM     50  C   UNL     1       3.316  -9.655  -2.899  1.00  0.00     0.031 A 
ATOM     51  C   UNL     1       5.667  -9.661  -3.421  1.00  0.00     0.131 A 
ATOM     52  C   UNL     1       3.067 -10.229  -4.155  1.00  0.00     0.055 A 
ATOM     53  C   UNL     1       5.409 -10.172  -4.693  1.00  0.00     0.041 A 
ATOM     54  F   UNL     1       6.947  -9.421  -3.096  1.00  0.00    -0.206 F 
ATOM     55  C   UNL     1       4.102 -10.476  -5.060  1.00  0.00     0.022 A 
BRANCH  52  56
ATOM     56  S   UNL     1       1.376 -10.752  -4.548  1.00  0.00     0.124 S 
ATOM     57  O   UNL     1       1.065 -11.625  -3.421  1.00  0.00    -0.237 OA
ATOM     58  O   UNL     1       0.668  -9.477  -4.587  1.00  0.00    -0.237 OA
ATOM     59  O   UNL     1       1.519 -11.425  -5.837  1.00  0.00    -0.744 OA
ENDBRANCH  52  56
ENDBRANCH  25  49
BRANCH  37  60
ATOM     60  C   UNL     1       3.767 -11.968   3.905  1.00  0.00     0.023 A 
ATOM     61  C   UNL     1       4.323 -13.226   3.615  1.00  0.00     0.031 A 
ATOM     62  C   UNL     1       2.571 -11.926   4.643  1.00  0.00     0.131 A 
ATOM     63  C   UNL     1       3.650 -14.393   4.004  1.00  0.00     0.055 A 
ATOM     64  C   UNL     1       1.938 -13.089   5.081  1.00  0.00     0.041 A 
ATOM     65  F   UNL     1       1.995 -10.751   4.945  1.00  0.00    -0.206 F 
ATOM     66  C   UNL     1       2.470 -14.332   4.749  1.00  0.00     0.022 A 
BRANCH  63  67
ATOM     67  S   UNL     1       4.287 -15.993   3.436  1.00  0.00     0.124 S 
ATOM     68  O   UNL     1       4.243 -15.840   1.986  1.00  0.00    -0.237 OA
ATOM     69  O   UNL     1       5.618 -16.029   4.033  1.00  0.00    -0.237 OA
ATOM     70  O   UNL     1       3.335 -16.956   3.988  1.00  0.00    -0.744 OA
ENDBRANCH  63  67
ENDBRANCH  37  60
ENDBRANCH  11  12
ENDBRANCH   4   6
ENDBRANCH   1   2
BRANCH   1  71
ATOM     71  C   UNL     1       7.450   2.303   0.141  1.00  0.00     0.042 C 
BRANCH  71  72
ATOM     72  C   UNL     1       7.873   3.677  -0.344  1.00  0.00     0.117 C 
BRANCH  72  73
ATOM     73  N   UNL     1       6.873   4.297  -1.199  1.00  0.00    -0.356 N 
ATOM     74  C   UNL     1       6.125   5.418  -0.981  1.00  0.00     0.227 C 
ATOM     75  H   UNL     1       6.714   3.843  -2.058  1.00  0.00     0.163 HD
ATOM     76  O   UNL     1       5.314   5.751  -1.846  1.00  0.00    -0.274 OA
BRANCH  74  77
ATOM     77  C   UNL     1       6.335   6.195   0.322  1.00  0.00     0.103 C 
ATOM     78  C   UNL     1       5.451   7.408   0.419  1.00  0.00    -0.016 C 
ATOM     79  C   UNL     1       7.733   6.831   0.383  1.00  0.00     0.047 C 
ATOM     80  C   UNL     1       6.127   8.539   0.179  1.00  0.00    -0.006 C 
ATOM     81  C   UNL     1       7.551   8.251  -0.148  1.00  0.00     0.106 C 
BRANCH  81  82
ATOM     82  N   UNL     1       8.411   9.188   0.534  1.00  0.00    -0.346 N 
ATOM     83  C   UNL     1       9.510   9.849   0.047  1.00  0.00     0.251 C 
ATOM     84  H   UNL     1       8.179   9.378   1.472  1.00  0.00     0.164 HD
ATOM     85  O   UNL     1      10.307  10.380   0.814  1.00  0.00    -0.269 OA
BRANCH  83  86
ATOM     86  C   UNL     1       9.750   9.921  -1.412  1.00  0.00     0.040 A 
ATOM     87  C   UNL     1       8.732  10.283  -2.295  1.00  0.00     0.016 A 
ATOM     88  C   UNL     1      11.035   9.676  -1.900  1.00  0.00     0.024 A 
ATOM     89  C   UNL     1       8.984  10.316  -3.669  1.00  0.00     0.030 A 
ATOM     90  C   UNL     1      11.285   9.732  -3.283  1.00  0.00     0.001 A 
ATOM     91  C   UNL     1      10.242  10.041  -4.185  1.00  0.00     0.070 A 
ATOM     92  C   UNL     1      12.557   9.484  -3.814  1.00  0.00     0.012 A 
ATOM     93  N   UNL     1      10.428  10.085  -5.515  1.00  0.00    -0.256 NA
ATOM     94  C   UNL     1      12.753   9.530  -5.189  1.00  0.00     0.021 A 
ATOM     95  C   UNL     1      11.665   9.825  -5.989  1.00  0.00     0.112 A 
ENDBRANCH  83  86
ENDBRANCH  81  82
ENDBRANCH  74  77
ENDBRANCH  72  73
ENDBRANCH  71  72
ENDBRANCH   1  71
TORSDOF 15
