REMARK SMILES O=C(Cc1ccc(S(=O)(=O)N2CCNC(=O)C2)cc1)NCCCNC(=O)c1ccc(-c2c3nc(c(-c4cc(S(=O)(=O)[O-])ccc4F)c4ccc([nH]4)c(-c4cc(S(=O)(=O)[O-])ccc4F)c4nc(c(-c5cc(S(=O)(=O)[O-])ccc5F)c5ccc2[nH]5)C=C4)C=C3)cc1
REMARK SMILES IDX 22 1 21 2 20 3 1 4 2 5 3 7 4 8 5 9 19 10 6 11 18 12 7 13
REMARK SMILES IDX 8 14 9 15 10 16 11 17 12 18 17 19 13 20 15 21 14 22 16 23
REMARK SMILES IDX 23 25 24 26 25 27 26 29 27 30 28 31 89 32 29 33 88 34 30 35
REMARK SMILES IDX 31 36 32 37 82 38 33 39 87 40 81 41 83 42 34 43 86 44 80 45
REMARK SMILES IDX 79 46 35 48 67 49 47 50 66 51 48 52 51 53 65 54 84 55 49 56
REMARK SMILES IDX 50 57 64 59 85 60 52 61 36 62 37 63 45 64 38 65 44 66 46 67
REMARK SMILES IDX 43 68 39 69 40 70 41 71 42 72 68 73 69 74 77 75 70 76 76 77
REMARK SMILES IDX 78 78 75 79 71 80 72 81 73 82 74 83 53 84 54 85 62 86 55 87
REMARK SMILES IDX 61 88 63 89 60 90 56 91 57 92 58 93 59 94
REMARK H PARENT 20 6 14 24 24 28 83 47 51 58
REMARK Flexibility Score: inf
ROOT
ATOM      1  C   UNL     1       2.516   2.320  -2.581  1.00  0.00     0.042 C 
ENDROOT
BRANCH   1   2
ATOM      2  C   UNL     1       2.198   0.848  -2.338  1.00  0.00     0.117 C 
BRANCH   2   3
ATOM      3  N   UNL     1       2.733   0.361  -1.080  1.00  0.00    -0.356 N 
ATOM      4  O   UNL     1       0.703  -0.130  -0.115  1.00  0.00    -0.275 OA
ATOM      5  C   UNL     1       1.929  -0.114  -0.063  1.00  0.00     0.224 C 
ATOM      6  H   UNL     1       3.708   0.369  -0.947  1.00  0.00     0.163 HD
BRANCH   5   7
ATOM      7  C   UNL     1       2.686  -0.591   1.166  1.00  0.00     0.135 C 
BRANCH   7   8
ATOM      8  C   UNL     1       3.630  -1.736   0.877  1.00  0.00    -0.039 A 
ATOM      9  C   UNL     1       3.138  -2.966   0.417  1.00  0.00     0.005 A 
ATOM     10  C   UNL     1       5.008  -1.585   1.070  1.00  0.00     0.005 A 
ATOM     11  C   UNL     1       4.016  -4.005   0.099  1.00  0.00     0.022 A 
ATOM     12  C   UNL     1       5.884  -2.636   0.788  1.00  0.00     0.022 A 
ATOM     13  C   UNL     1       5.395  -3.833   0.266  1.00  0.00     0.082 A 
BRANCH  13  14
ATOM     14  S   UNL     1       6.475  -5.176  -0.188  1.00  0.00     0.243 S 
ATOM     15  O   UNL     1       6.853  -5.832   1.046  1.00  0.00    -0.207 OA
ATOM     16  O   UNL     1       5.802  -5.905  -1.244  1.00  0.00    -0.207 OA
BRANCH  14  17
ATOM     17  N   UNL     1       7.852  -4.507  -0.874  1.00  0.00    -0.187 NA
ATOM     18  C   UNL     1       7.837  -3.947  -2.240  1.00  0.00     0.124 C 
ATOM     19  C   UNL     1       8.939  -3.990  -0.021  1.00  0.00     0.202 C 
ATOM     20  C   UNL     1       7.778  -2.422  -2.194  1.00  0.00     0.132 C 
ATOM     21  C   UNL     1       9.223  -2.500  -0.161  1.00  0.00     0.235 C 
ATOM     22  N   UNL     1       8.714  -1.842  -1.249  1.00  0.00    -0.354 N 
ATOM     23  O   UNL     1       9.902  -1.886   0.660  1.00  0.00    -0.274 OA
ATOM     24  H   UNL     1       9.003  -0.913  -1.401  1.00  0.00     0.163 HD
ENDBRANCH  14  17
ENDBRANCH  13  14
ENDBRANCH   7   8
ENDBRANCH   5   7
ENDBRANCH   2   3
ENDBRANCH   1   2
BRANCH   1  25
ATOM     25  C   UNL     1       4.000   2.634  -2.765  1.00  0.00     0.118 C 
BRANCH  25  26
ATOM     26  N   UNL     1       4.575   2.014  -3.950  1.00  0.00    -0.352 N 
ATOM     27  C   UNL     1       5.228   2.570  -5.026  1.00  0.00     0.251 C 
ATOM     28  H   UNL     1       4.481   1.035  -3.988  1.00  0.00     0.163 HD
ATOM     29  O   UNL     1       5.508   1.848  -5.980  1.00  0.00    -0.269 OA
BRANCH  27  30
ATOM     30  C   UNL     1       5.570   4.012  -5.061  1.00  0.00     0.039 A 
ATOM     31  C   UNL     1       5.390   4.713  -6.258  1.00  0.00     0.014 A 
ATOM     32  C   UNL     1       6.096   4.672  -3.948  1.00  0.00     0.014 A 
ATOM     33  C   UNL     1       5.665   6.084  -6.317  1.00  0.00     0.010 A 
ATOM     34  C   UNL     1       6.307   6.052  -3.989  1.00  0.00     0.010 A 
ATOM     35  C   UNL     1       6.087   6.776  -5.171  1.00  0.00    -0.014 A 
BRANCH  35  36
ATOM     36  C   UNL     1       6.287   8.252  -5.187  1.00  0.00     0.031 A 
ATOM     37  C   UNL     1       7.652   8.840  -4.944  1.00  0.00     0.074 A 
ATOM     38  C   UNL     1       5.227   9.067  -5.356  1.00  0.00     0.049 A 
ATOM     39  N   UNL     1       8.005  10.095  -4.830  1.00  0.00    -0.248 NA
ATOM     40  C   UNL     1       8.759   7.888  -4.780  1.00  0.00     0.031 C 
ATOM     41  C   UNL     1       3.847   8.625  -5.569  1.00  0.00     0.029 A 
ATOM     42  N   UNL     1       5.138  10.438  -5.363  1.00  0.00    -0.354 N 
ATOM     43  C   UNL     1       9.372  10.086  -4.570  1.00  0.00     0.074 A 
ATOM     44  C   UNL     1       9.768   8.695  -4.487  1.00  0.00     0.031 C 
ATOM     45  C   UNL     1       3.055   9.700  -5.703  1.00  0.00     0.029 A 
ATOM     46  C   UNL     1       3.856  10.909  -5.538  1.00  0.00     0.049 A 
ATOM     47  H   UNL     1       5.918  11.028  -5.254  1.00  0.00     0.167 HD
ATOM     48  C   UNL     1      10.220  11.136  -4.433  1.00  0.00     0.034 A 
ATOM     49  C   UNL     1       3.375  12.168  -5.545  1.00  0.00     0.034 A 
ATOM     50  C   UNL     1       9.814  12.518  -4.529  1.00  0.00     0.049 A 
ATOM     51  C   UNL     1       4.330  13.319  -5.353  1.00  0.00     0.074 A 
ATOM     52  C   UNL     1      10.602  13.655  -4.466  1.00  0.00     0.029 A 
ATOM     53  N   UNL     1       8.506  12.956  -4.698  1.00  0.00    -0.354 N 
ATOM     54  N   UNL     1       5.628  13.291  -5.157  1.00  0.00    -0.248 NA
ATOM     55  C   UNL     1       3.756  14.671  -5.392  1.00  0.00     0.031 C 
ATOM     56  C   UNL     1       9.767  14.776  -4.525  1.00  0.00     0.029 A 
ATOM     57  C   UNL     1       8.463  14.343  -4.703  1.00  0.00     0.049 A 
ATOM     58  H   UNL     1       7.723  12.367  -4.798  1.00  0.00     0.167 HD
ATOM     59  C   UNL     1       6.027  14.623  -5.076  1.00  0.00     0.074 A 
ATOM     60  C   UNL     1       4.836  15.426  -5.262  1.00  0.00     0.031 C 
ATOM     61  C   UNL     1       7.268  15.136  -4.872  1.00  0.00     0.034 A 
BRANCH  48  62
ATOM     62  C   UNL     1      11.669  10.826  -4.138  1.00  0.00     0.023 A 
ATOM     63  C   UNL     1      12.471  10.112  -5.046  1.00  0.00     0.031 A 
ATOM     64  C   UNL     1      12.253  11.229  -2.924  1.00  0.00     0.131 A 
ATOM     65  C   UNL     1      13.781   9.755  -4.694  1.00  0.00     0.055 A 
ATOM     66  C   UNL     1      13.585  10.944  -2.615  1.00  0.00     0.041 A 
ATOM     67  F   UNL     1      11.533  11.897  -2.008  1.00  0.00    -0.206 F 
ATOM     68  C   UNL     1      14.353  10.188  -3.496  1.00  0.00     0.022 A 
BRANCH  65  69
ATOM     69  S   UNL     1      14.675   8.590  -5.759  1.00  0.00     0.124 S 
ATOM     70  O   UNL     1      13.783   7.433  -5.743  1.00  0.00    -0.237 OA
ATOM     71  O   UNL     1      14.757   9.315  -7.021  1.00  0.00    -0.237 OA
ATOM     72  O   UNL     1      15.946   8.396  -5.065  1.00  0.00    -0.744 OA
ENDBRANCH  65  69
ENDBRANCH  48  62
BRANCH  49  73
ATOM     73  C   UNL     1       1.915  12.418  -5.720  1.00  0.00     0.023 A 
ATOM     74  C   UNL     1       1.428  13.100  -6.846  1.00  0.00     0.031 A 
ATOM     75  C   UNL     1       0.989  12.017  -4.740  1.00  0.00     0.131 A 
ATOM     76  C   UNL     1       0.061  13.402  -6.943  1.00  0.00     0.055 A 
ATOM     77  C   UNL     1      -0.377  12.273  -4.867  1.00  0.00     0.041 A 
ATOM     78  F   UNL     1       1.402  11.358  -3.645  1.00  0.00    -0.206 F 
ATOM     79  C   UNL     1      -0.847  12.981  -5.968  1.00  0.00     0.022 A 
BRANCH  76  80
ATOM     80  S   UNL     1      -0.504  14.431  -8.326  1.00  0.00     0.124 S 
ATOM     81  O   UNL     1       0.291  15.639  -8.141  1.00  0.00    -0.237 OA
ATOM     82  O   UNL     1      -0.158  13.604  -9.478  1.00  0.00    -0.237 OA
ATOM     83  O   UNL     1      -1.936  14.580  -8.076  1.00  0.00    -0.744 OA
ENDBRANCH  76  80
ENDBRANCH  49  73
BRANCH  61  84
ATOM     84  C   UNL     1       7.398  16.640  -4.879  1.00  0.00     0.023 A 
ATOM     85  C   UNL     1       6.825  17.437  -3.873  1.00  0.00     0.031 A 
ATOM     86  C   UNL     1       8.098  17.284  -5.914  1.00  0.00     0.131 A 
ATOM     87  C   UNL     1       6.915  18.835  -3.952  1.00  0.00     0.055 A 
ATOM     88  C   UNL     1       8.235  18.672  -5.956  1.00  0.00     0.041 A 
ATOM     89  F   UNL     1       8.663  16.573  -6.903  1.00  0.00    -0.206 F 
ATOM     90  C   UNL     1       7.631  19.457  -4.978  1.00  0.00     0.022 A 
BRANCH  87  91
ATOM     91  S   UNL     1       6.011  19.838  -2.740  1.00  0.00     0.124 S 
ATOM     92  O   UNL     1       4.633  19.410  -2.961  1.00  0.00    -0.237 OA
ATOM     93  O   UNL     1       6.613  19.421  -1.478  1.00  0.00    -0.237 OA
ATOM     94  O   UNL     1       6.306  21.212  -3.143  1.00  0.00    -0.744 OA
ENDBRANCH  87  91
ENDBRANCH  61  84
ENDBRANCH  35  36
ENDBRANCH  27  30
ENDBRANCH  25  26
ENDBRANCH   1  25
TORSDOF 16
