REMARK SMILES O=C(Cc1cncnc1N1CCC2(CC1)OCCC[C@@H]2O)NCCCNC(=O)c1ccc(-c2c3nc(c(-c4cc(S(=O)(=O)[O-])ccc4F)c4ccc([nH]4)c(-c4cc(S(=O)(=O)[O-])ccc4F)c4nc(c(-c5cc(S(=O)(=O)[O-])ccc5F)c5ccc2[nH]5)C=C4)C=C3)cc1
REMARK SMILES IDX 24 1 23 2 22 3 1 4 2 5 3 7 4 8 5 9 9 10 6 11 8 12 7 13 10 14
REMARK SMILES IDX 11 15 15 16 12 17 14 18 13 19 16 20 20 21 17 22 19 23 18 24
REMARK SMILES IDX 21 25 25 27 26 28 27 29 28 31 29 32 30 33 91 34 31 35 90 36
REMARK SMILES IDX 32 37 33 38 34 39 84 40 35 41 89 42 83 43 85 44 36 45 88 46
REMARK SMILES IDX 82 47 81 48 37 50 69 51 49 52 68 53 50 54 53 55 67 56 86 57
REMARK SMILES IDX 51 58 52 59 66 61 87 62 54 63 38 64 39 65 47 66 40 67 46 68
REMARK SMILES IDX 48 69 45 70 41 71 42 72 43 73 44 74 70 75 71 76 79 77 72 78
REMARK SMILES IDX 78 79 80 80 77 81 73 82 74 83 75 84 76 85 55 86 56 87 64 88
REMARK SMILES IDX 57 89 63 90 65 91 62 92 58 93 59 94 60 95 61 96
REMARK H PARENT 22 6 21 26 26 30 85 49 53 60
REMARK Flexibility Score: inf
ROOT
ATOM      1  C   UNL     1       3.553   0.889   3.953  1.00  0.00     0.042 C 
ENDROOT
BRANCH   1   2
ATOM      2  C   UNL     1       2.812   0.722   2.652  1.00  0.00     0.117 C 
BRANCH   2   3
ATOM      3  N   UNL     1       3.501  -0.015   1.599  1.00  0.00    -0.356 N 
ATOM      4  O   UNL     1       1.662  -1.232   0.989  1.00  0.00    -0.275 OA
ATOM      5  C   UNL     1       2.787  -0.808   0.720  1.00  0.00     0.224 C 
ATOM      6  H   UNL     1       4.480   0.053   1.513  1.00  0.00     0.163 HD
BRANCH   5   7
ATOM      7  C   UNL     1       3.488  -1.239  -0.546  1.00  0.00     0.141 C 
BRANCH   7   8
ATOM      8  C   UNL     1       4.002  -0.255  -1.582  1.00  0.00     0.022 A 
ATOM      9  C   UNL     1       5.176  -0.650  -2.225  1.00  0.00     0.121 A 
ATOM     10  C   UNL     1       3.367   0.855  -2.162  1.00  0.00     0.135 A 
ATOM     11  N   UNL     1       5.719  -0.054  -3.299  1.00  0.00    -0.244 NA
ATOM     12  N   UNL     1       3.886   1.460  -3.255  1.00  0.00    -0.219 NA
ATOM     13  C   UNL     1       5.028   0.983  -3.765  1.00  0.00     0.224 A 
BRANCH  10  14
ATOM     14  N   UNL     1       2.184   1.397  -1.687  1.00  0.00    -0.356 N 
ATOM     15  C   UNL     1       1.303   2.146  -2.597  1.00  0.00     0.121 C 
ATOM     16  C   UNL     1       2.279   2.109  -0.424  1.00  0.00     0.121 C 
ATOM     17  C   UNL     1      -0.123   2.195  -2.002  1.00  0.00     0.060 C 
ATOM     18  C   UNL     1       0.958   1.839   0.268  1.00  0.00     0.060 C 
ATOM     19  C   UNL     1      -0.209   2.482  -0.473  1.00  0.00     0.097 C 
ATOM     20  O   UNL     1      -0.020   3.883  -0.193  1.00  0.00    -0.372 OA
ATOM     21  C   UNL     1      -1.541   1.899   0.122  1.00  0.00     0.146 C 
ATOM     22  C   UNL     1      -1.143   4.738  -0.326  1.00  0.00     0.161 C 
ATOM     23  C   UNL     1      -2.719   2.840  -0.078  1.00  0.00     0.037 C 
ATOM     24  C   UNL     1      -2.355   4.227   0.430  1.00  0.00     0.031 C 
BRANCH  21  25
ATOM     25  O   UNL     1      -1.461   1.658   1.536  1.00  0.00    -0.390 OA
ATOM     26  H   UNL     1      -1.331   2.500   2.001  1.00  0.00     0.211 HD
ENDBRANCH  21  25
ENDBRANCH  10  14
ENDBRANCH   7   8
ENDBRANCH   5   7
ENDBRANCH   2   3
ENDBRANCH   1   2
BRANCH   1  27
ATOM     27  C   UNL     1       4.902   1.569   3.811  1.00  0.00     0.118 C 
BRANCH  27  28
ATOM     28  N   UNL     1       4.880   2.924   3.256  1.00  0.00    -0.352 N 
ATOM     29  C   UNL     1       5.364   4.115   3.770  1.00  0.00     0.251 C 
ATOM     30  H   UNL     1       4.450   3.001   2.373  1.00  0.00     0.163 HD
ATOM     31  O   UNL     1       5.231   5.153   3.138  1.00  0.00    -0.269 OA
BRANCH  29  32
ATOM     32  C   UNL     1       5.975   4.130   5.119  1.00  0.00     0.039 A 
ATOM     33  C   UNL     1       5.598   5.111   6.038  1.00  0.00     0.014 A 
ATOM     34  C   UNL     1       6.817   3.097   5.512  1.00  0.00     0.014 A 
ATOM     35  C   UNL     1       5.948   4.959   7.384  1.00  0.00     0.010 A 
ATOM     36  C   UNL     1       6.993   2.850   6.863  1.00  0.00     0.010 A 
ATOM     37  C   UNL     1       6.574   3.782   7.824  1.00  0.00    -0.014 A 
BRANCH  37  38
ATOM     38  C   UNL     1       6.827   3.496   9.265  1.00  0.00     0.031 A 
ATOM     39  C   UNL     1       8.216   3.105   9.714  1.00  0.00     0.074 A 
ATOM     40  C   UNL     1       5.805   3.477  10.147  1.00  0.00     0.049 A 
ATOM     41  N   UNL     1       8.620   2.652  10.873  1.00  0.00    -0.248 NA
ATOM     42  C   UNL     1       9.278   3.157   8.696  1.00  0.00     0.031 C 
ATOM     43  C   UNL     1       4.398   3.741   9.831  1.00  0.00     0.029 A 
ATOM     44  N   UNL     1       5.790   3.219  11.496  1.00  0.00    -0.354 N 
ATOM     45  C   UNL     1       9.959   2.316  10.699  1.00  0.00     0.074 A 
ATOM     46  C   UNL     1      10.264   2.519   9.301  1.00  0.00     0.031 C 
ATOM     47  C   UNL     1       3.672   3.692  10.960  1.00  0.00     0.029 A 
ATOM     48  C   UNL     1       4.545   3.341  12.073  1.00  0.00     0.049 A 
ATOM     49  H   UNL     1       6.596   2.970  12.004  1.00  0.00     0.167 HD
ATOM     50  C   UNL     1      10.869   1.923  11.625  1.00  0.00     0.034 A 
ATOM     51  C   UNL     1       4.156   3.190  13.355  1.00  0.00     0.034 A 
ATOM     52  C   UNL     1      10.566   1.808  13.029  1.00  0.00     0.049 A 
ATOM     53  C   UNL     1       5.196   2.827  14.384  1.00  0.00     0.074 A 
ATOM     54  C   UNL     1      11.419   1.509  14.076  1.00  0.00     0.029 A 
ATOM     55  N   UNL     1       9.308   2.010  13.584  1.00  0.00    -0.354 N 
ATOM     56  N   UNL     1       6.473   2.568  14.214  1.00  0.00    -0.248 NA
ATOM     57  C   UNL     1       4.747   2.752  15.780  1.00  0.00     0.031 C 
ATOM     58  C   UNL     1      10.669   1.484  15.257  1.00  0.00     0.029 A 
ATOM     59  C   UNL     1       9.361   1.831  14.957  1.00  0.00     0.049 A 
ATOM     60  H   UNL     1       8.498   2.245  13.077  1.00  0.00     0.167 HD
ATOM     61  C   UNL     1       6.984   2.329  15.486  1.00  0.00     0.074 A 
ATOM     62  C   UNL     1       5.882   2.495  16.413  1.00  0.00     0.031 C 
ATOM     63  C   UNL     1       8.247   2.002  15.859  1.00  0.00     0.034 A 
BRANCH  50  64
ATOM     64  C   UNL     1      12.264   1.603  11.138  1.00  0.00     0.023 A 
ATOM     65  C   UNL     1      13.055   2.564  10.483  1.00  0.00     0.031 A 
ATOM     66  C   UNL     1      12.790   0.306  11.272  1.00  0.00     0.131 A 
ATOM     67  C   UNL     1      14.271   2.190   9.892  1.00  0.00     0.055 A 
ATOM     68  C   UNL     1      14.048  -0.034  10.770  1.00  0.00     0.041 A 
ATOM     69  F   UNL     1      12.079  -0.662  11.872  1.00  0.00    -0.206 F 
ATOM     70  C   UNL     1      14.787   0.904  10.055  1.00  0.00     0.022 A 
BRANCH  67  71
ATOM     71  S   UNL     1      15.075   3.359   8.761  1.00  0.00     0.124 S 
ATOM     72  O   UNL     1      14.050   3.520   7.731  1.00  0.00    -0.237 OA
ATOM     73  O   UNL     1      15.308   4.517   9.616  1.00  0.00    -0.237 OA
ATOM     74  O   UNL     1      16.276   2.648   8.330  1.00  0.00    -0.744 OA
ENDBRANCH  67  71
ENDBRANCH  50  64
BRANCH  51  75
ATOM     75  C   UNL     1       2.734   3.405  13.751  1.00  0.00     0.023 A 
ATOM     76  C   UNL     1       2.375   4.469  14.595  1.00  0.00     0.031 A 
ATOM     77  C   UNL     1       1.717   2.532  13.326  1.00  0.00     0.131 A 
ATOM     78  C   UNL     1       1.047   4.605  15.030  1.00  0.00     0.055 A 
ATOM     79  C   UNL     1       0.388   2.701  13.720  1.00  0.00     0.041 A 
ATOM     80  F   UNL     1       2.002   1.505  12.509  1.00  0.00    -0.206 F 
ATOM     81  C   UNL     1       0.049   3.734  14.588  1.00  0.00     0.022 A 
BRANCH  78  82
ATOM     82  S   UNL     1       0.659   5.890  16.250  1.00  0.00     0.124 S 
ATOM     83  O   UNL     1       1.553   5.539  17.347  1.00  0.00    -0.237 OA
ATOM     84  O   UNL     1       0.988   7.110  15.519  1.00  0.00    -0.237 OA
ATOM     85  O   UNL     1      -0.764   5.690  16.514  1.00  0.00    -0.744 OA
ENDBRANCH  78  82
ENDBRANCH  51  75
BRANCH  63  86
ATOM     86  C   UNL     1       8.504   1.853  17.337  1.00  0.00     0.023 A 
ATOM     87  C   UNL     1       7.937   0.806  18.082  1.00  0.00     0.031 A 
ATOM     88  C   UNL     1       9.319   2.781  18.008  1.00  0.00     0.131 A 
ATOM     89  C   UNL     1       8.143   0.746  19.467  1.00  0.00     0.055 A 
ATOM     90  C   UNL     1       9.570   2.682  19.376  1.00  0.00     0.041 A 
ATOM     91  F   UNL     1       9.886   3.800  17.342  1.00  0.00    -0.206 F 
ATOM     92  C   UNL     1       8.969   1.667  20.117  1.00  0.00     0.022 A 
BRANCH  89  93
ATOM     93  S   UNL     1       7.239  -0.500  20.426  1.00  0.00     0.124 S 
ATOM     94  O   UNL     1       5.851  -0.180  20.107  1.00  0.00    -0.237 OA
ATOM     95  O   UNL     1       7.748  -1.750  19.872  1.00  0.00    -0.237 OA
ATOM     96  O   UNL     1       7.637  -0.226  21.805  1.00  0.00    -0.744 OA
ENDBRANCH  89  93
ENDBRANCH  63  86
ENDBRANCH  37  38
ENDBRANCH  29  32
ENDBRANCH  27  28
ENDBRANCH   1  27
TORSDOF 16
