REMARK SMILES CC1(C)CCC[C@@H]1Nc1cccc(F)c1C(=O)NCCCNC(=O)c1ccc(-c2c3nc(c(-c4cc(S(=O)(=O)[O-])ccc4F)c4ccc([nH]4)c(-c4cc(S(=O)(=O)[O-])ccc4F)c4nc(c(-c5cc(S(=O)(=O)[O-])ccc5F)c5ccc2[nH]5)C=C4)C=C3)cc1
REMARK SMILES IDX 20 1 19 2 18 3 16 4 17 5 15 7 9 8 10 9 11 10 13 11 12 12
REMARK SMILES IDX 14 13 8 14 7 16 1 17 2 18 3 19 4 20 5 21 6 22 21 23 22 24
REMARK SMILES IDX 23 25 24 27 25 28 26 29 87 30 27 31 86 32 28 33 29 34 30 35
REMARK SMILES IDX 80 36 31 37 85 38 79 39 81 40 32 41 84 42 78 43 77 44 33 46
REMARK SMILES IDX 65 47 45 48 64 49 46 50 49 51 63 52 82 53 47 54 48 55 62 57
REMARK SMILES IDX 83 58 50 59 34 60 35 61 43 62 36 63 42 64 44 65 41 66 37 67
REMARK SMILES IDX 38 68 39 69 40 70 66 71 67 72 75 73 68 74 74 75 76 76 73 77
REMARK SMILES IDX 69 78 70 79 71 80 72 81 51 82 52 83 60 84 53 85 59 86 61 87
REMARK SMILES IDX 58 88 54 89 55 90 56 91 57 92
REMARK H PARENT 18 6 8 15 22 26 81 45 49 56
REMARK Flexibility Score: inf
ROOT
ATOM      1  C   UNL     1      -1.432   6.493  -4.941  1.00  0.00     0.042 C 
ENDROOT
BRANCH   1   2
ATOM      2  C   UNL     1      -2.118   5.277  -4.313  1.00  0.00     0.118 C 
BRANCH   2   3
ATOM      3  N   UNL     1      -1.138   4.269  -3.954  1.00  0.00    -0.352 N 
ATOM      4  C   UNL     1      -0.483   3.931  -2.799  1.00  0.00     0.256 C 
ATOM      5  O   UNL     1       0.365   3.041  -2.936  1.00  0.00    -0.269 OA
ATOM      6  H   UNL     1      -0.886   3.697  -4.714  1.00  0.00     0.163 HD
BRANCH   4   7
ATOM      7  C   UNL     1      -0.766   4.470  -1.426  1.00  0.00     0.098 A 
ATOM      8  C   UNL     1      -0.480   3.637  -0.299  1.00  0.00     0.050 A 
ATOM      9  C   UNL     1      -0.800   4.098   0.992  1.00  0.00     0.027 A 
ATOM     10  C   UNL     1      -1.365   5.354   1.197  1.00  0.00     0.005 A 
ATOM     11  C   UNL     1      -1.271   5.749  -1.181  1.00  0.00     0.138 A 
ATOM     12  C   UNL     1      -1.591   6.182   0.108  1.00  0.00     0.040 A 
ATOM     13  F   UNL     1      -1.416   6.657  -2.151  1.00  0.00    -0.206 F 
BRANCH   8  14
ATOM     14  N   UNL     1       0.117   2.385  -0.457  1.00  0.00    -0.381 N 
ATOM     15  H   UNL     1       0.830   2.299  -1.130  1.00  0.00     0.160 HD
BRANCH  14  16
ATOM     16  C   UNL     1      -0.239   1.203   0.301  1.00  0.00     0.084 C 
ATOM     17  C   UNL     1       1.991   0.061   0.792  1.00  0.00     0.013 C 
ATOM     18  C   UNL     1       0.681  -0.009  -0.000  1.00  0.00    -0.015 C 
ATOM     19  C   UNL     1       1.014  -0.204  -1.493  1.00  0.00     0.013 C 
ATOM     20  C   UNL     1      -0.204  -1.167   0.495  1.00  0.00     0.008 C 
ATOM     21  C   UNL     1      -1.611  -0.808   0.029  1.00  0.00     0.003 C 
ATOM     22  C   UNL     1      -1.649   0.717  -0.060  1.00  0.00     0.025 C 
ENDBRANCH  14  16
ENDBRANCH   8  14
ENDBRANCH   4   7
ENDBRANCH   2   3
ENDBRANCH   1   2
BRANCH   1  23
ATOM     23  C   UNL     1      -0.941   6.250  -6.369  1.00  0.00     0.118 C 
BRANCH  23  24
ATOM     24  N   UNL     1      -2.045   6.120  -7.309  1.00  0.00    -0.352 N 
ATOM     25  C   UNL     1      -2.369   6.878  -8.406  1.00  0.00     0.251 C 
ATOM     26  H   UNL     1      -2.656   5.369  -7.128  1.00  0.00     0.163 HD
ATOM     27  O   UNL     1      -3.484   6.750  -8.907  1.00  0.00    -0.269 OA
BRANCH  25  28
ATOM     28  C   UNL     1      -1.403   7.840  -8.985  1.00  0.00     0.039 A 
ATOM     29  C   UNL     1      -1.880   9.064  -9.463  1.00  0.00     0.014 A 
ATOM     30  C   UNL     1      -0.049   7.521  -9.121  1.00  0.00     0.014 A 
ATOM     31  C   UNL     1      -0.995   9.985 -10.031  1.00  0.00     0.010 A 
ATOM     32  C   UNL     1       0.844   8.466  -9.630  1.00  0.00     0.010 A 
ATOM     33  C   UNL     1       0.380   9.706 -10.094  1.00  0.00    -0.014 A 
BRANCH  33  34
ATOM     34  C   UNL     1       1.341  10.699 -10.643  1.00  0.00     0.031 A 
ATOM     35  C   UNL     1       2.118  10.392 -11.896  1.00  0.00     0.074 A 
ATOM     36  C   UNL     1       1.548  11.858  -9.986  1.00  0.00     0.049 A 
ATOM     37  N   UNL     1       3.058  11.092 -12.475  1.00  0.00    -0.248 NA
ATOM     38  C   UNL     1       1.813   9.121 -12.572  1.00  0.00     0.031 C 
ATOM     39  C   UNL     1       0.874  12.257  -8.748  1.00  0.00     0.029 A 
ATOM     40  N   UNL     1       2.384  12.912 -10.261  1.00  0.00    -0.354 N 
ATOM     41  C   UNL     1       3.470  10.342 -13.572  1.00  0.00     0.074 A 
ATOM     42  C   UNL     1       2.705   9.114 -13.553  1.00  0.00     0.031 C 
ATOM     43  C   UNL     1       1.301  13.478  -8.388  1.00  0.00     0.029 A 
ATOM     44  C   UNL     1       2.312  13.931  -9.339  1.00  0.00     0.049 A 
ATOM     45  H   UNL     1       2.979  12.936 -11.045  1.00  0.00     0.167 HD
ATOM     46  C   UNL     1       4.389  10.659 -14.516  1.00  0.00     0.034 A 
ATOM     47  C   UNL     1       2.991  15.092  -9.257  1.00  0.00     0.034 A 
ATOM     48  C   UNL     1       5.121  11.900 -14.543  1.00  0.00     0.049 A 
ATOM     49  C   UNL     1       4.016  15.415 -10.310  1.00  0.00     0.074 A 
ATOM     50  C   UNL     1       6.029  12.341 -15.489  1.00  0.00     0.029 A 
ATOM     51  N   UNL     1       5.029  12.898 -13.582  1.00  0.00    -0.354 N 
ATOM     52  N   UNL     1       4.385  14.697 -11.345  1.00  0.00    -0.248 NA
ATOM     53  C   UNL     1       4.718  16.700 -10.187  1.00  0.00     0.031 C 
ATOM     54  C   UNL     1       6.529  13.578 -15.073  1.00  0.00     0.029 A 
ATOM     55  C   UNL     1       5.884  13.941 -13.901  1.00  0.00     0.049 A 
ATOM     56  H   UNL     1       4.443  12.870 -12.792  1.00  0.00     0.167 HD
ATOM     57  C   UNL     1       5.348  15.452 -12.006  1.00  0.00     0.074 A 
ATOM     58  C   UNL     1       5.502  16.682 -11.257  1.00  0.00     0.031 C 
ATOM     59  C   UNL     1       6.037  15.154 -13.136  1.00  0.00     0.034 A 
BRANCH  46  60
ATOM     60  C   UNL     1       4.669   9.645 -15.595  1.00  0.00     0.023 A 
ATOM     61  C   UNL     1       3.712   9.326 -16.573  1.00  0.00     0.031 A 
ATOM     62  C   UNL     1       5.923   9.013 -15.664  1.00  0.00     0.131 A 
ATOM     63  C   UNL     1       4.010   8.370 -17.555  1.00  0.00     0.055 A 
ATOM     64  C   UNL     1       6.236   8.109 -16.681  1.00  0.00     0.041 A 
ATOM     65  F   UNL     1       6.868   9.270 -14.746  1.00  0.00    -0.206 F 
ATOM     66  C   UNL     1       5.274   7.778 -17.631  1.00  0.00     0.022 A 
BRANCH  63  67
ATOM     67  S   UNL     1       2.699   7.857 -18.697  1.00  0.00     0.124 S 
ATOM     68  O   UNL     1       1.764   7.195 -17.791  1.00  0.00    -0.237 OA
ATOM     69  O   UNL     1       2.252   9.126 -19.261  1.00  0.00    -0.237 OA
ATOM     70  O   UNL     1       3.387   6.969 -19.632  1.00  0.00    -0.744 OA
ENDBRANCH  63  67
ENDBRANCH  46  60
BRANCH  47  71
ATOM     71  C   UNL     1       2.729  16.026  -8.127  1.00  0.00     0.023 A 
ATOM     72  C   UNL     1       2.083  17.254  -8.339  1.00  0.00     0.031 A 
ATOM     73  C   UNL     1       3.110  15.693  -6.815  1.00  0.00     0.131 A 
ATOM     74  C   UNL     1       1.852  18.115  -7.255  1.00  0.00     0.055 A 
ATOM     75  C   UNL     1       2.845  16.537  -5.735  1.00  0.00     0.041 A 
ATOM     76  F   UNL     1       3.721  14.525  -6.562  1.00  0.00    -0.206 F 
ATOM     77  C   UNL     1       2.216  17.759  -5.953  1.00  0.00     0.022 A 
BRANCH  74  78
ATOM     78  S   UNL     1       1.083  19.727  -7.570  1.00  0.00     0.124 S 
ATOM     79  O   UNL     1       2.094  20.383  -8.391  1.00  0.00    -0.237 OA
ATOM     80  O   UNL     1      -0.151  19.349  -8.250  1.00  0.00    -0.237 OA
ATOM     81  O   UNL     1       0.905  20.287  -6.232  1.00  0.00    -0.744 OA
ENDBRANCH  74  78
ENDBRANCH  47  71
BRANCH  59  82
ATOM     82  C   UNL     1       7.003  16.185 -13.653  1.00  0.00     0.023 A 
ATOM     83  C   UNL     1       8.230  16.427 -13.014  1.00  0.00     0.031 A 
ATOM     84  C   UNL     1       6.715  16.889 -14.836  1.00  0.00     0.131 A 
ATOM     85  C   UNL     1       9.120  17.368 -13.552  1.00  0.00     0.055 A 
ATOM     86  C   UNL     1       7.622  17.792 -15.390  1.00  0.00     0.041 A 
ATOM     87  F   UNL     1       5.556  16.689 -15.484  1.00  0.00    -0.206 F 
ATOM     88  C   UNL     1       8.831  18.038 -14.745  1.00  0.00     0.022 A 
BRANCH  85  89
ATOM     89  S   UNL     1      10.658  17.725 -12.662  1.00  0.00     0.124 S 
ATOM     90  O   UNL     1      10.161  18.344 -11.437  1.00  0.00    -0.237 OA
ATOM     91  O   UNL     1      11.252  16.401 -12.511  1.00  0.00    -0.237 OA
ATOM     92  O   UNL     1      11.376  18.624 -13.564  1.00  0.00    -0.744 OA
ENDBRANCH  85  89
ENDBRANCH  59  82
ENDBRANCH  33  34
ENDBRANCH  25  28
ENDBRANCH  23  24
ENDBRANCH   1  23
TORSDOF 15
