REMARK SMILES C[C@H](Nc1ccc(C(=O)NCCCNC(=O)c2ccc(-c3c4nc(c(-c5cc(S(=O)(=O)[O-])ccc5F)c5ccc([nH]5)c(-c5cc(S(=O)(=O)[O-])ccc5F)c5nc(c(-c6cc(S(=O)(=O)[O-])ccc6F)c6ccc3[nH]6)C=C5)C=C4)cc2)c(F)c1F)c1ccccc1Cl
REMARK SMILES IDX 12 1 11 2 10 3 8 4 9 5 7 7 4 8 5 9 82 10 6 11 80 12 83 13
REMARK SMILES IDX 81 14 3 15 2 17 1 18 84 19 85 20 89 21 86 22 88 23 90 24
REMARK SMILES IDX 87 25 13 26 14 27 15 28 16 30 17 31 18 32 79 33 19 34 78 35
REMARK SMILES IDX 20 36 21 37 22 38 72 39 23 40 77 41 71 42 73 43 24 44 76 45
REMARK SMILES IDX 70 46 69 47 25 49 57 50 37 51 56 52 38 53 41 54 55 55 74 56
REMARK SMILES IDX 39 57 40 58 54 60 75 61 42 62 26 63 27 64 35 65 28 66 34 67
REMARK SMILES IDX 36 68 33 69 29 70 30 71 31 72 32 73 58 74 59 75 67 76 60 77
REMARK SMILES IDX 66 78 68 79 65 80 61 81 62 82 63 83 64 84 43 85 44 86 52 87
REMARK SMILES IDX 45 88 51 89 53 90 50 91 46 92 47 93 48 94 49 95
REMARK H PARENT 10 6 3 16 14 29 73 48 41 59
REMARK Flexibility Score: inf
ROOT
ATOM      1  C   UNL     1       6.796   0.423   3.939  1.00  0.00     0.042 C 
ENDROOT
BRANCH   1   2
ATOM      2  C   UNL     1       7.003   1.018   2.543  1.00  0.00     0.118 C 
BRANCH   2   3
ATOM      3  N   UNL     1       7.242  -0.014   1.550  1.00  0.00    -0.352 N 
ATOM      4  C   UNL     1       6.461  -0.617   0.603  1.00  0.00     0.254 C 
ATOM      5  O   UNL     1       7.029  -1.433  -0.129  1.00  0.00    -0.269 OA
ATOM      6  H   UNL     1       8.166  -0.353   1.561  1.00  0.00     0.163 HD
BRANCH   4   7
ATOM      7  C   UNL     1       5.015  -0.356   0.359  1.00  0.00     0.078 A 
ATOM      8  C   UNL     1       2.253  -0.151  -0.294  1.00  0.00     0.074 A 
ATOM      9  C   UNL     1       3.144  -0.700  -1.208  1.00  0.00     0.030 A 
ATOM     10  C   UNL     1       2.765   0.308   0.929  1.00  0.00     0.182 A 
ATOM     11  C   UNL     1       4.510  -0.779  -0.893  1.00  0.00     0.019 A 
ATOM     12  C   UNL     1       4.107   0.169   1.269  1.00  0.00     0.173 A 
ATOM     13  F   UNL     1       1.909   0.807   1.837  1.00  0.00    -0.201 F 
ATOM     14  F   UNL     1       4.433   0.469   2.529  1.00  0.00    -0.203 F 
BRANCH   8  15
ATOM     15  N   UNL     1       0.860  -0.214  -0.463  1.00  0.00    -0.376 N 
ATOM     16  H   UNL     1       0.326   0.603  -0.589  1.00  0.00     0.161 HD
BRANCH  15  17
ATOM     17  C   UNL     1       0.222  -1.551  -0.445  1.00  0.00     0.108 C 
ATOM     18  C   UNL     1       0.651  -2.304   0.833  1.00  0.00     0.036 C 
BRANCH  17  19
ATOM     19  C   UNL     1      -1.310  -1.469  -0.495  1.00  0.00    -0.007 A 
ATOM     20  C   UNL     1      -2.010  -0.267  -0.259  1.00  0.00     0.007 A 
ATOM     21  C   UNL     1      -2.090  -2.628  -0.707  1.00  0.00     0.046 A 
ATOM     22  C   UNL     1      -3.406  -0.235  -0.168  1.00  0.00     0.000 A 
ATOM     23  C   UNL     1      -3.486  -2.596  -0.592  1.00  0.00     0.021 A 
ATOM     24  Cl  UNL     1      -1.392  -4.153  -1.143  1.00  0.00    -0.084 Cl
ATOM     25  C   UNL     1      -4.143  -1.403  -0.310  1.00  0.00     0.002 A 
ENDBRANCH  17  19
ENDBRANCH  15  17
ENDBRANCH   8  15
ENDBRANCH   4   7
ENDBRANCH   2   3
ENDBRANCH   1   2
BRANCH   1  26
ATOM     26  C   UNL     1       8.088  -0.033   4.618  1.00  0.00     0.118 C 
BRANCH  26  27
ATOM     27  N   UNL     1       8.973   1.086   4.900  1.00  0.00    -0.352 N 
ATOM     28  C   UNL     1       9.495   1.547   6.081  1.00  0.00     0.251 C 
ATOM     29  H   UNL     1       9.245   1.601   4.106  1.00  0.00     0.163 HD
ATOM     30  O   UNL     1       9.992   2.670   6.096  1.00  0.00    -0.269 OA
BRANCH  28  31
ATOM     31  C   UNL     1       9.475   0.731   7.317  1.00  0.00     0.039 A 
ATOM     32  C   UNL     1       9.348   1.394   8.543  1.00  0.00     0.014 A 
ATOM     33  C   UNL     1       9.673  -0.654   7.300  1.00  0.00     0.014 A 
ATOM     34  C   UNL     1       9.393   0.673   9.738  1.00  0.00     0.010 A 
ATOM     35  C   UNL     1       9.650  -1.382   8.492  1.00  0.00     0.010 A 
ATOM     36  C   UNL     1       9.524  -0.725   9.724  1.00  0.00    -0.014 A 
BRANCH  36  37
ATOM     37  C   UNL     1       9.527  -1.490  10.999  1.00  0.00     0.031 A 
ATOM     38  C   UNL     1      10.758  -2.229  11.452  1.00  0.00     0.074 A 
ATOM     39  C   UNL     1       8.402  -1.529  11.741  1.00  0.00     0.049 A 
ATOM     40  N   UNL     1      10.953  -2.919  12.548  1.00  0.00    -0.248 NA
ATOM     41  C   UNL     1      11.911  -2.214  10.541  1.00  0.00     0.031 C 
ATOM     42  C   UNL     1       7.130  -0.903  11.372  1.00  0.00     0.029 A 
ATOM     43  N   UNL     1       8.145  -2.111  12.956  1.00  0.00    -0.354 N 
ATOM     44  C   UNL     1      12.245  -3.429  12.454  1.00  0.00     0.074 A 
ATOM     45  C   UNL     1      12.761  -3.016  11.165  1.00  0.00     0.031 C 
ATOM     46  C   UNL     1       6.240  -1.103  12.356  1.00  0.00     0.029 A 
ATOM     47  C   UNL     1       6.864  -1.895  13.410  1.00  0.00     0.049 A 
ATOM     48  H   UNL     1       8.813  -2.633  13.456  1.00  0.00     0.167 HD
ATOM     49  C   UNL     1      12.942  -4.154  13.366  1.00  0.00     0.034 A 
ATOM     50  C   UNL     1       6.263  -2.284  14.551  1.00  0.00     0.034 A 
ATOM     51  C   UNL     1      12.410  -4.548  14.650  1.00  0.00     0.049 A 
ATOM     52  C   UNL     1       7.067  -3.057  15.564  1.00  0.00     0.074 A 
ATOM     53  C   UNL     1      13.039  -5.238  15.673  1.00  0.00     0.029 A 
ATOM     54  N   UNL     1      11.116  -4.292  15.088  1.00  0.00    -0.354 N 
ATOM     55  N   UNL     1       8.310  -3.474  15.489  1.00  0.00    -0.248 NA
ATOM     56  C   UNL     1       6.393  -3.386  16.825  1.00  0.00     0.031 C 
ATOM     57  C   UNL     1      12.111  -5.450  16.700  1.00  0.00     0.029 A 
ATOM     58  C   UNL     1      10.921  -4.829  16.353  1.00  0.00     0.049 A 
ATOM     59  H   UNL     1      10.435  -3.800  14.575  1.00  0.00     0.167 HD
ATOM     60  C   UNL     1       8.574  -4.096  16.705  1.00  0.00     0.074 A 
ATOM     61  C   UNL     1       7.369  -3.970  17.502  1.00  0.00     0.031 C 
ATOM     62  C   UNL     1       9.706  -4.716  17.127  1.00  0.00     0.034 A 
BRANCH  49  63
ATOM     63  C   UNL     1      14.341  -4.587  12.988  1.00  0.00     0.023 A 
ATOM     64  C   UNL     1      15.360  -3.652  12.726  1.00  0.00     0.031 A 
ATOM     65  C   UNL     1      14.656  -5.951  12.857  1.00  0.00     0.131 A 
ATOM     66  C   UNL     1      16.614  -4.088  12.268  1.00  0.00     0.055 A 
ATOM     67  C   UNL     1      15.931  -6.382  12.482  1.00  0.00     0.041 A 
ATOM     68  F   UNL     1      13.724  -6.892  13.075  1.00  0.00    -0.206 F 
ATOM     69  C   UNL     1      16.914  -5.448  12.168  1.00  0.00     0.022 A 
BRANCH  66  70
ATOM     70  S   UNL     1      17.795  -2.851  11.664  1.00  0.00     0.124 S 
ATOM     71  O   UNL     1      17.035  -2.218  10.589  1.00  0.00    -0.237 OA
ATOM     72  O   UNL     1      18.030  -2.034  12.849  1.00  0.00    -0.237 OA
ATOM     73  O   UNL     1      18.935  -3.652  11.222  1.00  0.00    -0.744 OA
ENDBRANCH  66  70
ENDBRANCH  49  63
BRANCH  50  74
ATOM     74  C   UNL     1       4.837  -1.937  14.806  1.00  0.00     0.023 A 
ATOM     75  C   UNL     1       4.477  -1.061  15.842  1.00  0.00     0.031 A 
ATOM     76  C   UNL     1       3.808  -2.496  14.027  1.00  0.00     0.131 A 
ATOM     77  C   UNL     1       3.122  -0.804  16.102  1.00  0.00     0.055 A 
ATOM     78  C   UNL     1       2.464  -2.198  14.258  1.00  0.00     0.041 A 
ATOM     79  F   UNL     1       4.099  -3.330  13.016  1.00  0.00    -0.206 F 
ATOM     80  C   UNL     1       2.114  -1.357  15.309  1.00  0.00     0.022 A 
BRANCH  77  81
ATOM     81  S   UNL     1       2.690   0.211  17.542  1.00  0.00     0.124 S 
ATOM     82  O   UNL     1       3.308  -0.537  18.631  1.00  0.00    -0.237 OA
ATOM     83  O   UNL     1       3.311   1.488  17.208  1.00  0.00    -0.237 OA
ATOM     84  O   UNL     1       1.229   0.210  17.533  1.00  0.00    -0.744 OA
ENDBRANCH  77  81
ENDBRANCH  50  74
BRANCH  62  85
ATOM     85  C   UNL     1       9.687  -5.274  18.530  1.00  0.00     0.023 A 
ATOM     86  C   UNL     1       8.824  -6.323  18.895  1.00  0.00     0.031 A 
ATOM     87  C   UNL     1      10.504  -4.714  19.528  1.00  0.00     0.131 A 
ATOM     88  C   UNL     1       8.737  -6.723  20.237  1.00  0.00     0.055 A 
ATOM     89  C   UNL     1      10.463  -5.163  20.849  1.00  0.00     0.041 A 
ATOM     90  F   UNL     1      11.346  -3.709  19.238  1.00  0.00    -0.206 F 
ATOM     91  C   UNL     1       9.561  -6.159  21.214  1.00  0.00     0.022 A 
BRANCH  88  92
ATOM     92  S   UNL     1       7.434  -7.893  20.711  1.00  0.00     0.124 S 
ATOM     93  O   UNL     1       6.234  -7.232  20.211  1.00  0.00    -0.237 OA
ATOM     94  O   UNL     1       7.835  -9.106  20.006  1.00  0.00    -0.237 OA
ATOM     95  O   UNL     1       7.545  -7.958  22.167  1.00  0.00    -0.744 OA
ENDBRANCH  88  92
ENDBRANCH  62  85
ENDBRANCH  36  37
ENDBRANCH  28  31
ENDBRANCH  26  27
ENDBRANCH   1  26
TORSDOF 16
