REMARK SMILES CC(=O)c1nnn(-c2ccc(C(=O)NCCCNC(=O)c3ccc(-c4c5nc(c(-c6cc(S(=O)(=O)[O-])ccc6F)c6ccc([nH]6)c(-c6cc(S(=O)(=O)[O-])ccc6F)c6nc(c(-c7cc(S(=O)(=O)[O-])ccc7F)c7ccc4[nH]7)C=C6)C=C5)cc3)cc2)c1C
REMARK SMILES IDX 16 1 15 2 14 3 12 4 13 5 11 7 8 8 9 9 85 10 10 11 84 12 7 13
REMARK SMILES IDX 4 14 5 15 86 16 6 17 87 18 2 19 1 20 3 21 17 22 18 23 19 24
REMARK SMILES IDX 20 26 21 27 22 28 83 29 23 30 82 31 24 32 25 33 26 34 76 35
REMARK SMILES IDX 27 36 81 37 75 38 77 39 28 40 80 41 74 42 73 43 29 45 61 46
REMARK SMILES IDX 41 47 60 48 42 49 45 50 59 51 78 52 43 53 44 54 58 56 79 57
REMARK SMILES IDX 46 58 30 59 31 60 39 61 32 62 38 63 40 64 37 65 33 66 34 67
REMARK SMILES IDX 35 68 36 69 62 70 63 71 71 72 64 73 70 74 72 75 69 76 65 77
REMARK SMILES IDX 66 78 67 79 68 80 47 81 48 82 56 83 49 84 55 85 57 86 54 87
REMARK SMILES IDX 50 88 51 89 52 90 53 91
REMARK H PARENT 14 6 18 25 77 44 45 55
REMARK Flexibility Score: inf
ROOT
ATOM      1  C   UNL     1       8.329  -3.461   5.627  1.00  0.00     0.042 C 
ENDROOT
BRANCH   1   2
ATOM      2  C   UNL     1       8.411  -3.810   4.134  1.00  0.00     0.118 C 
BRANCH   2   3
ATOM      3  N   UNL     1       8.158  -5.222   3.880  1.00  0.00    -0.352 N 
ATOM      4  C   UNL     1       7.022  -5.908   3.514  1.00  0.00     0.251 C 
ATOM      5  O   UNL     1       7.127  -7.100   3.231  1.00  0.00    -0.269 OA
ATOM      6  H   UNL     1       8.951  -5.795   3.992  1.00  0.00     0.163 HD
BRANCH   4   7
ATOM      7  C   UNL     1       5.689  -5.256   3.381  1.00  0.00     0.039 A 
ATOM      8  C   UNL     1       3.273  -3.965   2.839  1.00  0.00     0.067 A 
ATOM      9  C   UNL     1       3.529  -5.199   2.241  1.00  0.00     0.029 A 
ATOM     10  C   UNL     1       4.138  -3.444   3.799  1.00  0.00     0.029 A 
ATOM     11  C   UNL     1       4.755  -5.826   2.496  1.00  0.00     0.016 A 
ATOM     12  C   UNL     1       5.318  -4.116   4.094  1.00  0.00     0.016 A 
BRANCH   8  13
ATOM     13  N   UNL     1       2.186  -3.184   2.418  1.00  0.00    -0.217 N 
ATOM     14  C   UNL     1       0.891  -1.556   1.785  1.00  0.00     0.151 A 
ATOM     15  N   UNL     1       0.120  -2.650   2.086  1.00  0.00    -0.126 NA
ATOM     16  C   UNL     1       2.227  -1.880   1.948  1.00  0.00     0.073 A 
ATOM     17  N   UNL     1       0.929  -3.663   2.367  1.00  0.00    -0.061 NA
ATOM     18  C   UNL     1       3.482  -1.154   1.631  1.00  0.00     0.069 C 
BRANCH  14  19
ATOM     19  C   UNL     1       0.316  -0.318   1.288  1.00  0.00     0.181 C 
ATOM     20  C   UNL     1       0.682   0.094  -0.116  1.00  0.00     0.095 C 
ATOM     21  O   UNL     1      -0.455   0.360   1.965  1.00  0.00    -0.293 OA
ENDBRANCH  14  19
ENDBRANCH   8  13
ENDBRANCH   4   7
ENDBRANCH   2   3
ENDBRANCH   1   2
BRANCH   1  22
ATOM     22  C   UNL     1       9.637  -3.691   6.362  1.00  0.00     0.118 C 
BRANCH  22  23
ATOM     23  N   UNL     1      10.649  -2.693   6.016  1.00  0.00    -0.352 N 
ATOM     24  C   UNL     1      11.983  -2.658   6.386  1.00  0.00     0.251 C 
ATOM     25  H   UNL     1      10.342  -1.951   5.446  1.00  0.00     0.163 HD
ATOM     26  O   UNL     1      12.603  -1.609   6.351  1.00  0.00    -0.269 OA
BRANCH  24  27
ATOM     27  C   UNL     1      12.623  -3.910   6.833  1.00  0.00     0.039 A 
ATOM     28  C   UNL     1      13.503  -3.930   7.920  1.00  0.00     0.014 A 
ATOM     29  C   UNL     1      12.284  -5.084   6.171  1.00  0.00     0.014 A 
ATOM     30  C   UNL     1      13.965  -5.159   8.392  1.00  0.00     0.010 A 
ATOM     31  C   UNL     1      12.603  -6.291   6.735  1.00  0.00     0.010 A 
ATOM     32  C   UNL     1      13.491  -6.341   7.808  1.00  0.00    -0.014 A 
BRANCH  32  33
ATOM     33  C   UNL     1      13.797  -7.656   8.372  1.00  0.00     0.031 A 
ATOM     34  C   UNL     1      13.396  -7.842   9.795  1.00  0.00     0.074 A 
ATOM     35  C   UNL     1      14.125  -8.707   7.587  1.00  0.00     0.049 A 
ATOM     36  N   UNL     1      14.155  -8.098  10.808  1.00  0.00    -0.248 NA
ATOM     37  C   UNL     1      11.996  -7.574  10.164  1.00  0.00     0.031 C 
ATOM     38  C   UNL     1      14.251  -8.723   6.124  1.00  0.00     0.029 A 
ATOM     39  N   UNL     1      14.251 -10.025   7.908  1.00  0.00    -0.354 N 
ATOM     40  C   UNL     1      13.301  -8.274  11.896  1.00  0.00     0.074 A 
ATOM     41  C   UNL     1      12.040  -7.716  11.490  1.00  0.00     0.031 C 
ATOM     42  C   UNL     1      14.162  -9.992   5.676  1.00  0.00     0.029 A 
ATOM     43  C   UNL     1      14.149 -10.888   6.818  1.00  0.00     0.049 A 
ATOM     44  H   UNL     1      14.400 -10.340   8.829  1.00  0.00     0.167 HD
ATOM     45  C   UNL     1      13.637  -9.094  12.934  1.00  0.00     0.034 A 
ATOM     46  C   UNL     1      14.026 -12.242   6.838  1.00  0.00     0.034 A 
ATOM     47  C   UNL     1      15.053  -9.403  12.900  1.00  0.00     0.049 A 
ATOM     48  C   UNL     1      14.531 -12.694   8.157  1.00  0.00     0.074 A 
ATOM     49  C   UNL     1      16.207  -8.641  12.899  1.00  0.00     0.029 A 
ATOM     50  N   UNL     1      15.439 -10.649  12.451  1.00  0.00    -0.354 N 
ATOM     51  N   UNL     1      15.776 -12.556   8.527  1.00  0.00    -0.248 NA
ATOM     52  C   UNL     1      13.579 -12.839   9.248  1.00  0.00     0.031 C 
ATOM     53  C   UNL     1      17.072  -9.292  11.970  1.00  0.00     0.029 A 
ATOM     54  C   UNL     1      16.445 -10.461  11.535  1.00  0.00     0.049 A 
ATOM     55  H   UNL     1      15.063 -11.513  12.736  1.00  0.00     0.167 HD
ATOM     56  C   UNL     1      15.710 -12.138   9.848  1.00  0.00     0.074 A 
ATOM     57  C   UNL     1      14.346 -12.450  10.272  1.00  0.00     0.031 C 
ATOM     58  C   UNL     1      16.662 -11.310  10.377  1.00  0.00     0.034 A 
BRANCH  45  59
ATOM     59  C   UNL     1      12.661  -9.929  13.747  1.00  0.00     0.023 A 
ATOM     60  C   UNL     1      13.218 -10.799  14.706  1.00  0.00     0.031 A 
ATOM     61  C   UNL     1      11.294 -10.146  13.460  1.00  0.00     0.131 A 
ATOM     62  C   UNL     1      12.495 -11.898  15.202  1.00  0.00     0.055 A 
ATOM     63  C   UNL     1      10.556 -11.200  14.012  1.00  0.00     0.041 A 
ATOM     64  F   UNL     1      10.607  -9.416  12.577  1.00  0.00    -0.206 F 
ATOM     65  C   UNL     1      11.167 -12.110  14.855  1.00  0.00     0.022 A 
BRANCH  62  66
ATOM     66  S   UNL     1      13.397 -13.157  16.140  1.00  0.00     0.124 S 
ATOM     67  O   UNL     1      14.517 -13.436  15.248  1.00  0.00    -0.237 OA
ATOM     68  O   UNL     1      13.714 -12.441  17.371  1.00  0.00    -0.237 OA
ATOM     69  O   UNL     1      12.423 -14.237  16.277  1.00  0.00    -0.744 OA
ENDBRANCH  62  66
ENDBRANCH  45  59
BRANCH  46  70
ATOM     70  C   UNL     1      13.274 -13.103   5.882  1.00  0.00     0.023 A 
ATOM     71  C   UNL     1      13.512 -14.487   5.739  1.00  0.00     0.031 A 
ATOM     72  C   UNL     1      12.127 -12.591   5.232  1.00  0.00     0.131 A 
ATOM     73  C   UNL     1      12.629 -15.288   4.974  1.00  0.00     0.055 A 
ATOM     74  C   UNL     1      11.264 -13.384   4.472  1.00  0.00     0.041 A 
ATOM     75  F   UNL     1      11.756 -11.310   5.384  1.00  0.00    -0.206 F 
ATOM     76  C   UNL     1      11.508 -14.741   4.346  1.00  0.00     0.022 A 
BRANCH  73  77
ATOM     77  S   UNL     1      12.873 -17.092   4.865  1.00  0.00     0.124 S 
ATOM     78  O   UNL     1      14.068 -17.195   4.035  1.00  0.00    -0.237 OA
ATOM     79  O   UNL     1      13.020 -17.476   6.264  1.00  0.00    -0.237 OA
ATOM     80  O   UNL     1      11.643 -17.566   4.229  1.00  0.00    -0.744 OA
ENDBRANCH  73  77
ENDBRANCH  46  70
BRANCH  58  81
ATOM     81  C   UNL     1      17.940 -11.078   9.591  1.00  0.00     0.023 A 
ATOM     82  C   UNL     1      17.998 -10.568   8.273  1.00  0.00     0.031 A 
ATOM     83  C   UNL     1      19.158 -11.258  10.270  1.00  0.00     0.131 A 
ATOM     84  C   UNL     1      19.243 -10.272   7.682  1.00  0.00     0.055 A 
ATOM     85  C   UNL     1      20.387 -10.943   9.691  1.00  0.00     0.041 A 
ATOM     86  F   UNL     1      19.173 -11.709  11.536  1.00  0.00    -0.206 F 
ATOM     87  C   UNL     1      20.434 -10.453   8.391  1.00  0.00     0.022 A 
BRANCH  84  88
ATOM     88  S   UNL     1      19.337  -9.654   5.969  1.00  0.00     0.124 S 
ATOM     89  O   UNL     1      18.472 -10.564   5.228  1.00  0.00    -0.237 OA
ATOM     90  O   UNL     1      18.859  -8.280   6.100  1.00  0.00    -0.237 OA
ATOM     91  O   UNL     1      20.761  -9.770   5.645  1.00  0.00    -0.744 OA
ENDBRANCH  84  88
ENDBRANCH  58  81
ENDBRANCH  32  33
ENDBRANCH  24  27
ENDBRANCH  22  23
ENDBRANCH   1  22
TORSDOF 15
