REMARK SMILES CCCC(=O)N(c1cc2sc(=O)oc2c2ccccc12)S(=O)(=O)c1ccc(C(=O)NCCCNC(=O)c2ccc(-c3c4nc(c(-c5cc(S(=O)(=O)[O-])ccc5F)c5ccc([nH]5)c(-c5cc(S(=O)(=O)[O-])ccc5F)c5nc(c(-c6cc(S(=O)(=O)[O-])ccc6F)c6ccc3[nH]6)C=C5)C=C4)cc2)cc1
REMARK SMILES IDX 31 1 30 2 28 3 29 4 27 6 24 7 25 8 101 9 26 10 100 11 21 12
REMARK SMILES IDX 22 13 23 14 6 15 4 16 5 17 3 18 2 19 1 20 7 21 8 22 20 23
REMARK SMILES IDX 9 24 15 25 19 26 10 27 14 28 16 29 18 30 11 31 13 32 17 33
REMARK SMILES IDX 12 34 32 35 33 36 34 37 35 38 36 40 37 41 38 42 99 43 39 44
REMARK SMILES IDX 98 45 40 46 41 47 42 48 92 49 43 50 97 51 91 52 93 53 44 54
REMARK SMILES IDX 96 55 90 56 89 57 45 59 77 60 57 61 76 62 58 63 61 64 75 65
REMARK SMILES IDX 94 66 59 67 60 68 74 70 95 71 62 72 46 73 47 74 55 75 48 76
REMARK SMILES IDX 54 77 56 78 53 79 49 80 50 81 51 82 52 83 78 84 79 85 87 86
REMARK SMILES IDX 80 87 86 88 88 89 85 90 81 91 82 92 83 93 84 94 63 95 64 96
REMARK SMILES IDX 72 97 65 98 71 99 73 100 70 101 66 102 67 103 68 104 69 105
REMARK H PARENT 30 5 34 39 93 58 61 69
REMARK Flexibility Score: inf
ROOT
ATOM      1  C   UNL     1       4.141   2.630   8.000  1.00  0.00     0.118 C 
ENDROOT
BRANCH   1   2
ATOM      2  N   UNL     1       3.121   3.567   7.543  1.00  0.00    -0.352 N 
ATOM      3  C   UNL     1       2.020   3.490   6.737  1.00  0.00     0.251 C 
ATOM      4  O   UNL     1       1.451   4.557   6.487  1.00  0.00    -0.269 OA
ATOM      5  H   UNL     1       3.260   4.474   7.900  1.00  0.00     0.163 HD
BRANCH   3   6
ATOM      6  C   UNL     1       1.487   2.241   6.125  1.00  0.00     0.039 A 
ATOM      7  C   UNL     1       0.431   0.024   4.760  1.00  0.00     0.088 A 
ATOM      8  C   UNL     1       0.060   1.314   4.377  1.00  0.00     0.023 A 
ATOM      9  C   UNL     1       1.239  -0.172   5.880  1.00  0.00     0.023 A 
ATOM     10  C   UNL     1       0.611   2.410   5.037  1.00  0.00     0.015 A 
ATOM     11  C   UNL     1       1.730   0.940   6.579  1.00  0.00     0.015 A 
BRANCH   7  12
ATOM     12  S   UNL     1      -0.224  -1.354   3.834  1.00  0.00     0.270 S 
ATOM     13  O   UNL     1      -1.563  -0.965   3.453  1.00  0.00    -0.201 OA
ATOM     14  O   UNL     1       0.013  -2.541   4.638  1.00  0.00    -0.201 OA
BRANCH  12  15
ATOM     15  N   UNL     1       0.748  -1.483   2.442  1.00  0.00    -0.202 N 
BRANCH  15  16
ATOM     16  C   UNL     1       0.435  -2.506   1.490  1.00  0.00     0.241 C 
ATOM     17  O   UNL     1      -0.633  -3.115   1.518  1.00  0.00    -0.273 OA
BRANCH  16  18
ATOM     18  C   UNL     1       1.472  -2.884   0.442  1.00  0.00     0.101 C 
BRANCH  18  19
ATOM     19  C   UNL     1       1.201  -2.282  -0.937  1.00  0.00     0.006 C 
ATOM     20  C   UNL     1       2.361  -1.426  -1.430  1.00  0.00     0.004 C 
ENDBRANCH  18  19
ENDBRANCH  16  18
ENDBRANCH  15  16
BRANCH  15  21
ATOM     21  C   UNL     1       1.486  -0.330   1.987  1.00  0.00     0.070 A 
ATOM     22  C   UNL     1       2.741  -0.125   2.585  1.00  0.00     0.051 A 
ATOM     23  C   UNL     1       0.999   0.569   0.980  1.00  0.00     0.010 A 
ATOM     24  C   UNL     1       3.513   0.949   2.186  1.00  0.00     0.080 A 
ATOM     25  C   UNL     1       1.867   1.590   0.504  1.00  0.00     0.028 A 
ATOM     26  C   UNL     1      -0.279   0.477   0.378  1.00  0.00     0.011 A 
ATOM     27  S   UNL     1       5.068   1.454   2.813  1.00  0.00    -0.052 S 
ATOM     28  C   UNL     1       3.096   1.774   1.151  1.00  0.00     0.157 A 
ATOM     29  C   UNL     1       1.504   2.358  -0.620  1.00  0.00     0.013 A 
ATOM     30  C   UNL     1      -0.619   1.242  -0.743  1.00  0.00     0.001 A 
ATOM     31  C   UNL     1       5.078   2.759   1.625  1.00  0.00     0.396 A 
ATOM     32  O   UNL     1       3.970   2.804   0.780  1.00  0.00    -0.413 OA
ATOM     33  C   UNL     1       0.285   2.158  -1.262  1.00  0.00     0.001 A 
ATOM     34  O   UNL     1       5.982   3.581   1.557  1.00  0.00    -0.233 OA
ENDBRANCH  15  21
ENDBRANCH  12  15
ENDBRANCH   7  12
ENDBRANCH   3   6
ENDBRANCH   1   2
BRANCH   1  35
ATOM     35  C   UNL     1       5.528   2.987   7.482  1.00  0.00     0.042 C 
BRANCH  35  36
ATOM     36  C   UNL     1       6.050   4.315   8.024  1.00  0.00     0.118 C 
BRANCH  36  37
ATOM     37  N   UNL     1       6.603   4.244   9.370  1.00  0.00    -0.352 N 
ATOM     38  C   UNL     1       7.784   3.686   9.809  1.00  0.00     0.251 C 
ATOM     39  H   UNL     1       6.050   4.657  10.072  1.00  0.00     0.163 HD
ATOM     40  O   UNL     1       8.079   3.729  10.999  1.00  0.00    -0.269 OA
BRANCH  38  41
ATOM     41  C   UNL     1       8.644   2.979   8.843  1.00  0.00     0.039 A 
ATOM     42  C   UNL     1       9.023   3.597   7.648  1.00  0.00     0.014 A 
ATOM     43  C   UNL     1       8.992   1.651   9.103  1.00  0.00     0.014 A 
ATOM     44  C   UNL     1       9.605   2.846   6.642  1.00  0.00     0.010 A 
ATOM     45  C   UNL     1       9.628   0.910   8.112  1.00  0.00     0.010 A 
ATOM     46  C   UNL     1       9.905   1.502   6.871  1.00  0.00    -0.014 A 
BRANCH  46  47
ATOM     47  C   UNL     1      10.684   0.835   5.821  1.00  0.00     0.031 A 
ATOM     48  C   UNL     1      12.067   0.516   6.277  1.00  0.00     0.074 A 
ATOM     49  C   UNL     1      10.090   0.152   4.820  1.00  0.00     0.049 A 
ATOM     50  N   UNL     1      12.270  -0.492   7.068  1.00  0.00    -0.248 NA
ATOM     51  C   UNL     1      13.199   1.436   6.212  1.00  0.00     0.031 C 
ATOM     52  C   UNL     1       8.780  -0.507   4.948  1.00  0.00     0.029 A 
ATOM     53  N   UNL     1      10.572  -0.287   3.608  1.00  0.00    -0.354 N 
ATOM     54  C   UNL     1      13.517  -0.339   7.650  1.00  0.00     0.074 A 
ATOM     55  C   UNL     1      14.065   0.866   7.072  1.00  0.00     0.031 C 
ATOM     56  C   UNL     1       8.651  -1.408   3.953  1.00  0.00     0.029 A 
ATOM     57  C   UNL     1       9.790  -1.294   3.045  1.00  0.00     0.049 A 
ATOM     58  H   UNL     1      11.383   0.073   3.183  1.00  0.00     0.167 HD
ATOM     59  C   UNL     1      13.997  -1.263   8.532  1.00  0.00     0.034 A 
ATOM     60  C   UNL     1      10.295  -2.319   2.307  1.00  0.00     0.034 A 
ATOM     61  C   UNL     1      13.126  -2.401   8.749  1.00  0.00     0.049 A 
ATOM     62  C   UNL     1      10.980  -3.133   3.387  1.00  0.00     0.074 A 
ATOM     63  C   UNL     1      12.521  -3.104   9.764  1.00  0.00     0.029 A 
ATOM     64  N   UNL     1      12.701  -2.985   7.587  1.00  0.00    -0.354 N 
ATOM     65  N   UNL     1      10.393  -3.915   4.256  1.00  0.00    -0.248 NA
ATOM     66  C   UNL     1      12.400  -2.878   3.671  1.00  0.00     0.031 C 
ATOM     67  C   UNL     1      11.623  -4.043   9.140  1.00  0.00     0.029 A 
ATOM     68  C   UNL     1      11.713  -3.904   7.758  1.00  0.00     0.049 A 
ATOM     69  H   UNL     1      13.077  -2.759   6.705  1.00  0.00     0.167 HD
ATOM     70  C   UNL     1      11.296  -4.035   5.313  1.00  0.00     0.074 A 
ATOM     71  C   UNL     1      12.560  -3.541   4.808  1.00  0.00     0.031 C 
ATOM     72  C   UNL     1      10.936  -4.326   6.601  1.00  0.00     0.034 A 
BRANCH  59  73
ATOM     73  C   UNL     1      15.430  -1.361   8.908  1.00  0.00     0.023 A 
ATOM     74  C   UNL     1      16.032  -0.672   9.968  1.00  0.00     0.031 A 
ATOM     75  C   UNL     1      16.191  -2.328   8.215  1.00  0.00     0.131 A 
ATOM     76  C   UNL     1      17.361  -0.987  10.316  1.00  0.00     0.055 A 
ATOM     77  C   UNL     1      17.495  -2.647   8.576  1.00  0.00     0.041 A 
ATOM     78  F   UNL     1      15.657  -2.993   7.177  1.00  0.00    -0.206 F 
ATOM     79  C   UNL     1      18.085  -1.978   9.638  1.00  0.00     0.022 A 
BRANCH  76  80
ATOM     80  S   UNL     1      18.220  -0.145  11.676  1.00  0.00     0.124 S 
ATOM     81  O   UNL     1      18.581  -1.257  12.552  1.00  0.00    -0.237 OA
ATOM     82  O   UNL     1      19.337   0.490  10.981  1.00  0.00    -0.237 OA
ATOM     83  O   UNL     1      17.216   0.771  12.208  1.00  0.00    -0.744 OA
ENDBRANCH  76  80
ENDBRANCH  59  73
BRANCH  60  84
ATOM     84  C   UNL     1      10.971  -1.920   1.024  1.00  0.00     0.023 A 
ATOM     85  C   UNL     1      12.252  -2.344   0.649  1.00  0.00     0.031 A 
ATOM     86  C   UNL     1      10.323  -1.023   0.145  1.00  0.00     0.131 A 
ATOM     87  C   UNL     1      12.934  -1.696  -0.390  1.00  0.00     0.055 A 
ATOM     88  C   UNL     1      10.973  -0.444  -0.950  1.00  0.00     0.041 A 
ATOM     89  F   UNL     1       9.040  -0.676   0.348  1.00  0.00    -0.206 F 
ATOM     90  C   UNL     1      12.306  -0.743  -1.192  1.00  0.00     0.022 A 
BRANCH  87  91
ATOM     91  S   UNL     1      14.710  -1.983  -0.629  1.00  0.00     0.124 S 
ATOM     92  O   UNL     1      14.809  -2.140  -2.077  1.00  0.00    -0.237 OA
ATOM     93  O   UNL     1      15.268  -0.749  -0.084  1.00  0.00    -0.237 OA
ATOM     94  O   UNL     1      14.963  -3.188   0.152  1.00  0.00    -0.744 OA
ENDBRANCH  87  91
ENDBRANCH  60  84
BRANCH  72  95
ATOM     95  C   UNL     1       9.619  -5.004   6.789  1.00  0.00     0.023 A 
ATOM     96  C   UNL     1       8.667  -4.540   7.713  1.00  0.00     0.031 A 
ATOM     97  C   UNL     1       9.375  -6.223   6.130  1.00  0.00     0.131 A 
ATOM     98  C   UNL     1       7.537  -5.321   7.989  1.00  0.00     0.055 A 
ATOM     99  C   UNL     1       8.223  -6.967   6.369  1.00  0.00     0.041 A 
ATOM    100  F   UNL     1      10.284  -6.743   5.288  1.00  0.00    -0.206 F 
ATOM    101  C   UNL     1       7.304  -6.524   7.312  1.00  0.00     0.022 A 
BRANCH  98 102
ATOM    102  S   UNL     1       6.364  -4.845   9.287  1.00  0.00     0.124 S 
ATOM    103  O   UNL     1       5.073  -5.010   8.621  1.00  0.00    -0.237 OA
ATOM    104  O   UNL     1       6.658  -5.826  10.329  1.00  0.00    -0.237 OA
ATOM    105  O   UNL     1       6.720  -3.465   9.600  1.00  0.00    -0.744 OA
ENDBRANCH  98 102
ENDBRANCH  72  95
ENDBRANCH  46  47
ENDBRANCH  38  41
ENDBRANCH  36  37
ENDBRANCH  35  36
ENDBRANCH   1  35
TORSDOF 19
