REMARK SMILES Cc1cc(C[N@H+]2CC[C@](C)(C(=O)NCCCNC(=O)c3ccc(-c4c5nc(c(-c6cc(S(=O)(=O)[O-])ccc6F)c6ccc([nH]6)c(-c6cc(S(=O)(=O)[O-])ccc6F)c6nc(c(-c7cc(S(=O)(=O)[O-])ccc7F)c7ccc4[nH]7)C=C6)C=C5)cc3)C2)c2ccccc2n1
REMARK SMILES IDX 15 1 14 2 13 3 11 4 12 5 9 7 6 8 7 9 83 10 8 12 10 13 5 14
REMARK SMILES IDX 4 15 1 16 2 17 3 18 90 19 89 20 84 21 88 22 85 23 87 24
REMARK SMILES IDX 86 25 16 26 17 27 18 28 19 30 20 31 21 32 82 33 22 34 81 35
REMARK SMILES IDX 23 36 24 37 25 38 75 39 26 40 80 41 74 42 76 43 27 44 79 45
REMARK SMILES IDX 73 46 72 47 28 49 60 50 40 51 59 52 41 53 44 54 58 55 77 56
REMARK SMILES IDX 42 57 43 58 57 60 78 61 45 62 29 63 30 64 38 65 31 66 37 67
REMARK SMILES IDX 39 68 36 69 32 70 33 71 34 72 35 73 61 74 62 75 70 76 63 77
REMARK SMILES IDX 69 78 71 79 68 80 64 81 65 82 66 83 67 84 46 85 47 86 55 87
REMARK SMILES IDX 48 88 54 89 56 90 53 91 49 92 50 93 51 94 52 95
REMARK H PARENT 13 6 6 11 17 29 76 48 44 59
REMARK Flexibility Score: inf
ROOT
ATOM      1  C   UNL     1       5.240   2.574   0.589  1.00  0.00     0.042 C 
ENDROOT
BRANCH   1   2
ATOM      2  C   UNL     1       4.738   1.862   1.838  1.00  0.00     0.117 C 
BRANCH   2   3
ATOM      3  N   UNL     1       4.424   2.763   2.940  1.00  0.00    -0.355 N 
ATOM      4  C   UNL     1       3.234   3.109   3.523  1.00  0.00     0.231 C 
ATOM      5  O   UNL     1       3.286   3.815   4.533  1.00  0.00    -0.274 OA
ATOM      6  H   UNL     1       5.210   3.202   3.338  1.00  0.00     0.163 HD
BRANCH   4   7
ATOM      7  C   UNL     1       1.900   2.617   2.956  1.00  0.00     0.100 C 
ATOM      8  N   UNL     1       0.356   3.389   1.262  1.00  0.00    -0.330 N 
ATOM      9  C   UNL     1      -0.396   3.177   2.489  1.00  0.00     0.263 C 
ATOM     10  C   UNL     1       1.761   3.083   1.504  1.00  0.00     0.279 C 
ATOM     11  H   UNL     1       0.274   4.384   1.052  1.00  0.00     0.348 HD
ATOM     12  C   UNL     1       0.672   3.309   3.578  1.00  0.00     0.084 C 
ATOM     13  C   UNL     1       1.749   1.099   3.183  1.00  0.00     0.028 C 
BRANCH   8  14
ATOM     14  C   UNL     1      -0.219   2.966  -0.014  1.00  0.00     0.299 C 
BRANCH  14  15
ATOM     15  C   UNL     1      -0.537   1.487  -0.152  1.00  0.00     0.017 A 
ATOM     16  C   UNL     1      -3.564  -0.756   0.267  1.00  0.00     0.067 C 
ATOM     17  C   UNL     1      -2.152  -0.277   0.119  1.00  0.00     0.038 A 
ATOM     18  C   UNL     1      -1.855   1.076   0.096  1.00  0.00     0.033 A 
ATOM     19  N   UNL     1      -1.201  -1.229   0.010  1.00  0.00    -0.253 NA
ATOM     20  C   UNL     1       0.058  -0.853  -0.265  1.00  0.00     0.071 A 
ATOM     21  C   UNL     1       0.433   0.494  -0.455  1.00  0.00     0.009 A 
ATOM     22  C   UNL     1       1.030  -1.841  -0.364  1.00  0.00     0.029 A 
ATOM     23  C   UNL     1       1.743   0.757  -0.926  1.00  0.00     0.011 A 
ATOM     24  C   UNL     1       2.349  -1.552  -0.718  1.00  0.00     0.002 A 
ATOM     25  C   UNL     1       2.698  -0.251  -1.038  1.00  0.00     0.001 A 
ENDBRANCH  14  15
ENDBRANCH   8  14
ENDBRANCH   4   7
ENDBRANCH   2   3
ENDBRANCH   1   2
BRANCH   1  26
ATOM     26  C   UNL     1       6.645   3.148   0.719  1.00  0.00     0.118 C 
BRANCH  26  27
ATOM     27  N   UNL     1       7.661   2.116   0.893  1.00  0.00    -0.352 N 
ATOM     28  C   UNL     1       8.738   1.777   0.105  1.00  0.00     0.251 C 
ATOM     29  H   UNL     1       7.561   1.574   1.709  1.00  0.00     0.163 HD
ATOM     30  O   UNL     1       9.361   0.753   0.353  1.00  0.00    -0.269 OA
BRANCH  28  31
ATOM     31  C   UNL     1       9.119   2.622  -1.050  1.00  0.00     0.039 A 
ATOM     32  C   UNL     1       9.495   2.007  -2.249  1.00  0.00     0.014 A 
ATOM     33  C   UNL     1       9.111   4.015  -0.957  1.00  0.00     0.014 A 
ATOM     34  C   UNL     1       9.766   2.788  -3.377  1.00  0.00     0.010 A 
ATOM     35  C   UNL     1       9.295   4.786  -2.100  1.00  0.00     0.010 A 
ATOM     36  C   UNL     1       9.616   4.182  -3.326  1.00  0.00    -0.014 A 
BRANCH  36  37
ATOM     37  C   UNL     1       9.774   5.042  -4.529  1.00  0.00     0.031 A 
ATOM     38  C   UNL     1      10.823   6.120  -4.545  1.00  0.00     0.074 A 
ATOM     39  C   UNL     1       8.902   4.932  -5.551  1.00  0.00     0.049 A 
ATOM     40  N   UNL     1      10.999   7.096  -5.398  1.00  0.00    -0.248 NA
ATOM     41  C   UNL     1      11.774   6.122  -3.424  1.00  0.00     0.031 C 
ATOM     42  C   UNL     1       7.819   3.950  -5.639  1.00  0.00     0.029 A 
ATOM     43  N   UNL     1       8.769   5.673  -6.700  1.00  0.00    -0.354 N 
ATOM     44  C   UNL     1      12.058   7.848  -4.900  1.00  0.00     0.074 A 
ATOM     45  C   UNL     1      12.447   7.240  -3.644  1.00  0.00     0.031 C 
ATOM     46  C   UNL     1       7.138   4.145  -6.780  1.00  0.00     0.029 A 
ATOM     47  C   UNL     1       7.697   5.298  -7.479  1.00  0.00     0.049 A 
ATOM     48  H   UNL     1       9.382   6.403  -6.944  1.00  0.00     0.167 HD
ATOM     49  C   UNL     1      12.658   8.934  -5.448  1.00  0.00     0.034 A 
ATOM     50  C   UNL     1       7.202   5.837  -8.610  1.00  0.00     0.034 A 
ATOM     51  C   UNL     1      12.271   9.510  -6.713  1.00  0.00     0.049 A 
ATOM     52  C   UNL     1       7.878   7.048  -9.199  1.00  0.00     0.074 A 
ATOM     53  C   UNL     1      12.851  10.568  -7.393  1.00  0.00     0.029 A 
ATOM     54  N   UNL     1      11.202   9.079  -7.489  1.00  0.00    -0.354 N 
ATOM     55  N   UNL     1       8.902   7.727  -8.736  1.00  0.00    -0.248 NA
ATOM     56  C   UNL     1       7.340   7.559 -10.466  1.00  0.00     0.031 C 
ATOM     57  C   UNL     1      12.095  10.816  -8.544  1.00  0.00     0.029 A 
ATOM     58  C   UNL     1      11.090   9.867  -8.625  1.00  0.00     0.049 A 
ATOM     59  H   UNL     1      10.610   8.325  -7.265  1.00  0.00     0.167 HD
ATOM     60  C   UNL     1       9.151   8.725  -9.675  1.00  0.00     0.074 A 
ATOM     61  C   UNL     1       8.173   8.556 -10.730  1.00  0.00     0.031 C 
ATOM     62  C   UNL     1      10.107   9.688  -9.668  1.00  0.00     0.034 A 
BRANCH  49  63
ATOM     63  C   UNL     1      13.773   9.583  -4.660  1.00  0.00     0.023 A 
ATOM     64  C   UNL     1      14.957   8.892  -4.348  1.00  0.00     0.031 A 
ATOM     65  C   UNL     1      13.636  10.898  -4.182  1.00  0.00     0.131 A 
ATOM     66  C   UNL     1      15.914   9.484  -3.509  1.00  0.00     0.055 A 
ATOM     67  C   UNL     1      14.632  11.514  -3.422  1.00  0.00     0.041 A 
ATOM     68  F   UNL     1      12.521  11.603  -4.431  1.00  0.00    -0.206 F 
ATOM     69  C   UNL     1      15.772  10.800  -3.065  1.00  0.00     0.022 A 
BRANCH  66  70
ATOM     70  S   UNL     1      17.265   8.451  -2.877  1.00  0.00     0.124 S 
ATOM     71  O   UNL     1      16.529   7.391  -2.192  1.00  0.00    -0.237 OA
ATOM     72  O   UNL     1      17.960   8.061  -4.098  1.00  0.00    -0.237 OA
ATOM     73  O   UNL     1      18.004   9.354  -1.998  1.00  0.00    -0.744 OA
ENDBRANCH  66  70
ENDBRANCH  49  63
BRANCH  50  74
ATOM     74  C   UNL     1       5.990   5.253  -9.252  1.00  0.00     0.023 A 
ATOM     75  C   UNL     1       6.065   4.639 -10.512  1.00  0.00     0.031 A 
ATOM     76  C   UNL     1       4.733   5.321  -8.625  1.00  0.00     0.131 A 
ATOM     77  C   UNL     1       4.899   4.154 -11.124  1.00  0.00     0.055 A 
ATOM     78  C   UNL     1       3.584   4.793  -9.216  1.00  0.00     0.041 A 
ATOM     79  F   UNL     1       4.608   5.889  -7.415  1.00  0.00    -0.206 F 
ATOM     80  C   UNL     1       3.661   4.215 -10.480  1.00  0.00     0.022 A 
BRANCH  77  81
ATOM     81  S   UNL     1       5.012   3.501 -12.813  1.00  0.00     0.124 S 
ATOM     82  O   UNL     1       5.531   4.653 -13.542  1.00  0.00    -0.237 OA
ATOM     83  O   UNL     1       5.931   2.381 -12.643  1.00  0.00    -0.237 OA
ATOM     84  O   UNL     1       3.634   3.131 -13.127  1.00  0.00    -0.744 OA
ENDBRANCH  77  81
ENDBRANCH  50  74
BRANCH  62  85
ATOM     85  C   UNL     1      10.181  10.593 -10.873  1.00  0.00     0.023 A 
ATOM     86  C   UNL     1       9.183  11.541 -11.154  1.00  0.00     0.031 A 
ATOM     87  C   UNL     1      11.280  10.506 -11.747  1.00  0.00     0.131 A 
ATOM     88  C   UNL     1       9.283  12.337 -12.306  1.00  0.00     0.055 A 
ATOM     89  C   UNL     1      11.400  11.336 -12.861  1.00  0.00     0.041 A 
ATOM     90  F   UNL     1      12.260   9.615 -11.525  1.00  0.00    -0.206 F 
ATOM     91  C   UNL     1      10.393  12.252 -13.152  1.00  0.00     0.022 A 
BRANCH  88  92
ATOM     92  S   UNL     1       7.906  13.441 -12.727  1.00  0.00     0.124 S 
ATOM     93  O   UNL     1       6.799  12.502 -12.876  1.00  0.00    -0.237 OA
ATOM     94  O   UNL     1       7.844  14.321 -11.565  1.00  0.00    -0.237 OA
ATOM     95  O   UNL     1       8.346  14.082 -13.965  1.00  0.00    -0.744 OA
ENDBRANCH  88  92
ENDBRANCH  62  85
ENDBRANCH  36  37
ENDBRANCH  28  31
ENDBRANCH  26  27
ENDBRANCH   1  26
TORSDOF 15
