REMARK SMILES C[C@H](NC(=O)CCN1C(=O)/C(=C/c2ccc([N+](=O)[O-])cc2)SC1=S)C(=O)NCCCNC(=O)c1ccc(-c2c3nc(c(-c4cc(S(=O)(=O)[O-])ccc4F)c4ccc([nH]4)c(-c4cc(S(=O)(=O)[O-])ccc4F)c4nc(c(-c5cc(S(=O)(=O)[O-])ccc5F)c5ccc2[nH]5)C=C4)C=C3)cc1
REMARK SMILES IDX 25 1 26 2 27 3 2 5 1 6 3 7 4 8 5 10 6 11 7 12 8 13 9 14
REMARK SMILES IDX 23 15 10 16 11 17 22 18 24 19 12 20 13 21 14 22 21 23 15 24
REMARK SMILES IDX 20 25 16 26 17 27 18 28 19 29 28 30 29 31 30 32 31 33 32 34
REMARK SMILES IDX 33 36 34 37 35 38 96 39 36 40 95 41 37 42 38 43 39 44 89 45
REMARK SMILES IDX 40 46 94 47 88 48 90 49 41 50 93 51 87 52 86 53 42 55 74 56
REMARK SMILES IDX 54 57 73 58 55 59 58 60 72 61 91 62 56 63 57 64 71 66 92 67
REMARK SMILES IDX 59 68 43 69 44 70 52 71 45 72 51 73 53 74 50 75 46 76 47 77
REMARK SMILES IDX 48 78 49 79 75 80 76 81 84 82 77 83 83 84 85 85 82 86 78 87
REMARK SMILES IDX 79 88 80 89 81 90 60 91 61 92 69 93 62 94 68 95 70 96 67 97
REMARK SMILES IDX 63 98 64 99 65 100 66 101
REMARK H PARENT 27 4 3 9 31 35 90 54 58 65
REMARK Flexibility Score: inf
ROOT
ATOM      1  C   UNL     1      -0.953   0.837  -0.959  1.00  0.00     0.242 C 
ATOM      2  O   UNL     1      -1.339   1.684  -1.775  1.00  0.00    -0.273 OA
ATOM      3  N   UNL     1      -1.850   0.540   0.036  1.00  0.00    -0.354 N 
ATOM      4  H   UNL     1      -1.901   1.170   0.791  1.00  0.00     0.163 HD
ENDROOT
BRANCH   1   5
ATOM      5  C   UNL     1       0.594   0.515  -0.832  1.00  0.00     0.168 C 
ATOM      6  C   UNL     1       1.343   0.668  -2.154  1.00  0.00     0.041 C 
BRANCH   5   7
ATOM      7  N   UNL     1       1.079  -0.575   0.030  1.00  0.00    -0.345 N 
ATOM      8  C   UNL     1       2.197  -1.355  -0.009  1.00  0.00     0.222 C 
ATOM      9  H   UNL     1       0.479  -0.782   0.782  1.00  0.00     0.164 HD
ATOM     10  O   UNL     1       2.829  -1.431   1.052  1.00  0.00    -0.275 OA
BRANCH   8  11
ATOM     11  C   UNL     1       2.742  -2.096  -1.232  1.00  0.00     0.122 C 
BRANCH  11  12
ATOM     12  C   UNL     1       1.903  -3.175  -1.939  1.00  0.00     0.137 C 
BRANCH  12  13
ATOM     13  N   UNL     1       0.732  -2.688  -2.676  1.00  0.00    -0.292 N 
ATOM     14  C   UNL     1       0.844  -2.234  -3.975  1.00  0.00     0.266 C 
ATOM     15  C   UNL     1      -0.555  -2.763  -2.208  1.00  0.00     0.148 C 
ATOM     16  O   UNL     1       1.807  -2.397  -4.718  1.00  0.00    -0.268 OA
ATOM     17  C   UNL     1      -0.374  -1.453  -4.353  1.00  0.00     0.081 C 
ATOM     18  S   UNL     1      -1.619  -1.786  -3.235  1.00  0.00    -0.054 SA
ATOM     19  S   UNL     1      -1.077  -3.669  -0.913  1.00  0.00    -0.052 S 
ATOM     20  C   UNL     1      -0.311  -0.548  -5.341  1.00  0.00     0.029 C 
BRANCH  20  21
ATOM     21  C   UNL     1      -1.198   0.570  -5.721  1.00  0.00    -0.024 A 
ATOM     22  C   UNL     1      -1.818   0.586  -6.973  1.00  0.00     0.015 A 
ATOM     23  C   UNL     1      -1.204   1.753  -4.968  1.00  0.00     0.015 A 
ATOM     24  C   UNL     1      -2.375   1.773  -7.481  1.00  0.00     0.086 A 
ATOM     25  C   UNL     1      -1.742   2.947  -5.462  1.00  0.00     0.086 A 
ATOM     26  C   UNL     1      -2.305   2.958  -6.735  1.00  0.00     0.269 A 
BRANCH  26  27
ATOM     27  N   UNL     1      -2.764   4.227  -7.315  1.00  0.00     0.062 N 
ATOM     28  O   UNL     1      -3.285   4.191  -8.439  1.00  0.00    -0.258 OA
ATOM     29  O   UNL     1      -2.580   5.264  -6.661  1.00  0.00    -0.258 OA
ENDBRANCH  26  27
ENDBRANCH  20  21
ENDBRANCH  12  13
ENDBRANCH  11  12
ENDBRANCH   8  11
ENDBRANCH   5   7
ENDBRANCH   1   5
BRANCH   3  30
ATOM     30  C   UNL     1      -2.745  -0.631   0.086  1.00  0.00     0.117 C 
BRANCH  30  31
ATOM     31  C   UNL     1      -2.681  -1.345   1.426  1.00  0.00     0.042 C 
BRANCH  31  32
ATOM     32  C   UNL     1      -3.835  -2.309   1.709  1.00  0.00     0.118 C 
BRANCH  32  33
ATOM     33  N   UNL     1      -3.887  -3.576   0.983  1.00  0.00    -0.352 N 
ATOM     34  C   UNL     1      -4.329  -4.816   1.436  1.00  0.00     0.251 C 
ATOM     35  H   UNL     1      -3.568  -3.550   0.052  1.00  0.00     0.163 HD
ATOM     36  O   UNL     1      -4.295  -5.798   0.702  1.00  0.00    -0.269 OA
BRANCH  34  37
ATOM     37  C   UNL     1      -4.782  -4.954   2.844  1.00  0.00     0.039 A 
ATOM     38  C   UNL     1      -4.331  -6.015   3.635  1.00  0.00     0.014 A 
ATOM     39  C   UNL     1      -5.549  -3.946   3.416  1.00  0.00     0.014 A 
ATOM     40  C   UNL     1      -4.545  -5.983   5.020  1.00  0.00     0.010 A 
ATOM     41  C   UNL     1      -5.589  -3.822   4.795  1.00  0.00     0.010 A 
ATOM     42  C   UNL     1      -5.117  -4.850   5.622  1.00  0.00    -0.014 A 
BRANCH  42  43
ATOM     43  C   UNL     1      -5.296  -4.717   7.095  1.00  0.00     0.031 A 
ATOM     44  C   UNL     1      -6.671  -4.407   7.643  1.00  0.00     0.074 A 
ATOM     45  C   UNL     1      -4.233  -4.781   7.925  1.00  0.00     0.049 A 
ATOM     46  N   UNL     1      -7.035  -4.120   8.866  1.00  0.00    -0.248 NA
ATOM     47  C   UNL     1      -7.775  -4.346   6.670  1.00  0.00     0.031 C 
ATOM     48  C   UNL     1      -2.843  -4.999   7.514  1.00  0.00     0.029 A 
ATOM     49  N   UNL     1      -4.153  -4.667   9.292  1.00  0.00    -0.354 N 
ATOM     50  C   UNL     1      -8.391  -3.814   8.793  1.00  0.00     0.074 A 
ATOM     51  C   UNL     1      -8.753  -3.834   7.396  1.00  0.00     0.031 C 
ATOM     52  C   UNL     1      -2.063  -5.062   8.606  1.00  0.00     0.029 A 
ATOM     53  C   UNL     1      -2.880  -4.834   9.792  1.00  0.00     0.049 A 
ATOM     54  H   UNL     1      -4.934  -4.483   9.862  1.00  0.00     0.167 HD
ATOM     55  C   UNL     1      -9.271  -3.590   9.799  1.00  0.00     0.034 A 
ATOM     56  C   UNL     1      -2.427  -4.806  11.063  1.00  0.00     0.034 A 
ATOM     57  C   UNL     1      -8.899  -3.628  11.188  1.00  0.00     0.049 A 
ATOM     58  C   UNL     1      -3.423  -4.561  12.172  1.00  0.00     0.074 A 
ATOM     59  C   UNL     1      -9.707  -3.488  12.301  1.00  0.00     0.029 A 
ATOM     60  N   UNL     1      -7.605  -3.825  11.655  1.00  0.00    -0.354 N 
ATOM     61  N   UNL     1      -4.715  -4.337  12.088  1.00  0.00    -0.248 NA
ATOM     62  C   UNL     1      -2.904  -4.579  13.544  1.00  0.00     0.031 C 
ATOM     63  C   UNL     1      -8.892  -3.525  13.436  1.00  0.00     0.029 A 
ATOM     64  C   UNL     1      -7.588  -3.779  13.038  1.00  0.00     0.049 A 
ATOM     65  H   UNL     1      -6.816  -3.975  11.085  1.00  0.00     0.167 HD
ATOM     66  C   UNL     1      -5.167  -4.222  13.400  1.00  0.00     0.074 A 
ATOM     67  C   UNL     1      -4.012  -4.422  14.252  1.00  0.00     0.031 C 
ATOM     68  C   UNL     1      -6.420  -3.978  13.864  1.00  0.00     0.034 A 
BRANCH  55  69
ATOM     69  C   UNL     1     -10.703  -3.287   9.419  1.00  0.00     0.023 A 
ATOM     70  C   UNL     1     -11.484  -4.198   8.683  1.00  0.00     0.031 A 
ATOM     71  C   UNL     1     -11.284  -2.052   9.756  1.00  0.00     0.131 A 
ATOM     72  C   UNL     1     -12.757  -3.825   8.227  1.00  0.00     0.055 A 
ATOM     73  C   UNL     1     -12.590  -1.726   9.383  1.00  0.00     0.041 A 
ATOM     74  F   UNL     1     -10.585  -1.130  10.436  1.00  0.00    -0.206 F 
ATOM     75  C   UNL     1     -13.328  -2.607   8.598  1.00  0.00     0.022 A 
BRANCH  72  76
ATOM     76  S   UNL     1     -13.582  -4.882   7.005  1.00  0.00     0.124 S 
ATOM     77  O   UNL     1     -12.615  -4.874   5.909  1.00  0.00    -0.237 OA
ATOM     78  O   UNL     1     -13.723  -6.144   7.722  1.00  0.00    -0.237 OA
ATOM     79  O   UNL     1     -14.831  -4.176   6.729  1.00  0.00    -0.744 OA
ENDBRANCH  72  76
ENDBRANCH  55  69
BRANCH  56  80
ATOM     80  C   UNL     1      -0.980  -5.024  11.367  1.00  0.00     0.023 A 
ATOM     81  C   UNL     1      -0.558  -6.121  12.137  1.00  0.00     0.031 A 
ATOM     82  C   UNL     1       0.001  -4.115  10.931  1.00  0.00     0.131 A 
ATOM     83  C   UNL     1       0.795  -6.254  12.491  1.00  0.00     0.055 A 
ATOM     84  C   UNL     1       1.354  -4.285  11.235  1.00  0.00     0.041 A 
ATOM     85  F   UNL     1      -0.342  -3.048  10.192  1.00  0.00    -0.206 F 
ATOM     86  C   UNL     1       1.756  -5.352  12.032  1.00  0.00     0.022 A 
BRANCH  83  87
ATOM     87  S   UNL     1       1.267  -7.570  13.649  1.00  0.00     0.124 S 
ATOM     88  O   UNL     1       0.425  -7.268  14.800  1.00  0.00    -0.237 OA
ATOM     89  O   UNL     1       0.923  -8.772  12.897  1.00  0.00    -0.237 OA
ATOM     90  O   UNL     1       2.699  -7.350  13.848  1.00  0.00    -0.744 OA
ENDBRANCH  83  87
ENDBRANCH  56  80
BRANCH  68  91
ATOM     91  C   UNL     1      -6.608  -3.963  15.360  1.00  0.00     0.023 A 
ATOM     92  C   UNL     1      -6.011  -2.984  16.171  1.00  0.00     0.031 A 
ATOM     93  C   UNL     1      -7.400  -4.946  15.981  1.00  0.00     0.131 A 
ATOM     94  C   UNL     1      -6.163  -3.046  17.563  1.00  0.00     0.055 A 
ATOM     95  C   UNL     1      -7.607  -4.959  17.359  1.00  0.00     0.041 A 
ATOM     96  F   UNL     1      -7.993  -5.907  15.253  1.00  0.00    -0.206 F 
ATOM     97  C   UNL     1      -6.974  -4.013  18.161  1.00  0.00     0.022 A 
BRANCH  94  98
ATOM     98  S   UNL     1      -5.195  -1.908  18.591  1.00  0.00     0.124 S 
ATOM     99  O   UNL     1      -3.829  -2.221  18.184  1.00  0.00    -0.237 OA
ATOM    100  O   UNL     1      -5.701  -0.604  18.175  1.00  0.00    -0.237 OA
ATOM    101  O   UNL     1      -5.542  -2.301  19.956  1.00  0.00    -0.744 OA
ENDBRANCH  94  98
ENDBRANCH  68  91
ENDBRANCH  42  43
ENDBRANCH  34  37
ENDBRANCH  32  33
ENDBRANCH  31  32
ENDBRANCH  30  31
ENDBRANCH   3  30
TORSDOF 19
