REMARK SMILES CCC(=O)N1CCC[C@](C[C@H]2CC(c3ccc(C)cc3)=NO2)(C(=O)NCCCNC(=O)c2ccc(-c3c4nc(c(-c5cc(S(=O)(=O)[O-])ccc5F)c5ccc([nH]5)c(-c5cc(S(=O)(=O)[O-])ccc5F)c5nc(c(-c6cc(S(=O)(=O)[O-])ccc6F)c6ccc3[nH]6)C=C5)C=C4)cc2)C1
REMARK SMILES IDX 27 1 26 2 25 3 23 4 24 5 9 7 5 8 6 9 95 10 7 11 8 12 3 13
REMARK SMILES IDX 4 14 2 15 1 16 10 17 11 18 12 19 22 20 13 21 21 22 14 23
REMARK SMILES IDX 15 24 20 25 16 26 19 27 17 28 18 29 28 30 29 31 30 32 31 34
REMARK SMILES IDX 32 35 33 36 94 37 34 38 93 39 35 40 36 41 37 42 87 43 38 44
REMARK SMILES IDX 92 45 86 46 88 47 39 48 91 49 85 50 84 51 40 53 72 54 52 55
REMARK SMILES IDX 71 56 53 57 56 58 70 59 89 60 54 61 55 62 69 64 90 65 57 66
REMARK SMILES IDX 41 67 42 68 50 69 43 70 49 71 51 72 48 73 44 74 45 75 46 76
REMARK SMILES IDX 47 77 73 78 74 79 82 80 75 81 81 82 83 83 80 84 76 85 77 86
REMARK SMILES IDX 78 87 79 88 58 89 59 90 67 91 60 92 66 93 68 94 65 95 61 96
REMARK SMILES IDX 62 97 63 98 64 99
REMARK H PARENT 25 6 29 33 88 52 56 63
REMARK Flexibility Score: inf
ROOT
ATOM      1  C   UNL     1       4.703  -0.122  -4.468  1.00  0.00     0.042 C 
ENDROOT
BRANCH   1   2
ATOM      2  C   UNL     1       4.693   1.396  -4.654  1.00  0.00     0.117 C 
BRANCH   2   3
ATOM      3  N   UNL     1       3.591   2.022  -3.924  1.00  0.00    -0.355 N 
ATOM      4  C   UNL     1       3.272   2.273  -2.630  1.00  0.00     0.228 C 
ATOM      5  O   UNL     1       2.085   2.590  -2.472  1.00  0.00    -0.274 OA
ATOM      6  H   UNL     1       2.893   2.348  -4.537  1.00  0.00     0.163 HD
BRANCH   4   7
ATOM      7  C   UNL     1       4.256   2.298  -1.402  1.00  0.00     0.070 C 
ATOM      8  N   UNL     1       2.436   2.706   0.354  1.00  0.00    -0.342 N 
ATOM      9  C   UNL     1       2.896   4.071   0.576  1.00  0.00     0.119 C 
ATOM     10  C   UNL     1       3.450   1.780  -0.164  1.00  0.00     0.136 C 
ATOM     11  C   UNL     1       3.538   4.667  -0.666  1.00  0.00     0.023 C 
ATOM     12  C   UNL     1       4.668   3.773  -1.180  1.00  0.00     0.021 C 
BRANCH   8  13
ATOM     13  C   UNL     1       1.135   2.392   0.722  1.00  0.00     0.222 C 
ATOM     14  O   UNL     1       0.326   3.274   1.038  1.00  0.00    -0.275 OA
BRANCH  13  15
ATOM     15  C   UNL     1       0.721   0.941   0.952  1.00  0.00     0.097 C 
ATOM     16  C   UNL     1       0.737  -0.029  -0.212  1.00  0.00     0.014 C 
ENDBRANCH  13  15
ENDBRANCH   8  13
BRANCH   7  17
ATOM     17  C   UNL     1       5.508   1.406  -1.645  1.00  0.00     0.067 C 
BRANCH  17  18
ATOM     18  C   UNL     1       6.641   1.154  -0.638  1.00  0.00     0.211 C 
ATOM     19  C   UNL     1       7.597   2.299  -0.394  1.00  0.00     0.108 C 
ATOM     20  O   UNL     1       6.186   0.694   0.632  1.00  0.00    -0.392 OA
ATOM     21  C   UNL     1       7.370   2.477   1.059  1.00  0.00     0.091 C 
ATOM     22  N   UNL     1       6.640   1.580   1.635  1.00  0.00    -0.090 NA
BRANCH  21  23
ATOM     23  C   UNL     1       8.022   3.570   1.785  1.00  0.00    -0.001 A 
ATOM     24  C   UNL     1       7.823   4.894   1.393  1.00  0.00     0.010 A 
ATOM     25  C   UNL     1       8.846   3.261   2.867  1.00  0.00     0.010 A 
ATOM     26  C   UNL     1       8.457   5.920   2.094  1.00  0.00     0.004 A 
ATOM     27  C   UNL     1       9.495   4.289   3.551  1.00  0.00     0.004 A 
ATOM     28  C   UNL     1       9.298   5.626   3.176  1.00  0.00    -0.051 A 
ATOM     29  C   UNL     1      10.004   6.722   3.918  1.00  0.00     0.044 C 
ENDBRANCH  21  23
ENDBRANCH  17  18
ENDBRANCH   7  17
ENDBRANCH   4   7
ENDBRANCH   2   3
ENDBRANCH   1   2
BRANCH   1  30
ATOM     30  C   UNL     1       4.022  -0.872  -5.609  1.00  0.00     0.118 C 
BRANCH  30  31
ATOM     31  N   UNL     1       4.949  -1.573  -6.495  1.00  0.00    -0.352 N 
ATOM     32  C   UNL     1       4.642  -2.393  -7.574  1.00  0.00     0.251 C 
ATOM     33  H   UNL     1       5.907  -1.448  -6.305  1.00  0.00     0.163 HD
ATOM     34  O   UNL     1       5.494  -2.957  -8.225  1.00  0.00    -0.269 OA
BRANCH  32  35
ATOM     35  C   UNL     1       3.216  -2.471  -7.972  1.00  0.00     0.039 A 
ATOM     36  C   UNL     1       2.868  -1.900  -9.200  1.00  0.00     0.014 A 
ATOM     37  C   UNL     1       2.249  -2.802  -7.028  1.00  0.00     0.014 A 
ATOM     38  C   UNL     1       1.566  -1.444  -9.386  1.00  0.00     0.010 A 
ATOM     39  C   UNL     1       0.984  -2.265  -7.177  1.00  0.00     0.010 A 
ATOM     40  C   UNL     1       0.664  -1.523  -8.325  1.00  0.00    -0.014 A 
BRANCH  40  41
ATOM     41  C   UNL     1      -0.558  -0.724  -8.263  1.00  0.00     0.031 A 
ATOM     42  C   UNL     1      -1.889  -1.361  -8.319  1.00  0.00     0.074 A 
ATOM     43  C   UNL     1      -0.481   0.615  -8.089  1.00  0.00     0.049 A 
ATOM     44  N   UNL     1      -2.988  -0.742  -8.596  1.00  0.00    -0.248 NA
ATOM     45  C   UNL     1      -2.072  -2.793  -8.137  1.00  0.00     0.031 C 
ATOM     46  C   UNL     1      -1.559   1.525  -7.716  1.00  0.00     0.029 A 
ATOM     47  N   UNL     1       0.555   1.453  -8.503  1.00  0.00    -0.354 N 
ATOM     48  C   UNL     1      -4.034  -1.598  -8.338  1.00  0.00     0.074 A 
ATOM     49  C   UNL     1      -3.404  -2.884  -8.159  1.00  0.00     0.031 C 
ATOM     50  C   UNL     1      -1.262   2.752  -8.166  1.00  0.00     0.029 A 
ATOM     51  C   UNL     1      -0.052   2.643  -8.959  1.00  0.00     0.049 A 
ATOM     52  H   UNL     1       1.519   1.254  -8.481  1.00  0.00     0.167 HD
ATOM     53  C   UNL     1      -5.289  -1.084  -8.178  1.00  0.00     0.034 A 
ATOM     54  C   UNL     1       0.100   3.058 -10.250  1.00  0.00     0.034 A 
ATOM     55  C   UNL     1      -5.349   0.333  -8.565  1.00  0.00     0.049 A 
ATOM     56  C   UNL     1      -1.198   3.169 -11.026  1.00  0.00     0.074 A 
ATOM     57  C   UNL     1      -5.444   1.536  -7.884  1.00  0.00     0.029 A 
ATOM     58  N   UNL     1      -5.073   0.670  -9.880  1.00  0.00    -0.354 N 
ATOM     59  N   UNL     1      -2.372   2.857 -10.547  1.00  0.00    -0.248 NA
ATOM     60  C   UNL     1      -1.263   3.555 -12.437  1.00  0.00     0.031 C 
ATOM     61  C   UNL     1      -5.192   2.595  -8.810  1.00  0.00     0.029 A 
ATOM     62  C   UNL     1      -4.962   2.035 -10.053  1.00  0.00     0.049 A 
ATOM     63  H   UNL     1      -4.968   0.013 -10.606  1.00  0.00     0.167 HD
ATOM     64  C   UNL     1      -3.305   2.920 -11.548  1.00  0.00     0.074 A 
ATOM     65  C   UNL     1      -2.565   3.371 -12.713  1.00  0.00     0.031 C 
ATOM     66  C   UNL     1      -4.607   2.549 -11.369  1.00  0.00     0.034 A 
BRANCH  53  67
ATOM     67  C   UNL     1      -6.422  -1.786  -7.445  1.00  0.00     0.023 A 
ATOM     68  C   UNL     1      -7.464  -1.006  -6.895  1.00  0.00     0.031 A 
ATOM     69  C   UNL     1      -6.521  -3.167  -7.181  1.00  0.00     0.131 A 
ATOM     70  C   UNL     1      -8.453  -1.570  -6.064  1.00  0.00     0.055 A 
ATOM     71  C   UNL     1      -7.474  -3.723  -6.317  1.00  0.00     0.041 A 
ATOM     72  F   UNL     1      -5.747  -4.071  -7.785  1.00  0.00    -0.206 F 
ATOM     73  C   UNL     1      -8.441  -2.922  -5.741  1.00  0.00     0.022 A 
BRANCH  70  74
ATOM     74  S   UNL     1      -9.764  -0.508  -5.397  1.00  0.00     0.124 S 
ATOM     75  O   UNL     1      -9.005   0.486  -4.647  1.00  0.00    -0.237 OA
ATOM     76  O   UNL     1     -10.425  -0.041  -6.610  1.00  0.00    -0.237 OA
ATOM     77  O   UNL     1     -10.557  -1.425  -4.579  1.00  0.00    -0.744 OA
ENDBRANCH  70  74
ENDBRANCH  53  67
BRANCH  54  78
ATOM     78  C   UNL     1       1.437   2.703 -10.811  1.00  0.00     0.023 A 
ATOM     79  C   UNL     1       2.566   3.142 -10.083  1.00  0.00     0.031 A 
ATOM     80  C   UNL     1       1.617   1.667 -11.736  1.00  0.00     0.131 A 
ATOM     81  C   UNL     1       3.767   2.424 -10.141  1.00  0.00     0.055 A 
ATOM     82  C   UNL     1       2.850   1.014 -11.862  1.00  0.00     0.041 A 
ATOM     83  F   UNL     1       0.581   1.182 -12.435  1.00  0.00    -0.206 F 
ATOM     84  C   UNL     1       3.916   1.356 -11.027  1.00  0.00     0.022 A 
BRANCH  81  85
ATOM     85  S   UNL     1       4.999   2.694  -8.830  1.00  0.00     0.124 S 
ATOM     86  O   UNL     1       5.866   3.705  -9.421  1.00  0.00    -0.237 OA
ATOM     87  O   UNL     1       4.184   3.136  -7.700  1.00  0.00    -0.237 OA
ATOM     88  O   UNL     1       5.599   1.375  -8.644  1.00  0.00    -0.744 OA
ENDBRANCH  81  85
ENDBRANCH  54  78
BRANCH  66  89
ATOM     89  C   UNL     1      -5.639   2.617 -12.463  1.00  0.00     0.023 A 
ATOM     90  C   UNL     1      -5.713   3.704 -13.350  1.00  0.00     0.031 A 
ATOM     91  C   UNL     1      -6.633   1.624 -12.603  1.00  0.00     0.131 A 
ATOM     92  C   UNL     1      -6.693   3.743 -14.357  1.00  0.00     0.055 A 
ATOM     93  C   UNL     1      -7.657   1.709 -13.550  1.00  0.00     0.041 A 
ATOM     94  F   UNL     1      -6.625   0.510 -11.857  1.00  0.00    -0.206 F 
ATOM     95  C   UNL     1      -7.686   2.768 -14.444  1.00  0.00     0.022 A 
BRANCH  92  96
ATOM     96  S   UNL     1      -6.603   5.050 -15.609  1.00  0.00     0.124 S 
ATOM     97  O   UNL     1      -6.582   6.265 -14.803  1.00  0.00    -0.237 OA
ATOM     98  O   UNL     1      -5.353   4.719 -16.290  1.00  0.00    -0.237 OA
ATOM     99  O   UNL     1      -7.812   4.851 -16.405  1.00  0.00    -0.744 OA
ENDBRANCH  92  96
ENDBRANCH  66  89
ENDBRANCH  40  41
ENDBRANCH  32  35
ENDBRANCH  30  31
ENDBRANCH   1  30
TORSDOF 18
