REMARK SMILES O=C(NCCCNC(=O)[C@H]1Cc2c([nH]c3ccccc23)[C@H](c2c[nH]c3ccccc23)[NH2+]1)c1ccc(-c2c3nc(c(-c4cc(S(=O)(=O)[O-])ccc4F)c4ccc([nH]4)c(-c4cc(S(=O)(=O)[O-])ccc4F)c4nc(c(-c5cc(S(=O)(=O)[O-])ccc5F)c5ccc2[nH]5)C=C4)C=C3)cc1
REMARK SMILES IDX 4 1 3 2 1 3 2 4 32 6 33 7 94 8 34 9 93 10 35 11 36 12 37 13
REMARK SMILES IDX 87 14 38 15 92 16 86 17 88 18 39 19 91 20 85 21 84 22 40 24
REMARK SMILES IDX 72 25 52 26 71 27 53 28 56 29 70 30 89 31 54 32 55 33 69 35
REMARK SMILES IDX 90 36 57 37 41 38 42 39 50 40 43 41 49 42 51 43 48 44 44 45
REMARK SMILES IDX 45 46 46 47 47 48 73 49 74 50 82 51 75 52 81 53 83 54 80 55
REMARK SMILES IDX 76 56 77 57 78 58 79 59 58 60 59 61 67 62 60 63 66 64 68 65
REMARK SMILES IDX 65 66 61 67 62 68 63 69 64 70 5 71 6 72 7 73 8 74 9 76 10 77
REMARK SMILES IDX 11 78 31 79 12 80 21 81 13 84 20 85 14 86 15 87 19 88 16 90
REMARK SMILES IDX 18 91 17 92 22 93 23 94 30 95 24 96 25 97 29 98 26 100
REMARK SMILES IDX 28 101 27 102
REMARK H PARENT 3 5 88 23 56 34 7 75 31 82 31 83 14 89 24 99
REMARK Flexibility Score: inf
ROOT
ATOM      1  C   UNL     1       4.547  -0.441   1.131  1.00  0.00     0.118 C 
ENDROOT
BRANCH   1   2
ATOM      2  N   UNL     1       3.109  -0.546   0.879  1.00  0.00    -0.352 N 
ATOM      3  O   UNL     1       1.158  -0.102  -0.156  1.00  0.00    -0.269 OA
ATOM      4  C   UNL     1       2.381  -0.216  -0.237  1.00  0.00     0.251 C 
ATOM      5  H   UNL     1       2.582  -0.909   1.627  1.00  0.00     0.163 HD
BRANCH   4   6
ATOM      6  C   UNL     1       3.069  -0.005  -1.525  1.00  0.00     0.039 A 
ATOM      7  C   UNL     1       4.151  -0.813  -1.867  1.00  0.00     0.014 A 
ATOM      8  C   UNL     1       2.625   0.982  -2.409  1.00  0.00     0.014 A 
ATOM      9  C   UNL     1       4.912  -0.512  -2.981  1.00  0.00     0.010 A 
ATOM     10  C   UNL     1       3.307   1.185  -3.613  1.00  0.00     0.010 A 
ATOM     11  C   UNL     1       4.473   0.455  -3.894  1.00  0.00    -0.014 A 
BRANCH  11  12
ATOM     12  C   UNL     1       5.211   0.596  -5.173  1.00  0.00     0.031 A 
ATOM     13  C   UNL     1       5.877   1.886  -5.551  1.00  0.00     0.074 A 
ATOM     14  C   UNL     1       5.308  -0.489  -5.969  1.00  0.00     0.049 A 
ATOM     15  N   UNL     1       6.562   2.171  -6.628  1.00  0.00    -0.248 NA
ATOM     16  C   UNL     1       5.747   3.005  -4.607  1.00  0.00     0.031 C 
ATOM     17  C   UNL     1       4.694  -1.793  -5.689  1.00  0.00     0.029 A 
ATOM     18  N   UNL     1       5.971  -0.688  -7.150  1.00  0.00    -0.354 N 
ATOM     19  C   UNL     1       6.927   3.507  -6.507  1.00  0.00     0.074 A 
ATOM     20  C   UNL     1       6.357   3.983  -5.263  1.00  0.00     0.031 C 
ATOM     21  C   UNL     1       5.061  -2.667  -6.634  1.00  0.00     0.029 A 
ATOM     22  C   UNL     1       5.846  -1.967  -7.639  1.00  0.00     0.049 A 
ATOM     23  H   UNL     1       6.486   0.017  -7.605  1.00  0.00     0.167 HD
ATOM     24  C   UNL     1       7.671   4.258  -7.357  1.00  0.00     0.034 A 
ATOM     25  C   UNL     1       6.281  -2.513  -8.790  1.00  0.00     0.034 A 
ATOM     26  C   UNL     1       8.226   3.750  -8.592  1.00  0.00     0.049 A 
ATOM     27  C   UNL     1       7.062  -1.645  -9.736  1.00  0.00     0.074 A 
ATOM     28  C   UNL     1       9.019   4.409  -9.516  1.00  0.00     0.029 A 
ATOM     29  N   UNL     1       8.037   2.462  -9.083  1.00  0.00    -0.354 N 
ATOM     30  N   UNL     1       7.408  -0.385  -9.601  1.00  0.00    -0.248 NA
ATOM     31  C   UNL     1       7.510  -2.269 -10.984  1.00  0.00     0.031 C 
ATOM     32  C   UNL     1       9.242   3.549 -10.597  1.00  0.00     0.029 A 
ATOM     33  C   UNL     1       8.664   2.321 -10.313  1.00  0.00     0.049 A 
ATOM     34  H   UNL     1       7.530   1.754  -8.624  1.00  0.00     0.167 HD
ATOM     35  C   UNL     1       8.131  -0.070 -10.745  1.00  0.00     0.074 A 
ATOM     36  C   UNL     1       8.191  -1.280 -11.543  1.00  0.00     0.031 C 
ATOM     37  C   UNL     1       8.694   1.112 -11.105  1.00  0.00     0.034 A 
BRANCH  24  38
ATOM     38  C   UNL     1       7.873   5.715  -7.009  1.00  0.00     0.023 A 
ATOM     39  C   UNL     1       8.557   6.119  -5.849  1.00  0.00     0.031 A 
ATOM     40  C   UNL     1       7.348   6.721  -7.842  1.00  0.00     0.131 A 
ATOM     41  C   UNL     1       8.633   7.481  -5.516  1.00  0.00     0.055 A 
ATOM     42  C   UNL     1       7.499   8.078  -7.549  1.00  0.00     0.041 A 
ATOM     43  F   UNL     1       6.664   6.400  -8.953  1.00  0.00    -0.206 F 
ATOM     44  C   UNL     1       8.131   8.465  -6.372  1.00  0.00     0.022 A 
BRANCH  41  45
ATOM     45  S   UNL     1       9.261   7.942  -3.878  1.00  0.00     0.124 S 
ATOM     46  O   UNL     1       8.360   7.203  -2.997  1.00  0.00    -0.237 OA
ATOM     47  O   UNL     1      10.640   7.469  -3.925  1.00  0.00    -0.237 OA
ATOM     48  O   UNL     1       9.100   9.394  -3.844  1.00  0.00    -0.744 OA
ENDBRANCH  41  45
ENDBRANCH  24  38
BRANCH  25  49
ATOM     49  C   UNL     1       5.936  -3.923  -9.125  1.00  0.00     0.023 A 
ATOM     50  C   UNL     1       6.930  -4.899  -9.281  1.00  0.00     0.031 A 
ATOM     51  C   UNL     1       4.594  -4.311  -9.306  1.00  0.00     0.131 A 
ATOM     52  C   UNL     1       6.571  -6.207  -9.644  1.00  0.00     0.055 A 
ATOM     53  C   UNL     1       4.239  -5.626  -9.607  1.00  0.00     0.041 A 
ATOM     54  F   UNL     1       3.603  -3.417  -9.165  1.00  0.00    -0.206 F 
ATOM     55  C   UNL     1       5.233  -6.581  -9.790  1.00  0.00     0.022 A 
BRANCH  52  56
ATOM     56  S   UNL     1       7.889  -7.398 -10.006  1.00  0.00     0.124 S 
ATOM     57  O   UNL     1       8.623  -6.716 -11.065  1.00  0.00    -0.237 OA
ATOM     58  O   UNL     1       8.567  -7.500  -8.718  1.00  0.00    -0.237 OA
ATOM     59  O   UNL     1       7.161  -8.595 -10.421  1.00  0.00    -0.744 OA
ENDBRANCH  52  56
ENDBRANCH  25  49
BRANCH  37  60
ATOM     60  C   UNL     1       9.454   1.128 -12.408  1.00  0.00     0.023 A 
ATOM     61  C   UNL     1       8.807   0.948 -13.643  1.00  0.00     0.031 A 
ATOM     62  C   UNL     1      10.850   1.297 -12.409  1.00  0.00     0.131 A 
ATOM     63  C   UNL     1       9.563   0.880 -14.823  1.00  0.00     0.055 A 
ATOM     64  C   UNL     1      11.589   1.295 -13.592  1.00  0.00     0.041 A 
ATOM     65  F   UNL     1      11.519   1.465 -11.257  1.00  0.00    -0.206 F 
ATOM     66  C   UNL     1      10.947   1.071 -14.807  1.00  0.00     0.022 A 
BRANCH  63  67
ATOM     67  S   UNL     1       8.726   0.434 -16.368  1.00  0.00     0.124 S 
ATOM     68  O   UNL     1       8.161  -0.872 -16.041  1.00  0.00    -0.237 OA
ATOM     69  O   UNL     1       7.766   1.521 -16.529  1.00  0.00    -0.237 OA
ATOM     70  O   UNL     1       9.808   0.412 -17.351  1.00  0.00    -0.744 OA
ENDBRANCH  63  67
ENDBRANCH  37  60
ENDBRANCH  11  12
ENDBRANCH   4   6
ENDBRANCH   1   2
BRANCH   1  71
ATOM     71  C   UNL     1       4.890   0.812   1.913  1.00  0.00     0.042 C 
BRANCH  71  72
ATOM     72  C   UNL     1       4.297   0.774   3.307  1.00  0.00     0.118 C 
BRANCH  72  73
ATOM     73  N   UNL     1       5.011  -0.159   4.175  1.00  0.00    -0.351 N 
ATOM     74  C   UNL     1       5.900  -0.012   5.198  1.00  0.00     0.278 C 
ATOM     75  H   UNL     1       4.805  -1.101   3.978  1.00  0.00     0.163 HD
ATOM     76  O   UNL     1       6.415  -1.056   5.621  1.00  0.00    -0.268 OA
BRANCH  74  77
ATOM     77  C   UNL     1       6.241   1.333   5.869  1.00  0.00     0.277 C 
ATOM     78  C   UNL     1       7.753   1.616   5.720  1.00  0.00     0.114 C 
ATOM     79  N   UNL     1       5.364   2.419   5.396  1.00  0.00    -0.324 N 
ATOM     80  C   UNL     1       8.040   3.009   6.167  1.00  0.00    -0.006 A 
ATOM     81  C   UNL     1       5.580   3.736   5.970  1.00  0.00     0.264 C 
ATOM     82  H   UNL     1       4.402   2.148   5.599  1.00  0.00     0.347 HD
ATOM     83  H   UNL     1       5.581   2.523   4.405  1.00  0.00     0.347 HD
ATOM     84  C   UNL     1       7.027   3.946   6.260  1.00  0.00     0.083 A 
ATOM     85  C   UNL     1       9.258   3.647   6.518  1.00  0.00     0.003 A 
ATOM     86  N   UNL     1       7.605   5.152   6.539  1.00  0.00    -0.353 N 
ATOM     87  C   UNL     1       8.960   4.996   6.727  1.00  0.00     0.046 A 
ATOM     88  C   UNL     1      10.594   3.223   6.654  1.00  0.00     0.010 A 
ATOM     89  H   UNL     1       7.123   6.009   6.596  1.00  0.00     0.166 HD
ATOM     90  C   UNL     1       9.936   5.947   7.043  1.00  0.00     0.026 A 
ATOM     91  C   UNL     1      11.579   4.159   6.995  1.00  0.00     0.001 A 
ATOM     92  C   UNL     1      11.253   5.501   7.179  1.00  0.00     0.002 A 
BRANCH  81  93
ATOM     93  C   UNL     1       4.624   4.013   7.118  1.00  0.00     0.041 A 
ATOM     94  C   UNL     1       4.375   5.297   7.588  1.00  0.00     0.093 A 
ATOM     95  C   UNL     1       3.707   3.148   7.849  1.00  0.00     0.009 A 
ATOM     96  N   UNL     1       3.412   5.247   8.551  1.00  0.00    -0.361 N 
ATOM     97  C   UNL     1       2.970   3.960   8.718  1.00  0.00     0.046 A 
ATOM     98  C   UNL     1       3.381   1.767   7.850  1.00  0.00     0.011 A 
ATOM     99  H   UNL     1       3.081   6.024   9.056  1.00  0.00     0.166 HD
ATOM    100  C   UNL     1       1.961   3.472   9.562  1.00  0.00     0.026 A 
ATOM    101  C   UNL     1       2.373   1.263   8.682  1.00  0.00     0.001 A 
ATOM    102  C   UNL     1       1.673   2.108   9.528  1.00  0.00     0.002 A 
ENDBRANCH  81  93
ENDBRANCH  74  77
ENDBRANCH  72  73
ENDBRANCH  71  72
ENDBRANCH   1  71
TORSDOF 14
