REMARK SMILES O=C(NCCCNC(=O)c1cccc(Br)c1O[C@@H]1CCOC2(CCC2)C1)c1ccc(-c2c3nc(c(-c4cc(S(=O)(=O)[O-])ccc4F)c4ccc([nH]4)c(-c4cc(S(=O)(=O)[O-])ccc4F)c4nc(c(-c5cc(S(=O)(=O)[O-])ccc5F)c5ccc2[nH]5)C=C4)C=C3)cc1
REMARK SMILES IDX 4 1 3 2 1 3 2 4 27 6 28 7 89 8 29 9 88 10 30 11 31 12 32 13
REMARK SMILES IDX 82 14 33 15 87 16 81 17 83 18 34 19 86 20 80 21 79 22 35 24
REMARK SMILES IDX 67 25 47 26 66 27 48 28 51 29 65 30 84 31 49 32 50 33 64 35
REMARK SMILES IDX 85 36 52 37 36 38 37 39 45 40 38 41 44 42 46 43 43 44 39 45
REMARK SMILES IDX 40 46 41 47 42 48 68 49 69 50 77 51 70 52 76 53 78 54 75 55
REMARK SMILES IDX 71 56 72 57 73 58 74 59 53 60 54 61 62 62 55 63 61 64 63 65
REMARK SMILES IDX 60 66 56 67 57 68 58 69 59 70 5 71 6 72 7 73 8 74 9 76 10 77
REMARK SMILES IDX 11 78 16 79 12 80 14 81 13 82 15 83 17 84 18 85 19 86 26 87
REMARK SMILES IDX 20 88 22 89 21 90 23 91 25 92 24 93
REMARK H PARENT 3 5 83 23 51 34 7 75
REMARK Flexibility Score: inf
ROOT
ATOM      1  C   UNL     1       4.562  -0.377  -1.218  1.00  0.00     0.118 C 
ENDROOT
BRANCH   1   2
ATOM      2  N   UNL     1       3.116  -0.260  -1.067  1.00  0.00    -0.352 N 
ATOM      3  O   UNL     1       1.142  -0.086   0.007  1.00  0.00    -0.269 OA
ATOM      4  C   UNL     1       2.367  -0.033   0.066  1.00  0.00     0.251 C 
ATOM      5  H   UNL     1       2.599  -0.357  -1.899  1.00  0.00     0.163 HD
BRANCH   4   6
ATOM      6  C   UNL     1       3.043   0.242   1.353  1.00  0.00     0.039 A 
ATOM      7  C   UNL     1       4.151   1.088   1.403  1.00  0.00     0.014 A 
ATOM      8  C   UNL     1       2.579  -0.370   2.521  1.00  0.00     0.014 A 
ATOM      9  C   UNL     1       4.907   1.165   2.564  1.00  0.00     0.010 A 
ATOM     10  C   UNL     1       3.272  -0.187   3.723  1.00  0.00     0.010 A 
ATOM     11  C   UNL     1       4.465   0.552   3.747  1.00  0.00    -0.014 A 
BRANCH  11  12
ATOM     12  C   UNL     1       5.238   0.765   4.999  1.00  0.00     0.031 A 
ATOM     13  C   UNL     1       5.868  -0.383   5.738  1.00  0.00     0.074 A 
ATOM     14  C   UNL     1       5.402   2.028   5.442  1.00  0.00     0.049 A 
ATOM     15  N   UNL     1       6.582  -0.363   6.835  1.00  0.00    -0.248 NA
ATOM     16  C   UNL     1       5.663  -1.728   5.182  1.00  0.00     0.031 C 
ATOM     17  C   UNL     1       4.837   3.222   4.803  1.00  0.00     0.029 A 
ATOM     18  N   UNL     1       6.102   2.528   6.509  1.00  0.00    -0.354 N 
ATOM     19  C   UNL     1       6.902  -1.688   7.112  1.00  0.00     0.074 A 
ATOM     20  C   UNL     1       6.268  -2.489   6.085  1.00  0.00     0.031 C 
ATOM     21  C   UNL     1       5.260   4.313   5.454  1.00  0.00     0.029 A 
ATOM     22  C   UNL     1       6.045   3.899   6.609  1.00  0.00     0.049 A 
ATOM     23  H   UNL     1       6.597   1.961   7.143  1.00  0.00     0.167 HD
ATOM     24  C   UNL     1       7.659  -2.184   8.123  1.00  0.00     0.034 A 
ATOM     25  C   UNL     1       6.540   4.734   7.542  1.00  0.00     0.034 A 
ATOM     26  C   UNL     1       8.277  -1.364   9.140  1.00  0.00     0.049 A 
ATOM     27  C   UNL     1       7.320   4.151   8.688  1.00  0.00     0.074 A 
ATOM     28  C   UNL     1       9.084  -1.761  10.194  1.00  0.00     0.029 A 
ATOM     29  N   UNL     1       8.149   0.017   9.244  1.00  0.00    -0.354 N 
ATOM     30  N   UNL     1       7.625   2.896   8.925  1.00  0.00    -0.248 NA
ATOM     31  C   UNL     1       7.824   5.096   9.690  1.00  0.00     0.031 C 
ATOM     32  C   UNL     1       9.370  -0.638  10.978  1.00  0.00     0.029 A 
ATOM     33  C   UNL     1       8.827   0.478  10.364  1.00  0.00     0.049 A 
ATOM     34  H   UNL     1       7.649   0.585   8.614  1.00  0.00     0.167 HD
ATOM     35  C   UNL     1       8.383   2.906  10.092  1.00  0.00     0.074 A 
ATOM     36  C   UNL     1       8.505   4.293  10.493  1.00  0.00     0.031 C 
ATOM     37  C   UNL     1       8.930   1.863  10.767  1.00  0.00     0.034 A 
BRANCH  24  38
ATOM     38  C   UNL     1       7.819  -3.685   8.210  1.00  0.00     0.023 A 
ATOM     39  C   UNL     1       8.455  -4.426   7.198  1.00  0.00     0.031 A 
ATOM     40  C   UNL     1       7.319  -4.390   9.320  1.00  0.00     0.131 A 
ATOM     41  C   UNL     1       8.513  -5.826   7.283  1.00  0.00     0.055 A 
ATOM     42  C   UNL     1       7.455  -5.775   9.440  1.00  0.00     0.041 A 
ATOM     43  F   UNL     1       6.681  -3.744  10.309  1.00  0.00    -0.206 F 
ATOM     44  C   UNL     1       8.042  -6.503   8.410  1.00  0.00     0.022 A 
BRANCH  41  45
ATOM     45  S   UNL     1       9.078  -6.760   5.835  1.00  0.00     0.124 S 
ATOM     46  O   UNL     1       8.147  -6.304   4.805  1.00  0.00    -0.237 OA
ATOM     47  O   UNL     1      10.458  -6.313   5.689  1.00  0.00    -0.237 OA
ATOM     48  O   UNL     1       8.912  -8.155   6.239  1.00  0.00    -0.744 OA
ENDBRANCH  41  45
ENDBRANCH  24  38
BRANCH  25  49
ATOM     49  C   UNL     1       6.275   6.199   7.455  1.00  0.00     0.023 A 
ATOM     50  C   UNL     1       7.325   7.120   7.327  1.00  0.00     0.031 A 
ATOM     51  C   UNL     1       4.963   6.702   7.534  1.00  0.00     0.131 A 
ATOM     52  C   UNL     1       7.050   8.496   7.333  1.00  0.00     0.055 A 
ATOM     53  C   UNL     1       4.689   8.068   7.470  1.00  0.00     0.041 A 
ATOM     54  F   UNL     1       3.920   5.864   7.656  1.00  0.00    -0.206 F 
ATOM     55  C   UNL     1       5.739   8.975   7.384  1.00  0.00     0.022 A 
BRANCH  52  56
ATOM     56  S   UNL     1       8.442   9.656   7.377  1.00  0.00     0.124 S 
ATOM     57  O   UNL     1       9.144   9.231   8.582  1.00  0.00    -0.237 OA
ATOM     58  O   UNL     1       9.111   9.375   6.111  1.00  0.00    -0.237 OA
ATOM     59  O   UNL     1       7.793  10.963   7.460  1.00  0.00    -0.744 OA
ENDBRANCH  52  56
ENDBRANCH  25  49
BRANCH  37  60
ATOM     60  C   UNL     1       9.755   2.198  11.987  1.00  0.00     0.023 A 
ATOM     61  C   UNL     1       9.187   2.791  13.129  1.00  0.00     0.031 A 
ATOM     62  C   UNL     1      11.138   1.944  11.996  1.00  0.00     0.131 A 
ATOM     63  C   UNL     1      10.008   3.173  14.200  1.00  0.00     0.055 A 
ATOM     64  C   UNL     1      11.938   2.257  13.095  1.00  0.00     0.041 A 
ATOM     65  F   UNL     1      11.738   1.386  10.932  1.00  0.00    -0.206 F 
ATOM     66  C   UNL     1      11.376   2.890  14.200  1.00  0.00     0.022 A 
BRANCH  63  67
ATOM     67  S   UNL     1       9.284   4.149  15.547  1.00  0.00     0.124 S 
ATOM     68  O   UNL     1       8.759   5.308  14.832  1.00  0.00    -0.237 OA
ATOM     69  O   UNL     1       8.288   3.234  16.096  1.00  0.00    -0.237 OA
ATOM     70  O   UNL     1      10.422   4.423  16.422  1.00  0.00    -0.744 OA
ENDBRANCH  63  67
ENDBRANCH  37  60
ENDBRANCH  11  12
ENDBRANCH   4   6
ENDBRANCH   1   2
BRANCH   1  71
ATOM     71  C   UNL     1       5.004  -1.697  -1.823  1.00  0.00     0.042 C 
BRANCH  71  72
ATOM     72  C   UNL     1       4.523  -1.925  -3.245  1.00  0.00     0.118 C 
BRANCH  72  73
ATOM     73  N   UNL     1       4.936  -0.875  -4.174  1.00  0.00    -0.352 N 
ATOM     74  C   UNL     1       5.708  -0.948  -5.314  1.00  0.00     0.255 C 
ATOM     75  H   UNL     1       4.612   0.027  -3.950  1.00  0.00     0.163 HD
ATOM     76  O   UNL     1       5.947   0.063  -5.964  1.00  0.00    -0.269 OA
BRANCH  74  77
ATOM     77  C   UNL     1       6.182  -2.273  -5.761  1.00  0.00     0.083 A 
ATOM     78  C   UNL     1       5.210  -3.251  -5.962  1.00  0.00     0.018 A 
ATOM     79  C   UNL     1       7.559  -2.557  -5.919  1.00  0.00     0.146 A 
ATOM     80  C   UNL     1       5.597  -4.550  -6.179  1.00  0.00     0.002 A 
ATOM     81  C   UNL     1       8.097  -3.910  -6.067  1.00  0.00     0.060 A 
ATOM     82  C   UNL     1       6.963  -4.876  -6.195  1.00  0.00     0.019 A 
ATOM     83  Br  UNL     1      10.646  -4.378  -6.188  1.00  0.00    -0.047 Br
BRANCH  79  84
ATOM     84  O   UNL     1       8.401  -1.490  -5.984  1.00  0.00    -0.488 OA
BRANCH  84  85
ATOM     85  C   UNL     1       9.544  -2.268  -6.130  1.00  0.00     0.178 C 
ATOM     86  C   UNL     1       9.276  -3.233  -7.798  1.00  0.00     0.074 C 
ATOM     87  C   UNL     1       9.549  -3.187  -4.432  1.00  0.00     0.080 C 
ATOM     88  C   UNL     1       8.984  -5.136  -7.694  1.00  0.00     0.165 C 
ATOM     89  C   UNL     1       9.089  -5.031  -4.446  1.00  0.00     0.072 C 
ATOM     90  O   UNL     1       8.983  -5.926  -6.028  1.00  0.00    -0.375 OA
ATOM     91  C   UNL     1       9.894  -5.915  -3.407  1.00  0.00     0.036 C 
ATOM     92  C   UNL     1       7.907  -5.181  -3.403  1.00  0.00     0.036 C 
ATOM     93  C   UNL     1       8.538  -6.493  -2.955  1.00  0.00     0.006 C 
ENDBRANCH  84  85
ENDBRANCH  79  84
ENDBRANCH  74  77
ENDBRANCH  72  73
ENDBRANCH  71  72
ENDBRANCH   1  71
TORSDOF 15
