REMARK SMILES Nc1ncc(C(=O)NCCCNC(=O)c2ccc(-c3c4nc(c(-c5cc(S(=O)(=O)[O-])ccc5F)c5ccc([nH]5)c(-c5cc(S(=O)(=O)[O-])ccc5F)c5nc(c(-c6cc(S(=O)(=O)[O-])ccc6F)c6ccc3[nH]6)C=C5)C=C4)cc2)c(-c2ccccc2)n1
REMARK SMILES IDX 11 1 10 2 9 3 8 4 6 5 7 6 5 8 2 9 3 10 85 11 4 12 78 13 1 14
REMARK SMILES IDX 79 17 80 18 84 19 81 20 83 21 82 22 12 23 13 24 14 26 15 27
REMARK SMILES IDX 16 28 77 29 17 30 76 31 18 32 19 33 20 34 70 35 21 36 75 37
REMARK SMILES IDX 69 38 71 39 22 40 74 41 68 42 67 43 23 45 55 46 35 47 54 48
REMARK SMILES IDX 36 49 39 50 53 51 72 52 37 53 38 54 52 56 73 57 40 58 24 59
REMARK SMILES IDX 25 60 33 61 26 62 32 63 34 64 31 65 27 66 28 67 29 68 30 69
REMARK SMILES IDX 56 70 57 71 65 72 58 73 64 74 66 75 63 76 59 77 60 78 61 79
REMARK SMILES IDX 62 80 41 81 42 82 50 83 43 84 49 85 51 86 48 87 44 88 45 89
REMARK SMILES IDX 46 90 47 91
REMARK H PARENT 8 7 1 15 1 16 12 25 71 44 39 55
REMARK Flexibility Score: inf
ROOT
ATOM      1  C   UNL     1       6.185  -3.026  -1.286  1.00  0.00     0.118 C 
ENDROOT
BRANCH   1   2
ATOM      2  C   UNL     1       4.820  -2.737  -1.902  1.00  0.00     0.042 C 
BRANCH   2   3
ATOM      3  C   UNL     1       3.772  -2.246  -0.918  1.00  0.00     0.118 C 
BRANCH   3   4
ATOM      4  N   UNL     1       4.006  -0.956  -0.308  1.00  0.00    -0.352 N 
ATOM      5  C   UNL     1       3.126  -0.084   0.287  1.00  0.00     0.255 C 
ATOM      6  O   UNL     1       3.612   0.913   0.829  1.00  0.00    -0.269 OA
ATOM      7  H   UNL     1       4.943  -0.655  -0.321  1.00  0.00     0.163 HD
BRANCH   5   8
ATOM      8  C   UNL     1       1.646  -0.186   0.253  1.00  0.00     0.084 A 
ATOM      9  C   UNL     1      -1.080   0.074   0.164  1.00  0.00     0.220 A 
ATOM     10  N   UNL     1      -0.357   1.180   0.027  1.00  0.00    -0.221 NA
ATOM     11  N   UNL     1      -0.563  -1.139   0.352  1.00  0.00    -0.212 NA
ATOM     12  C   UNL     1       0.986   1.022   0.082  1.00  0.00     0.131 A 
ATOM     13  C   UNL     1       0.793  -1.269   0.410  1.00  0.00     0.089 A 
BRANCH   9  14
ATOM     14  N   UNL     1      -2.436   0.178   0.088  1.00  0.00    -0.368 N 
ATOM     15  H   UNL     1      -2.855   1.058  -0.050  1.00  0.00     0.159 HD
ATOM     16  H   UNL     1      -2.997  -0.627   0.172  1.00  0.00     0.159 HD
ENDBRANCH   9  14
BRANCH  13  17
ATOM     17  C   UNL     1       1.183  -2.671   0.610  1.00  0.00     0.001 A 
ATOM     18  C   UNL     1       1.902  -3.106   1.734  1.00  0.00     0.010 A 
ATOM     19  C   UNL     1       0.862  -3.619  -0.386  1.00  0.00     0.010 A 
ATOM     20  C   UNL     1       2.368  -4.424   1.807  1.00  0.00     0.001 A 
ATOM     21  C   UNL     1       1.343  -4.926  -0.321  1.00  0.00     0.001 A 
ATOM     22  C   UNL     1       2.112  -5.323   0.769  1.00  0.00     0.000 A 
ENDBRANCH  13  17
ENDBRANCH   5   8
ENDBRANCH   3   4
ENDBRANCH   2   3
ENDBRANCH   1   2
BRANCH   1  23
ATOM     23  N   UNL     1       6.189  -4.077  -0.272  1.00  0.00    -0.352 N 
ATOM     24  C   UNL     1       6.355  -5.442  -0.306  1.00  0.00     0.251 C 
ATOM     25  H   UNL     1       6.042  -3.731   0.638  1.00  0.00     0.163 HD
ATOM     26  O   UNL     1       6.206  -6.065   0.748  1.00  0.00    -0.269 OA
BRANCH  24  27
ATOM     27  C   UNL     1       6.638  -6.193  -1.555  1.00  0.00     0.039 A 
ATOM     28  C   UNL     1       6.140  -7.498  -1.685  1.00  0.00     0.014 A 
ATOM     29  C   UNL     1       7.400  -5.667  -2.592  1.00  0.00     0.014 A 
ATOM     30  C   UNL     1       6.308  -8.209  -2.881  1.00  0.00     0.010 A 
ATOM     31  C   UNL     1       7.462  -6.320  -3.822  1.00  0.00     0.010 A 
ATOM     32  C   UNL     1       6.908  -7.596  -3.990  1.00  0.00    -0.014 A 
BRANCH  32  33
ATOM     33  C   UNL     1       6.969  -8.241  -5.335  1.00  0.00     0.031 A 
ATOM     34  C   UNL     1       8.295  -8.398  -6.038  1.00  0.00     0.074 A 
ATOM     35  C   UNL     1       5.828  -8.565  -5.979  1.00  0.00     0.049 A 
ATOM     36  N   UNL     1       8.544  -8.706  -7.285  1.00  0.00    -0.248 NA
ATOM     37  C   UNL     1       9.497  -8.116  -5.239  1.00  0.00     0.031 C 
ATOM     38  C   UNL     1       4.476  -8.428  -5.433  1.00  0.00     0.029 A 
ATOM     39  N   UNL     1       5.620  -9.053  -7.246  1.00  0.00    -0.354 N 
ATOM     40  C   UNL     1       9.925  -8.611  -7.431  1.00  0.00     0.074 A 
ATOM     41  C   UNL     1      10.448  -8.157  -6.159  1.00  0.00     0.031 C 
ATOM     42  C   UNL     1       3.584  -8.842  -6.346  1.00  0.00     0.029 A 
ATOM     43  C   UNL     1       4.290  -9.211  -7.568  1.00  0.00     0.049 A 
ATOM     44  H   UNL     1       6.352  -9.270  -7.867  1.00  0.00     0.167 HD
ATOM     45  C   UNL     1      10.689  -8.895  -8.517  1.00  0.00     0.034 A 
ATOM     46  C   UNL     1       3.700  -9.582  -8.722  1.00  0.00     0.034 A 
ATOM     47  C   UNL     1      10.155  -9.392  -9.762  1.00  0.00     0.049 A 
ATOM     48  C   UNL     1       4.566  -9.891  -9.916  1.00  0.00     0.074 A 
ATOM     49  C   UNL     1      10.841  -9.789 -10.897  1.00  0.00     0.029 A 
ATOM     50  N   UNL     1       8.804  -9.563 -10.037  1.00  0.00    -0.354 N 
ATOM     51  N   UNL     1       5.873  -9.827 -10.027  1.00  0.00    -0.248 NA
ATOM     52  C   UNL     1       3.878 -10.323 -11.140  1.00  0.00     0.031 C 
ATOM     53  C   UNL     1       9.905 -10.141 -11.876  1.00  0.00     0.029 A 
ATOM     54  C   UNL     1       8.636 -10.033 -11.330  1.00  0.00     0.049 A 
ATOM     55  H   UNL     1       8.073  -9.378  -9.404  1.00  0.00     0.167 HD
ATOM     56  C   UNL     1       6.163 -10.237 -11.325  1.00  0.00     0.074 A 
ATOM     57  C   UNL     1       4.897 -10.560 -11.952  1.00  0.00     0.031 C 
ATOM     58  C   UNL     1       7.366 -10.340 -11.944  1.00  0.00     0.034 A 
BRANCH  45  59
ATOM     59  C   UNL     1      12.178  -8.656  -8.406  1.00  0.00     0.023 A 
ATOM     60  C   UNL     1      12.969  -9.345  -7.470  1.00  0.00     0.031 A 
ATOM     61  C   UNL     1      12.812  -7.704  -9.224  1.00  0.00     0.131 A 
ATOM     62  C   UNL     1      14.322  -9.009  -7.312  1.00  0.00     0.055 A 
ATOM     63  C   UNL     1      14.180  -7.439  -9.124  1.00  0.00     0.041 A 
ATOM     64  F   UNL     1      12.109  -7.001 -10.126  1.00  0.00    -0.206 F 
ATOM     65  C   UNL     1      14.940  -8.080  -8.150  1.00  0.00     0.022 A 
BRANCH  62  66
ATOM     66  S   UNL     1      15.218  -9.690  -5.889  1.00  0.00     0.124 S 
ATOM     67  O   UNL     1      14.421  -9.187  -4.773  1.00  0.00    -0.237 OA
ATOM     68  O   UNL     1      15.146 -11.126  -6.129  1.00  0.00    -0.237 OA
ATOM     69  O   UNL     1      16.550  -9.101  -6.010  1.00  0.00    -0.744 OA
ENDBRANCH  62  66
ENDBRANCH  45  59
BRANCH  46  70
ATOM     70  C   UNL     1       2.214  -9.664  -8.820  1.00  0.00     0.023 A 
ATOM     71  C   UNL     1       1.576 -10.895  -9.039  1.00  0.00     0.031 A 
ATOM     72  C   UNL     1       1.412  -8.512  -8.735  1.00  0.00     0.131 A 
ATOM     73  C   UNL     1       0.183 -10.941  -9.210  1.00  0.00     0.055 A 
ATOM     74  C   UNL     1       0.022  -8.570  -8.853  1.00  0.00     0.041 A 
ATOM     75  F   UNL     1       1.970  -7.310  -8.520  1.00  0.00    -0.206 F 
ATOM     76  C   UNL     1      -0.599  -9.790  -9.105  1.00  0.00     0.022 A 
BRANCH  73  77
ATOM     77  S   UNL     1      -0.583 -12.524  -9.656  1.00  0.00     0.124 S 
ATOM     78  O   UNL     1       0.114 -12.853 -10.894  1.00  0.00    -0.237 OA
ATOM     79  O   UNL     1      -0.261 -13.352  -8.498  1.00  0.00    -0.237 OA
ATOM     80  O   UNL     1      -1.997 -12.187  -9.805  1.00  0.00    -0.744 OA
ENDBRANCH  73  77
ENDBRANCH  46  70
BRANCH  58  81
ATOM     81  C   UNL     1       7.367 -10.864 -13.358  1.00  0.00     0.023 A 
ATOM     82  C   UNL     1       6.825 -10.122 -14.421  1.00  0.00     0.031 A 
ATOM     83  C   UNL     1       7.916 -12.127 -13.642  1.00  0.00     0.131 A 
ATOM     84  C   UNL     1       6.801 -10.669 -15.713  1.00  0.00     0.055 A 
ATOM     85  C   UNL     1       7.940 -12.642 -14.939  1.00  0.00     0.041 A 
ATOM     86  F   UNL     1       8.444 -12.879 -12.663  1.00  0.00    -0.206 F 
ATOM     87  C   UNL     1       7.371 -11.916 -15.981  1.00  0.00     0.022 A 
BRANCH  84  88
ATOM     88  S   UNL     1       5.945  -9.759 -17.028  1.00  0.00     0.124 S 
ATOM     89  O   UNL     1       4.584  -9.684 -16.507  1.00  0.00    -0.237 OA
ATOM     90  O   UNL     1       6.683  -8.501 -17.069  1.00  0.00    -0.237 OA
ATOM     91  O   UNL     1       6.114 -10.614 -18.202  1.00  0.00    -0.744 OA
ENDBRANCH  84  88
ENDBRANCH  58  81
ENDBRANCH  32  33
ENDBRANCH  24  27
ENDBRANCH   1  23
TORSDOF 15
