REMARK SMILES CC(C)=CC(=O)Nc1ccc(C(=O)NCCCNC(=O)c2ccc(-c3c4nc(c(-c5cc(S(=O)(=O)[O-])ccc5F)c5ccc([nH]5)c(-c5cc(S(=O)(=O)[O-])ccc5F)c5nc(c(-c6cc(S(=O)(=O)[O-])ccc6F)c6ccc3[nH]6)C=C5)C=C4)cc2)cc1
REMARK SMILES IDX 16 1 15 2 14 3 12 4 13 5 11 7 8 8 9 9 85 10 10 11 84 12 7 13
REMARK SMILES IDX 5 14 6 15 4 17 1 18 2 19 3 20 17 21 18 22 19 23 20 25 21 26
REMARK SMILES IDX 22 27 83 28 23 29 82 30 24 31 25 32 26 33 76 34 27 35 81 36
REMARK SMILES IDX 75 37 77 38 28 39 80 40 74 41 73 42 29 44 61 45 41 46 60 47
REMARK SMILES IDX 42 48 45 49 59 50 78 51 43 52 44 53 58 55 79 56 46 57 30 58
REMARK SMILES IDX 31 59 39 60 32 61 38 62 40 63 37 64 33 65 34 66 35 67 36 68
REMARK SMILES IDX 62 69 63 70 71 71 64 72 70 73 72 74 69 75 65 76 66 77 67 78
REMARK SMILES IDX 68 79 47 80 48 81 56 82 49 83 55 84 57 85 54 86 50 87 51 88
REMARK SMILES IDX 52 89 53 90
REMARK H PARENT 14 6 7 16 18 24 77 43 45 54
REMARK Flexibility Score: inf
ROOT
ATOM      1  C   UNL     1       1.977   4.896  -0.911  1.00  0.00     0.042 C 
ENDROOT
BRANCH   1   2
ATOM      2  C   UNL     1       0.813   3.941  -1.165  1.00  0.00     0.118 C 
BRANCH   2   3
ATOM      3  N   UNL     1       0.769   3.538  -2.563  1.00  0.00    -0.352 N 
ATOM      4  C   UNL     1       1.206   2.413  -3.215  1.00  0.00     0.251 C 
ATOM      5  O   UNL     1       1.007   2.329  -4.427  1.00  0.00    -0.269 OA
ATOM      6  H   UNL     1       0.343   4.200  -3.154  1.00  0.00     0.163 HD
BRANCH   4   7
ATOM      7  C   UNL     1       1.786   1.251  -2.494  1.00  0.00     0.039 A 
ATOM      8  C   UNL     1       2.275  -1.011  -0.948  1.00  0.00     0.041 A 
ATOM      9  C   UNL     1       1.741  -1.159  -2.228  1.00  0.00     0.027 A 
ATOM     10  C   UNL     1       2.760   0.227  -0.532  1.00  0.00     0.027 A 
ATOM     11  C   UNL     1       1.457  -0.022  -2.982  1.00  0.00     0.016 A 
ATOM     12  C   UNL     1       2.554   1.352  -1.332  1.00  0.00     0.016 A 
BRANCH   8  13
ATOM     13  N   UNL     1       2.214  -2.117  -0.101  1.00  0.00    -0.323 N 
ATOM     14  C   UNL     1       1.846  -2.194   1.208  1.00  0.00     0.248 C 
ATOM     15  O   UNL     1       2.011  -3.256   1.815  1.00  0.00    -0.270 OA
ATOM     16  H   UNL     1       2.477  -2.973  -0.512  1.00  0.00     0.170 HD
BRANCH  14  17
ATOM     17  C   UNL     1       1.196  -1.069   1.945  1.00  0.00     0.070 C 
ATOM     18  C   UNL     1      -0.531  -0.170   0.286  1.00  0.00     0.039 C 
ATOM     19  C   UNL     1       0.188  -0.237   1.605  1.00  0.00    -0.071 C 
ATOM     20  C   UNL     1      -0.375   0.720   2.628  1.00  0.00     0.039 C 
ENDBRANCH  14  17
ENDBRANCH   8  13
ENDBRANCH   4   7
ENDBRANCH   2   3
ENDBRANCH   1   2
BRANCH   1  21
ATOM     21  C   UNL     1       1.772   6.272  -1.538  1.00  0.00     0.118 C 
BRANCH  21  22
ATOM     22  N   UNL     1       0.747   7.042  -0.848  1.00  0.00    -0.352 N 
ATOM     23  C   UNL     1       0.836   8.261  -0.224  1.00  0.00     0.251 C 
ATOM     24  H   UNL     1      -0.144   6.625  -0.826  1.00  0.00     0.163 HD
ATOM     25  O   UNL     1      -0.098   8.634   0.488  1.00  0.00    -0.269 OA
BRANCH  23  26
ATOM     26  C   UNL     1       2.040   9.108  -0.377  1.00  0.00     0.039 A 
ATOM     27  C   UNL     1       2.526   9.798   0.737  1.00  0.00     0.014 A 
ATOM     28  C   UNL     1       2.679   9.250  -1.613  1.00  0.00     0.014 A 
ATOM     29  C   UNL     1       3.683  10.573   0.627  1.00  0.00     0.010 A 
ATOM     30  C   UNL     1       3.876   9.960  -1.702  1.00  0.00     0.010 A 
ATOM     31  C   UNL     1       4.393  10.631  -0.584  1.00  0.00    -0.014 A 
BRANCH  31  32
ATOM     32  C   UNL     1       5.668  11.390  -0.699  1.00  0.00     0.031 A 
ATOM     33  C   UNL     1       5.766  12.568  -1.633  1.00  0.00     0.074 A 
ATOM     34  C   UNL     1       6.749  10.995   0.004  1.00  0.00     0.049 A 
ATOM     35  N   UNL     1       6.808  13.299  -1.937  1.00  0.00    -0.248 NA
ATOM     36  C   UNL     1       4.533  12.961  -2.333  1.00  0.00     0.031 C 
ATOM     37  C   UNL     1       6.787   9.860   0.930  1.00  0.00     0.029 A 
ATOM     38  N   UNL     1       8.027  11.497   0.050  1.00  0.00    -0.354 N 
ATOM     39  C   UNL     1       6.358  14.240  -2.857  1.00  0.00     0.074 A 
ATOM     40  C   UNL     1       4.966  13.940  -3.115  1.00  0.00     0.031 C 
ATOM     41  C   UNL     1       8.013   9.771   1.470  1.00  0.00     0.029 A 
ATOM     42  C   UNL     1       8.868  10.802   0.890  1.00  0.00     0.049 A 
ATOM     43  H   UNL     1       8.315  12.282  -0.470  1.00  0.00     0.167 HD
ATOM     44  C   UNL     1       7.034  15.276  -3.414  1.00  0.00     0.034 A 
ATOM     45  C   UNL     1      10.181  10.965   1.149  1.00  0.00     0.034 A 
ATOM     46  C   UNL     1       8.421  15.568  -3.149  1.00  0.00     0.049 A 
ATOM     47  C   UNL     1      10.927  12.082   0.457  1.00  0.00     0.074 A 
ATOM     48  C   UNL     1       9.196  16.598  -3.653  1.00  0.00     0.029 A 
ATOM     49  N   UNL     1       9.243  14.830  -2.308  1.00  0.00    -0.354 N 
ATOM     50  N   UNL     1      10.475  12.977  -0.392  1.00  0.00    -0.248 NA
ATOM     51  C   UNL     1      12.356  12.218   0.766  1.00  0.00     0.031 C 
ATOM     52  C   UNL     1      10.499  16.447  -3.169  1.00  0.00     0.029 A 
ATOM     53  C   UNL     1      10.520  15.371  -2.297  1.00  0.00     0.049 A 
ATOM     54  H   UNL     1       8.961  14.039  -1.794  1.00  0.00     0.167 HD
ATOM     55  C   UNL     1      11.557  13.807  -0.677  1.00  0.00     0.074 A 
ATOM     56  C   UNL     1      12.673  13.318   0.102  1.00  0.00     0.031 C 
ATOM     57  C   UNL     1      11.623  14.879  -1.507  1.00  0.00     0.034 A 
BRANCH  44  58
ATOM     58  C   UNL     1       6.279  16.167  -4.371  1.00  0.00     0.023 A 
ATOM     59  C   UNL     1       5.191  16.946  -3.942  1.00  0.00     0.031 A 
ATOM     60  C   UNL     1       6.654  16.249  -5.724  1.00  0.00     0.131 A 
ATOM     61  C   UNL     1       4.479  17.726  -4.864  1.00  0.00     0.055 A 
ATOM     62  C   UNL     1       5.991  17.088  -6.621  1.00  0.00     0.041 A 
ATOM     63  F   UNL     1       7.672  15.513  -6.197  1.00  0.00    -0.206 F 
ATOM     64  C   UNL     1       4.889  17.824  -6.196  1.00  0.00     0.022 A 
BRANCH  61  65
ATOM     65  S   UNL     1       2.938  18.514  -4.325  1.00  0.00     0.124 S 
ATOM     66  O   UNL     1       2.136  17.357  -3.937  1.00  0.00    -0.237 OA
ATOM     67  O   UNL     1       3.387  19.374  -3.236  1.00  0.00    -0.237 OA
ATOM     68  O   UNL     1       2.474  19.213  -5.521  1.00  0.00    -0.744 OA
ENDBRANCH  61  65
ENDBRANCH  44  58
BRANCH  45  69
ATOM     69  C   UNL     1      10.902  10.050   2.086  1.00  0.00     0.023 A 
ATOM     70  C   UNL     1      11.544  10.553   3.229  1.00  0.00     0.031 A 
ATOM     71  C   UNL     1      11.048   8.681   1.802  1.00  0.00     0.131 A 
ATOM     72  C   UNL     1      12.369   9.716   3.996  1.00  0.00     0.055 A 
ATOM     73  C   UNL     1      11.808   7.835   2.612  1.00  0.00     0.041 A 
ATOM     74  F   UNL     1      10.458   8.142   0.723  1.00  0.00    -0.206 F 
ATOM     75  C   UNL     1      12.493   8.357   3.705  1.00  0.00     0.022 A 
BRANCH  72  76
ATOM     76  S   UNL     1      13.398  10.467   5.288  1.00  0.00     0.124 S 
ATOM     77  O   UNL     1      14.118  11.488   4.534  1.00  0.00    -0.237 OA
ATOM     78  O   UNL     1      12.395  10.951   6.229  1.00  0.00    -0.237 OA
ATOM     79  O   UNL     1      14.212   9.351   5.764  1.00  0.00    -0.744 OA
ENDBRANCH  72  76
ENDBRANCH  45  69
BRANCH  57  80
ATOM     80  C   UNL     1      12.930  15.634  -1.557  1.00  0.00     0.023 A 
ATOM     81  C   UNL     1      14.106  15.052  -2.062  1.00  0.00     0.031 A 
ATOM     82  C   UNL     1      13.000  16.954  -1.077  1.00  0.00     0.131 A 
ATOM     83  C   UNL     1      15.313  15.765  -2.018  1.00  0.00     0.055 A 
ATOM     84  C   UNL     1      14.189  17.683  -1.099  1.00  0.00     0.041 A 
ATOM     85  F   UNL     1      11.909  17.560  -0.581  1.00  0.00    -0.206 F 
ATOM     86  C   UNL     1      15.359  17.084  -1.558  1.00  0.00     0.022 A 
BRANCH  83  87
ATOM     87  S   UNL     1      16.846  14.912  -2.480  1.00  0.00     0.124 S 
ATOM     88  O   UNL     1      16.864  13.793  -1.544  1.00  0.00    -0.237 OA
ATOM     89  O   UNL     1      16.603  14.569  -3.877  1.00  0.00    -0.237 OA
ATOM     90  O   UNL     1      17.880  15.922  -2.262  1.00  0.00    -0.744 OA
ENDBRANCH  83  87
ENDBRANCH  57  80
ENDBRANCH  31  32
ENDBRANCH  23  26
ENDBRANCH  21  22
ENDBRANCH   1  21
TORSDOF 15
