REMARK SMILES Cc1nc(Oc2ccc(F)cc2)c(C(=O)NCCCNC(=O)c2ccc(-c3c4nc(c(-c5cc(S(=O)(=O)[O-])ccc5F)c5ccc([nH]5)c(-c5cc(S(=O)(=O)[O-])ccc5F)c5nc(c(-c6cc(S(=O)(=O)[O-])ccc6F)c6ccc3[nH]6)C=C5)C=C4)cc2)c(C)c1Cl
REMARK SMILES IDX 18 1 17 2 16 3 14 4 15 5 13 7 1 8 2 9 3 10 88 11 4 12 86 13
REMARK SMILES IDX 89 14 87 15 5 16 6 17 7 18 12 19 8 20 11 21 9 22 10 23 19 24
REMARK SMILES IDX 20 25 21 26 22 28 23 29 24 30 85 31 25 32 84 33 26 34 27 35
REMARK SMILES IDX 28 36 78 37 29 38 83 39 77 40 79 41 30 42 82 43 76 44 75 45
REMARK SMILES IDX 31 47 63 48 43 49 62 50 44 51 47 52 61 53 80 54 45 55 46 56
REMARK SMILES IDX 60 58 81 59 48 60 32 61 33 62 41 63 34 64 40 65 42 66 39 67
REMARK SMILES IDX 35 68 36 69 37 70 38 71 64 72 65 73 73 74 66 75 72 76 74 77
REMARK SMILES IDX 71 78 67 79 68 80 69 81 70 82 49 83 50 84 58 85 51 86 57 87
REMARK SMILES IDX 59 88 56 89 52 90 53 91 54 92 55 93
REMARK H PARENT 16 6 20 27 79 46 47 57
REMARK Flexibility Score: inf
ROOT
ATOM      1  C   UNL     1       0.751   5.108  -5.553  1.00  0.00     0.042 C 
ENDROOT
BRANCH   1   2
ATOM      2  C   UNL     1      -0.621   4.503  -5.290  1.00  0.00     0.118 C 
BRANCH   2   3
ATOM      3  N   UNL     1      -0.512   3.065  -5.202  1.00  0.00    -0.352 N 
ATOM      4  C   UNL     1      -1.207   2.382  -4.238  1.00  0.00     0.257 C 
ATOM      5  O   UNL     1      -2.419   2.453  -4.091  1.00  0.00    -0.269 OA
ATOM      6  H   UNL     1       0.062   2.576  -5.834  1.00  0.00     0.163 HD
BRANCH   4   7
ATOM      7  C   UNL     1      -0.376   1.606  -3.301  1.00  0.00     0.106 A 
ATOM      8  C   UNL     1       1.092  -0.766  -0.114  1.00  0.00     0.068 C 
ATOM      9  C   UNL     1       0.688   0.116  -1.261  1.00  0.00     0.060 A 
ATOM     10  N   UNL     1       0.142  -0.524  -2.328  1.00  0.00    -0.216 NA
ATOM     11  C   UNL     1       0.810   1.505  -1.191  1.00  0.00     0.066 A 
ATOM     12  C   UNL     1      -0.376   0.212  -3.344  1.00  0.00     0.232 A 
ATOM     13  C   UNL     1       0.264   2.281  -2.224  1.00  0.00    -0.012 A 
ATOM     14  Cl  UNL     1       1.567   2.231   0.190  1.00  0.00    -0.082 Cl
ATOM     15  C   UNL     1       0.330   3.786  -2.184  1.00  0.00     0.047 C 
BRANCH  12  16
ATOM     16  O   UNL     1      -0.989  -0.598  -4.268  1.00  0.00    -0.438 OA
BRANCH  16  17
ATOM     17  C   UNL     1      -1.103  -0.236  -5.584  1.00  0.00     0.129 A 
ATOM     18  C   UNL     1      -2.390  -0.331  -6.126  1.00  0.00     0.050 A 
ATOM     19  C   UNL     1      -0.022   0.112  -6.399  1.00  0.00     0.050 A 
ATOM     20  C   UNL     1      -2.616  -0.009  -7.462  1.00  0.00     0.043 A 
ATOM     21  C   UNL     1      -0.253   0.444  -7.740  1.00  0.00     0.043 A 
ATOM     22  C   UNL     1      -1.547   0.388  -8.255  1.00  0.00     0.123 A 
ATOM     23  F   UNL     1      -1.766   0.719  -9.534  1.00  0.00    -0.207 F 
ENDBRANCH  16  17
ENDBRANCH  12  16
ENDBRANCH   4   7
ENDBRANCH   2   3
ENDBRANCH   1   2
BRANCH   1  24
ATOM     24  C   UNL     1       0.761   5.915  -6.835  1.00  0.00     0.118 C 
BRANCH  24  25
ATOM     25  N   UNL     1      -0.118   7.072  -6.734  1.00  0.00    -0.352 N 
ATOM     26  C   UNL     1       0.209   8.407  -6.740  1.00  0.00     0.251 C 
ATOM     27  H   UNL     1      -1.078   6.870  -6.650  1.00  0.00     0.163 HD
ATOM     28  O   UNL     1      -0.608   9.245  -6.393  1.00  0.00    -0.269 OA
BRANCH  26  29
ATOM     29  C   UNL     1       1.565   8.802  -7.169  1.00  0.00     0.039 A 
ATOM     30  C   UNL     1       2.269   9.752  -6.427  1.00  0.00     0.014 A 
ATOM     31  C   UNL     1       2.132   8.215  -8.304  1.00  0.00     0.014 A 
ATOM     32  C   UNL     1       3.570  10.084  -6.805  1.00  0.00     0.010 A 
ATOM     33  C   UNL     1       3.454   8.477  -8.623  1.00  0.00     0.010 A 
ATOM     34  C   UNL     1       4.172   9.436  -7.896  1.00  0.00    -0.014 A 
BRANCH  34  35
ATOM     35  C   UNL     1       5.525   9.804  -8.364  1.00  0.00     0.031 A 
ATOM     36  C   UNL     1       5.671  10.456  -9.710  1.00  0.00     0.074 A 
ATOM     37  C   UNL     1       6.604   9.498  -7.619  1.00  0.00     0.049 A 
ATOM     38  N   UNL     1       6.760  10.787 -10.349  1.00  0.00    -0.248 NA
ATOM     39  C   UNL     1       4.429  10.748 -10.451  1.00  0.00     0.031 C 
ATOM     40  C   UNL     1       6.570   8.830  -6.318  1.00  0.00     0.029 A 
ATOM     41  N   UNL     1       7.940   9.698  -7.856  1.00  0.00    -0.354 N 
ATOM     42  C   UNL     1       6.336  11.314 -11.562  1.00  0.00     0.074 A 
ATOM     43  C   UNL     1       4.898  11.199 -11.604  1.00  0.00     0.031 C 
ATOM     44  C   UNL     1       7.826   8.694  -5.862  1.00  0.00     0.029 A 
ATOM     45  C   UNL     1       8.756   9.233  -6.852  1.00  0.00     0.049 A 
ATOM     46  H   UNL     1       8.283  10.135  -8.669  1.00  0.00     0.167 HD
ATOM     47  C   UNL     1       7.081  11.878 -12.537  1.00  0.00     0.034 A 
ATOM     48  C   UNL     1      10.100   9.243  -6.746  1.00  0.00     0.034 A 
ATOM     49  C   UNL     1       8.508  12.024 -12.459  1.00  0.00     0.049 A 
ATOM     50  C   UNL     1      10.908   9.880  -7.849  1.00  0.00     0.074 A 
ATOM     51  C   UNL     1       9.352  12.632 -13.369  1.00  0.00     0.029 A 
ATOM     52  N   UNL     1       9.296  11.573 -11.412  1.00  0.00    -0.354 N 
ATOM     53  N   UNL     1      10.487  10.448  -8.955  1.00  0.00    -0.248 NA
ATOM     54  C   UNL     1      12.369   9.891  -7.691  1.00  0.00     0.031 C 
ATOM     55  C   UNL     1      10.657  12.510 -12.894  1.00  0.00     0.029 A 
ATOM     56  C   UNL     1      10.621  11.878 -11.660  1.00  0.00     0.049 A 
ATOM     57  H   UNL     1       8.962  11.106 -10.612  1.00  0.00     0.167 HD
ATOM     58  C   UNL     1      11.625  10.917  -9.603  1.00  0.00     0.074 A 
ATOM     59  C   UNL     1      12.753  10.575  -8.762  1.00  0.00     0.031 C 
ATOM     60  C   UNL     1      11.727  11.568 -10.789  1.00  0.00     0.034 A 
BRANCH  47  61
ATOM     61  C   UNL     1       6.387  12.429 -13.751  1.00  0.00     0.023 A 
ATOM     62  C   UNL     1       6.636  11.871 -15.017  1.00  0.00     0.031 A 
ATOM     63  C   UNL     1       5.597  13.590 -13.672  1.00  0.00     0.131 A 
ATOM     64  C   UNL     1       6.139  12.504 -16.161  1.00  0.00     0.055 A 
ATOM     65  C   UNL     1       5.070  14.194 -14.813  1.00  0.00     0.041 A 
ATOM     66  F   UNL     1       5.326  14.151 -12.482  1.00  0.00    -0.206 F 
ATOM     67  C   UNL     1       5.353  13.658 -16.066  1.00  0.00     0.022 A 
BRANCH  64  68
ATOM     68  S   UNL     1       6.532  11.878 -17.816  1.00  0.00     0.124 S 
ATOM     69  O   UNL     1       5.210  11.804 -18.436  1.00  0.00    -0.237 OA
ATOM     70  O   UNL     1       7.408  12.924 -18.335  1.00  0.00    -0.237 OA
ATOM     71  O   UNL     1       7.164  10.588 -17.559  1.00  0.00    -0.744 OA
ENDBRANCH  64  68
ENDBRANCH  47  61
BRANCH  48  72
ATOM     72  C   UNL     1      10.746   8.697  -5.518  1.00  0.00     0.023 A 
ATOM     73  C   UNL     1      10.650   7.333  -5.189  1.00  0.00     0.031 A 
ATOM     74  C   UNL     1      11.406   9.550  -4.619  1.00  0.00     0.131 A 
ATOM     75  C   UNL     1      11.167   6.873  -3.970  1.00  0.00     0.055 A 
ATOM     76  C   UNL     1      11.972   9.078  -3.434  1.00  0.00     0.041 A 
ATOM     77  F   UNL     1      11.511  10.862  -4.885  1.00  0.00    -0.206 F 
ATOM     78  C   UNL     1      11.844   7.734  -3.099  1.00  0.00     0.022 A 
BRANCH  75  79
ATOM     79  S   UNL     1      10.902   5.162  -3.432  1.00  0.00     0.124 S 
ATOM     80  O   UNL     1      12.267   4.694  -3.213  1.00  0.00    -0.237 OA
ATOM     81  O   UNL     1      10.099   5.351  -2.226  1.00  0.00    -0.237 OA
ATOM     82  O   UNL     1      10.200   4.551  -4.556  1.00  0.00    -0.744 OA
ENDBRANCH  75  79
ENDBRANCH  48  72
BRANCH  60  83
ATOM     83  C   UNL     1      13.088  12.001 -11.265  1.00  0.00     0.023 A 
ATOM     84  C   UNL     1      13.366  13.373 -11.414  1.00  0.00     0.031 A 
ATOM     85  C   UNL     1      14.022  11.071 -11.748  1.00  0.00     0.131 A 
ATOM     86  C   UNL     1      14.528  13.777 -12.081  1.00  0.00     0.055 A 
ATOM     87  C   UNL     1      15.202  11.480 -12.370  1.00  0.00     0.041 A 
ATOM     88  F   UNL     1      13.791   9.753 -11.638  1.00  0.00    -0.206 F 
ATOM     89  C   UNL     1      15.451  12.838 -12.553  1.00  0.00     0.022 A 
BRANCH  86  90
ATOM     90  S   UNL     1      14.839  15.528 -12.435  1.00  0.00     0.124 S 
ATOM     91  O   UNL     1      16.158  15.729 -11.839  1.00  0.00    -0.237 OA
ATOM     92  O   UNL     1      14.803  15.556 -13.894  1.00  0.00    -0.237 OA
ATOM     93  O   UNL     1      13.746  16.224 -11.764  1.00  0.00    -0.744 OA
ENDBRANCH  86  90
ENDBRANCH  60  83
ENDBRANCH  34  35
ENDBRANCH  26  29
ENDBRANCH  24  25
ENDBRANCH   1  24
TORSDOF 15
