REMARK SMILES C[C@@H](CNc1cccc(F)c1C(=O)NCCCNC(=O)c1ccc(-c2c3nc(c(-c4cc(S(=O)(=O)[O-])ccc4F)c4ccc([nH]4)c(-c4cc(S(=O)(=O)[O-])ccc4F)c4nc(c(-c5cc(S(=O)(=O)[O-])ccc5F)c5ccc2[nH]5)C=C4)C=C3)cc1)[NH+]1CCCCC1
REMARK SMILES IDX 15 1 14 2 12 3 13 4 11 6 5 7 6 8 7 9 9 10 8 11 10 12 4 13
REMARK SMILES IDX 3 15 2 16 1 17 84 18 85 19 89 20 86 22 88 23 87 24 16 25
REMARK SMILES IDX 17 26 18 27 19 28 20 30 21 31 22 32 83 33 23 34 82 35 24 36
REMARK SMILES IDX 25 37 26 38 76 39 27 40 81 41 75 42 77 43 28 44 80 45 74 46
REMARK SMILES IDX 73 47 29 49 61 50 41 51 60 52 42 53 45 54 59 55 78 56 43 57
REMARK SMILES IDX 44 58 58 60 79 61 46 62 30 63 31 64 39 65 32 66 38 67 40 68
REMARK SMILES IDX 37 69 33 70 34 71 35 72 36 73 62 74 63 75 71 76 64 77 70 78
REMARK SMILES IDX 72 79 69 80 65 81 66 82 67 83 68 84 47 85 48 86 56 87 49 88
REMARK SMILES IDX 55 89 57 90 54 91 50 92 51 93 52 94 53 95
REMARK H PARENT 14 5 4 14 84 21 18 29 77 48 45 59
REMARK Flexibility Score: inf
ROOT
ATOM      1  C   UNL     1      -3.674   4.581   1.413  1.00  0.00     0.118 C 
ENDROOT
BRANCH   1   2
ATOM      2  N   UNL     1      -2.377   4.226   0.864  1.00  0.00    -0.352 N 
ATOM      3  C   UNL     1      -1.147   4.028   1.438  1.00  0.00     0.256 C 
ATOM      4  O   UNL     1      -0.195   3.916   0.658  1.00  0.00    -0.269 OA
ATOM      5  H   UNL     1      -2.382   4.104  -0.113  1.00  0.00     0.163 HD
BRANCH   3   6
ATOM      6  C   UNL     1      -0.926   3.793   2.893  1.00  0.00     0.098 A 
ATOM      7  C   UNL     1      -0.015   2.769   3.283  1.00  0.00     0.050 A 
ATOM      8  C   UNL     1       0.181   2.537   4.656  1.00  0.00     0.027 A 
ATOM      9  C   UNL     1      -0.494   3.275   5.627  1.00  0.00     0.005 A 
ATOM     10  C   UNL     1      -1.555   4.551   3.884  1.00  0.00     0.138 A 
ATOM     11  C   UNL     1      -1.367   4.281   5.238  1.00  0.00     0.040 A 
ATOM     12  F   UNL     1      -2.340   5.593   3.584  1.00  0.00    -0.206 F 
BRANCH   7  13
ATOM     13  N   UNL     1       0.629   1.975   2.339  1.00  0.00    -0.378 N 
ATOM     14  H   UNL     1       0.875   2.394   1.483  1.00  0.00     0.160 HD
BRANCH  13  15
ATOM     15  C   UNL     1       0.966   0.572   2.524  1.00  0.00     0.177 C 
BRANCH  15  16
ATOM     16  C   UNL     1       0.490  -0.364   1.362  1.00  0.00     0.200 C 
ATOM     17  C   UNL     1       1.199  -0.030   0.042  1.00  0.00     0.077 C 
BRANCH  16  18
ATOM     18  N   UNL     1      -0.991  -0.500   1.276  1.00  0.00    -0.331 N 
ATOM     19  C   UNL     1      -1.652   0.603   0.566  1.00  0.00     0.262 C 
ATOM     20  C   UNL     1      -1.407  -1.787   0.703  1.00  0.00     0.262 C 
ATOM     21  H   UNL     1      -1.302  -0.459   2.247  1.00  0.00     0.348 HD
ATOM     22  C   UNL     1      -3.172   0.515   0.680  1.00  0.00     0.062 C 
ATOM     23  C   UNL     1      -2.927  -1.966   0.789  1.00  0.00     0.062 C 
ATOM     24  C   UNL     1      -3.673  -0.811   0.131  1.00  0.00     0.012 C 
ENDBRANCH  16  18
ENDBRANCH  15  16
ENDBRANCH  13  15
ENDBRANCH   7  13
ENDBRANCH   3   6
ENDBRANCH   1   2
BRANCH   1  25
ATOM     25  C   UNL     1      -3.885   6.089   1.278  1.00  0.00     0.042 C 
BRANCH  25  26
ATOM     26  C   UNL     1      -4.214   6.512  -0.151  1.00  0.00     0.118 C 
BRANCH  26  27
ATOM     27  N   UNL     1      -5.590   6.193  -0.503  1.00  0.00    -0.352 N 
ATOM     28  C   UNL     1      -6.591   7.037  -0.925  1.00  0.00     0.251 C 
ATOM     29  H   UNL     1      -5.839   5.244  -0.429  1.00  0.00     0.163 HD
ATOM     30  O   UNL     1      -7.752   6.644  -0.934  1.00  0.00    -0.269 OA
BRANCH  28  31
ATOM     31  C   UNL     1      -6.260   8.415  -1.349  1.00  0.00     0.039 A 
ATOM     32  C   UNL     1      -7.076   9.472  -0.935  1.00  0.00     0.014 A 
ATOM     33  C   UNL     1      -5.154   8.662  -2.168  1.00  0.00     0.014 A 
ATOM     34  C   UNL     1      -6.750  10.781  -1.298  1.00  0.00     0.010 A 
ATOM     35  C   UNL     1      -4.788   9.971  -2.463  1.00  0.00     0.010 A 
ATOM     36  C   UNL     1      -5.587  11.044  -2.039  1.00  0.00    -0.014 A 
BRANCH  36  37
ATOM     37  C   UNL     1      -5.192  12.427  -2.411  1.00  0.00     0.031 A 
ATOM     38  C   UNL     1      -5.117  12.817  -3.862  1.00  0.00     0.074 A 
ATOM     39  C   UNL     1      -4.839  13.306  -1.453  1.00  0.00     0.049 A 
ATOM     40  N   UNL     1      -4.669  13.921  -4.401  1.00  0.00    -0.248 NA
ATOM     41  C   UNL     1      -5.578  11.816  -4.837  1.00  0.00     0.031 C 
ATOM     42  C   UNL     1      -4.856  13.041  -0.013  1.00  0.00     0.029 A 
ATOM     43  N   UNL     1      -4.391  14.600  -1.547  1.00  0.00    -0.354 N 
ATOM     44  C   UNL     1      -4.780  13.743  -5.775  1.00  0.00     0.074 A 
ATOM     45  C   UNL     1      -5.280  12.402  -5.987  1.00  0.00     0.031 C 
ATOM     46  C   UNL     1      -4.469  14.147   0.641  1.00  0.00     0.029 A 
ATOM     47  C   UNL     1      -4.123  15.180  -0.330  1.00  0.00     0.049 A 
ATOM     48  H   UNL     1      -4.272  15.068  -2.405  1.00  0.00     0.167 HD
ATOM     49  C   UNL     1      -4.511  14.625  -6.768  1.00  0.00     0.034 A 
ATOM     50  C   UNL     1      -3.639  16.401  -0.029  1.00  0.00     0.034 A 
ATOM     51  C   UNL     1      -4.033  15.966  -6.540  1.00  0.00     0.049 A 
ATOM     52  C   UNL     1      -3.303  17.350  -1.147  1.00  0.00     0.074 A 
ATOM     53  C   UNL     1      -3.770  16.955  -7.471  1.00  0.00     0.029 A 
ATOM     54  N   UNL     1      -3.743  16.506  -5.293  1.00  0.00    -0.354 N 
ATOM     55  N   UNL     1      -3.413  17.169  -2.442  1.00  0.00    -0.248 NA
ATOM     56  C   UNL     1      -2.775  18.665  -0.763  1.00  0.00     0.031 C 
ATOM     57  C   UNL     1      -3.261  18.068  -6.795  1.00  0.00     0.029 A 
ATOM     58  C   UNL     1      -3.274  17.802  -5.434  1.00  0.00     0.049 A 
ATOM     59  H   UNL     1      -3.854  16.036  -4.435  1.00  0.00     0.167 HD
ATOM     60  C   UNL     1      -2.979  18.352  -3.030  1.00  0.00     0.074 A 
ATOM     61  C   UNL     1      -2.619  19.245  -1.946  1.00  0.00     0.031 C 
ATOM     62  C   UNL     1      -2.891  18.672  -4.346  1.00  0.00     0.034 A 
BRANCH  49  63
ATOM     63  C   UNL     1      -4.713  14.158  -8.188  1.00  0.00     0.023 A 
ATOM     64  C   UNL     1      -5.988  13.828  -8.680  1.00  0.00     0.031 A 
ATOM     65  C   UNL     1      -3.618  14.033  -9.060  1.00  0.00     0.131 A 
ATOM     66  C   UNL     1      -6.129  13.332  -9.984  1.00  0.00     0.055 A 
ATOM     67  C   UNL     1      -3.774  13.610 -10.381  1.00  0.00     0.041 A 
ATOM     68  F   UNL     1      -2.374  14.316  -8.640  1.00  0.00    -0.206 F 
ATOM     69  C   UNL     1      -5.034  13.245 -10.847  1.00  0.00     0.022 A 
BRANCH  66  70
ATOM     70  S   UNL     1      -7.748  12.703 -10.504  1.00  0.00     0.124 S 
ATOM     71  O   UNL     1      -7.937  11.584  -9.583  1.00  0.00    -0.237 OA
ATOM     72  O   UNL     1      -8.617  13.854 -10.297  1.00  0.00    -0.237 OA
ATOM     73  O   UNL     1      -7.536  12.324 -11.899  1.00  0.00    -0.744 OA
ENDBRANCH  66  70
ENDBRANCH  49  63
BRANCH  50  74
ATOM     74  C   UNL     1      -3.442  16.785   1.396  1.00  0.00     0.023 A 
ATOM     75  C   UNL     1      -4.276  17.735   2.005  1.00  0.00     0.031 A 
ATOM     76  C   UNL     1      -2.441  16.182   2.177  1.00  0.00     0.131 A 
ATOM     77  C   UNL     1      -4.089  18.063   3.356  1.00  0.00     0.055 A 
ATOM     78  C   UNL     1      -2.281  16.486   3.530  1.00  0.00     0.041 A 
ATOM     79  F   UNL     1      -1.626  15.259   1.641  1.00  0.00    -0.206 F 
ATOM     80  C   UNL     1      -3.107  17.434   4.126  1.00  0.00     0.022 A 
BRANCH  77  81
ATOM     81  S   UNL     1      -5.151  19.330   4.102  1.00  0.00     0.124 S 
ATOM     82  O   UNL     1      -4.740  20.526   3.377  1.00  0.00    -0.237 OA
ATOM     83  O   UNL     1      -6.487  18.825   3.803  1.00  0.00    -0.237 OA
ATOM     84  O   UNL     1      -4.780  19.296   5.515  1.00  0.00    -0.744 OA
ENDBRANCH  77  81
ENDBRANCH  50  74
BRANCH  62  85
ATOM     85  C   UNL     1      -2.394  20.053  -4.690  1.00  0.00     0.023 A 
ATOM     86  C   UNL     1      -1.058  20.426  -4.469  1.00  0.00     0.031 A 
ATOM     87  C   UNL     1      -3.260  20.995  -5.273  1.00  0.00     0.131 A 
ATOM     88  C   UNL     1      -0.634  21.723  -4.795  1.00  0.00     0.055 A 
ATOM     89  C   UNL     1      -2.819  22.265  -5.646  1.00  0.00     0.041 A 
ATOM     90  F   UNL     1      -4.547  20.688  -5.505  1.00  0.00    -0.206 F 
ATOM     91  C   UNL     1      -1.500  22.638  -5.400  1.00  0.00     0.022 A 
BRANCH  88  92
ATOM     92  S   UNL     1       1.056  22.220  -4.366  1.00  0.00     0.124 S 
ATOM     93  O   UNL     1       1.041  22.113  -2.910  1.00  0.00    -0.237 OA
ATOM     94  O   UNL     1       1.865  21.229  -5.069  1.00  0.00    -0.237 OA
ATOM     95  O   UNL     1       1.156  23.582  -4.886  1.00  0.00    -0.744 OA
ENDBRANCH  88  92
ENDBRANCH  62  85
ENDBRANCH  36  37
ENDBRANCH  28  31
ENDBRANCH  26  27
ENDBRANCH  25  26
ENDBRANCH   1  25
TORSDOF 17
