REMARK SMILES Cc1nn(C)c(=O)c(C(=O)N[C@H]2C=C[C@H](C(=O)NCCCNC(=O)c3ccc(-c4c5nc(c(-c6cc(S(=O)(=O)[O-])ccc6F)c6ccc([nH]6)c(-c6cc(S(=O)(=O)[O-])ccc6F)c6nc(c(-c7cc(S(=O)(=O)[O-])ccc7F)c7ccc4[nH]7)C=C6)C=C5)cc3)C2)c1C
REMARK SMILES IDX 20 1 19 2 18 3 16 4 17 5 15 7 12 8 13 9 88 10 14 11 11 12
REMARK SMILES IDX 9 13 10 14 8 16 1 17 2 18 3 19 89 20 4 21 90 22 5 23 6 24
REMARK SMILES IDX 7 25 21 26 22 27 23 28 24 30 25 31 26 32 87 33 27 34 86 35
REMARK SMILES IDX 28 36 29 37 30 38 80 39 31 40 85 41 79 42 81 43 32 44 84 45
REMARK SMILES IDX 78 46 77 47 33 49 65 50 45 51 64 52 46 53 49 54 63 55 82 56
REMARK SMILES IDX 47 57 48 58 62 60 83 61 50 62 34 63 35 64 43 65 36 66 42 67
REMARK SMILES IDX 44 68 41 69 37 70 38 71 39 72 40 73 66 74 67 75 75 76 68 77
REMARK SMILES IDX 74 78 76 79 73 80 69 81 70 82 71 83 72 84 51 85 52 86 60 87
REMARK SMILES IDX 53 88 59 89 61 90 58 91 54 92 55 93 56 94 57 95
REMARK H PARENT 18 6 11 15 22 29 81 48 49 59
REMARK Flexibility Score: inf
ROOT
ATOM      1  C   UNL     1       1.223   4.652  -2.864  1.00  0.00     0.042 C 
ENDROOT
BRANCH   1   2
ATOM      2  C   UNL     1       0.358   3.430  -2.613  1.00  0.00     0.117 C 
BRANCH   2   3
ATOM      3  N   UNL     1      -0.969   3.775  -2.138  1.00  0.00    -0.356 N 
ATOM      4  C   UNL     1      -2.204   3.707  -2.690  1.00  0.00     0.227 C 
ATOM      5  O   UNL     1      -3.130   4.115  -1.977  1.00  0.00    -0.274 OA
ATOM      6  H   UNL     1      -0.973   4.134  -1.221  1.00  0.00     0.163 HD
BRANCH   4   7
ATOM      7  C   UNL     1      -2.544   3.030  -4.029  1.00  0.00     0.103 C 
ATOM      8  C   UNL     1      -1.529   0.833  -4.167  1.00  0.00     0.106 C 
ATOM      9  C   UNL     1      -1.113   1.676  -5.329  1.00  0.00    -0.006 C 
ATOM     10  C   UNL     1      -2.832   1.547  -3.780  1.00  0.00     0.047 C 
ATOM     11  C   UNL     1      -1.585   2.928  -5.178  1.00  0.00    -0.016 C 
BRANCH   8  12
ATOM     12  N   UNL     1      -1.750  -0.549  -4.472  1.00  0.00    -0.346 N 
ATOM     13  C   UNL     1      -1.576  -1.690  -3.738  1.00  0.00     0.257 C 
ATOM     14  O   UNL     1      -2.260  -2.646  -4.118  1.00  0.00    -0.269 OA
ATOM     15  H   UNL     1      -2.091  -0.707  -5.382  1.00  0.00     0.164 HD
BRANCH  13  16
ATOM     16  C   UNL     1      -0.586  -1.877  -2.597  1.00  0.00     0.111 A 
ATOM     17  C   UNL     1       1.376  -0.411   0.302  1.00  0.00     0.069 C 
ATOM     18  C   UNL     1       0.725  -1.456  -0.585  1.00  0.00     0.062 A 
ATOM     19  N   UNL     1       1.129  -2.669  -0.422  1.00  0.00    -0.175 NA
ATOM     20  C   UNL     1      -0.333  -1.047  -1.560  1.00  0.00    -0.010 A 
ATOM     21  N   UNL     1       0.668  -3.595  -1.303  1.00  0.00    -0.232 N 
ATOM     22  C   UNL     1      -1.063   0.185  -1.146  1.00  0.00     0.047 C 
ATOM     23  C   UNL     1       1.056  -4.962  -1.000  1.00  0.00     0.178 C 
ATOM     24  C   UNL     1       0.023  -3.271  -2.495  1.00  0.00     0.279 A 
ATOM     25  O   UNL     1      -0.096  -4.093  -3.403  1.00  0.00    -0.267 OA
ENDBRANCH  13  16
ENDBRANCH   8  12
ENDBRANCH   4   7
ENDBRANCH   2   3
ENDBRANCH   1   2
BRANCH   1  26
ATOM     26  C   UNL     1       1.579   5.413  -1.591  1.00  0.00     0.118 C 
BRANCH  26  27
ATOM     27  N   UNL     1       2.373   4.620  -0.658  1.00  0.00    -0.352 N 
ATOM     28  C   UNL     1       3.693   4.729  -0.294  1.00  0.00     0.251 C 
ATOM     29  H   UNL     1       1.883   3.889  -0.218  1.00  0.00     0.163 HD
ATOM     30  O   UNL     1       4.208   3.823   0.361  1.00  0.00    -0.269 OA
BRANCH  28  31
ATOM     31  C   UNL     1       4.491   5.904  -0.703  1.00  0.00     0.039 A 
ATOM     32  C   UNL     1       5.805   5.718  -1.141  1.00  0.00     0.014 A 
ATOM     33  C   UNL     1       3.950   7.190  -0.648  1.00  0.00     0.014 A 
ATOM     34  C   UNL     1       6.540   6.812  -1.605  1.00  0.00     0.010 A 
ATOM     35  C   UNL     1       4.646   8.261  -1.199  1.00  0.00     0.010 A 
ATOM     36  C   UNL     1       5.951   8.085  -1.679  1.00  0.00    -0.014 A 
BRANCH  36  37
ATOM     37  C   UNL     1       6.686   9.247  -2.241  1.00  0.00     0.031 A 
ATOM     38  C   UNL     1       6.994  10.434  -1.370  1.00  0.00     0.074 A 
ATOM     39  C   UNL     1       7.031   9.253  -3.544  1.00  0.00     0.049 A 
ATOM     40  N   UNL     1       7.563  11.566  -1.690  1.00  0.00    -0.248 NA
ATOM     41  C   UNL     1       6.585  10.347   0.042  1.00  0.00     0.031 C 
ATOM     42  C   UNL     1       6.760   8.171  -4.495  1.00  0.00     0.029 A 
ATOM     43  N   UNL     1       7.685  10.196  -4.296  1.00  0.00    -0.354 N 
ATOM     44  C   UNL     1       7.578  12.325  -0.526  1.00  0.00     0.074 A 
ATOM     45  C   UNL     1       6.902  11.552   0.492  1.00  0.00     0.031 C 
ATOM     46  C   UNL     1       7.279   8.495  -5.690  1.00  0.00     0.029 A 
ATOM     47  C   UNL     1       7.875   9.825  -5.607  1.00  0.00     0.049 A 
ATOM     48  H   UNL     1       7.990  11.058  -3.931  1.00  0.00     0.167 HD
ATOM     49  C   UNL     1       8.130  13.544  -0.318  1.00  0.00     0.034 A 
ATOM     50  C   UNL     1       8.456  10.483  -6.631  1.00  0.00     0.034 A 
ATOM     51  C   UNL     1       8.820  14.296  -1.334  1.00  0.00     0.049 A 
ATOM     52  C   UNL     1       9.025  11.855  -6.386  1.00  0.00     0.074 A 
ATOM     53  C   UNL     1       9.457  15.517  -1.214  1.00  0.00     0.029 A 
ATOM     54  N   UNL     1       8.961  13.900  -2.658  1.00  0.00    -0.354 N 
ATOM     55  N   UNL     1       9.050  12.548  -5.271  1.00  0.00    -0.248 NA
ATOM     56  C   UNL     1       9.643  12.534  -7.533  1.00  0.00     0.031 C 
ATOM     57  C   UNL     1       9.923  15.893  -2.476  1.00  0.00     0.029 A 
ATOM     58  C   UNL     1       9.644  14.872  -3.371  1.00  0.00     0.049 A 
ATOM     59  H   UNL     1       8.626  13.055  -3.033  1.00  0.00     0.167 HD
ATOM     60  C   UNL     1       9.702  13.738  -5.579  1.00  0.00     0.074 A 
ATOM     61  C   UNL     1      10.063  13.665  -6.981  1.00  0.00     0.031 C 
ATOM     62  C   UNL     1       9.980  14.793  -4.772  1.00  0.00     0.034 A 
BRANCH  49  63
ATOM     63  C   UNL     1       8.002  14.146   1.058  1.00  0.00     0.023 A 
ATOM     64  C   UNL     1       8.646  13.577   2.170  1.00  0.00     0.031 A 
ATOM     65  C   UNL     1       7.245  15.313   1.256  1.00  0.00     0.131 A 
ATOM     66  C   UNL     1       8.483  14.151   3.440  1.00  0.00     0.055 A 
ATOM     67  C   UNL     1       7.143  15.918   2.510  1.00  0.00     0.041 A 
ATOM     68  F   UNL     1       6.593  15.886   0.233  1.00  0.00    -0.206 F 
ATOM     69  C   UNL     1       7.758  15.332   3.613  1.00  0.00     0.022 A 
BRANCH  66  70
ATOM     70  S   UNL     1       9.162  13.281   4.878  1.00  0.00     0.124 S 
ATOM     71  O   UNL     1       8.394  12.038   4.859  1.00  0.00    -0.237 OA
ATOM     72  O   UNL     1      10.576  13.163   4.540  1.00  0.00    -0.237 OA
ATOM     73  O   UNL     1       8.860  14.176   5.994  1.00  0.00    -0.744 OA
ENDBRANCH  66  70
ENDBRANCH  49  63
BRANCH  50  74
ATOM     74  C   UNL     1       8.524   9.850  -7.977  1.00  0.00     0.023 A 
ATOM     75  C   UNL     1       9.751   9.436  -8.519  1.00  0.00     0.031 A 
ATOM     76  C   UNL     1       7.359   9.633  -8.734  1.00  0.00     0.131 A 
ATOM     77  C   UNL     1       9.787   8.841  -9.790  1.00  0.00     0.055 A 
ATOM     78  C   UNL     1       7.396   9.006  -9.981  1.00  0.00     0.041 A 
ATOM     79  F   UNL     1       6.160  10.002  -8.255  1.00  0.00    -0.206 F 
ATOM     80  C   UNL     1       8.617   8.610 -10.518  1.00  0.00     0.022 A 
BRANCH  77  81
ATOM     81  S   UNL     1      11.395   8.387 -10.495  1.00  0.00     0.124 S 
ATOM     82  O   UNL     1      12.034   9.690 -10.638  1.00  0.00    -0.237 OA
ATOM     83  O   UNL     1      11.944   7.511  -9.464  1.00  0.00    -0.237 OA
ATOM     84  O   UNL     1      11.042   7.722 -11.747  1.00  0.00    -0.744 OA
ENDBRANCH  77  81
ENDBRANCH  50  74
BRANCH  62  85
ATOM     85  C   UNL     1      10.726  15.954  -5.376  1.00  0.00     0.023 A 
ATOM     86  C   UNL     1      10.115  16.814  -6.303  1.00  0.00     0.031 A 
ATOM     87  C   UNL     1      12.043  16.237  -4.972  1.00  0.00     0.131 A 
ATOM     88  C   UNL     1      10.831  17.905  -6.817  1.00  0.00     0.055 A 
ATOM     89  C   UNL     1      12.732  17.353  -5.448  1.00  0.00     0.041 A 
ATOM     90  F   UNL     1      12.670  15.447  -4.085  1.00  0.00    -0.206 F 
ATOM     91  C   UNL     1      12.128  18.191  -6.380  1.00  0.00     0.022 A 
BRANCH  88  92
ATOM     92  S   UNL     1      10.055  18.930  -8.095  1.00  0.00     0.124 S 
ATOM     93  O   UNL     1       9.896  17.978  -9.190  1.00  0.00    -0.237 OA
ATOM     94  O   UNL     1       8.823  19.366  -7.446  1.00  0.00    -0.237 OA
ATOM     95  O   UNL     1      11.037  19.987  -8.330  1.00  0.00    -0.744 OA
ENDBRANCH  88  92
ENDBRANCH  62  85
ENDBRANCH  36  37
ENDBRANCH  28  31
ENDBRANCH  26  27
ENDBRANCH   1  26
TORSDOF 15
