REMARK SMILES CC[C@H](NS(=O)(=O)Cc1ccccc1)C(=O)NCCCNC(=O)c1ccc(-c2c3nc(c(-c4cc(S(=O)(=O)[O-])ccc4F)c4ccc([nH]4)c(-c4cc(S(=O)(=O)[O-])ccc4F)c4nc(c(-c5cc(S(=O)(=O)[O-])ccc5F)c5ccc2[nH]5)C=C4)C=C3)cc1
REMARK SMILES IDX 18 1 17 2 15 3 16 4 3 6 2 7 1 8 4 9 5 11 6 12 7 13 8 14 9 15
REMARK SMILES IDX 10 16 14 17 11 18 13 19 12 20 19 21 20 22 21 23 22 24 23 26
REMARK SMILES IDX 24 27 25 28 86 29 26 30 85 31 27 32 28 33 29 34 79 35 30 36
REMARK SMILES IDX 84 37 78 38 80 39 31 40 83 41 77 42 76 43 32 45 64 46 44 47
REMARK SMILES IDX 63 48 45 49 48 50 62 51 81 52 46 53 47 54 61 56 82 57 49 58
REMARK SMILES IDX 33 59 34 60 42 61 35 62 41 63 43 64 40 65 36 66 37 67 38 68
REMARK SMILES IDX 39 69 65 70 66 71 74 72 67 73 73 74 75 75 72 76 68 77 69 78
REMARK SMILES IDX 70 79 71 80 50 81 51 82 59 83 52 84 58 85 60 86 57 87 53 88
REMARK SMILES IDX 54 89 55 90 56 91
REMARK H PARENT 17 5 4 10 21 25 80 44 48 55
REMARK Flexibility Score: inf
ROOT
ATOM      1  C   UNL     1      -2.363  -1.583  -1.964  1.00  0.00     0.117 C 
ENDROOT
BRANCH   1   2
ATOM      2  N   UNL     1      -1.491  -1.979  -3.055  1.00  0.00    -0.355 N 
ATOM      3  C   UNL     1      -0.123  -2.091  -3.083  1.00  0.00     0.238 C 
ATOM      4  O   UNL     1       0.382  -2.864  -3.901  1.00  0.00    -0.273 OA
ATOM      5  H   UNL     1      -1.948  -2.200  -3.899  1.00  0.00     0.163 HD
BRANCH   3   6
ATOM      6  C   UNL     1       0.749  -1.347  -2.075  1.00  0.00     0.158 C 
BRANCH   6   7
ATOM      7  C   UNL     1       0.752  -2.164  -0.763  1.00  0.00     0.027 C 
ATOM      8  C   UNL     1       0.564  -1.438   0.558  1.00  0.00     0.006 C 
ENDBRANCH   6   7
BRANCH   6   9
ATOM      9  N   UNL     1       0.315   0.069  -1.954  1.00  0.00    -0.202 NA
ATOM     10  H   UNL     1       0.617   0.400  -1.037  1.00  0.00     0.141 HD
BRANCH   9  11
ATOM     11  S   UNL     1       0.879   1.180  -3.099  1.00  0.00     0.216 S 
ATOM     12  O   UNL     1       0.659   2.453  -2.427  1.00  0.00    -0.212 OA
ATOM     13  O   UNL     1       2.223   0.806  -3.461  1.00  0.00    -0.212 OA
BRANCH  11  14
ATOM     14  C   UNL     1      -0.257   1.156  -4.518  1.00  0.00     0.189 C 
BRANCH  14  15
ATOM     15  C   UNL     1       0.023   0.083  -5.539  1.00  0.00    -0.032 A 
ATOM     16  C   UNL     1      -0.994  -0.802  -5.939  1.00  0.00     0.005 A 
ATOM     17  C   UNL     1       1.259  -0.017  -6.189  1.00  0.00     0.005 A 
ATOM     18  C   UNL     1      -0.742  -1.841  -6.837  1.00  0.00     0.000 A 
ATOM     19  C   UNL     1       1.510  -1.045  -7.103  1.00  0.00     0.000 A 
ATOM     20  C   UNL     1       0.519  -1.974  -7.405  1.00  0.00     0.000 A 
ENDBRANCH  14  15
ENDBRANCH  11  14
ENDBRANCH   9  11
ENDBRANCH   6   9
ENDBRANCH   3   6
ENDBRANCH   1   2
BRANCH   1  21
ATOM     21  C   UNL     1      -3.056  -0.229  -2.078  1.00  0.00     0.042 C 
BRANCH  21  22
ATOM     22  C   UNL     1      -3.892   0.053  -3.320  1.00  0.00     0.118 C 
BRANCH  22  23
ATOM     23  N   UNL     1      -4.754  -1.027  -3.755  1.00  0.00    -0.352 N 
ATOM     24  C   UNL     1      -5.996  -0.941  -4.342  1.00  0.00     0.251 C 
ATOM     25  H   UNL     1      -4.408  -1.937  -3.612  1.00  0.00     0.163 HD
ATOM     26  O   UNL     1      -6.592  -1.967  -4.653  1.00  0.00    -0.269 OA
BRANCH  24  27
ATOM     27  C   UNL     1      -6.628   0.384  -4.535  1.00  0.00     0.039 A 
ATOM     28  C   UNL     1      -7.897   0.594  -3.992  1.00  0.00     0.014 A 
ATOM     29  C   UNL     1      -5.969   1.421  -5.205  1.00  0.00     0.014 A 
ATOM     30  C   UNL     1      -8.477   1.863  -4.054  1.00  0.00     0.010 A 
ATOM     31  C   UNL     1      -6.529   2.701  -5.220  1.00  0.00     0.010 A 
ATOM     32  C   UNL     1      -7.783   2.938  -4.633  1.00  0.00    -0.014 A 
BRANCH  32  33
ATOM     33  C   UNL     1      -8.354   4.313  -4.597  1.00  0.00     0.031 A 
ATOM     34  C   UNL     1      -8.779   4.999  -5.866  1.00  0.00     0.074 A 
ATOM     35  C   UNL     1      -8.460   4.958  -3.418  1.00  0.00     0.049 A 
ATOM     36  N   UNL     1      -9.277   6.198  -6.030  1.00  0.00    -0.248 NA
ATOM     37  C   UNL     1      -8.601   4.244  -7.114  1.00  0.00     0.031 C 
ATOM     38  C   UNL     1      -8.053   4.415  -2.120  1.00  0.00     0.029 A 
ATOM     39  N   UNL     1      -8.938   6.210  -3.115  1.00  0.00    -0.354 N 
ATOM     40  C   UNL     1      -9.473   6.345  -7.399  1.00  0.00     0.074 A 
ATOM     41  C   UNL     1      -8.983   5.131  -8.021  1.00  0.00     0.031 C 
ATOM     42  C   UNL     1      -8.318   5.318  -1.162  1.00  0.00     0.029 A 
ATOM     43  C   UNL     1      -8.875   6.520  -1.776  1.00  0.00     0.049 A 
ATOM     44  H   UNL     1      -9.292   6.829  -3.794  1.00  0.00     0.167 HD
ATOM     45  C   UNL     1     -10.027   7.385  -8.073  1.00  0.00     0.034 A 
ATOM     46  C   UNL     1      -9.217   7.645  -1.116  1.00  0.00     0.034 A 
ATOM     47  C   UNL     1     -10.512   8.590  -7.442  1.00  0.00     0.049 A 
ATOM     48  C   UNL     1      -9.797   8.802  -1.890  1.00  0.00     0.074 A 
ATOM     49  C   UNL     1     -11.133   9.680  -8.028  1.00  0.00     0.029 A 
ATOM     50  N   UNL     1     -10.419   8.873  -6.085  1.00  0.00    -0.354 N 
ATOM     51  N   UNL     1     -10.025   8.902  -3.179  1.00  0.00    -0.248 NA
ATOM     52  C   UNL     1     -10.178   9.992  -1.118  1.00  0.00     0.031 C 
ATOM     53  C   UNL     1     -11.352  10.647  -7.041  1.00  0.00     0.029 A 
ATOM     54  C   UNL     1     -10.941  10.132  -5.823  1.00  0.00     0.049 A 
ATOM     55  H   UNL     1     -10.039   8.268  -5.407  1.00  0.00     0.167 HD
ATOM     56  C   UNL     1     -10.607  10.153  -3.366  1.00  0.00     0.074 A 
ATOM     57  C   UNL     1     -10.705  10.764  -2.057  1.00  0.00     0.031 C 
ATOM     58  C   UNL     1     -11.027  10.740  -4.515  1.00  0.00     0.034 A 
BRANCH  45  59
ATOM     59  C   UNL     1     -10.112   7.270  -9.577  1.00  0.00     0.023 A 
ATOM     60  C   UNL     1     -10.886   6.275 -10.198  1.00  0.00     0.031 A 
ATOM     61  C   UNL     1      -9.394   8.155 -10.402  1.00  0.00     0.131 A 
ATOM     62  C   UNL     1     -10.865   6.140 -11.595  1.00  0.00     0.055 A 
ATOM     63  C   UNL     1      -9.443   8.066 -11.794  1.00  0.00     0.041 A 
ATOM     64  F   UNL     1      -8.623   9.114  -9.867  1.00  0.00    -0.206 F 
ATOM     65  C   UNL     1     -10.169   7.045 -12.399  1.00  0.00     0.022 A 
BRANCH  62  66
ATOM     66  S   UNL     1     -11.644   4.678 -12.335  1.00  0.00     0.124 S 
ATOM     67  O   UNL     1     -10.913   3.594 -11.683  1.00  0.00    -0.237 OA
ATOM     68  O   UNL     1     -13.040   4.833 -11.945  1.00  0.00    -0.237 OA
ATOM     69  O   UNL     1     -11.373   4.831 -13.762  1.00  0.00    -0.744 OA
ENDBRANCH  62  66
ENDBRANCH  45  59
BRANCH  46  70
ATOM     70  C   UNL     1      -9.011   7.748   0.358  1.00  0.00     0.023 A 
ATOM     71  C   UNL     1     -10.099   7.886   1.235  1.00  0.00     0.031 A 
ATOM     72  C   UNL     1      -7.716   7.758   0.907  1.00  0.00     0.131 A 
ATOM     73  C   UNL     1      -9.871   8.077   2.607  1.00  0.00     0.055 A 
ATOM     74  C   UNL     1      -7.497   7.895   2.279  1.00  0.00     0.041 A 
ATOM     75  F   UNL     1      -6.642   7.625   0.113  1.00  0.00    -0.206 F 
ATOM     76  C   UNL     1      -8.579   8.069   3.136  1.00  0.00     0.022 A 
BRANCH  73  77
ATOM     77  S   UNL     1     -11.290   8.421   3.684  1.00  0.00     0.124 S 
ATOM     78  O   UNL     1     -11.846   9.621   3.069  1.00  0.00    -0.237 OA
ATOM     79  O   UNL     1     -12.080   7.202   3.541  1.00  0.00    -0.237 OA
ATOM     80  O   UNL     1     -10.681   8.616   4.997  1.00  0.00    -0.744 OA
ENDBRANCH  73  77
ENDBRANCH  46  70
BRANCH  58  81
ATOM     81  C   UNL     1     -11.681  12.096  -4.397  1.00  0.00     0.023 A 
ATOM     82  C   UNL     1     -10.963  13.236  -3.995  1.00  0.00     0.031 A 
ATOM     83  C   UNL     1     -13.050  12.245  -4.682  1.00  0.00     0.131 A 
ATOM     84  C   UNL     1     -11.627  14.462  -3.838  1.00  0.00     0.055 A 
ATOM     85  C   UNL     1     -13.693  13.480  -4.582  1.00  0.00     0.041 A 
ATOM     86  F   UNL     1     -13.787  11.190  -5.067  1.00  0.00    -0.206 F 
ATOM     87  C   UNL     1     -12.984  14.595  -4.146  1.00  0.00     0.022 A 
BRANCH  84  88
ATOM     88  S   UNL     1     -10.715  15.868  -3.143  1.00  0.00     0.124 S 
ATOM     89  O   UNL     1     -10.291  15.344  -1.849  1.00  0.00    -0.237 OA
ATOM     90  O   UNL     1      -9.656  16.070  -4.127  1.00  0.00    -0.237 OA
ATOM     91  O   UNL     1     -11.715  16.932  -3.084  1.00  0.00    -0.744 OA
ENDBRANCH  84  88
ENDBRANCH  58  81
ENDBRANCH  32  33
ENDBRANCH  24  27
ENDBRANCH  22  23
ENDBRANCH  21  22
ENDBRANCH   1  21
TORSDOF 18
