REMARK SMILES CC1(C)[C@H](O)CC[C@@]2(C)[C@H]3Cc4c(oc(C(=O)NCCCNC(=O)c5ccc(-c6c7nc(c(-c8cc(S(=O)(=O)[O-])ccc8F)c8ccc([nH]8)c(-c8cc(S(=O)(=O)[O-])ccc8F)c8nc(c(-c9cc(S(=O)(=O)[O-])ccc9F)c9ccc6[nH]9)C=C8)C=C7)cc5)cc4=O)O[C@@]3(C)CC[C@@H]12
REMARK SMILES IDX 21 1 20 2 19 3 18 4 16 5 17 6 15 8 1 9 2 10 3 11 4 12 96 13
REMARK SMILES IDX 6 14 8 15 95 16 7 17 9 18 10 19 94 20 92 21 11 22 93 23
REMARK SMILES IDX 91 24 12 25 13 26 89 27 14 28 88 29 90 30 5 31 22 33 23 34
REMARK SMILES IDX 24 36 25 37 26 38 87 39 27 40 86 41 28 42 29 43 30 44 80 45
REMARK SMILES IDX 31 46 85 47 79 48 81 49 32 50 84 51 78 52 77 53 33 55 65 56
REMARK SMILES IDX 45 57 64 58 46 59 49 60 63 61 82 62 47 63 48 64 62 66 83 67
REMARK SMILES IDX 50 68 34 69 35 70 43 71 36 72 42 73 44 74 41 75 37 76 38 77
REMARK SMILES IDX 39 78 40 79 66 80 67 81 75 82 68 83 74 84 76 85 73 86 69 87
REMARK SMILES IDX 70 88 71 89 72 90 51 91 52 92 60 93 53 94 59 95 61 96 58 97
REMARK SMILES IDX 54 98 55 99 56 100 57 101
REMARK H PARENT 18 7 5 32 22 35 81 54 49 65
REMARK Flexibility Score: inf
ROOT
ATOM      1  C   UNL     1       0.715   9.226   4.973  1.00  0.00     0.118 C 
ENDROOT
BRANCH   1   2
ATOM      2  C   UNL     1       0.733   8.199   3.851  1.00  0.00     0.042 C 
BRANCH   2   3
ATOM      3  C   UNL     1      -0.311   8.445   2.741  1.00  0.00     0.118 C 
BRANCH   3   4
ATOM      4  N   UNL     1       0.116   9.424   1.710  1.00  0.00    -0.349 N 
ATOM      5  C   UNL     1       0.697   9.359   0.450  1.00  0.00     0.287 C 
ATOM      6  O   UNL     1       0.735  10.399  -0.209  1.00  0.00    -0.266 OA
ATOM      7  H   UNL     1      -0.057  10.352   1.989  1.00  0.00     0.163 HD
BRANCH   5   8
ATOM      8  C   UNL     1       1.242   8.086  -0.139  1.00  0.00     0.199 A 
ATOM      9  C   UNL     1       2.218  -1.016  -2.056  1.00  0.00     0.014 C 
ATOM     10  C   UNL     1       1.396   0.282  -2.336  1.00  0.00    -0.006 C 
ATOM     11  C   UNL     1      -0.001  -0.259  -2.790  1.00  0.00     0.014 C 
ATOM     12  C   UNL     1       1.052   0.888  -0.823  1.00  0.00     0.120 C 
ATOM     13  C   UNL     1       2.232   1.439  -3.596  1.00  0.00     0.004 C 
ATOM     14  C   UNL     1       2.310   1.451  -0.251  1.00  0.00     0.033 C 
ATOM     15  C   UNL     1       1.935   2.565  -2.659  1.00  0.00    -0.022 C 
ATOM     16  C   UNL     1       3.605   2.288  -4.162  1.00  0.00     0.009 C 
ATOM     17  C   UNL     1       2.967   1.970  -1.487  1.00  0.00     0.010 C 
ATOM     18  C   UNL     1       0.451   2.592  -3.323  1.00  0.00     0.012 C 
ATOM     19  C   UNL     1       2.055   4.082  -2.569  1.00  0.00     0.044 C 
ATOM     20  C   UNL     1       3.889   3.938  -4.041  1.00  0.00     0.049 C 
ATOM     21  C   UNL     1       2.653   4.868  -3.712  1.00  0.00     0.113 C 
ATOM     22  C   UNL     1       2.842   4.496  -1.333  1.00  0.00     0.055 C 
ATOM     23  C   UNL     1       1.895   5.011  -5.043  1.00  0.00     0.057 C 
ATOM     24  O   UNL     1       2.783   6.346  -3.238  1.00  0.00    -0.458 OA
ATOM     25  C   UNL     1       2.263   5.749  -1.005  1.00  0.00     0.081 A 
ATOM     26  C   UNL     1       2.224   6.699  -1.928  1.00  0.00     0.292 A 
ATOM     27  C   UNL     1       1.564   5.792   0.247  1.00  0.00     0.192 A 
ATOM     28  O   UNL     1       1.585   7.931  -1.548  1.00  0.00    -0.420 OA
ATOM     29  C   UNL     1       1.418   7.107   0.749  1.00  0.00     0.105 A 
ATOM     30  O   UNL     1       1.114   4.815   0.846  1.00  0.00    -0.289 OA
BRANCH  12  31
ATOM     31  O   UNL     1       0.038   1.896  -0.786  1.00  0.00    -0.393 OA
ATOM     32  H   UNL     1       0.333   2.671  -1.289  1.00  0.00     0.210 HD
ENDBRANCH  12  31
ENDBRANCH   5   8
ENDBRANCH   3   4
ENDBRANCH   2   3
ENDBRANCH   1   2
BRANCH   1  33
ATOM     33  N   UNL     1      -0.466   9.096   5.815  1.00  0.00    -0.352 N 
ATOM     34  C   UNL     1      -0.549   8.913   7.175  1.00  0.00     0.251 C 
ATOM     35  H   UNL     1      -1.328   9.146   5.343  1.00  0.00     0.163 HD
ATOM     36  O   UNL     1      -1.629   8.632   7.685  1.00  0.00    -0.269 OA
BRANCH  34  37
ATOM     37  C   UNL     1       0.658   9.050   8.017  1.00  0.00     0.039 A 
ATOM     38  C   UNL     1       0.905   8.103   9.015  1.00  0.00     0.014 A 
ATOM     39  C   UNL     1       1.528  10.130   7.839  1.00  0.00     0.014 A 
ATOM     40  C   UNL     1       2.050   8.215   9.807  1.00  0.00     0.010 A 
ATOM     41  C   UNL     1       2.700  10.206   8.585  1.00  0.00     0.010 A 
ATOM     42  C   UNL     1       2.961   9.260   9.587  1.00  0.00    -0.014 A 
BRANCH  42  43
ATOM     43  C   UNL     1       4.171   9.414  10.428  1.00  0.00     0.031 A 
ATOM     44  C   UNL     1       4.276  10.578  11.370  1.00  0.00     0.074 A 
ATOM     45  C   UNL     1       5.187   8.540  10.308  1.00  0.00     0.049 A 
ATOM     46  N   UNL     1       5.260  10.907  12.165  1.00  0.00    -0.248 NA
ATOM     47  C   UNL     1       3.134  11.506  11.411  1.00  0.00     0.031 C 
ATOM     48  C   UNL     1       5.205   7.394   9.400  1.00  0.00     0.029 A 
ATOM     49  N   UNL     1       6.401   8.483  10.946  1.00  0.00    -0.354 N 
ATOM     50  C   UNL     1       4.851  12.069  12.806  1.00  0.00     0.074 A 
ATOM     51  C   UNL     1       3.567  12.432  12.252  1.00  0.00     0.031 C 
ATOM     52  C   UNL     1       6.365   6.736   9.552  1.00  0.00     0.029 A 
ATOM     53  C   UNL     1       7.186   7.428  10.544  1.00  0.00     0.049 A 
ATOM     54  H   UNL     1       6.683   9.136  11.626  1.00  0.00     0.167 HD
ATOM     55  C   UNL     1       5.475  12.750  13.795  1.00  0.00     0.034 A 
ATOM     56  C   UNL     1       8.423   7.058  10.933  1.00  0.00     0.034 A 
ATOM     57  C   UNL     1       6.753  12.376  14.339  1.00  0.00     0.049 A 
ATOM     58  C   UNL     1       9.117   7.848  12.012  1.00  0.00     0.074 A 
ATOM     59  C   UNL     1       7.457  12.985  15.362  1.00  0.00     0.029 A 
ATOM     60  N   UNL     1       7.515  11.298  13.913  1.00  0.00    -0.354 N 
ATOM     61  N   UNL     1       8.689   8.905  12.661  1.00  0.00    -0.248 NA
ATOM     62  C   UNL     1      10.453   7.394  12.424  1.00  0.00     0.031 C 
ATOM     63  C   UNL     1       8.667  12.309  15.518  1.00  0.00     0.029 A 
ATOM     64  C   UNL     1       8.691  11.236  14.640  1.00  0.00     0.049 A 
ATOM     65  H   UNL     1       7.257  10.671  13.199  1.00  0.00     0.167 HD
ATOM     66  C   UNL     1       9.686   9.224  13.578  1.00  0.00     0.074 A 
ATOM     67  C   UNL     1      10.736   8.241  13.407  1.00  0.00     0.031 C 
ATOM     68  C   UNL     1       9.723  10.239  14.478  1.00  0.00     0.034 A 
BRANCH  55  69
ATOM     69  C   UNL     1       4.776  13.947  14.385  1.00  0.00     0.023 A 
ATOM     70  C   UNL     1       5.348  15.227  14.278  1.00  0.00     0.031 A 
ATOM     71  C   UNL     1       3.600  13.802  15.143  1.00  0.00     0.131 A 
ATOM     72  C   UNL     1       4.757  16.307  14.945  1.00  0.00     0.055 A 
ATOM     73  C   UNL     1       2.993  14.889  15.771  1.00  0.00     0.041 A 
ATOM     74  F   UNL     1       3.014  12.599  15.268  1.00  0.00    -0.206 F 
ATOM     75  C   UNL     1       3.579  16.147  15.683  1.00  0.00     0.022 A 
BRANCH  72  76
ATOM     76  S   UNL     1       5.515  17.954  14.915  1.00  0.00     0.124 S 
ATOM     77  O   UNL     1       4.418  18.782  14.417  1.00  0.00    -0.237 OA
ATOM     78  O   UNL     1       5.862  18.154  16.319  1.00  0.00    -0.237 OA
ATOM     79  O   UNL     1       6.641  17.804  13.999  1.00  0.00    -0.744 OA
ENDBRANCH  72  76
ENDBRANCH  55  69
BRANCH  56  80
ATOM     80  C   UNL     1       9.023   5.829  10.343  1.00  0.00     0.023 A 
ATOM     81  C   UNL     1       9.337   5.761   8.973  1.00  0.00     0.031 A 
ATOM     82  C   UNL     1       9.163   4.664  11.115  1.00  0.00     0.131 A 
ATOM     83  C   UNL     1       9.708   4.535   8.406  1.00  0.00     0.055 A 
ATOM     84  C   UNL     1       9.593   3.459  10.557  1.00  0.00     0.041 A 
ATOM     85  F   UNL     1       8.864   4.681  12.423  1.00  0.00    -0.206 F 
ATOM     86  C   UNL     1       9.853   3.387   9.191  1.00  0.00     0.022 A 
BRANCH  83  87
ATOM     87  S   UNL     1       9.915   4.369   6.611  1.00  0.00     0.124 S 
ATOM     88  O   UNL     1      11.226   3.736   6.508  1.00  0.00    -0.237 OA
ATOM     89  O   UNL     1       8.776   3.522   6.261  1.00  0.00    -0.237 OA
ATOM     90  O   UNL     1       9.841   5.743   6.126  1.00  0.00    -0.744 OA
ENDBRANCH  83  87
ENDBRANCH  56  80
BRANCH  68  91
ATOM     91  C   UNL     1      10.923  10.363  15.384  1.00  0.00     0.023 A 
ATOM     92  C   UNL     1      10.760  10.236  16.778  1.00  0.00     0.031 A 
ATOM     93  C   UNL     1      12.170  10.783  14.894  1.00  0.00     0.131 A 
ATOM     94  C   UNL     1      11.812  10.576  17.636  1.00  0.00     0.055 A 
ATOM     95  C   UNL     1      13.232  11.075  15.752  1.00  0.00     0.041 A 
ATOM     96  F   UNL     1      12.370  10.928  13.574  1.00  0.00    -0.206 F 
ATOM     97  C   UNL     1      13.050  10.988  17.130  1.00  0.00     0.022 A 
BRANCH  94  98
ATOM     98  S   UNL     1      11.588  10.575  19.436  1.00  0.00     0.124 S 
ATOM     99  O   UNL     1      12.672   9.698  19.876  1.00  0.00    -0.237 OA
ATOM    100  O   UNL     1      11.755  11.987  19.765  1.00  0.00    -0.237 OA
ATOM    101  O   UNL     1      10.244  10.039  19.623  1.00  0.00    -0.744 OA
ENDBRANCH  94  98
ENDBRANCH  68  91
ENDBRANCH  42  43
ENDBRANCH  34  37
ENDBRANCH   1  33
TORSDOF 14
