REMARK SMILES CCC[C@@H](C(=O)NCCCNC(=O)c1ccc(-c2c3nc(c(-c4cc(S(=O)(=O)[O-])ccc4F)c4ccc([nH]4)c(-c4cc(S(=O)(=O)[O-])ccc4F)c4nc(c(-c5cc(S(=O)(=O)[O-])ccc5F)c5ccc2[nH]5)C=C4)C=C3)cc1)n1nc(/C=C/c2ccc(OC)cc2)ccc1=O
REMARK SMILES IDX 8 1 7 2 5 3 6 4 4 6 3 7 2 8 1 9 77 10 78 11 92 12 79 13
REMARK SMILES IDX 91 14 93 15 90 16 80 17 81 18 82 19 83 20 89 21 84 22 88 23
REMARK SMILES IDX 85 24 86 25 87 26 9 27 10 28 11 29 12 30 13 32 14 33 15 34
REMARK SMILES IDX 76 35 16 36 75 37 17 38 18 39 19 40 69 41 20 42 74 43 68 44
REMARK SMILES IDX 70 45 21 46 73 47 67 48 66 49 22 51 54 52 34 53 53 54 35 55
REMARK SMILES IDX 38 56 52 57 71 58 36 59 37 60 51 62 72 63 39 64 23 65 24 66
REMARK SMILES IDX 32 67 25 68 31 69 33 70 30 71 26 72 27 73 28 74 29 75 55 76
REMARK SMILES IDX 56 77 64 78 57 79 63 80 65 81 62 82 58 83 59 84 60 85 61 86
REMARK SMILES IDX 40 87 41 88 49 89 42 90 48 91 50 92 47 93 43 94 44 95 45 96
REMARK SMILES IDX 46 97
REMARK H PARENT 7 5 11 31 70 50 38 61
REMARK Flexibility Score: inf
ROOT
ATOM      1  C   UNL     1      -1.516   0.228  -0.702  1.00  0.00     0.117 C 
ENDROOT
BRANCH   1   2
ATOM      2  N   UNL     1      -1.832   1.520  -1.271  1.00  0.00    -0.354 N 
ATOM      3  C   UNL     1      -1.038   2.534  -1.715  1.00  0.00     0.245 C 
ATOM      4  O   UNL     1      -1.655   3.543  -2.080  1.00  0.00    -0.273 OA
ATOM      5  H   UNL     1      -2.797   1.699  -1.351  1.00  0.00     0.163 HD
BRANCH   3   6
ATOM      6  C   UNL     1       0.516   2.410  -1.781  1.00  0.00     0.200 C 
BRANCH   6   7
ATOM      7  C   UNL     1       1.282   2.707  -0.473  1.00  0.00     0.037 C 
BRANCH   7   8
ATOM      8  C   UNL     1       1.457   1.591   0.555  1.00  0.00    -0.001 C 
ATOM      9  C   UNL     1       2.148   0.330   0.063  1.00  0.00     0.004 C 
ENDBRANCH   7   8
ENDBRANCH   6   7
BRANCH   6  10
ATOM     10  N   UNL     1       0.924   3.397  -2.817  1.00  0.00    -0.217 N 
ATOM     11  N   UNL     1       1.027   4.714  -2.397  1.00  0.00    -0.170 NA
ATOM     12  C   UNL     1       1.001   3.014  -4.146  1.00  0.00     0.267 A 
ATOM     13  C   UNL     1       1.151   5.646  -3.291  1.00  0.00     0.084 A 
ATOM     14  C   UNL     1       1.220   4.104  -5.121  1.00  0.00     0.075 A 
ATOM     15  O   UNL     1       0.908   1.861  -4.556  1.00  0.00    -0.268 OA
ATOM     16  C   UNL     1       1.275   5.381  -4.737  1.00  0.00     0.036 A 
BRANCH  13  17
ATOM     17  C   UNL     1       1.194   7.057  -2.807  1.00  0.00     0.031 C 
ATOM     18  C   UNL     1       1.142   8.172  -3.552  1.00  0.00     0.010 C 
BRANCH  18  19
ATOM     19  C   UNL     1       1.214   9.529  -2.986  1.00  0.00    -0.025 A 
ATOM     20  C   UNL     1       0.468  10.555  -3.576  1.00  0.00     0.012 A 
ATOM     21  C   UNL     1       2.072   9.850  -1.926  1.00  0.00     0.012 A 
ATOM     22  C   UNL     1       0.575  11.869  -3.109  1.00  0.00     0.047 A 
ATOM     23  C   UNL     1       2.177  11.167  -1.459  1.00  0.00     0.047 A 
ATOM     24  C   UNL     1       1.431  12.184  -2.052  1.00  0.00     0.118 A 
BRANCH  24  25
ATOM     25  O   UNL     1       1.456  13.508  -1.708  1.00  0.00    -0.497 OA
ATOM     26  C   UNL     1       2.276  13.867  -0.603  1.00  0.00     0.278 C 
ENDBRANCH  24  25
ENDBRANCH  18  19
ENDBRANCH  13  17
ENDBRANCH   6  10
ENDBRANCH   3   6
ENDBRANCH   1   2
BRANCH   1  27
ATOM     27  C   UNL     1      -1.799   0.213   0.797  1.00  0.00     0.042 C 
BRANCH  27  28
ATOM     28  C   UNL     1      -3.272   0.099   1.160  1.00  0.00     0.118 C 
BRANCH  28  29
ATOM     29  N   UNL     1      -3.790  -1.241   0.965  1.00  0.00    -0.352 N 
ATOM     30  C   UNL     1      -4.313  -2.135   1.869  1.00  0.00     0.251 C 
ATOM     31  H   UNL     1      -3.763  -1.563   0.035  1.00  0.00     0.163 HD
ATOM     32  O   UNL     1      -4.502  -3.292   1.503  1.00  0.00    -0.269 OA
BRANCH  30  33
ATOM     33  C   UNL     1      -4.625  -1.739   3.267  1.00  0.00     0.039 A 
ATOM     34  C   UNL     1      -4.456  -2.688   4.280  1.00  0.00     0.014 A 
ATOM     35  C   UNL     1      -5.131  -0.477   3.593  1.00  0.00     0.014 A 
ATOM     36  C   UNL     1      -4.751  -2.362   5.608  1.00  0.00     0.010 A 
ATOM     37  C   UNL     1      -5.330  -0.120   4.928  1.00  0.00     0.010 A 
ATOM     38  C   UNL     1      -5.167  -1.065   5.950  1.00  0.00    -0.014 A 
BRANCH  38  39
ATOM     39  C   UNL     1      -5.474  -0.706   7.362  1.00  0.00     0.031 A 
ATOM     40  C   UNL     1      -6.870  -0.284   7.751  1.00  0.00     0.074 A 
ATOM     41  C   UNL     1      -4.496  -0.730   8.289  1.00  0.00     0.049 A 
ATOM     42  N   UNL     1      -7.329   0.088   8.919  1.00  0.00    -0.248 NA
ATOM     43  C   UNL     1      -7.872  -0.244   6.675  1.00  0.00     0.031 C 
ATOM     44  C   UNL     1      -3.095  -1.071   8.030  1.00  0.00     0.029 A 
ATOM     45  N   UNL     1      -4.526  -0.465   9.636  1.00  0.00    -0.354 N 
ATOM     46  C   UNL     1      -8.666   0.419   8.715  1.00  0.00     0.074 A 
ATOM     47  C   UNL     1      -8.920   0.272   7.298  1.00  0.00     0.031 C 
ATOM     48  C   UNL     1      -2.411  -1.030   9.184  1.00  0.00     0.029 A 
ATOM     49  C   UNL     1      -3.310  -0.623  10.259  1.00  0.00     0.049 A 
ATOM     50  H   UNL     1      -5.343  -0.187  10.111  1.00  0.00     0.167 HD
ATOM     51  C   UNL     1      -9.603   0.784   9.626  1.00  0.00     0.034 A 
ATOM     52  C   UNL     1      -2.958  -0.459  11.550  1.00  0.00     0.034 A 
ATOM     53  C   UNL     1      -9.340   0.906  11.040  1.00  0.00     0.049 A 
ATOM     54  C   UNL     1      -4.016  -0.058  12.547  1.00  0.00     0.074 A 
ATOM     55  C   UNL     1     -10.223   1.214  12.060  1.00  0.00     0.029 A 
ATOM     56  N   UNL     1      -8.097   0.728  11.635  1.00  0.00    -0.354 N 
ATOM     57  N   UNL     1      -5.288   0.197  12.345  1.00  0.00    -0.248 NA
ATOM     58  C   UNL     1      -3.593   0.058  13.948  1.00  0.00     0.031 C 
ATOM     59  C   UNL     1      -9.505   1.283  13.259  1.00  0.00     0.029 A 
ATOM     60  C   UNL     1      -8.186   0.945  13.002  1.00  0.00     0.049 A 
ATOM     61  H   UNL     1      -7.272   0.483  11.156  1.00  0.00     0.167 HD
ATOM     62  C   UNL     1      -5.822   0.476  13.600  1.00  0.00     0.074 A 
ATOM     63  C   UNL     1      -4.739   0.337  14.551  1.00  0.00     0.031 C 
ATOM     64  C   UNL     1      -7.093   0.815  13.937  1.00  0.00     0.034 A 
BRANCH  51  65
ATOM     65  C   UNL     1     -10.990   1.096   9.111  1.00  0.00     0.023 A 
ATOM     66  C   UNL     1     -11.774   0.123   8.464  1.00  0.00     0.031 A 
ATOM     67  C   UNL     1     -11.525   2.390   9.237  1.00  0.00     0.131 A 
ATOM     68  C   UNL     1     -13.007   0.478   7.896  1.00  0.00     0.055 A 
ATOM     69  C   UNL     1     -12.791   2.715   8.745  1.00  0.00     0.041 A 
ATOM     70  F   UNL     1     -10.819   3.367   9.827  1.00  0.00    -0.206 F 
ATOM     71  C   UNL     1     -13.533   1.761   8.055  1.00  0.00     0.022 A 
BRANCH  68  72
ATOM     72  S   UNL     1     -13.841  -0.720   6.819  1.00  0.00     0.124 S 
ATOM     73  O   UNL     1     -12.834  -0.933   5.782  1.00  0.00    -0.237 OA
ATOM     74  O   UNL     1     -14.079  -1.842   7.719  1.00  0.00    -0.237 OA
ATOM     75  O   UNL     1     -15.038  -0.008   6.377  1.00  0.00    -0.744 OA
ENDBRANCH  68  72
ENDBRANCH  51  65
BRANCH  52  76
ATOM     76  C   UNL     1      -1.547  -0.677  11.983  1.00  0.00     0.023 A 
ATOM     77  C   UNL     1      -1.212  -1.714  12.868  1.00  0.00     0.031 A 
ATOM     78  C   UNL     1      -0.517   0.176  11.549  1.00  0.00     0.131 A 
ATOM     79  C   UNL     1       0.107  -1.845  13.328  1.00  0.00     0.055 A 
ATOM     80  C   UNL     1       0.804   0.011  11.968  1.00  0.00     0.041 A 
ATOM     81  F   UNL     1      -0.780   1.181  10.697  1.00  0.00    -0.206 F 
ATOM     82  C   UNL     1       1.120  -0.997  12.874  1.00  0.00     0.022 A 
BRANCH  79  83
ATOM     83  S   UNL     1       0.467  -3.091  14.596  1.00  0.00     0.124 S 
ATOM     84  O   UNL     1      -0.438  -2.694  15.668  1.00  0.00    -0.237 OA
ATOM     85  O   UNL     1       0.137  -4.332  13.903  1.00  0.00    -0.237 OA
ATOM     86  O   UNL     1       1.889  -2.894  14.873  1.00  0.00    -0.744 OA
ENDBRANCH  79  83
ENDBRANCH  52  76
BRANCH  64  87
ATOM     87  C   UNL     1      -7.378   1.015  15.406  1.00  0.00     0.023 A 
ATOM     88  C   UNL     1      -6.803   2.072  16.134  1.00  0.00     0.031 A 
ATOM     89  C   UNL     1      -8.217   0.119  16.092  1.00  0.00     0.131 A 
ATOM     90  C   UNL     1      -7.022   2.168  17.516  1.00  0.00     0.055 A 
ATOM     91  C   UNL     1      -8.482   0.258  17.455  1.00  0.00     0.041 A 
ATOM     92  F   UNL     1      -8.792  -0.909  15.448  1.00  0.00    -0.206 F 
ATOM     93  C   UNL     1      -7.870   1.277  18.178  1.00  0.00     0.022 A 
BRANCH  90  94
ATOM     94  S   UNL     1      -6.096   3.412  18.458  1.00  0.00     0.124 S 
ATOM     95  O   UNL     1      -4.714   3.060  18.149  1.00  0.00    -0.237 OA
ATOM     96  O   UNL     1      -6.579   4.662  17.883  1.00  0.00    -0.237 OA
ATOM     97  O   UNL     1      -6.503   3.168  19.841  1.00  0.00    -0.744 OA
ENDBRANCH  90  94
ENDBRANCH  64  87
ENDBRANCH  38  39
ENDBRANCH  30  33
ENDBRANCH  28  29
ENDBRANCH  27  28
ENDBRANCH   1  27
TORSDOF 19
