REMARK SMILES COc1cc(C(=O)N[C@H](C(=O)NCCCNC(=O)c2ccc(-c3c4nc(c(-c5cc(S(=O)(=O)[O-])ccc5F)c5ccc([nH]5)c(-c5cc(S(=O)(=O)[O-])ccc5F)c5nc(c(-c6cc(S(=O)(=O)[O-])ccc6F)c6ccc3[nH]6)C=C5)C=C4)cc2)C2=C(C)N=N[C@H]2C)ccc1C
REMARK SMILES IDX 14 1 13 2 12 3 10 4 11 5 9 7 8 8 6 9 7 10 5 12 3 13 4 14
REMARK SMILES IDX 91 15 90 16 92 17 89 18 2 19 1 20 82 21 83 22 87 23 84 24
REMARK SMILES IDX 85 25 86 26 88 27 15 28 16 29 17 30 18 32 19 33 20 34 81 35
REMARK SMILES IDX 21 36 80 37 22 38 23 39 24 40 74 41 25 42 79 43 73 44 75 45
REMARK SMILES IDX 26 46 78 47 72 48 71 49 27 51 59 52 39 53 58 54 40 55 43 56
REMARK SMILES IDX 57 57 76 58 41 59 42 60 56 62 77 63 44 64 28 65 29 66 37 67
REMARK SMILES IDX 30 68 36 69 38 70 35 71 31 72 32 73 33 74 34 75 60 76 61 77
REMARK SMILES IDX 69 78 62 79 68 80 70 81 67 82 63 83 64 84 65 85 66 86 45 87
REMARK SMILES IDX 46 88 54 89 47 90 53 91 55 92 52 93 48 94 49 95 50 96 51 97
REMARK H PARENT 12 6 8 11 16 31 75 50 43 61
REMARK Flexibility Score: inf
ROOT
ATOM      1  C   UNL     1       4.067   4.919   0.687  1.00  0.00     0.042 C 
ENDROOT
BRANCH   1   2
ATOM      2  C   UNL     1       4.614   3.497   0.754  1.00  0.00     0.117 C 
BRANCH   2   3
ATOM      3  N   UNL     1       4.057   2.728   1.859  1.00  0.00    -0.354 N 
ATOM      4  C   UNL     1       4.088   1.376   2.089  1.00  0.00     0.247 C 
ATOM      5  O   UNL     1       3.416   0.971   3.040  1.00  0.00    -0.272 OA
ATOM      6  H   UNL     1       3.588   3.258   2.544  1.00  0.00     0.163 HD
BRANCH   4   7
ATOM      7  C   UNL     1       4.778   0.393   1.070  1.00  0.00     0.202 C 
BRANCH   7   8
ATOM      8  N   UNL     1       6.026   0.867   0.484  1.00  0.00    -0.337 N 
ATOM      9  C   UNL     1       7.161   1.407   1.044  1.00  0.00     0.252 C 
ATOM     10  O   UNL     1       8.090   1.665   0.281  1.00  0.00    -0.269 OA
ATOM     11  H   UNL     1       6.064   0.785  -0.496  1.00  0.00     0.165 HD
BRANCH   9  12
ATOM     12  C   UNL     1       7.212   1.790   2.477  1.00  0.00     0.043 A 
ATOM     13  C   UNL     1       6.520   1.493   4.780  1.00  0.00     0.122 A 
ATOM     14  C   UNL     1       6.699   0.983   3.502  1.00  0.00     0.060 A 
ATOM     15  C   UNL     1       6.909   2.808   5.038  1.00  0.00    -0.009 A 
ATOM     16  C   UNL     1       7.558   3.566   4.055  1.00  0.00     0.008 A 
ATOM     17  C   UNL     1       6.704   3.400   6.390  1.00  0.00     0.048 C 
ATOM     18  C   UNL     1       7.711   3.058   2.773  1.00  0.00     0.014 A 
BRANCH  13  19
ATOM     19  O   UNL     1       5.967   0.826   5.837  1.00  0.00    -0.496 OA
ATOM     20  C   UNL     1       5.406  -0.454   5.615  1.00  0.00     0.278 C 
ENDBRANCH  13  19
ENDBRANCH   9  12
ENDBRANCH   7   8
BRANCH   7  21
ATOM     21  C   UNL     1       4.858  -1.084   1.399  1.00  0.00     0.011 C 
ATOM     22  C   UNL     1       5.856  -1.980   1.540  1.00  0.00     0.064 C 
ATOM     23  C   UNL     1       3.609  -1.930   1.419  1.00  0.00     0.156 C 
ATOM     24  C   UNL     1       7.348  -1.865   1.533  1.00  0.00     0.069 C 
ATOM     25  N   UNL     1       5.394  -3.271   1.644  1.00  0.00    -0.160 NA
ATOM     26  N   UNL     1       4.148  -3.311   1.520  1.00  0.00    -0.181 NA
ATOM     27  C   UNL     1       2.643  -1.767   2.585  1.00  0.00     0.040 C 
ENDBRANCH   7  21
ENDBRANCH   4   7
ENDBRANCH   2   3
ENDBRANCH   1   2
BRANCH   1  28
ATOM     28  C   UNL     1       4.611   5.818   1.790  1.00  0.00     0.118 C 
BRANCH  28  29
ATOM     29  N   UNL     1       5.711   6.689   1.421  1.00  0.00    -0.352 N 
ATOM     30  C   UNL     1       6.327   7.706   2.138  1.00  0.00     0.251 C 
ATOM     31  H   UNL     1       6.079   6.535   0.520  1.00  0.00     0.163 HD
ATOM     32  O   UNL     1       7.110   8.438   1.550  1.00  0.00    -0.269 OA
BRANCH  30  33
ATOM     33  C   UNL     1       6.111   7.894   3.607  1.00  0.00     0.039 A 
ATOM     34  C   UNL     1       7.075   8.617   4.341  1.00  0.00     0.014 A 
ATOM     35  C   UNL     1       5.059   7.305   4.297  1.00  0.00     0.014 A 
ATOM     36  C   UNL     1       7.051   8.625   5.741  1.00  0.00     0.010 A 
ATOM     37  C   UNL     1       5.077   7.233   5.665  1.00  0.00     0.010 A 
ATOM     38  C   UNL     1       6.078   7.873   6.388  1.00  0.00    -0.014 A 
BRANCH  38  39
ATOM     39  C   UNL     1       6.047   7.536   7.797  1.00  0.00     0.031 A 
ATOM     40  C   UNL     1       5.010   8.066   8.690  1.00  0.00     0.074 A 
ATOM     41  C   UNL     1       6.714   6.416   8.141  1.00  0.00     0.049 A 
ATOM     42  N   UNL     1       5.099   8.025   9.973  1.00  0.00    -0.248 NA
ATOM     43  C   UNL     1       3.775   8.681   8.210  1.00  0.00     0.031 C 
ATOM     44  C   UNL     1       6.448   5.506   9.249  1.00  0.00     0.029 A 
ATOM     45  N   UNL     1       7.869   5.914   7.561  1.00  0.00    -0.354 N 
ATOM     46  C   UNL     1       3.840   8.265  10.463  1.00  0.00     0.074 A 
ATOM     47  C   UNL     1       3.079   8.778   9.347  1.00  0.00     0.031 C 
ATOM     48  C   UNL     1       7.530   4.732   9.435  1.00  0.00     0.029 A 
ATOM     49  C   UNL     1       8.573   5.234   8.552  1.00  0.00     0.049 A 
ATOM     50  H   UNL     1       8.141   6.019   6.620  1.00  0.00     0.167 HD
ATOM     51  C   UNL     1       3.502   7.830  11.708  1.00  0.00     0.034 A 
ATOM     52  C   UNL     1       9.838   5.578   8.915  1.00  0.00     0.034 A 
ATOM     53  C   UNL     1       4.562   7.012  12.300  1.00  0.00     0.049 A 
ATOM     54  C   UNL     1       9.844   6.017  10.361  1.00  0.00     0.074 A 
ATOM     55  C   UNL     1       4.693   5.646  12.498  1.00  0.00     0.029 A 
ATOM     56  N   UNL     1       5.828   7.553  12.508  1.00  0.00    -0.354 N 
ATOM     57  N   UNL     1       8.772   6.380  11.015  1.00  0.00    -0.248 NA
ATOM     58  C   UNL     1      11.034   6.038  11.194  1.00  0.00     0.031 C 
ATOM     59  C   UNL     1       6.048   5.373  12.827  1.00  0.00     0.029 A 
ATOM     60  C   UNL     1       6.739   6.573  12.851  1.00  0.00     0.049 A 
ATOM     61  H   UNL     1       6.045   8.509  12.422  1.00  0.00     0.167 HD
ATOM     62  C   UNL     1       9.076   6.606  12.331  1.00  0.00     0.074 A 
ATOM     63  C   UNL     1      10.518   6.405  12.380  1.00  0.00     0.031 C 
ATOM     64  C   UNL     1       8.103   6.918  13.246  1.00  0.00     0.034 A 
BRANCH  51  65
ATOM     65  C   UNL     1       2.088   7.894  12.230  1.00  0.00     0.023 A 
ATOM     66  C   UNL     1       1.603   6.886  13.084  1.00  0.00     0.031 A 
ATOM     67  C   UNL     1       1.182   8.931  11.931  1.00  0.00     0.131 A 
ATOM     68  C   UNL     1       0.267   6.879  13.522  1.00  0.00     0.055 A 
ATOM     69  C   UNL     1      -0.163   8.900  12.323  1.00  0.00     0.041 A 
ATOM     70  F   UNL     1       1.575  10.031  11.269  1.00  0.00    -0.206 F 
ATOM     71  C   UNL     1      -0.631   7.862  13.117  1.00  0.00     0.022 A 
BRANCH  68  72
ATOM     72  S   UNL     1      -0.272   5.573  14.660  1.00  0.00     0.124 S 
ATOM     73  O   UNL     1      -0.068   4.368  13.863  1.00  0.00    -0.237 OA
ATOM     74  O   UNL     1       0.628   5.758  15.792  1.00  0.00    -0.237 OA
ATOM     75  O   UNL     1      -1.671   5.910  14.923  1.00  0.00    -0.744 OA
ENDBRANCH  68  72
ENDBRANCH  51  65
BRANCH  52  76
ATOM     76  C   UNL     1      10.642   6.137   7.788  1.00  0.00     0.023 A 
ATOM     77  C   UNL     1      11.029   5.238   6.766  1.00  0.00     0.031 A 
ATOM     78  C   UNL     1      10.582   7.505   7.469  1.00  0.00     0.131 A 
ATOM     79  C   UNL     1      11.214   5.697   5.451  1.00  0.00     0.055 A 
ATOM     80  C   UNL     1      10.762   7.954   6.154  1.00  0.00     0.041 A 
ATOM     81  F   UNL     1      10.155   8.395   8.376  1.00  0.00    -0.206 F 
ATOM     82  C   UNL     1      11.043   7.046   5.134  1.00  0.00     0.022 A 
BRANCH  79  83
ATOM     83  S   UNL     1      11.483   4.520   4.087  1.00  0.00     0.124 S 
ATOM     84  O   UNL     1      12.908   4.690   3.827  1.00  0.00    -0.237 OA
ATOM     85  O   UNL     1      11.095   3.238   4.665  1.00  0.00    -0.237 OA
ATOM     86  O   UNL     1      10.587   5.031   3.052  1.00  0.00    -0.744 OA
ENDBRANCH  79  83
ENDBRANCH  52  76
BRANCH  64  87
ATOM     87  C   UNL     1       8.311   7.484  14.641  1.00  0.00     0.023 A 
ATOM     88  C   UNL     1       9.569   7.722  15.202  1.00  0.00     0.031 A 
ATOM     89  C   UNL     1       7.212   7.879  15.452  1.00  0.00     0.131 A 
ATOM     90  C   UNL     1       9.713   8.283  16.483  1.00  0.00     0.055 A 
ATOM     91  C   UNL     1       7.355   8.479  16.706  1.00  0.00     0.041 A 
ATOM     92  F   UNL     1       5.939   7.730  15.061  1.00  0.00    -0.206 F 
ATOM     93  C   UNL     1       8.615   8.682  17.235  1.00  0.00     0.022 A 
BRANCH  90  94
ATOM     94  S   UNL     1      11.390   8.456  17.140  1.00  0.00     0.124 S 
ATOM     95  O   UNL     1      11.833   7.066  17.205  1.00  0.00    -0.237 OA
ATOM     96  O   UNL     1      12.038   9.278  16.123  1.00  0.00    -0.237 OA
ATOM     97  O   UNL     1      11.188   9.107  18.432  1.00  0.00    -0.744 OA
ENDBRANCH  90  94
ENDBRANCH  64  87
ENDBRANCH  38  39
ENDBRANCH  30  33
ENDBRANCH  28  29
ENDBRANCH   1  28
TORSDOF 17
