REMARK SMILES C[N@@H+](CCCCC(=O)NCCCNC(=O)c1ccc(-c2c3nc(c(-c4cc(S(=O)(=O)[O-])ccc4F)c4ccc([nH]4)c(-c4cc(S(=O)(=O)[O-])ccc4F)c4nc(c(-c5cc(S(=O)(=O)[O-])ccc5F)c5ccc2[nH]5)C=C4)C=C3)cc1)CC(C)(C)O
REMARK SMILES IDX 7 1 8 2 9 3 6 5 5 6 4 7 3 8 2 9 1 10 79 12 80 13 81 14 82 15
REMARK SMILES IDX 83 16 10 18 11 19 12 20 13 21 14 22 15 24 16 25 17 26 78 27
REMARK SMILES IDX 18 28 77 29 19 30 20 31 21 32 71 33 22 34 76 35 70 36 72 37
REMARK SMILES IDX 23 38 75 39 69 40 68 41 24 43 56 44 36 45 55 46 37 47 40 48
REMARK SMILES IDX 54 49 73 50 38 51 39 52 53 54 74 55 41 56 25 57 26 58 34 59
REMARK SMILES IDX 27 60 33 61 35 62 32 63 28 64 29 65 30 66 31 67 57 68 58 69
REMARK SMILES IDX 66 70 59 71 65 72 67 73 64 74 60 75 61 76 62 77 63 78 42 79
REMARK SMILES IDX 43 80 51 81 44 82 50 83 52 84 49 85 45 86 46 87 47 88 48 89
REMARK H PARENT 9 4 2 11 83 17 13 23 72 42 40 53
REMARK Flexibility Score: inf
ROOT
ATOM      1  C   UNL     1      -3.836   3.782   0.791  1.00  0.00     0.219 C 
ATOM      2  O   UNL     1      -4.415   4.455   1.646  1.00  0.00    -0.275 OA
ATOM      3  N   UNL     1      -4.581   2.963   0.001  1.00  0.00    -0.356 N 
ATOM      4  H   UNL     1      -5.553   3.015   0.152  1.00  0.00     0.163 HD
ENDROOT
BRANCH   1   5
ATOM      5  C   UNL     1      -2.334   3.879   0.612  1.00  0.00     0.100 C 
BRANCH   5   6
ATOM      6  C   UNL     1      -1.553   2.940   1.535  1.00  0.00     0.016 C 
BRANCH   6   7
ATOM      7  C   UNL     1      -1.285   1.546   0.960  1.00  0.00     0.062 C 
BRANCH   7   8
ATOM      8  C   UNL     1      -0.344   1.480  -0.247  1.00  0.00     0.262 C 
BRANCH   8   9
ATOM      9  N   UNL     1       1.063   1.160  -0.002  1.00  0.00    -0.335 N 
ATOM     10  C   UNL     1       1.287  -0.248   0.266  1.00  0.00     0.332 C 
ATOM     11  H   UNL     1       1.535   1.312  -0.894  1.00  0.00     0.347 HD
BRANCH   9  12
ATOM     12  C   UNL     1       1.786   2.115   0.848  1.00  0.00     0.296 C 
BRANCH  12  13
ATOM     13  C   UNL     1       1.976   1.935   2.397  1.00  0.00     0.108 C 
ATOM     14  C   UNL     1       3.026   0.881   2.753  1.00  0.00     0.048 C 
ATOM     15  C   UNL     1       2.395   3.289   2.989  1.00  0.00     0.048 C 
BRANCH  13  16
ATOM     16  O   UNL     1       0.759   1.577   3.049  1.00  0.00    -0.385 OA
ATOM     17  H   UNL     1       0.449   0.723   2.708  1.00  0.00     0.211 HD
ENDBRANCH  13  16
ENDBRANCH  12  13
ENDBRANCH   9  12
ENDBRANCH   8   9
ENDBRANCH   7   8
ENDBRANCH   6   7
ENDBRANCH   5   6
ENDBRANCH   1   5
BRANCH   3  18
ATOM     18  C   UNL     1      -4.174   2.023  -1.030  1.00  0.00     0.117 C 
BRANCH  18  19
ATOM     19  C   UNL     1      -4.346   0.580  -0.568  1.00  0.00     0.042 C 
BRANCH  19  20
ATOM     20  C   UNL     1      -5.785   0.110  -0.517  1.00  0.00     0.118 C 
BRANCH  20  21
ATOM     21  N   UNL     1      -6.300  -0.204  -1.833  1.00  0.00    -0.352 N 
ATOM     22  C   UNL     1      -6.627  -1.415  -2.389  1.00  0.00     0.251 C 
ATOM     23  H   UNL     1      -6.437   0.573  -2.421  1.00  0.00     0.163 HD
ATOM     24  O   UNL     1      -6.792  -1.465  -3.610  1.00  0.00    -0.269 OA
BRANCH  22  25
ATOM     25  C   UNL     1      -6.775  -2.646  -1.570  1.00  0.00     0.039 A 
ATOM     26  C   UNL     1      -6.533  -3.882  -2.178  1.00  0.00     0.014 A 
ATOM     27  C   UNL     1      -7.234  -2.619  -0.250  1.00  0.00     0.014 A 
ATOM     28  C   UNL     1      -6.762  -5.069  -1.475  1.00  0.00     0.010 A 
ATOM     29  C   UNL     1      -7.338  -3.794   0.491  1.00  0.00     0.010 A 
ATOM     30  C   UNL     1      -7.171  -5.035  -0.134  1.00  0.00    -0.014 A 
BRANCH  30  31
ATOM     31  C   UNL     1      -7.565  -6.279   0.580  1.00  0.00     0.031 A 
ATOM     32  C   UNL     1      -8.994  -6.445   1.045  1.00  0.00     0.074 A 
ATOM     33  C   UNL     1      -6.657  -7.244   0.817  1.00  0.00     0.049 A 
ATOM     34  N   UNL     1      -9.546  -7.434   1.701  1.00  0.00    -0.248 NA
ATOM     35  C   UNL     1      -9.913  -5.330   0.770  1.00  0.00     0.031 C 
ATOM     36  C   UNL     1      -5.238  -7.176   0.461  1.00  0.00     0.029 A 
ATOM     37  N   UNL     1      -6.792  -8.474   1.407  1.00  0.00    -0.354 N 
ATOM     38  C   UNL     1     -10.862  -7.044   1.939  1.00  0.00     0.074 A 
ATOM     39  C   UNL     1     -10.999  -5.699   1.430  1.00  0.00     0.031 C 
ATOM     40  C   UNL     1      -4.644  -8.331   0.803  1.00  0.00     0.029 A 
ATOM     41  C   UNL     1      -5.629  -9.208   1.429  1.00  0.00     0.049 A 
ATOM     42  H   UNL     1      -7.642  -8.802   1.780  1.00  0.00     0.167 HD
ATOM     43  C   UNL     1     -11.876  -7.753   2.495  1.00  0.00     0.034 A 
ATOM     44  C   UNL     1      -5.390 -10.451   1.891  1.00  0.00     0.034 A 
ATOM     45  C   UNL     1     -11.731  -9.111   2.958  1.00  0.00     0.049 A 
ATOM     46  C   UNL     1      -6.539 -11.241   2.465  1.00  0.00     0.074 A 
ATOM     47  C   UNL     1     -12.690  -9.950   3.497  1.00  0.00     0.029 A 
ATOM     48  N   UNL     1     -10.545  -9.835   2.924  1.00  0.00    -0.354 N 
ATOM     49  N   UNL     1      -7.789 -10.875   2.643  1.00  0.00    -0.248 NA
ATOM     50  C   UNL     1      -6.252 -12.621   2.876  1.00  0.00     0.031 C 
ATOM     51  C   UNL     1     -12.075 -11.161   3.834  1.00  0.00     0.029 A 
ATOM     52  C   UNL     1     -10.746 -11.104   3.443  1.00  0.00     0.049 A 
ATOM     53  H   UNL     1      -9.687  -9.495   2.582  1.00  0.00     0.167 HD
ATOM     54  C   UNL     1      -8.442 -11.992   3.154  1.00  0.00     0.074 A 
ATOM     55  C   UNL     1      -7.452 -13.047   3.240  1.00  0.00     0.031 C 
ATOM     56  C   UNL     1      -9.742 -12.138   3.518  1.00  0.00     0.034 A 
BRANCH  43  57
ATOM     57  C   UNL     1     -13.211  -7.059   2.641  1.00  0.00     0.023 A 
ATOM     58  C   UNL     1     -13.928  -6.591   1.524  1.00  0.00     0.031 A 
ATOM     59  C   UNL     1     -13.751  -6.810   3.915  1.00  0.00     0.131 A 
ATOM     60  C   UNL     1     -15.087  -5.821   1.705  1.00  0.00     0.055 A 
ATOM     61  C   UNL     1     -14.954  -6.121   4.085  1.00  0.00     0.041 A 
ATOM     62  F   UNL     1     -13.106  -7.212   5.022  1.00  0.00    -0.206 F 
ATOM     63  C   UNL     1     -15.620  -5.604   2.977  1.00  0.00     0.022 A 
BRANCH  60  64
ATOM     64  S   UNL     1     -15.795  -4.968   0.268  1.00  0.00     0.124 S 
ATOM     65  O   UNL     1     -14.681  -4.117  -0.145  1.00  0.00    -0.237 OA
ATOM     66  O   UNL     1     -16.118  -6.075  -0.627  1.00  0.00    -0.237 OA
ATOM     67  O   UNL     1     -16.943  -4.256   0.821  1.00  0.00    -0.744 OA
ENDBRANCH  60  64
ENDBRANCH  43  57
BRANCH  44  68
ATOM     68  C   UNL     1      -4.023 -11.038   1.808  1.00  0.00     0.023 A 
ATOM     69  C   UNL     1      -3.757 -12.144   0.985  1.00  0.00     0.031 A 
ATOM     70  C   UNL     1      -2.966 -10.520   2.577  1.00  0.00     0.131 A 
ATOM     71  C   UNL     1      -2.480 -12.726   0.983  1.00  0.00     0.055 A 
ATOM     72  C   UNL     1      -1.684 -11.072   2.535  1.00  0.00     0.041 A 
ATOM     73  F   UNL     1      -3.163  -9.456   3.372  1.00  0.00    -0.206 F 
ATOM     74  C   UNL     1      -1.439 -12.190   1.744  1.00  0.00     0.022 A 
BRANCH  71  75
ATOM     75  S   UNL     1      -2.218 -14.245   0.027  1.00  0.00     0.124 S 
ATOM     76  O   UNL     1      -3.218 -15.136   0.603  1.00  0.00    -0.237 OA
ATOM     77  O   UNL     1      -2.471 -13.791  -1.336  1.00  0.00    -0.237 OA
ATOM     78  O   UNL     1      -0.829 -14.594   0.317  1.00  0.00    -0.744 OA
ENDBRANCH  71  75
ENDBRANCH  44  68
BRANCH  56  79
ATOM     79  C   UNL     1     -10.168 -13.506   3.988  1.00  0.00     0.023 A 
ATOM     80  C   UNL     1      -9.687 -14.059   5.188  1.00  0.00     0.031 A 
ATOM     81  C   UNL     1     -11.052 -14.275   3.210  1.00  0.00     0.131 A 
ATOM     82  C   UNL     1     -10.041 -15.369   5.542  1.00  0.00     0.055 A 
ATOM     83  C   UNL     1     -11.447 -15.555   3.599  1.00  0.00     0.041 A 
ATOM     84  F   UNL     1     -11.541 -13.794   2.056  1.00  0.00    -0.206 F 
ATOM     85  C   UNL     1     -10.929 -16.115   4.763  1.00  0.00     0.022 A 
BRANCH  82  86
ATOM     86  S   UNL     1      -9.239 -16.125   6.982  1.00  0.00     0.124 S 
ATOM     87  O   UNL     1      -7.824 -15.994   6.647  1.00  0.00    -0.237 OA
ATOM     88  O   UNL     1      -9.714 -15.287   8.078  1.00  0.00    -0.237 OA
ATOM     89  O   UNL     1      -9.752 -17.494   6.981  1.00  0.00    -0.744 OA
ENDBRANCH  82  86
ENDBRANCH  56  79
ENDBRANCH  30  31
ENDBRANCH  22  25
ENDBRANCH  20  21
ENDBRANCH  19  20
ENDBRANCH  18  19
ENDBRANCH   3  18
TORSDOF 20
