REMARK SMILES Cc1c(NS(=O)(=O)c2ccc3c(c2)COC3)cccc1C(=O)NCCCNC(=O)c1ccc(-c2c3nc(c(-c4cc(S(=O)(=O)[O-])ccc4F)c4ccc([nH]4)c(-c4cc(S(=O)(=O)[O-])ccc4F)c4nc(c(-c5cc(S(=O)(=O)[O-])ccc5F)c5ccc2[nH]5)C=C4)C=C3)cc1
REMARK SMILES IDX 25 1 24 2 23 3 21 4 22 5 20 7 1 8 2 9 3 10 17 11 19 12 18 13
REMARK SMILES IDX 4 14 5 16 6 17 7 18 8 19 9 20 13 21 10 22 12 23 11 24 14 25
REMARK SMILES IDX 16 26 15 27 26 28 27 29 28 30 29 32 30 33 31 34 92 35 32 36
REMARK SMILES IDX 91 37 33 38 34 39 35 40 85 41 36 42 90 43 84 44 86 45 37 46
REMARK SMILES IDX 89 47 83 48 82 49 38 51 70 52 50 53 69 54 51 55 54 56 68 57
REMARK SMILES IDX 87 58 52 59 53 60 67 62 88 63 55 64 39 65 40 66 48 67 41 68
REMARK SMILES IDX 47 69 49 70 46 71 42 72 43 73 44 74 45 75 71 76 72 77 80 78
REMARK SMILES IDX 73 79 79 80 81 81 78 82 74 83 75 84 76 85 77 86 56 87 57 88
REMARK SMILES IDX 65 89 58 90 64 91 66 92 63 93 59 94 60 95 61 96 62 97
REMARK H PARENT 23 6 4 15 27 31 86 50 54 61
REMARK Flexibility Score: inf
ROOT
ATOM      1  C   UNL     1       4.236   0.878  -1.054  1.00  0.00     0.042 C 
ENDROOT
BRANCH   1   2
ATOM      2  C   UNL     1       3.369   1.655  -0.056  1.00  0.00     0.118 C 
BRANCH   2   3
ATOM      3  N   UNL     1       2.257   2.333  -0.721  1.00  0.00    -0.352 N 
ATOM      4  C   UNL     1       0.913   2.057  -0.744  1.00  0.00     0.251 C 
ATOM      5  O   UNL     1       0.144   2.839  -1.304  1.00  0.00    -0.269 OA
ATOM      6  H   UNL     1       2.518   3.126  -1.244  1.00  0.00     0.163 HD
BRANCH   4   7
ATOM      7  C   UNL     1       0.321   0.877  -0.057  1.00  0.00     0.044 A 
ATOM      8  C   UNL     1       1.595  -0.874  -1.407  1.00  0.00     0.047 C 
ATOM      9  C   UNL     1       0.635  -0.471  -0.331  1.00  0.00    -0.014 A 
ATOM     10  C   UNL     1       0.012  -1.474   0.439  1.00  0.00     0.053 A 
ATOM     11  C   UNL     1      -0.963  -1.146   1.388  1.00  0.00     0.027 A 
ATOM     12  C   UNL     1      -0.709   1.182   0.853  1.00  0.00     0.014 A 
ATOM     13  C   UNL     1      -1.361   0.174   1.558  1.00  0.00     0.003 A 
BRANCH  10  14
ATOM     14  N   UNL     1       0.475  -2.822   0.389  1.00  0.00    -0.279 N 
ATOM     15  H   UNL     1       1.347  -3.015   0.803  1.00  0.00     0.180 HD
BRANCH  14  16
ATOM     16  S   UNL     1      -0.345  -4.109  -0.317  1.00  0.00     0.261 S 
ATOM     17  O   UNL     1       0.014  -4.207  -1.716  1.00  0.00    -0.201 OA
ATOM     18  O   UNL     1      -0.089  -5.218   0.583  1.00  0.00    -0.201 OA
BRANCH  16  19
ATOM     19  C   UNL     1      -2.095  -3.799  -0.256  1.00  0.00     0.088 A 
ATOM     20  C   UNL     1      -2.942  -4.733   0.373  1.00  0.00     0.022 A 
ATOM     21  C   UNL     1      -2.614  -2.628  -0.817  1.00  0.00     0.028 A 
ATOM     22  C   UNL     1      -4.298  -4.444   0.547  1.00  0.00     0.008 A 
ATOM     23  C   UNL     1      -3.935  -2.321  -0.550  1.00  0.00    -0.015 A 
ATOM     24  C   UNL     1      -4.758  -3.208   0.129  1.00  0.00    -0.017 A 
ATOM     25  C   UNL     1      -4.683  -1.071  -0.836  1.00  0.00     0.196 C 
ATOM     26  C   UNL     1      -6.092  -2.585   0.314  1.00  0.00     0.196 C 
ATOM     27  O   UNL     1      -5.901  -1.202  -0.063  1.00  0.00    -0.372 OA
ENDBRANCH  16  19
ENDBRANCH  14  16
ENDBRANCH  10  14
ENDBRANCH   4   7
ENDBRANCH   2   3
ENDBRANCH   1   2
BRANCH   1  28
ATOM     28  C   UNL     1       5.598   1.490  -1.350  1.00  0.00     0.118 C 
BRANCH  28  29
ATOM     29  N   UNL     1       6.715   0.554  -1.141  1.00  0.00    -0.352 N 
ATOM     30  C   UNL     1       8.035   0.682  -1.543  1.00  0.00     0.251 C 
ATOM     31  H   UNL     1       6.495  -0.271  -0.652  1.00  0.00     0.163 HD
ATOM     32  O   UNL     1       8.900  -0.134  -1.250  1.00  0.00    -0.269 OA
BRANCH  30  33
ATOM     33  C   UNL     1       8.405   1.935  -2.235  1.00  0.00     0.039 A 
ATOM     34  C   UNL     1       9.091   2.871  -1.456  1.00  0.00     0.014 A 
ATOM     35  C   UNL     1       7.659   2.317  -3.345  1.00  0.00     0.014 A 
ATOM     36  C   UNL     1       8.756   4.211  -1.584  1.00  0.00     0.010 A 
ATOM     37  C   UNL     1       7.259   3.638  -3.411  1.00  0.00     0.010 A 
ATOM     38  C   UNL     1       7.735   4.560  -2.469  1.00  0.00    -0.014 A 
BRANCH  38  39
ATOM     39  C   UNL     1       7.058   5.849  -2.396  1.00  0.00     0.031 A 
ATOM     40  C   UNL     1       7.395   6.881  -3.387  1.00  0.00     0.074 A 
ATOM     41  C   UNL     1       6.189   6.148  -1.403  1.00  0.00     0.049 A 
ATOM     42  N   UNL     1       7.409   8.145  -3.140  1.00  0.00    -0.248 NA
ATOM     43  C   UNL     1       7.813   6.545  -4.740  1.00  0.00     0.031 C 
ATOM     44  C   UNL     1       5.367   7.351  -1.284  1.00  0.00     0.029 A 
ATOM     45  N   UNL     1       6.059   5.521  -0.168  1.00  0.00    -0.354 N 
ATOM     46  C   UNL     1       7.566   8.797  -4.338  1.00  0.00     0.074 A 
ATOM     47  C   UNL     1       7.883   7.758  -5.291  1.00  0.00     0.031 C 
ATOM     48  C   UNL     1       5.032   7.523   0.004  1.00  0.00     0.029 A 
ATOM     49  C   UNL     1       5.708   6.501   0.780  1.00  0.00     0.049 A 
ATOM     50  H   UNL     1       6.191   4.562   0.011  1.00  0.00     0.167 HD
ATOM     51  C   UNL     1       7.280  10.127  -4.425  1.00  0.00     0.034 A 
ATOM     52  C   UNL     1       6.498   6.721   1.870  1.00  0.00     0.034 A 
ATOM     53  C   UNL     1       6.879  10.685  -3.130  1.00  0.00     0.049 A 
ATOM     54  C   UNL     1       7.180   8.081   1.865  1.00  0.00     0.074 A 
ATOM     55  C   UNL     1       5.662  11.028  -2.561  1.00  0.00     0.029 A 
ATOM     56  N   UNL     1       7.796  10.698  -2.090  1.00  0.00    -0.354 N 
ATOM     57  N   UNL     1       6.987   9.021   0.978  1.00  0.00    -0.248 NA
ATOM     58  C   UNL     1       8.226   8.434   2.825  1.00  0.00     0.031 C 
ATOM     59  C   UNL     1       5.864  11.232  -1.163  1.00  0.00     0.029 A 
ATOM     60  C   UNL     1       7.205  11.044  -0.886  1.00  0.00     0.049 A 
ATOM     61  H   UNL     1       8.752  10.487  -2.194  1.00  0.00     0.167 HD
ATOM     62  C   UNL     1       7.910  10.025   1.164  1.00  0.00     0.074 A 
ATOM     63  C   UNL     1       8.658   9.608   2.338  1.00  0.00     0.031 C 
ATOM     64  C   UNL     1       8.036  11.092   0.312  1.00  0.00     0.034 A 
BRANCH  51  65
ATOM     65  C   UNL     1       7.088  10.831  -5.748  1.00  0.00     0.023 A 
ATOM     66  C   UNL     1       6.184  11.907  -5.835  1.00  0.00     0.031 A 
ATOM     67  C   UNL     1       7.710  10.468  -6.960  1.00  0.00     0.131 A 
ATOM     68  C   UNL     1       5.836  12.470  -7.077  1.00  0.00     0.055 A 
ATOM     69  C   UNL     1       7.304  10.967  -8.204  1.00  0.00     0.041 A 
ATOM     70  F   UNL     1       8.778   9.659  -6.987  1.00  0.00    -0.206 F 
ATOM     71  C   UNL     1       6.346  11.965  -8.269  1.00  0.00     0.022 A 
BRANCH  68  72
ATOM     72  S   UNL     1       4.718  13.897  -7.112  1.00  0.00     0.124 S 
ATOM     73  O   UNL     1       3.525  13.372  -6.457  1.00  0.00    -0.237 OA
ATOM     74  O   UNL     1       5.477  14.897  -6.370  1.00  0.00    -0.237 OA
ATOM     75  O   UNL     1       4.568  14.173  -8.540  1.00  0.00    -0.744 OA
ENDBRANCH  68  72
ENDBRANCH  51  65
BRANCH  52  76
ATOM     76  C   UNL     1       7.088   5.452   2.394  1.00  0.00     0.023 A 
ATOM     77  C   UNL     1       6.198   4.478   2.902  1.00  0.00     0.031 A 
ATOM     78  C   UNL     1       8.371   5.037   2.013  1.00  0.00     0.131 A 
ATOM     79  C   UNL     1       6.545   3.119   2.861  1.00  0.00     0.055 A 
ATOM     80  C   UNL     1       8.727   3.685   2.018  1.00  0.00     0.041 A 
ATOM     81  F   UNL     1       9.249   5.911   1.499  1.00  0.00    -0.206 F 
ATOM     82  C   UNL     1       7.797   2.716   2.391  1.00  0.00     0.022 A 
BRANCH  79  83
ATOM     83  S   UNL     1       5.293   1.843   3.189  1.00  0.00     0.124 S 
ATOM     84  O   UNL     1       5.660   1.383   4.522  1.00  0.00    -0.237 OA
ATOM     85  O   UNL     1       4.032   2.572   3.093  1.00  0.00    -0.237 OA
ATOM     86  O   UNL     1       5.515   0.889   2.102  1.00  0.00    -0.744 OA
ENDBRANCH  79  83
ENDBRANCH  52  76
BRANCH  64  87
ATOM     87  C   UNL     1       9.008  12.248   0.508  1.00  0.00     0.023 A 
ATOM     88  C   UNL     1       9.501  12.622   1.768  1.00  0.00     0.031 A 
ATOM     89  C   UNL     1       9.431  13.066  -0.569  1.00  0.00     0.131 A 
ATOM     90  C   UNL     1      10.457  13.646   1.908  1.00  0.00     0.055 A 
ATOM     91  C   UNL     1      10.325  14.132  -0.419  1.00  0.00     0.041 A 
ATOM     92  F   UNL     1       9.011  12.868  -1.825  1.00  0.00    -0.206 F 
ATOM     93  C   UNL     1      10.867  14.413   0.822  1.00  0.00     0.022 A 
BRANCH  90  94
ATOM     94  S   UNL     1      11.202  13.916   3.538  1.00  0.00     0.124 S 
ATOM     95  O   UNL     1      10.034  14.101   4.393  1.00  0.00    -0.237 OA
ATOM     96  O   UNL     1      11.941  12.672   3.735  1.00  0.00    -0.237 OA
ATOM     97  O   UNL     1      12.029  15.105   3.347  1.00  0.00    -0.744 OA
ENDBRANCH  90  94
ENDBRANCH  64  87
ENDBRANCH  38  39
ENDBRANCH  30  33
ENDBRANCH  28  29
ENDBRANCH   1  28
TORSDOF 16
