REMARK SMILES O=CN[C@@H](CCS[C@@H]1CCO[C@]2(CCOC2)C1)C(=O)NCCCNC(=O)c1ccc(-c2c3nc(c(-c4cc(S(=O)(=O)[O-])ccc4F)c4ccc([nH]4)c(-c4cc(S(=O)(=O)[O-])ccc4F)c4nc(c(-c5cc(S(=O)(=O)[O-])ccc5F)c5ccc2[nH]5)C=C4)C=C3)cc1
REMARK SMILES IDX 21 1 20 2 18 3 19 4 4 6 3 7 1 8 2 9 5 11 6 12 7 13 8 14 9 15
REMARK SMILES IDX 17 16 10 17 12 18 11 19 13 20 16 21 14 22 15 23 22 24 23 25
REMARK SMILES IDX 24 26 25 27 26 29 27 30 28 31 89 32 29 33 88 34 30 35 31 36
REMARK SMILES IDX 32 37 82 38 33 39 87 40 81 41 83 42 34 43 86 44 80 45 79 46
REMARK SMILES IDX 35 48 67 49 47 50 66 51 48 52 51 53 65 54 84 55 49 56 50 57
REMARK SMILES IDX 64 59 85 60 52 61 36 62 37 63 45 64 38 65 44 66 46 67 43 68
REMARK SMILES IDX 39 69 40 70 41 71 42 72 68 73 69 74 77 75 70 76 76 77 78 78
REMARK SMILES IDX 75 79 71 80 72 81 73 82 74 83 53 84 54 85 62 86 55 87 61 88
REMARK SMILES IDX 63 89 60 90 56 91 57 92 58 93 59 94
REMARK H PARENT 20 5 3 10 24 28 83 47 51 58
REMARK Flexibility Score: inf
ROOT
ATOM      1  C   UNL     1       3.369   2.716   1.947  1.00  0.00     0.117 C 
ENDROOT
BRANCH   1   2
ATOM      2  N   UNL     1       4.074   1.432   1.046  1.00  0.00    -0.354 N 
ATOM      3  C   UNL     1       4.461   0.716  -0.009  1.00  0.00     0.242 C 
ATOM      4  O   UNL     1       4.992  -0.381   0.188  1.00  0.00    -0.273 OA
ATOM      5  H   UNL     1       4.398   0.859   1.778  1.00  0.00     0.163 HD
BRANCH   3   6
ATOM      6  C   UNL     1       4.485   1.344  -1.315  1.00  0.00     0.171 C 
BRANCH   6   7
ATOM      7  N   UNL     1       3.063   1.574  -1.479  1.00  0.00    -0.347 N 
ATOM      8  O   UNL     1       1.039   0.509  -1.171  1.00  0.00    -0.279 OA
ATOM      9  C   UNL     1       2.224   0.463  -1.465  1.00  0.00     0.337 C 
ATOM     10  H   UNL     1       2.703   2.483  -1.596  1.00  0.00     0.164 HD
ENDBRANCH   6   7
BRANCH   6  11
ATOM     11  C   UNL     1       5.559   2.442  -1.108  1.00  0.00     0.046 C 
BRANCH  11  12
ATOM     12  C   UNL     1       6.079   2.920   0.340  1.00  0.00     0.072 C 
BRANCH  12  13
ATOM     13  S   UNL     1       6.492   1.727   1.990  1.00  0.00    -0.158 SA
BRANCH  13  14
ATOM     14  C   UNL     1       4.742   1.702   3.218  1.00  0.00     0.052 C 
ATOM     15  C   UNL     1       2.964   0.820   2.820  1.00  0.00     0.043 C 
ATOM     16  C   UNL     1       4.723   3.590   3.389  1.00  0.00     0.052 C 
ATOM     17  C   UNL     1       1.436   2.045   2.590  1.00  0.00     0.162 C 
ATOM     18  C   UNL     1       2.995   4.539   3.672  1.00  0.00     0.095 C 
ATOM     19  O   UNL     1       1.763   3.870   2.682  1.00  0.00    -0.372 OA
ATOM     20  C   UNL     1       4.171   6.140   3.767  1.00  0.00     0.066 C 
ATOM     21  C   UNL     1       2.093   4.459   5.536  1.00  0.00     0.195 C 
ATOM     22  C   UNL     1       4.454   6.618   5.676  1.00  0.00     0.163 C 
ATOM     23  O   UNL     1       3.278   5.486   6.730  1.00  0.00    -0.378 OA
ENDBRANCH  13  14
ENDBRANCH  12  13
ENDBRANCH  11  12
ENDBRANCH   6  11
ENDBRANCH   3   6
ENDBRANCH   1   2
BRANCH   1  24
ATOM     24  C   UNL     1       2.975   2.508   4.013  1.00  0.00     0.042 C 
BRANCH  24  25
ATOM     25  C   UNL     1       3.837   3.102   5.351  1.00  0.00     0.118 C 
BRANCH  25  26
ATOM     26  N   UNL     1       3.914   4.814   5.275  1.00  0.00    -0.352 N 
ATOM     27  C   UNL     1       2.567   6.237   5.136  1.00  0.00     0.251 C 
ATOM     28  H   UNL     1       4.835   5.159   5.309  1.00  0.00     0.163 HD
ATOM     29  O   UNL     1       2.002   6.633   4.083  1.00  0.00    -0.269 OA
BRANCH  27  30
ATOM     30  C   UNL     1       1.617   6.927   6.508  1.00  0.00     0.039 A 
ATOM     31  C   UNL     1       0.513   7.727   6.201  1.00  0.00     0.014 A 
ATOM     32  C   UNL     1       1.519   6.308   7.780  1.00  0.00     0.014 A 
ATOM     33  C   UNL     1      -0.658   7.648   6.999  1.00  0.00     0.010 A 
ATOM     34  C   UNL     1       0.300   5.868   8.223  1.00  0.00     0.010 A 
ATOM     35  C   UNL     1      -0.817   6.607   7.938  1.00  0.00    -0.014 A 
BRANCH  35  36
ATOM     36  C   UNL     1      -2.078   6.203   8.623  1.00  0.00     0.031 A 
ATOM     37  C   UNL     1      -2.099   5.837  10.109  1.00  0.00     0.074 A 
ATOM     38  C   UNL     1      -3.180   6.007   7.871  1.00  0.00     0.049 A 
ATOM     39  N   UNL     1      -3.104   5.429  10.846  1.00  0.00    -0.248 NA
ATOM     40  C   UNL     1      -0.821   5.846  10.852  1.00  0.00     0.031 C 
ATOM     41  C   UNL     1      -3.239   6.120   6.410  1.00  0.00     0.029 A 
ATOM     42  N   UNL     1      -4.465   5.692   8.223  1.00  0.00    -0.354 N 
ATOM     43  C   UNL     1      -2.566   5.123  12.097  1.00  0.00     0.074 A 
ATOM     44  C   UNL     1      -1.137   5.231  11.979  1.00  0.00     0.031 C 
ATOM     45  C   UNL     1      -4.512   6.013   6.008  1.00  0.00     0.029 A 
ATOM     46  C   UNL     1      -5.351   5.751   7.170  1.00  0.00     0.049 A 
ATOM     47  H   UNL     1      -4.731   5.447   9.139  1.00  0.00     0.167 HD
ATOM     48  C   UNL     1      -3.201   4.860  13.266  1.00  0.00     0.034 A 
ATOM     49  C   UNL     1      -6.692   5.635   7.152  1.00  0.00     0.034 A 
ATOM     50  C   UNL     1      -4.634   4.809  13.369  1.00  0.00     0.049 A 
ATOM     51  C   UNL     1      -7.394   5.402   8.463  1.00  0.00     0.074 A 
ATOM     52  C   UNL     1      -5.419   4.647  14.494  1.00  0.00     0.029 A 
ATOM     53  N   UNL     1      -5.499   4.923  12.287  1.00  0.00    -0.354 N 
ATOM     54  N   UNL     1      -6.878   5.252   9.663  1.00  0.00    -0.248 NA
ATOM     55  C   UNL     1      -8.858   5.340   8.423  1.00  0.00     0.031 C 
ATOM     56  C   UNL     1      -6.753   4.580  14.083  1.00  0.00     0.029 A 
ATOM     57  C   UNL     1      -6.808   4.799  12.714  1.00  0.00     0.049 A 
ATOM     58  H   UNL     1      -5.221   5.069  11.354  1.00  0.00     0.167 HD
ATOM     59  C   UNL     1      -7.959   5.107  10.525  1.00  0.00     0.074 A 
ATOM     60  C   UNL     1      -9.152   5.213   9.708  1.00  0.00     0.031 C 
ATOM     61  C   UNL     1      -7.973   4.903  11.868  1.00  0.00     0.034 A 
BRANCH  48  62
ATOM     62  C   UNL     1      -2.353   4.635  14.504  1.00  0.00     0.023 A 
ATOM     63  C   UNL     1      -1.445   5.608  14.968  1.00  0.00     0.031 A 
ATOM     64  C   UNL     1      -2.418   3.422  15.212  1.00  0.00     0.131 A 
ATOM     65  C   UNL     1      -0.576   5.316  16.031  1.00  0.00     0.055 A 
ATOM     66  C   UNL     1      -1.620   3.176  16.333  1.00  0.00     0.041 A 
ATOM     67  F   UNL     1      -3.245   2.442  14.816  1.00  0.00    -0.206 F 
ATOM     68  C   UNL     1      -0.678   4.118  16.737  1.00  0.00     0.022 A 
BRANCH  65  69
ATOM     69  S   UNL     1       0.802   6.452  16.360  1.00  0.00     0.124 S 
ATOM     70  O   UNL     1       1.509   6.435  15.081  1.00  0.00    -0.237 OA
ATOM     71  O   UNL     1       0.117   7.694  16.695  1.00  0.00    -0.237 OA
ATOM     72  O   UNL     1       1.516   5.814  17.465  1.00  0.00    -0.744 OA
ENDBRANCH  65  69
ENDBRANCH  48  62
BRANCH  49  73
ATOM     73  C   UNL     1      -7.448   5.790   5.874  1.00  0.00     0.023 A 
ATOM     74  C   UNL     1      -8.366   6.838   5.698  1.00  0.00     0.031 A 
ATOM     75  C   UNL     1      -7.277   4.883   4.813  1.00  0.00     0.131 A 
ATOM     76  C   UNL     1      -9.117   6.922   4.515  1.00  0.00     0.055 A 
ATOM     77  C   UNL     1      -7.978   5.009   3.612  1.00  0.00     0.041 A 
ATOM     78  F   UNL     1      -6.406   3.867   4.921  1.00  0.00    -0.206 F 
ATOM     79  C   UNL     1      -8.917   6.024   3.464  1.00  0.00     0.022 A 
BRANCH  76  80
ATOM     80  S   UNL     1     -10.441   8.158   4.412  1.00  0.00     0.124 S 
ATOM     81  O   UNL     1     -11.251   7.824   5.578  1.00  0.00    -0.237 OA
ATOM     82  O   UNL     1      -9.696   9.410   4.485  1.00  0.00    -0.237 OA
ATOM     83  O   UNL     1     -11.066   7.880   3.120  1.00  0.00    -0.744 OA
ENDBRANCH  76  80
ENDBRANCH  49  73
BRANCH  61  84
ATOM     84  C   UNL     1      -9.322   4.823  12.532  1.00  0.00     0.023 A 
ATOM     85  C   UNL     1     -10.218   3.779  12.251  1.00  0.00     0.031 A 
ATOM     86  C   UNL     1      -9.710   5.803  13.462  1.00  0.00     0.131 A 
ATOM     87  C   UNL     1     -11.487   3.777  12.844  1.00  0.00     0.055 A 
ATOM     88  C   UNL     1     -10.943   5.750  14.110  1.00  0.00     0.041 A 
ATOM     89  F   UNL     1      -8.891   6.824  13.763  1.00  0.00    -0.206 F 
ATOM     90  C   UNL     1     -11.846   4.740  13.790  1.00  0.00     0.022 A 
BRANCH  87  91
ATOM     91  S   UNL     1     -12.704   2.563  12.271  1.00  0.00     0.124 S 
ATOM     92  O   UNL     1     -12.774   2.857  10.844  1.00  0.00    -0.237 OA
ATOM     93  O   UNL     1     -12.076   1.296  12.631  1.00  0.00    -0.237 OA
ATOM     94  O   UNL     1     -13.905   2.898  13.033  1.00  0.00    -0.744 OA
ENDBRANCH  87  91
ENDBRANCH  61  84
ENDBRANCH  35  36
ENDBRANCH  27  30
ENDBRANCH  25  26
ENDBRANCH  24  25
ENDBRANCH   1  24
TORSDOF 18
