REMARK SMILES CC(C)C[C@H](NC(=O)CNC(=O)[C@@H]([NH3+])C(C)C)C(=O)NCCCNC(=O)c1ccc(-c2c3nc(c(-c4cc(S(=O)(=O)[O-])ccc4F)c4ccc([nH]4)c(-c4cc(S(=O)(=O)[O-])ccc4F)c4nc(c(-c5cc(S(=O)(=O)[O-])ccc5F)c5ccc2[nH]5)C=C4)C=C3)cc1
REMARK SMILES IDX 21 1 20 2 18 3 19 4 5 6 4 7 2 8 1 9 3 10 6 11 7 12 8 14 9 15
REMARK SMILES IDX 10 16 11 17 12 19 13 20 14 21 15 25 16 26 17 27 22 28 23 29
REMARK SMILES IDX 24 30 25 31 26 33 27 34 28 35 89 36 29 37 88 38 30 39 31 40
REMARK SMILES IDX 32 41 82 42 33 43 87 44 81 45 83 46 34 47 86 48 80 49 79 50
REMARK SMILES IDX 35 52 67 53 47 54 66 55 48 56 51 57 65 58 84 59 49 60 50 61
REMARK SMILES IDX 64 63 85 64 52 65 36 66 37 67 45 68 38 69 44 70 46 71 43 72
REMARK SMILES IDX 39 73 40 74 41 75 42 76 68 77 69 78 77 79 70 80 76 81 78 82
REMARK SMILES IDX 75 83 71 84 72 85 73 86 74 87 53 88 54 89 62 90 55 91 61 92
REMARK SMILES IDX 63 93 60 94 56 95 57 96 58 97 59 98
REMARK H PARENT 20 5 6 13 10 18 14 22 14 23 14 24 24 32 83 51 51 62
REMARK Flexibility Score: inf
ROOT
ATOM      1  C   UNL     1      -3.291  -3.294  -1.095  1.00  0.00     0.117 C 
ENDROOT
BRANCH   1   2
ATOM      2  N   UNL     1      -3.859  -1.979  -0.835  1.00  0.00    -0.354 N 
ATOM      3  C   UNL     1      -3.270  -0.753  -0.971  1.00  0.00     0.242 C 
ATOM      4  O   UNL     1      -3.947   0.260  -0.798  1.00  0.00    -0.273 OA
ATOM      5  H   UNL     1      -4.792  -1.972  -0.519  1.00  0.00     0.163 HD
BRANCH   3   6
ATOM      6  C   UNL     1      -1.800  -0.687  -1.408  1.00  0.00     0.171 C 
BRANCH   6   7
ATOM      7  C   UNL     1      -1.655  -1.267  -2.827  1.00  0.00     0.038 C 
BRANCH   7   8
ATOM      8  C   UNL     1      -2.756  -1.009  -3.874  1.00  0.00    -0.015 C 
ATOM      9  C   UNL     1      -2.954   0.479  -4.156  1.00  0.00     0.007 C 
ATOM     10  C   UNL     1      -2.363  -1.724  -5.175  1.00  0.00     0.007 C 
ENDBRANCH   7   8
ENDBRANCH   6   7
BRANCH   6  11
ATOM     11  N   UNL     1      -1.034  -1.395  -0.359  1.00  0.00    -0.343 N 
ATOM     12  C   UNL     1       0.276  -1.627  -0.110  1.00  0.00     0.240 C 
ATOM     13  H   UNL     1      -1.620  -1.794   0.325  1.00  0.00     0.164 HD
ATOM     14  O   UNL     1       0.539  -2.242   0.930  1.00  0.00    -0.273 OA
BRANCH  12  15
ATOM     15  C   UNL     1       1.406  -1.123  -1.004  1.00  0.00     0.216 C 
BRANCH  15  16
ATOM     16  N   UNL     1       1.395  -1.695  -2.336  1.00  0.00    -0.342 N 
ATOM     17  C   UNL     1       1.455  -1.087  -3.553  1.00  0.00     0.278 C 
ATOM     18  H   UNL     1       1.333  -2.677  -2.366  1.00  0.00     0.164 HD
ATOM     19  O   UNL     1       1.391  -1.809  -4.553  1.00  0.00    -0.268 OA
BRANCH  17  20
ATOM     20  C   UNL     1       1.606   0.451  -3.711  1.00  0.00     0.273 C 
BRANCH  20  21
ATOM     21  N   UNL     1       0.700   1.204  -2.813  1.00  0.00    -0.347 N 
ATOM     22  H   UNL     1       0.933   0.995  -1.842  1.00  0.00     0.345 HD
ATOM     23  H   UNL     1      -0.265   0.931  -2.997  1.00  0.00     0.345 HD
ATOM     24  H   UNL     1       0.809   2.204  -2.980  1.00  0.00     0.345 HD
ENDBRANCH  20  21
BRANCH  20  25
ATOM     25  C   UNL     1       3.087   0.851  -3.562  1.00  0.00     0.051 C 
ATOM     26  C   UNL     1       3.902   0.236  -4.708  1.00  0.00     0.014 C 
ATOM     27  C   UNL     1       3.281   2.370  -3.574  1.00  0.00     0.014 C 
ENDBRANCH  20  25
ENDBRANCH  17  20
ENDBRANCH  15  16
ENDBRANCH  12  15
ENDBRANCH   6  11
ENDBRANCH   3   6
ENDBRANCH   1   2
BRANCH   1  28
ATOM     28  C   UNL     1      -3.600  -4.268   0.015  1.00  0.00     0.042 C 
BRANCH  28  29
ATOM     29  C   UNL     1      -5.079  -4.561   0.117  1.00  0.00     0.118 C 
BRANCH  29  30
ATOM     30  N   UNL     1      -5.608  -5.162  -1.102  1.00  0.00    -0.352 N 
ATOM     31  C   UNL     1      -6.245  -6.368  -1.252  1.00  0.00     0.251 C 
ATOM     32  H   UNL     1      -5.493  -4.633  -1.925  1.00  0.00     0.163 HD
ATOM     33  O   UNL     1      -6.425  -6.836  -2.372  1.00  0.00    -0.269 OA
BRANCH  31  34
ATOM     34  C   UNL     1      -6.680  -7.088  -0.042  1.00  0.00     0.039 A 
ATOM     35  C   UNL     1      -6.468  -8.461   0.056  1.00  0.00     0.014 A 
ATOM     36  C   UNL     1      -7.244  -6.376   1.022  1.00  0.00     0.014 A 
ATOM     37  C   UNL     1      -6.784  -9.111   1.247  1.00  0.00     0.010 A 
ATOM     38  C   UNL     1      -7.417  -6.996   2.246  1.00  0.00     0.010 A 
ATOM     39  C   UNL     1      -7.233  -8.378   2.360  1.00  0.00    -0.014 A 
BRANCH  39  40
ATOM     40  C   UNL     1      -7.594  -9.051   3.630  1.00  0.00     0.031 A 
ATOM     41  C   UNL     1      -9.006  -8.945   4.145  1.00  0.00     0.074 A 
ATOM     42  C   UNL     1      -6.652  -9.715   4.326  1.00  0.00     0.049 A 
ATOM     43  N   UNL     1      -9.527  -9.432   5.240  1.00  0.00    -0.248 NA
ATOM     44  C   UNL     1      -9.948  -8.145   3.343  1.00  0.00     0.031 C 
ATOM     45  C   UNL     1      -5.239  -9.822   3.953  1.00  0.00     0.029 A 
ATOM     46  N   UNL     1      -6.742 -10.434   5.489  1.00  0.00    -0.354 N 
ATOM     47  C   UNL     1     -10.844  -8.983   5.263  1.00  0.00     0.074 A 
ATOM     48  C   UNL     1     -11.012  -8.108   4.126  1.00  0.00     0.031 C 
ATOM     49  C   UNL     1      -4.607 -10.606   4.841  1.00  0.00     0.029 A 
ATOM     50  C   UNL     1      -5.557 -11.023   5.867  1.00  0.00     0.049 A 
ATOM     51  H   UNL     1      -7.575 -10.521   6.005  1.00  0.00     0.167 HD
ATOM     52  C   UNL     1     -11.836  -9.306   6.128  1.00  0.00     0.034 A 
ATOM     53  C   UNL     1      -5.278 -11.816   6.919  1.00  0.00     0.034 A 
ATOM     54  C   UNL     1     -11.649 -10.204   7.239  1.00  0.00     0.049 A 
ATOM     55  C   UNL     1      -6.401 -12.178   7.859  1.00  0.00     0.074 A 
ATOM     56  C   UNL     1     -12.582 -10.646   8.159  1.00  0.00     0.029 A 
ATOM     57  N   UNL     1     -10.441 -10.802   7.579  1.00  0.00    -0.354 N 
ATOM     58  N   UNL     1      -7.657 -11.793   7.836  1.00  0.00    -0.248 NA
ATOM     59  C   UNL     1      -6.071 -13.100   8.950  1.00  0.00     0.031 C 
ATOM     60  C   UNL     1     -11.926 -11.457   9.091  1.00  0.00     0.029 A 
ATOM     61  C   UNL     1     -10.601 -11.592   8.706  1.00  0.00     0.049 A 
ATOM     62  H   UNL     1      -9.595 -10.682   7.090  1.00  0.00     0.167 HD
ATOM     63  C   UNL     1      -8.277 -12.460   8.890  1.00  0.00     0.074 A 
ATOM     64  C   UNL     1      -7.258 -13.284   9.509  1.00  0.00     0.031 C 
ATOM     65  C   UNL     1      -9.567 -12.400   9.311  1.00  0.00     0.034 A 
BRANCH  52  66
ATOM     66  C   UNL     1     -13.188  -8.669   5.902  1.00  0.00     0.023 A 
ATOM     67  C   UNL     1     -13.913  -8.871   4.713  1.00  0.00     0.031 A 
ATOM     68  C   UNL     1     -13.739  -7.806   6.865  1.00  0.00     0.131 A 
ATOM     69  C   UNL     1     -15.096  -8.154   4.479  1.00  0.00     0.055 A 
ATOM     70  C   UNL     1     -14.965  -7.167   6.665  1.00  0.00     0.041 A 
ATOM     71  F   UNL     1     -13.085  -7.550   8.009  1.00  0.00    -0.206 F 
ATOM     72  C   UNL     1     -15.642  -7.325   5.460  1.00  0.00     0.022 A 
BRANCH  69  73
ATOM     73  S   UNL     1     -15.821  -8.196   2.817  1.00  0.00     0.124 S 
ATOM     74  O   UNL     1     -14.728  -7.664   2.006  1.00  0.00    -0.237 OA
ATOM     75  O   UNL     1     -16.119  -9.612   2.637  1.00  0.00    -0.237 OA
ATOM     76  O   UNL     1     -16.986  -7.321   2.929  1.00  0.00    -0.744 OA
ENDBRANCH  69  73
ENDBRANCH  52  66
BRANCH  53  77
ATOM     77  C   UNL     1      -3.898 -12.340   7.131  1.00  0.00     0.023 A 
ATOM     78  C   UNL     1      -3.629 -13.717   7.073  1.00  0.00     0.031 A 
ATOM     79  C   UNL     1      -2.833 -11.474   7.435  1.00  0.00     0.131 A 
ATOM     80  C   UNL     1      -2.343 -14.194   7.372  1.00  0.00     0.055 A 
ATOM     81  C   UNL     1      -1.542 -11.948   7.676  1.00  0.00     0.041 A 
ATOM     82  F   UNL     1      -3.032 -10.148   7.494  1.00  0.00    -0.206 F 
ATOM     83  C   UNL     1      -1.295 -13.317   7.660  1.00  0.00     0.022 A 
BRANCH  80  84
ATOM     84  S   UNL     1      -2.082 -15.986   7.469  1.00  0.00     0.124 S 
ATOM     85  O   UNL     1      -3.055 -16.374   8.483  1.00  0.00    -0.237 OA
ATOM     86  O   UNL     1      -2.374 -16.409   6.103  1.00  0.00    -0.237 OA
ATOM     87  O   UNL     1      -0.681 -16.104   7.870  1.00  0.00    -0.744 OA
ENDBRANCH  80  84
ENDBRANCH  53  77
BRANCH  65  88
ATOM     88  C   UNL     1      -9.948 -13.298  10.463  1.00  0.00     0.023 A 
ATOM     89  C   UNL     1      -9.386 -13.141  11.742  1.00  0.00     0.031 A 
ATOM     90  C   UNL     1     -10.859 -14.352  10.266  1.00  0.00     0.131 A 
ATOM     91  C   UNL     1      -9.673 -14.074  12.749  1.00  0.00     0.055 A 
ATOM     92  C   UNL     1     -11.200 -15.230  11.294  1.00  0.00     0.041 A 
ATOM     93  F   UNL     1     -11.427 -14.550   9.065  1.00  0.00    -0.206 F 
ATOM     94  C   UNL     1     -10.590 -15.106  12.539  1.00  0.00     0.022 A 
BRANCH  91  95
ATOM     95  S   UNL     1      -8.725 -14.000  14.293  1.00  0.00     0.124 S 
ATOM     96  O   UNL     1      -7.350 -14.059  13.807  1.00  0.00    -0.237 OA
ATOM     97  O   UNL     1      -9.147 -12.722  14.857  1.00  0.00    -0.237 OA
ATOM     98  O   UNL     1      -9.174 -15.181  15.027  1.00  0.00    -0.744 OA
ENDBRANCH  91  95
ENDBRANCH  65  88
ENDBRANCH  39  40
ENDBRANCH  31  34
ENDBRANCH  29  30
ENDBRANCH  28  29
ENDBRANCH   1  28
TORSDOF 21
