REMARK SMILES O=C(NCCCNC(=O)c1ccc(-c2c3nc(c(-c4cc(S(=O)(=O)[O-])ccc4F)c4ccc([nH]4)c(-c4cc(S(=O)(=O)[O-])ccc4F)c4nc(c(-c5cc(S(=O)(=O)[O-])ccc5F)c5ccc2[nH]5)C=C4)C=C3)cc1)c1ccc(/[NH+]=C2\S[C@@H](Cc3ccc(F)cc3)C(=O)N2Cc2ccccc2)cc1
REMARK SMILES IDX 5 1 4 2 3 3 1 4 2 5 73 7 74 8 100 9 75 10 99 11 76 12 77 13
REMARK SMILES IDX 78 14 79 16 91 17 80 18 89 19 90 20 92 21 93 22 94 23 98 24
REMARK SMILES IDX 95 25 97 26 96 27 81 28 82 29 83 30 88 31 84 32 87 33 85 34
REMARK SMILES IDX 86 35 6 36 7 37 8 38 9 40 10 41 11 42 72 43 12 44 71 45
REMARK SMILES IDX 13 46 14 47 15 48 65 49 16 50 70 51 64 52 66 53 17 54 69 55
REMARK SMILES IDX 63 56 62 57 18 59 50 60 30 61 49 62 31 63 34 64 48 65 67 66
REMARK SMILES IDX 32 67 33 68 47 70 68 71 35 72 19 73 20 74 28 75 21 76 27 77
REMARK SMILES IDX 29 78 26 79 22 80 23 81 24 82 25 83 51 84 52 85 60 86 53 87
REMARK SMILES IDX 59 88 61 89 58 90 54 91 55 92 56 93 57 94 36 95 37 96 45 97
REMARK SMILES IDX 38 98 44 99 46 100 43 101 39 102 40 103 41 104 42 105
REMARK H PARENT 3 6 77 15 7 39 66 58 34 69
REMARK Flexibility Score: inf
ROOT
ATOM      1  C   UNL     1       4.843   1.811   1.496  1.00  0.00     0.042 C 
ENDROOT
BRANCH   1   2
ATOM      2  C   UNL     1       4.416   0.375   1.239  1.00  0.00     0.118 C 
BRANCH   2   3
ATOM      3  N   UNL     1       2.969   0.231   1.130  1.00  0.00    -0.352 N 
ATOM      4  O   UNL     1       0.963   0.088   0.105  1.00  0.00    -0.269 OA
ATOM      5  C   UNL     1       2.188  -0.006   0.028  1.00  0.00     0.251 C 
ATOM      6  H   UNL     1       2.477   0.318   1.978  1.00  0.00     0.163 HD
BRANCH   5   7
ATOM      7  C   UNL     1       2.809  -0.380  -1.257  1.00  0.00     0.040 A 
ATOM      8  C   UNL     1       3.798  -1.362  -1.298  1.00  0.00     0.018 A 
ATOM      9  C   UNL     1       2.360   0.214  -2.442  1.00  0.00     0.018 A 
ATOM     10  C   UNL     1       4.415  -1.661  -2.505  1.00  0.00     0.052 A 
ATOM     11  C   UNL     1       2.950  -0.133  -3.662  1.00  0.00     0.052 A 
ATOM     12  C   UNL     1       4.002  -1.050  -3.693  1.00  0.00     0.125 A 
BRANCH  12  13
ATOM     13  N   UNL     1       4.573  -1.509  -4.879  1.00  0.00    -0.235 N 
ATOM     14  C   UNL     1       5.438  -0.832  -5.551  1.00  0.00     0.320 C 
ATOM     15  H   UNL     1       4.302  -2.393  -5.218  1.00  0.00     0.313 HD
ATOM     16  S   UNL     1       5.930   0.817  -5.302  1.00  0.00    -0.022 SA
ATOM     17  N   UNL     1       6.120  -1.396  -6.595  1.00  0.00    -0.186 N 
ATOM     18  C   UNL     1       6.722   0.905  -6.942  1.00  0.00     0.178 C 
ATOM     19  C   UNL     1       6.909  -0.552  -7.351  1.00  0.00     0.324 C 
ATOM     20  O   UNL     1       7.590  -0.919  -8.302  1.00  0.00    -0.245 OA
BRANCH  17  21
ATOM     21  C   UNL     1       5.999  -2.813  -6.931  1.00  0.00     0.283 C 
BRANCH  21  22
ATOM     22  C   UNL     1       6.798  -3.755  -6.045  1.00  0.00    -0.006 A 
ATOM     23  C   UNL     1       7.967  -4.372  -6.509  1.00  0.00     0.008 A 
ATOM     24  C   UNL     1       6.349  -4.088  -4.757  1.00  0.00     0.008 A 
ATOM     25  C   UNL     1       8.658  -5.288  -5.704  1.00  0.00     0.000 A 
ATOM     26  C   UNL     1       7.058  -4.967  -3.937  1.00  0.00     0.000 A 
ATOM     27  C   UNL     1       8.211  -5.575  -4.415  1.00  0.00     0.000 A 
ENDBRANCH  21  22
ENDBRANCH  17  21
BRANCH  18  28
ATOM     28  C   UNL     1       8.008   1.730  -6.890  1.00  0.00     0.063 C 
BRANCH  28  29
ATOM     29  C   UNL     1       8.644   1.969  -8.245  1.00  0.00    -0.046 A 
ATOM     30  C   UNL     1       9.931   1.472  -8.508  1.00  0.00     0.007 A 
ATOM     31  C   UNL     1       7.968   2.677  -9.252  1.00  0.00     0.007 A 
ATOM     32  C   UNL     1      10.517   1.652  -9.761  1.00  0.00     0.039 A 
ATOM     33  C   UNL     1       8.556   2.851 -10.507  1.00  0.00     0.039 A 
ATOM     34  C   UNL     1       9.822   2.332 -10.751  1.00  0.00     0.123 A 
ATOM     35  F   UNL     1      10.379   2.490 -11.959  1.00  0.00    -0.207 F 
ENDBRANCH  28  29
ENDBRANCH  18  28
ENDBRANCH  12  13
ENDBRANCH   5   7
ENDBRANCH   2   3
ENDBRANCH   1   2
BRANCH   1  36
ATOM     36  C   UNL     1       4.329   2.385   2.807  1.00  0.00     0.118 C 
BRANCH  36  37
ATOM     37  N   UNL     1       4.794   1.640   3.970  1.00  0.00    -0.352 N 
ATOM     38  C   UNL     1       5.599   2.028   5.013  1.00  0.00     0.251 C 
ATOM     39  H   UNL     1       4.480   0.708   4.016  1.00  0.00     0.163 HD
ATOM     40  O   UNL     1       6.023   1.175   5.789  1.00  0.00    -0.269 OA
BRANCH  38  41
ATOM     41  C   UNL     1       5.979   3.448   5.184  1.00  0.00     0.039 A 
ATOM     42  C   UNL     1       7.285   3.756   5.573  1.00  0.00     0.014 A 
ATOM     43  C   UNL     1       5.056   4.475   4.971  1.00  0.00     0.014 A 
ATOM     44  C   UNL     1       7.683   5.091   5.670  1.00  0.00     0.010 A 
ATOM     45  C   UNL     1       5.480   5.801   4.973  1.00  0.00     0.010 A 
ATOM     46  C   UNL     1       6.798   6.125   5.325  1.00  0.00    -0.014 A 
BRANCH  46  47
ATOM     47  C   UNL     1       7.230   7.548   5.328  1.00  0.00     0.031 A 
ATOM     48  C   UNL     1       6.560   8.541   6.240  1.00  0.00     0.074 A 
ATOM     49  C   UNL     1       8.181   7.958   4.465  1.00  0.00     0.049 A 
ATOM     50  N   UNL     1       6.741   9.833   6.334  1.00  0.00    -0.248 NA
ATOM     51  C   UNL     1       5.527   8.013   7.144  1.00  0.00     0.031 C 
ATOM     52  C   UNL     1       8.876   7.099   3.503  1.00  0.00     0.029 A 
ATOM     53  N   UNL     1       8.724   9.200   4.249  1.00  0.00    -0.354 N 
ATOM     54  C   UNL     1       5.840  10.274   7.297  1.00  0.00     0.074 A 
ATOM     55  C   UNL     1       5.067   9.121   7.704  1.00  0.00     0.031 C 
ATOM     56  C   UNL     1       9.773   7.832   2.826  1.00  0.00     0.029 A 
ATOM     57  C   UNL     1       9.682   9.221   3.261  1.00  0.00     0.049 A 
ATOM     58  H   UNL     1       8.454  10.001   4.754  1.00  0.00     0.167 HD
ATOM     59  C   UNL     1       5.689  11.520   7.812  1.00  0.00     0.034 A 
ATOM     60  C   UNL     1      10.395  10.246   2.751  1.00  0.00     0.034 A 
ATOM     61  C   UNL     1       6.474  12.658   7.399  1.00  0.00     0.049 A 
ATOM     62  C   UNL     1      10.180  11.630   3.310  1.00  0.00     0.074 A 
ATOM     63  C   UNL     1       6.442  13.951   7.891  1.00  0.00     0.029 A 
ATOM     64  N   UNL     1       7.425  12.645   6.385  1.00  0.00    -0.354 N 
ATOM     65  N   UNL     1       9.361  12.021   4.259  1.00  0.00    -0.248 NA
ATOM     66  C   UNL     1      10.993  12.709   2.734  1.00  0.00     0.031 C 
ATOM     67  C   UNL     1       7.313  14.735   7.125  1.00  0.00     0.029 A 
ATOM     68  C   UNL     1       7.956  13.915   6.212  1.00  0.00     0.049 A 
ATOM     69  H   UNL     1       7.684  11.850   5.865  1.00  0.00     0.167 HD
ATOM     70  C   UNL     1       9.583  13.386   4.413  1.00  0.00     0.074 A 
ATOM     71  C   UNL     1      10.625  13.745   3.472  1.00  0.00     0.031 C 
ATOM     72  C   UNL     1       8.984  14.264   5.258  1.00  0.00     0.034 A 
BRANCH  59  73
ATOM     73  C   UNL     1       4.615  11.714   8.859  1.00  0.00     0.023 A 
ATOM     74  C   UNL     1       4.649  11.031  10.088  1.00  0.00     0.031 A 
ATOM     75  C   UNL     1       3.527  12.570   8.615  1.00  0.00     0.131 A 
ATOM     76  C   UNL     1       3.578  11.150  10.986  1.00  0.00     0.055 A 
ATOM     77  C   UNL     1       2.508  12.754   9.553  1.00  0.00     0.041 A 
ATOM     78  F   UNL     1       3.425  13.234   7.452  1.00  0.00    -0.206 F 
ATOM     79  C   UNL     1       2.521  12.027  10.740  1.00  0.00     0.022 A 
BRANCH  76  80
ATOM     80  S   UNL     1       3.511  10.020  12.404  1.00  0.00     0.124 S 
ATOM     81  O   UNL     1       3.527   8.717  11.743  1.00  0.00    -0.237 OA
ATOM     82  O   UNL     1       4.713  10.374  13.148  1.00  0.00    -0.237 OA
ATOM     83  O   UNL     1       2.248  10.363  13.055  1.00  0.00    -0.744 OA
ENDBRANCH  76  80
ENDBRANCH  59  73
BRANCH  60  84
ATOM     84  C   UNL     1      11.368  10.013   1.645  1.00  0.00     0.023 A 
ATOM     85  C   UNL     1      12.741  10.243   1.829  1.00  0.00     0.031 A 
ATOM     86  C   UNL     1      10.935   9.595   0.373  1.00  0.00     0.131 A 
ATOM     87  C   UNL     1      13.626  10.101   0.748  1.00  0.00     0.055 A 
ATOM     88  C   UNL     1      11.827   9.400  -0.683  1.00  0.00     0.041 A 
ATOM     89  F   UNL     1       9.634   9.358   0.142  1.00  0.00    -0.206 F 
ATOM     90  C   UNL     1      13.180   9.667  -0.502  1.00  0.00     0.022 A 
BRANCH  87  91
ATOM     91  S   UNL     1      15.360  10.581   0.978  1.00  0.00     0.124 S 
ATOM     92  O   UNL     1      15.231  11.979   1.372  1.00  0.00    -0.237 OA
ATOM     93  O   UNL     1      15.794   9.656   2.019  1.00  0.00    -0.237 OA
ATOM     94  O   UNL     1      15.951  10.355  -0.340  1.00  0.00    -0.744 OA
ENDBRANCH  87  91
ENDBRANCH  60  84
BRANCH  72  95
ATOM     95  C   UNL     1       9.475  15.692   5.228  1.00  0.00     0.023 A 
ATOM     96  C   UNL     1       9.301  16.512   4.099  1.00  0.00     0.031 A 
ATOM     97  C   UNL     1      10.137  16.236   6.343  1.00  0.00     0.131 A 
ATOM     98  C   UNL     1       9.834  17.811   4.090  1.00  0.00     0.055 A 
ATOM     99  C   UNL     1      10.605  17.550   6.353  1.00  0.00     0.041 A 
ATOM    100  F   UNL     1      10.336  15.498   7.447  1.00  0.00    -0.206 F 
ATOM    101  C   UNL     1      10.467  18.341   5.216  1.00  0.00     0.022 A 
BRANCH  98 102
ATOM    102  S   UNL     1       9.776  18.764   2.547  1.00  0.00     0.124 S 
ATOM    103  O   UNL     1      10.502  17.895   1.627  1.00  0.00    -0.237 OA
ATOM    104  O   UNL     1       8.342  18.888   2.310  1.00  0.00    -0.237 OA
ATOM    105  O   UNL     1      10.458  20.011   2.890  1.00  0.00    -0.744 OA
ENDBRANCH  98 102
ENDBRANCH  72  95
ENDBRANCH  46  47
ENDBRANCH  38  41
ENDBRANCH  36  37
ENDBRANCH   1  36
TORSDOF 18
