REMARK SMILES CCc1ccc2nc(NC(=O)/C=C/C(=O)NCCCNC(=O)c3ccc(-c4c5nc(c(-c6cc(S(=O)(=O)[O-])ccc6F)c6ccc([nH]6)c(-c6cc(S(=O)(=O)[O-])ccc6F)c6nc(c(-c7cc(S(=O)(=O)[O-])ccc7F)c7ccc4[nH]7)C=C6)C=C5)cc3)sc2c1
REMARK SMILES IDX 18 1 17 2 16 3 14 4 15 5 13 7 12 8 10 9 9 10 11 12 8 13 3 14
REMARK SMILES IDX 4 15 88 16 5 17 87 18 6 19 86 20 7 21 2 22 1 23 19 24 20 25
REMARK SMILES IDX 21 26 22 28 23 29 24 30 85 31 25 32 84 33 26 34 27 35 28 36
REMARK SMILES IDX 78 37 29 38 83 39 77 40 79 41 30 42 82 43 76 44 75 45 31 47
REMARK SMILES IDX 63 48 43 49 62 50 44 51 47 52 61 53 80 54 45 55 46 56 60 58
REMARK SMILES IDX 81 59 48 60 32 61 33 62 41 63 34 64 40 65 42 66 39 67 35 68
REMARK SMILES IDX 36 69 37 70 38 71 64 72 65 73 73 74 66 75 72 76 74 77 71 78
REMARK SMILES IDX 67 79 68 80 69 81 70 82 49 83 50 84 58 85 51 86 57 87 59 88
REMARK SMILES IDX 56 89 52 90 53 91 54 92 55 93
REMARK H PARENT 16 6 9 11 20 27 79 46 47 57
REMARK Flexibility Score: inf
ROOT
ATOM      1  C   UNL     1       5.616  -7.072   6.932  1.00  0.00     0.042 C 
ENDROOT
BRANCH   1   2
ATOM      2  C   UNL     1       4.111  -6.835   6.989  1.00  0.00     0.118 C 
BRANCH   2   3
ATOM      3  N   UNL     1       3.742  -5.607   6.310  1.00  0.00    -0.352 N 
ATOM      4  C   UNL     1       3.611  -5.379   4.978  1.00  0.00     0.244 C 
ATOM      5  O   UNL     1       3.654  -4.227   4.553  1.00  0.00    -0.270 OA
ATOM      6  H   UNL     1       3.562  -4.835   6.894  1.00  0.00     0.163 HD
BRANCH   4   7
ATOM      7  C   UNL     1       3.456  -6.513   4.047  1.00  0.00     0.077 C 
ATOM      8  C   UNL     1       2.446  -7.380   4.213  1.00  0.00     0.077 C 
BRANCH   8   9
ATOM      9  C   UNL     1       2.077  -8.346   3.155  1.00  0.00     0.250 C 
ATOM     10  N   UNL     1       1.463  -7.924   2.009  1.00  0.00    -0.298 N 
ATOM     11  H   UNL     1       1.203  -8.615   1.359  1.00  0.00     0.172 HD
ATOM     12  O   UNL     1       2.268  -9.546   3.350  1.00  0.00    -0.270 OA
BRANCH  10  13
ATOM     13  C   UNL     1       1.179  -6.628   1.688  1.00  0.00     0.190 A 
ATOM     14  C   UNL     1       0.747  -2.266  -0.065  1.00  0.00    -0.047 A 
ATOM     15  C   UNL     1       1.315  -2.067   1.197  1.00  0.00     0.006 A 
ATOM     16  C   UNL     1       0.422  -3.576  -0.481  1.00  0.00     0.025 A 
ATOM     17  C   UNL     1       1.536  -3.135   2.065  1.00  0.00     0.030 A 
ATOM     18  C   UNL     1       0.689  -4.651   0.385  1.00  0.00     0.057 A 
ATOM     19  C   UNL     1       1.217  -4.439   1.658  1.00  0.00     0.084 A 
ATOM     20  S   UNL     1       0.500  -6.357   0.149  1.00  0.00    -0.097 S 
ATOM     21  N   UNL     1       1.400  -5.570   2.412  1.00  0.00    -0.220 NA
BRANCH  14  22
ATOM     22  C   UNL     1       0.458  -1.122  -1.013  1.00  0.00     0.032 C 
ATOM     23  C   UNL     1       0.883   0.268  -0.552  1.00  0.00     0.009 C 
ENDBRANCH  14  22
ENDBRANCH  10  13
ENDBRANCH   8   9
ENDBRANCH   4   7
ENDBRANCH   2   3
ENDBRANCH   1   2
BRANCH   1  24
ATOM     24  C   UNL     1       6.434  -5.949   7.566  1.00  0.00     0.118 C 
BRANCH  24  25
ATOM     25  N   UNL     1       6.119  -5.771   8.977  1.00  0.00    -0.352 N 
ATOM     26  C   UNL     1       6.841  -6.117  10.090  1.00  0.00     0.251 C 
ATOM     27  H   UNL     1       5.256  -5.334   9.160  1.00  0.00     0.163 HD
ATOM     28  O   UNL     1       6.279  -6.142  11.188  1.00  0.00    -0.269 OA
BRANCH  26  29
ATOM     29  C   UNL     1       8.271  -6.465   9.977  1.00  0.00     0.039 A 
ATOM     30  C   UNL     1       8.777  -7.530  10.727  1.00  0.00     0.014 A 
ATOM     31  C   UNL     1       9.123  -5.718   9.160  1.00  0.00     0.014 A 
ATOM     32  C   UNL     1      10.124  -7.881  10.611  1.00  0.00     0.010 A 
ATOM     33  C   UNL     1      10.443  -6.120   8.981  1.00  0.00     0.010 A 
ATOM     34  C   UNL     1      10.961  -7.198   9.714  1.00  0.00    -0.014 A 
BRANCH  34  35
ATOM     35  C   UNL     1      12.386  -7.581   9.537  1.00  0.00     0.031 A 
ATOM     36  C   UNL     1      13.474  -6.599   9.879  1.00  0.00     0.074 A 
ATOM     37  C   UNL     1      12.691  -8.772   8.988  1.00  0.00     0.049 A 
ATOM     38  N   UNL     1      14.767  -6.698   9.702  1.00  0.00    -0.248 NA
ATOM     39  C   UNL     1      13.043  -5.319  10.458  1.00  0.00     0.031 C 
ATOM     40  C   UNL     1      11.717  -9.778   8.560  1.00  0.00     0.029 A 
ATOM     41  N   UNL     1      13.905  -9.331   8.676  1.00  0.00    -0.354 N 
ATOM     42  C   UNL     1      15.300  -5.484  10.125  1.00  0.00     0.074 A 
ATOM     43  C   UNL     1      14.182  -4.646  10.502  1.00  0.00     0.031 C 
ATOM     44  C   UNL     1      12.371 -10.834   8.050  1.00  0.00     0.029 A 
ATOM     45  C   UNL     1      13.805 -10.564   8.075  1.00  0.00     0.049 A 
ATOM     46  H   UNL     1      14.765  -8.891   8.865  1.00  0.00     0.167 HD
ATOM     47  C   UNL     1      16.603  -5.114  10.213  1.00  0.00     0.034 A 
ATOM     48  C   UNL     1      14.760 -11.378   7.582  1.00  0.00     0.034 A 
ATOM     49  C   UNL     1      17.701  -5.976   9.844  1.00  0.00     0.049 A 
ATOM     50  C   UNL     1      16.201 -10.956   7.696  1.00  0.00     0.074 A 
ATOM     51  C   UNL     1      19.060  -5.742   9.962  1.00  0.00     0.029 A 
ATOM     52  N   UNL     1      17.565  -7.235   9.270  1.00  0.00    -0.354 N 
ATOM     53  N   UNL     1      16.698  -9.836   8.169  1.00  0.00    -0.248 NA
ATOM     54  C   UNL     1      17.210 -11.913   7.227  1.00  0.00     0.031 C 
ATOM     55  C   UNL     1      19.742  -6.826   9.397  1.00  0.00     0.029 A 
ATOM     56  C   UNL     1      18.814  -7.775   8.997  1.00  0.00     0.049 A 
ATOM     57  H   UNL     1      16.707  -7.680   9.085  1.00  0.00     0.167 HD
ATOM     58  C   UNL     1      18.081  -9.963   8.073  1.00  0.00     0.074 A 
ATOM     59  C   UNL     1      18.336 -11.277   7.515  1.00  0.00     0.031 C 
ATOM     60  C   UNL     1      19.051  -9.079   8.419  1.00  0.00     0.034 A 
BRANCH  47  61
ATOM     61  C   UNL     1      16.894  -3.710  10.696  1.00  0.00     0.023 A 
ATOM     62  C   UNL     1      16.485  -3.264  11.966  1.00  0.00     0.031 A 
ATOM     63  C   UNL     1      17.539  -2.785   9.857  1.00  0.00     0.131 A 
ATOM     64  C   UNL     1      16.629  -1.914  12.318  1.00  0.00     0.055 A 
ATOM     65  C   UNL     1      17.765  -1.463  10.251  1.00  0.00     0.041 A 
ATOM     66  F   UNL     1      17.939  -3.140   8.626  1.00  0.00    -0.206 F 
ATOM     67  C   UNL     1      17.290  -1.015  11.479  1.00  0.00     0.022 A 
BRANCH  64  68
ATOM     68  S   UNL     1      15.778  -1.313  13.804  1.00  0.00     0.124 S 
ATOM     69  O   UNL     1      14.393  -1.683  13.521  1.00  0.00    -0.237 OA
ATOM     70  O   UNL     1      16.435  -2.062  14.868  1.00  0.00    -0.237 OA
ATOM     71  O   UNL     1      16.045   0.124  13.794  1.00  0.00    -0.744 OA
ENDBRANCH  64  68
ENDBRANCH  47  61
BRANCH  48  72
ATOM     72  C   UNL     1      14.379 -12.660   6.925  1.00  0.00     0.023 A 
ATOM     73  C   UNL     1      14.705 -13.898   7.498  1.00  0.00     0.031 A 
ATOM     74  C   UNL     1      13.680 -12.661   5.704  1.00  0.00     0.131 A 
ATOM     75  C   UNL     1      14.361 -15.088   6.836  1.00  0.00     0.055 A 
ATOM     76  C   UNL     1      13.299 -13.846   5.072  1.00  0.00     0.041 A 
ATOM     77  F   UNL     1      13.335 -11.503   5.119  1.00  0.00    -0.206 F 
ATOM     78  C   UNL     1      13.649 -15.070   5.634  1.00  0.00     0.022 A 
BRANCH  75  79
ATOM     79  S   UNL     1      14.909 -16.667   7.542  1.00  0.00     0.124 S 
ATOM     80  O   UNL     1      16.358 -16.500   7.555  1.00  0.00    -0.237 OA
ATOM     81  O   UNL     1      14.250 -16.661   8.844  1.00  0.00    -0.237 OA
ATOM     82  O   UNL     1      14.402 -17.657   6.594  1.00  0.00    -0.744 OA
ENDBRANCH  75  79
ENDBRANCH  48  72
BRANCH  60  83
ATOM     83  C   UNL     1      20.481  -9.525   8.231  1.00  0.00     0.023 A 
ATOM     84  C   UNL     1      21.026  -9.743   6.954  1.00  0.00     0.031 A 
ATOM     85  C   UNL     1      21.305  -9.743   9.349  1.00  0.00     0.131 A 
ATOM     86  C   UNL     1      22.340 -10.219   6.828  1.00  0.00     0.055 A 
ATOM     87  C   UNL     1      22.631 -10.158   9.215  1.00  0.00     0.041 A 
ATOM     88  F   UNL     1      20.836  -9.554  10.593  1.00  0.00    -0.206 F 
ATOM     89  C   UNL     1      23.151 -10.411   7.949  1.00  0.00     0.022 A 
BRANCH  86  90
ATOM     90  S   UNL     1      22.947 -10.676   5.180  1.00  0.00     0.124 S 
ATOM     91  O   UNL     1      21.985 -11.695   4.775  1.00  0.00    -0.237 OA
ATOM     92  O   UNL     1      22.876  -9.409   4.459  1.00  0.00    -0.237 OA
ATOM     93  O   UNL     1      24.299 -11.167   5.437  1.00  0.00    -0.744 OA
ENDBRANCH  86  90
ENDBRANCH  60  83
ENDBRANCH  34  35
ENDBRANCH  26  29
ENDBRANCH  24  25
ENDBRANCH   1  24
TORSDOF 16
