REMARK SMILES CC(C)c1cc(N2CCC(C(=O)NCCCNC(=O)c3ccc(-c4c5nc(c(-c6cc(S(=O)(=O)[O-])ccc6F)c6ccc([nH]6)c(-c6cc(S(=O)(=O)[O-])ccc6F)c6nc(c(-c7cc(S(=O)(=O)[O-])ccc7F)c7ccc4[nH]7)C=C6)C=C5)cc3)CC2)nc(-c2ccc(F)cc2)n1
REMARK SMILES IDX 15 1 14 2 13 3 11 4 12 5 10 7 7 8 8 9 84 10 9 11 83 12 6 13
REMARK SMILES IDX 4 14 5 15 94 16 86 17 85 18 2 19 1 20 3 21 87 22 88 23 93 24
REMARK SMILES IDX 89 25 92 26 90 27 91 28 16 29 17 30 18 31 19 33 20 34 21 35
REMARK SMILES IDX 82 36 22 37 81 38 23 39 24 40 25 41 75 42 26 43 80 44 74 45
REMARK SMILES IDX 76 46 27 47 79 48 73 49 72 50 28 52 60 53 40 54 59 55 41 56
REMARK SMILES IDX 44 57 58 58 77 59 42 60 43 61 57 63 78 64 45 65 29 66 30 67
REMARK SMILES IDX 38 68 31 69 37 70 39 71 36 72 32 73 33 74 34 75 35 76 61 77
REMARK SMILES IDX 62 78 70 79 63 80 69 81 71 82 68 83 64 84 65 85 66 86 67 87
REMARK SMILES IDX 46 88 47 89 55 90 48 91 54 92 56 93 53 94 49 95 50 96 51 97
REMARK SMILES IDX 52 98
REMARK H PARENT 13 6 17 32 76 51 44 62
REMARK Flexibility Score: inf
ROOT
ATOM      1  C   UNL     1      -8.310   0.335   0.598  1.00  0.00     0.042 C 
ENDROOT
BRANCH   1   2
ATOM      2  C   UNL     1      -7.612  -0.791   1.354  1.00  0.00     0.117 C 
BRANCH   2   3
ATOM      3  N   UNL     1      -8.032  -2.119   0.918  1.00  0.00    -0.356 N 
ATOM      4  C   UNL     1      -7.333  -3.131   0.330  1.00  0.00     0.223 C 
ATOM      5  O   UNL     1      -7.927  -4.188   0.101  1.00  0.00    -0.275 OA
ATOM      6  H   UNL     1      -8.983  -2.318   1.076  1.00  0.00     0.163 HD
BRANCH   4   7
ATOM      7  C   UNL     1      -5.862  -2.984  -0.032  1.00  0.00     0.082 C 
ATOM      8  N   UNL     1      -3.807  -1.076   0.128  1.00  0.00    -0.356 N 
ATOM      9  C   UNL     1      -4.282  -1.364  -1.214  1.00  0.00     0.119 C 
ATOM     10  C   UNL     1      -3.635  -2.212   1.008  1.00  0.00     0.119 C 
ATOM     11  C   UNL     1      -5.693  -1.908  -1.117  1.00  0.00     0.035 C 
ATOM     12  C   UNL     1      -4.998  -2.855   1.240  1.00  0.00     0.035 C 
BRANCH   8  13
ATOM     13  C   UNL     1      -3.042   0.063   0.250  1.00  0.00     0.132 A 
ATOM     14  C   UNL     1      -0.965   1.200   0.261  1.00  0.00     0.049 A 
ATOM     15  C   UNL     1      -1.662   0.005   0.271  1.00  0.00     0.071 A 
ATOM     16  N   UNL     1      -1.615   2.381   0.290  1.00  0.00    -0.233 NA
ATOM     17  C   UNL     1      -2.960   2.347   0.299  1.00  0.00     0.161 A 
ATOM     18  N   UNL     1      -3.701   1.230   0.271  1.00  0.00    -0.211 NA
BRANCH  14  19
ATOM     19  C   UNL     1       0.554   1.275   0.252  1.00  0.00     0.032 C 
ATOM     20  C   UNL     1       1.270  -0.052  -0.028  1.00  0.00     0.014 C 
ATOM     21  C   UNL     1       1.041   2.321  -0.761  1.00  0.00     0.014 C 
ENDBRANCH  14  19
BRANCH  17  22
ATOM     22  C   UNL     1      -3.666   3.630   0.367  1.00  0.00     0.019 A 
ATOM     23  C   UNL     1      -3.421   4.646  -0.577  1.00  0.00     0.015 A 
ATOM     24  C   UNL     1      -4.600   3.883   1.390  1.00  0.00     0.015 A 
ATOM     25  C   UNL     1      -4.088   5.872  -0.501  1.00  0.00     0.040 A 
ATOM     26  C   UNL     1      -5.253   5.115   1.476  1.00  0.00     0.040 A 
ATOM     27  C   UNL     1      -4.991   6.097   0.529  1.00  0.00     0.123 A 
ATOM     28  F   UNL     1      -5.618   7.277   0.616  1.00  0.00    -0.207 F 
ENDBRANCH  17  22
ENDBRANCH   8  13
ENDBRANCH   4   7
ENDBRANCH   2   3
ENDBRANCH   1   2
BRANCH   1  29
ATOM     29  C   UNL     1      -9.820   0.378   0.789  1.00  0.00     0.118 C 
BRANCH  29  30
ATOM     30  N   UNL     1     -10.208   0.656   2.166  1.00  0.00    -0.352 N 
ATOM     31  C   UNL     1     -10.801   1.769   2.713  1.00  0.00     0.251 C 
ATOM     32  H   UNL     1     -10.014  -0.067   2.805  1.00  0.00     0.163 HD
ATOM     33  O   UNL     1     -10.861   1.878   3.936  1.00  0.00    -0.269 OA
BRANCH  31  34
ATOM     34  C   UNL     1     -11.333   2.841   1.843  1.00  0.00     0.039 A 
ATOM     35  C   UNL     1     -11.067   4.173   2.171  1.00  0.00     0.014 A 
ATOM     36  C   UNL     1     -12.085   2.539   0.705  1.00  0.00     0.014 A 
ATOM     37  C   UNL     1     -11.463   5.194   1.302  1.00  0.00     0.010 A 
ATOM     38  C   UNL     1     -12.409   3.549  -0.198  1.00  0.00     0.010 A 
ATOM     39  C   UNL     1     -12.084   4.885   0.081  1.00  0.00    -0.014 A 
BRANCH  39  40
ATOM     40  C   UNL     1     -12.355   5.930  -0.942  1.00  0.00     0.031 A 
ATOM     41  C   UNL     1     -13.765   6.223  -1.373  1.00  0.00     0.074 A 
ATOM     42  C   UNL     1     -11.319   6.548  -1.545  1.00  0.00     0.049 A 
ATOM     43  N   UNL     1     -14.192   6.997  -2.338  1.00  0.00    -0.248 NA
ATOM     44  C   UNL     1     -14.835   5.532  -0.638  1.00  0.00     0.031 C 
ATOM     45  C   UNL     1      -9.905   6.330  -1.229  1.00  0.00     0.029 A 
ATOM     46  N   UNL     1     -11.290   7.470  -2.562  1.00  0.00    -0.354 N 
ATOM     47  C   UNL     1     -15.578   6.881  -2.334  1.00  0.00     0.074 A 
ATOM     48  C   UNL     1     -15.913   5.920  -1.304  1.00  0.00     0.031 C 
ATOM     49  C   UNL     1      -9.151   7.107  -2.021  1.00  0.00     0.029 A 
ATOM     50  C   UNL     1     -10.018   7.829  -2.946  1.00  0.00     0.049 A 
ATOM     51  H   UNL     1     -12.102   7.840  -2.977  1.00  0.00     0.167 HD
ATOM     52  C   UNL     1     -16.484   7.531  -3.106  1.00  0.00     0.034 A 
ATOM     53  C   UNL     1      -9.593   8.623  -3.950  1.00  0.00     0.034 A 
ATOM     54  C   UNL     1     -16.128   8.488  -4.127  1.00  0.00     0.049 A 
ATOM     55  C   UNL     1     -10.618   9.277  -4.843  1.00  0.00     0.074 A 
ATOM     56  C   UNL     1     -16.967   9.249  -4.922  1.00  0.00     0.029 A 
ATOM     57  N   UNL     1     -14.830   8.803  -4.507  1.00  0.00    -0.354 N 
ATOM     58  N   UNL     1     -11.928   9.198  -4.792  1.00  0.00    -0.248 NA
ATOM     59  C   UNL     1     -10.109  10.123  -5.930  1.00  0.00     0.031 C 
ATOM     60  C   UNL     1     -16.181   9.959  -5.836  1.00  0.00     0.029 A 
ATOM     61  C   UNL     1     -14.847   9.707  -5.559  1.00  0.00     0.049 A 
ATOM     62  H   UNL     1     -14.016   8.438  -4.091  1.00  0.00     0.167 HD
ATOM     63  C   UNL     1     -12.397  10.002  -5.827  1.00  0.00     0.074 A 
ATOM     64  C   UNL     1     -11.232  10.571  -6.472  1.00  0.00     0.031 C 
ATOM     65  C   UNL     1     -13.676  10.250  -6.208  1.00  0.00     0.034 A 
BRANCH  52  66
ATOM     66  C   UNL     1     -17.943   7.202  -2.898  1.00  0.00     0.023 A 
ATOM     67  C   UNL     1     -18.593   7.462  -1.679  1.00  0.00     0.031 A 
ATOM     68  C   UNL     1     -18.694   6.611  -3.930  1.00  0.00     0.131 A 
ATOM     69  C   UNL     1     -19.927   7.067  -1.498  1.00  0.00     0.055 A 
ATOM     70  C   UNL     1     -20.045   6.295  -3.770  1.00  0.00     0.041 A 
ATOM     71  F   UNL     1     -18.124   6.320  -5.110  1.00  0.00    -0.206 F 
ATOM     72  C   UNL     1     -20.666   6.509  -2.543  1.00  0.00     0.022 A 
BRANCH  69  73
ATOM     73  S   UNL     1     -20.640   7.163   0.167  1.00  0.00     0.124 S 
ATOM     74  O   UNL     1     -19.719   6.327   0.932  1.00  0.00    -0.237 OA
ATOM     75  O   UNL     1     -20.590   8.593   0.450  1.00  0.00    -0.237 OA
ATOM     76  O   UNL     1     -21.981   6.606  -0.001  1.00  0.00    -0.744 OA
ENDBRANCH  69  73
ENDBRANCH  52  66
BRANCH  53  77
ATOM     77  C   UNL     1      -8.134   8.816  -4.196  1.00  0.00     0.023 A 
ATOM     78  C   UNL     1      -7.542  10.083  -4.082  1.00  0.00     0.031 A 
ATOM     79  C   UNL     1      -7.318   7.741  -4.595  1.00  0.00     0.131 A 
ATOM     80  C   UNL     1      -6.187  10.254  -4.407  1.00  0.00     0.055 A 
ATOM     81  C   UNL     1      -5.957   7.904  -4.858  1.00  0.00     0.041 A 
ATOM     82  F   UNL     1      -7.833   6.508  -4.726  1.00  0.00    -0.206 F 
ATOM     83  C   UNL     1      -5.387   9.170  -4.777  1.00  0.00     0.022 A 
BRANCH  80  84
ATOM     84  S   UNL     1      -5.506  11.935  -4.436  1.00  0.00     0.124 S 
ATOM     85  O   UNL     1      -6.373  12.589  -5.409  1.00  0.00    -0.237 OA
ATOM     86  O   UNL     1      -5.669  12.353  -3.047  1.00  0.00    -0.237 OA
ATOM     87  O   UNL     1      -4.124  11.734  -4.866  1.00  0.00    -0.744 OA
ENDBRANCH  80  84
ENDBRANCH  53  77
BRANCH  65  88
ATOM     88  C   UNL     1     -13.879  11.199  -7.364  1.00  0.00     0.023 A 
ATOM     89  C   UNL     1     -13.489  10.860  -8.672  1.00  0.00     0.031 A 
ATOM     90  C   UNL     1     -14.478  12.454  -7.156  1.00  0.00     0.131 A 
ATOM     91  C   UNL     1     -13.666  11.782  -9.714  1.00  0.00     0.055 A 
ATOM     92  C   UNL     1     -14.705  13.343  -8.207  1.00  0.00     0.041 A 
ATOM     93  F   UNL     1     -14.865  12.831  -5.927  1.00  0.00    -0.206 F 
ATOM     94  C   UNL     1     -14.289  13.014  -9.494  1.00  0.00     0.022 A 
BRANCH  91  95
ATOM     95  S   UNL     1     -13.006  11.381 -11.356  1.00  0.00     0.124 S 
ATOM     96  O   UNL     1     -11.579  11.249 -11.084  1.00  0.00    -0.237 OA
ATOM     97  O   UNL     1     -13.710  10.146 -11.684  1.00  0.00    -0.237 OA
ATOM     98  O   UNL     1     -13.379  12.538 -12.168  1.00  0.00    -0.744 OA
ENDBRANCH  91  95
ENDBRANCH  65  88
ENDBRANCH  39  40
ENDBRANCH  31  34
ENDBRANCH  29  30
ENDBRANCH   1  29
TORSDOF 16
