REMARK SMILES N#Cc1ccn2cc(C(=O)NCCCNC(=O)c3ccc(-c4c5nc(c(-c6cc(S(=O)(=O)[O-])ccc6F)c6ccc([nH]6)c(-c6cc(S(=O)(=O)[O-])ccc6F)c6nc(c(-c7cc(S(=O)(=O)[O-])ccc7F)c7ccc4[nH]7)C=C6)C=C5)cc3)nc2c1
REMARK SMILES IDX 14 1 13 2 12 3 11 4 9 5 10 6 8 8 3 9 4 10 83 11 5 12 82 13
REMARK SMILES IDX 6 14 81 15 7 16 2 17 1 18 15 19 16 20 17 22 18 23 19 24
REMARK SMILES IDX 80 25 20 26 79 27 21 28 22 29 23 30 73 31 24 32 78 33 72 34
REMARK SMILES IDX 74 35 25 36 77 37 71 38 70 39 26 41 58 42 38 43 57 44 39 45
REMARK SMILES IDX 42 46 56 47 75 48 40 49 41 50 55 52 76 53 43 54 27 55 28 56
REMARK SMILES IDX 36 57 29 58 35 59 37 60 34 61 30 62 31 63 32 64 33 65 59 66
REMARK SMILES IDX 60 67 68 68 61 69 67 70 69 71 66 72 62 73 63 74 64 75 65 76
REMARK SMILES IDX 44 77 45 78 53 79 46 80 52 81 54 82 51 83 47 84 48 85 49 86
REMARK SMILES IDX 50 87
REMARK H PARENT 11 7 15 21 74 40 42 51
REMARK Flexibility Score: inf
ROOT
ATOM      1  C   UNL     1       9.446   6.298   1.424  1.00  0.00     0.118 C 
ENDROOT
BRANCH   1   2
ATOM      2  C   UNL     1       8.147   5.525   1.187  1.00  0.00     0.042 C 
BRANCH   2   3
ATOM      3  C   UNL     1       8.165   4.668  -0.080  1.00  0.00     0.118 C 
BRANCH   3   4
ATOM      4  N   UNL     1       9.218   3.664  -0.049  1.00  0.00    -0.351 N 
ATOM      5  C   UNL     1       9.185   2.291   0.023  1.00  0.00     0.271 C 
ATOM      6  O   UNL     1      10.258   1.698   0.025  1.00  0.00    -0.267 OA
ATOM      7  H   UNL     1      10.128   4.039  -0.086  1.00  0.00     0.163 HD
BRANCH   5   8
ATOM      8  C   UNL     1       7.912   1.564   0.073  1.00  0.00     0.147 A 
ATOM      9  C   UNL     1       3.727  -0.054   0.065  1.00  0.00     0.057 A 
ATOM     10  C   UNL     1       4.444  -1.328   0.054  1.00  0.00     0.038 A 
ATOM     11  C   UNL     1       4.382   1.124   0.092  1.00  0.00     0.067 A 
ATOM     12  C   UNL     1       5.789  -1.315   0.061  1.00  0.00     0.094 A 
ATOM     13  C   UNL     1       5.802   1.134   0.098  1.00  0.00     0.138 A 
ATOM     14  N   UNL     1       6.454  -0.091   0.079  1.00  0.00    -0.306 N 
ATOM     15  N   UNL     1       6.654   2.130   0.110  1.00  0.00    -0.223 NA
ATOM     16  C   UNL     1       7.795   0.181   0.072  1.00  0.00     0.127 A 
BRANCH   9  17
ATOM     17  C   UNL     1       2.207  -0.054   0.065  1.00  0.00     0.099 C 
ATOM     18  N   UNL     1       0.947  -0.054   0.065  1.00  0.00    -0.192 NA
ENDBRANCH   9  17
ENDBRANCH   5   8
ENDBRANCH   3   4
ENDBRANCH   2   3
ENDBRANCH   1   2
BRANCH   1  19
ATOM     19  N   UNL     1       9.841   7.157   0.325  1.00  0.00    -0.352 N 
ATOM     20  C   UNL     1       9.575   8.447  -0.041  1.00  0.00     0.251 C 
ATOM     21  H   UNL     1      10.443   6.704  -0.308  1.00  0.00     0.163 HD
ATOM     22  O   UNL     1      10.231   8.874  -0.995  1.00  0.00    -0.269 OA
BRANCH  20  23
ATOM     23  C   UNL     1       8.524   9.312   0.560  1.00  0.00     0.039 A 
ATOM     24  C   UNL     1       7.737   8.985   1.665  1.00  0.00     0.014 A 
ATOM     25  C   UNL     1       8.259  10.516  -0.122  1.00  0.00     0.014 A 
ATOM     26  C   UNL     1       6.626   9.757   1.989  1.00  0.00     0.010 A 
ATOM     27  C   UNL     1       7.166  11.304   0.211  1.00  0.00     0.010 A 
ATOM     28  C   UNL     1       6.310  10.878   1.221  1.00  0.00    -0.014 A 
BRANCH  28  29
ATOM     29  C   UNL     1       5.054  11.562   1.501  1.00  0.00     0.031 A 
ATOM     30  C   UNL     1       4.958  12.251   2.821  1.00  0.00     0.074 A 
ATOM     31  C   UNL     1       4.071  11.635   0.581  1.00  0.00     0.049 A 
ATOM     32  N   UNL     1       4.124  12.034   3.787  1.00  0.00    -0.248 NA
ATOM     33  C   UNL     1       5.994  13.241   3.143  1.00  0.00     0.031 C 
ATOM     34  C   UNL     1       4.131  11.289  -0.843  1.00  0.00     0.029 A 
ATOM     35  N   UNL     1       2.824  12.157   0.712  1.00  0.00    -0.354 N 
ATOM     36  C   UNL     1       4.428  12.961   4.790  1.00  0.00     0.074 A 
ATOM     37  C   UNL     1       5.657  13.596   4.384  1.00  0.00     0.031 C 
ATOM     38  C   UNL     1       3.080  11.854  -1.480  1.00  0.00     0.029 A 
ATOM     39  C   UNL     1       2.207  12.464  -0.491  1.00  0.00     0.049 A 
ATOM     40  H   UNL     1       2.395  12.305   1.586  1.00  0.00     0.167 HD
ATOM     41  C   UNL     1       3.572  13.236   5.819  1.00  0.00     0.034 A 
ATOM     42  C   UNL     1       1.129  13.272  -0.658  1.00  0.00     0.034 A 
ATOM     43  C   UNL     1       2.533  12.250   5.909  1.00  0.00     0.049 A 
ATOM     44  C   UNL     1       0.441  13.390   0.653  1.00  0.00     0.074 A 
ATOM     45  C   UNL     1       2.495  10.907   6.221  1.00  0.00     0.029 A 
ATOM     46  N   UNL     1       1.319  12.538   5.334  1.00  0.00    -0.354 N 
ATOM     47  N   UNL     1      -0.198  12.412   1.234  1.00  0.00    -0.248 NA
ATOM     48  C   UNL     1       0.858  14.475   1.531  1.00  0.00     0.031 C 
ATOM     49  C   UNL     1       1.483  10.367   5.381  1.00  0.00     0.029 A 
ATOM     50  C   UNL     1       0.927  11.418   4.648  1.00  0.00     0.049 A 
ATOM     51  H   UNL     1       0.825  13.387   5.401  1.00  0.00     0.167 HD
ATOM     52  C   UNL     1       0.133  12.531   2.576  1.00  0.00     0.074 A 
ATOM     53  C   UNL     1       0.709  13.869   2.711  1.00  0.00     0.031 C 
ATOM     54  C   UNL     1       0.187  11.445   3.403  1.00  0.00     0.034 A 
BRANCH  41  55
ATOM     55  C   UNL     1       3.506  14.534   6.592  1.00  0.00     0.023 A 
ATOM     56  C   UNL     1       4.176  15.703   6.191  1.00  0.00     0.031 A 
ATOM     57  C   UNL     1       2.572  14.692   7.642  1.00  0.00     0.131 A 
ATOM     58  C   UNL     1       3.916  16.942   6.796  1.00  0.00     0.055 A 
ATOM     59  C   UNL     1       2.268  15.938   8.204  1.00  0.00     0.041 A 
ATOM     60  F   UNL     1       1.880  13.646   8.120  1.00  0.00    -0.206 F 
ATOM     61  C   UNL     1       2.939  17.075   7.777  1.00  0.00     0.022 A 
BRANCH  58  62
ATOM     62  S   UNL     1       4.842  18.420   6.300  1.00  0.00     0.124 S 
ATOM     63  O   UNL     1       3.788  19.265   5.751  1.00  0.00    -0.237 OA
ATOM     64  O   UNL     1       5.406  18.860   7.574  1.00  0.00    -0.237 OA
ATOM     65  O   UNL     1       5.814  17.907   5.340  1.00  0.00    -0.744 OA
ENDBRANCH  58  62
ENDBRANCH  41  55
BRANCH  42  66
ATOM     66  C   UNL     1       1.034  14.339  -1.686  1.00  0.00     0.023 A 
ATOM     67  C   UNL     1       2.209  14.910  -2.212  1.00  0.00     0.031 A 
ATOM     68  C   UNL     1      -0.172  15.017  -1.927  1.00  0.00     0.131 A 
ATOM     69  C   UNL     1       2.171  16.130  -2.896  1.00  0.00     0.055 A 
ATOM     70  C   UNL     1      -0.212  16.230  -2.628  1.00  0.00     0.041 A 
ATOM     71  F   UNL     1      -1.326  14.552  -1.423  1.00  0.00    -0.206 F 
ATOM     72  C   UNL     1       0.966  16.799  -3.105  1.00  0.00     0.022 A 
BRANCH  69  73
ATOM     73  S   UNL     1       3.716  16.906  -3.446  1.00  0.00     0.124 S 
ATOM     74  O   UNL     1       3.373  17.365  -4.790  1.00  0.00    -0.237 OA
ATOM     75  O   UNL     1       3.892  17.953  -2.447  1.00  0.00    -0.237 OA
ATOM     76  O   UNL     1       4.682  15.812  -3.398  1.00  0.00    -0.744 OA
ENDBRANCH  69  73
ENDBRANCH  42  66
BRANCH  54  77
ATOM     77  C   UNL     1      -0.298  10.101   2.902  1.00  0.00     0.023 A 
ATOM     78  C   UNL     1      -1.118   9.353   3.765  1.00  0.00     0.031 A 
ATOM     79  C   UNL     1       0.228   9.441   1.775  1.00  0.00     0.131 A 
ATOM     80  C   UNL     1      -1.337   7.991   3.529  1.00  0.00     0.055 A 
ATOM     81  C   UNL     1      -0.057   8.100   1.501  1.00  0.00     0.041 A 
ATOM     82  F   UNL     1       1.109  10.035   0.962  1.00  0.00    -0.206 F 
ATOM     83  C   UNL     1      -0.826   7.361   2.392  1.00  0.00     0.022 A 
BRANCH  80  84
ATOM     84  S   UNL     1      -2.133   6.964   4.791  1.00  0.00     0.124 S 
ATOM     85  O   UNL     1      -3.355   6.538   4.116  1.00  0.00    -0.237 OA
ATOM     86  O   UNL     1      -1.138   5.916   5.009  1.00  0.00    -0.237 OA
ATOM     87  O   UNL     1      -2.325   7.873   5.918  1.00  0.00    -0.744 OA
ENDBRANCH  80  84
ENDBRANCH  54  77
ENDBRANCH  28  29
ENDBRANCH  20  23
ENDBRANCH   1  19
TORSDOF 14
