REMARK SMILES CC[C@@H]1C=CCN1S(=O)(=O)c1sc2c(c1C(=O)NCCCNC(=O)c1ccc(-c3c4nc(c(-c5cc(S(=O)(=O)[O-])ccc5F)c5ccc([nH]5)c(-c5cc(S(=O)(=O)[O-])ccc5F)c5nc(c(-c6cc(S(=O)(=O)[O-])ccc6F)c6ccc3[nH]6)C=C5)C=C4)cc1)CC[NH2+]C2
REMARK SMILES IDX 20 1 19 2 18 3 16 4 17 5 15 7 11 8 12 9 13 10 14 11 91 12
REMARK SMILES IDX 88 13 90 14 89 15 8 18 9 19 10 20 7 21 3 22 4 23 5 24 6 25
REMARK SMILES IDX 2 26 1 27 21 28 22 29 23 30 24 32 25 33 26 34 87 35 27 36
REMARK SMILES IDX 86 37 28 38 29 39 30 40 80 41 31 42 85 43 79 44 81 45 32 46
REMARK SMILES IDX 84 47 78 48 77 49 33 51 65 52 45 53 64 54 46 55 49 56 63 57
REMARK SMILES IDX 82 58 47 59 48 60 62 62 83 63 50 64 34 65 35 66 43 67 36 68
REMARK SMILES IDX 42 69 44 70 41 71 37 72 38 73 39 74 40 75 66 76 67 77 75 78
REMARK SMILES IDX 68 79 74 80 76 81 73 82 69 83 70 84 71 85 72 86 51 87 52 88
REMARK SMILES IDX 60 89 53 90 59 91 61 92 58 93 54 94 55 95 56 96 57 97
REMARK H PARENT 18 6 90 16 90 17 22 31 81 50 49 61
REMARK Flexibility Score: inf
ROOT
ATOM      1  C   UNL     1       2.998   3.780   0.646  1.00  0.00     0.042 C 
ENDROOT
BRANCH   1   2
ATOM      2  C   UNL     1       2.335   4.780   1.592  1.00  0.00     0.118 C 
BRANCH   2   3
ATOM      3  N   UNL     1       2.585   6.109   1.138  1.00  0.00    -0.352 N 
ATOM      4  C   UNL     1       2.025   6.944   0.233  1.00  0.00     0.253 C 
ATOM      5  O   UNL     1       2.676   7.997   0.182  1.00  0.00    -0.269 OA
ATOM      6  H   UNL     1       3.354   6.519   1.596  1.00  0.00     0.163 HD
BRANCH   4   7
ATOM      7  C   UNL     1       0.819   6.783  -0.632  1.00  0.00     0.074 A 
ATOM      8  C   UNL     1      -0.036   5.718  -1.029  1.00  0.00     0.148 A 
ATOM      9  S   UNL     1      -1.202   6.279  -2.212  1.00  0.00    -0.120 S 
ATOM     10  C   UNL     1      -0.643   7.843  -2.227  1.00  0.00     0.064 A 
ATOM     11  C   UNL     1       0.364   8.039  -1.317  1.00  0.00    -0.009 A 
ATOM     12  C   UNL     1      -1.250   8.886  -3.116  1.00  0.00     0.308 C 
ATOM     13  C   UNL     1       0.924   9.446  -1.169  1.00  0.00     0.099 C 
ATOM     14  N   UNL     1      -0.389  10.075  -3.217  1.00  0.00    -0.342 N 
ATOM     15  C   UNL     1       0.036  10.499  -1.869  1.00  0.00     0.265 C 
ATOM     16  H   UNL     1       0.434   9.852  -3.777  1.00  0.00     0.346 HD
ATOM     17  H   UNL     1      -0.910  10.832  -3.660  1.00  0.00     0.346 HD
BRANCH   8  18
ATOM     18  S   UNL     1      -0.374   3.915  -0.820  1.00  0.00     0.254 S 
ATOM     19  O   UNL     1      -1.790   3.724  -1.036  1.00  0.00    -0.206 OA
ATOM     20  O   UNL     1       0.156   3.509   0.463  1.00  0.00    -0.206 OA
BRANCH  18  21
ATOM     21  N   UNL     1       0.459   3.068  -2.054  1.00  0.00    -0.186 NA
ATOM     22  C   UNL     1       0.724   1.608  -1.803  1.00  0.00     0.096 C 
ATOM     23  C   UNL     1       0.050   0.924  -2.949  1.00  0.00    -0.010 C 
ATOM     24  C   UNL     1      -0.419   1.797  -3.838  1.00  0.00    -0.013 C 
ATOM     25  C   UNL     1      -0.170   3.197  -3.407  1.00  0.00     0.130 C 
BRANCH  22  26
ATOM     26  C   UNL     1       2.230   1.273  -1.819  1.00  0.00     0.021 C 
ATOM     27  C   UNL     1       3.096   2.143  -2.726  1.00  0.00     0.006 C 
ENDBRANCH  22  26
ENDBRANCH  18  21
ENDBRANCH   8  18
ENDBRANCH   4   7
ENDBRANCH   2   3
ENDBRANCH   1   2
BRANCH   1  28
ATOM     28  C   UNL     1       4.156   3.059   1.302  1.00  0.00     0.118 C 
BRANCH  28  29
ATOM     29  N   UNL     1       3.687   2.156   2.355  1.00  0.00    -0.352 N 
ATOM     30  C   UNL     1       4.434   1.436   3.263  1.00  0.00     0.251 C 
ATOM     31  H   UNL     1       2.711   2.049   2.423  1.00  0.00     0.163 HD
ATOM     32  O   UNL     1       3.945   0.479   3.852  1.00  0.00    -0.269 OA
BRANCH  30  33
ATOM     33  C   UNL     1       5.838   1.826   3.476  1.00  0.00     0.039 A 
ATOM     34  C   UNL     1       6.847   0.865   3.508  1.00  0.00     0.014 A 
ATOM     35  C   UNL     1       6.143   3.184   3.535  1.00  0.00     0.014 A 
ATOM     36  C   UNL     1       8.173   1.290   3.470  1.00  0.00     0.010 A 
ATOM     37  C   UNL     1       7.440   3.595   3.337  1.00  0.00     0.010 A 
ATOM     38  C   UNL     1       8.469   2.659   3.329  1.00  0.00    -0.014 A 
BRANCH  38  39
ATOM     39  C   UNL     1       9.831   3.090   3.002  1.00  0.00     0.031 A 
ATOM     40  C   UNL     1      10.471   2.314   1.903  1.00  0.00     0.074 A 
ATOM     41  C   UNL     1      10.425   4.208   3.475  1.00  0.00     0.049 A 
ATOM     42  N   UNL     1      11.438   1.464   2.005  1.00  0.00    -0.248 NA
ATOM     43  C   UNL     1       9.864   2.355   0.562  1.00  0.00     0.031 C 
ATOM     44  C   UNL     1       9.854   5.248   4.336  1.00  0.00     0.029 A 
ATOM     45  N   UNL     1      11.663   4.709   3.191  1.00  0.00    -0.354 N 
ATOM     46  C   UNL     1      11.737   1.061   0.708  1.00  0.00     0.074 A 
ATOM     47  C   UNL     1      10.612   1.464  -0.092  1.00  0.00     0.031 C 
ATOM     48  C   UNL     1      10.640   6.346   4.310  1.00  0.00     0.029 A 
ATOM     49  C   UNL     1      11.857   6.032   3.583  1.00  0.00     0.049 A 
ATOM     50  H   UNL     1      12.362   4.178   2.746  1.00  0.00     0.167 HD
ATOM     51  C   UNL     1      12.996   0.657   0.375  1.00  0.00     0.034 A 
ATOM     52  C   UNL     1      12.935   6.824   3.334  1.00  0.00     0.034 A 
ATOM     53  C   UNL     1      13.768   0.349   1.564  1.00  0.00     0.049 A 
ATOM     54  C   UNL     1      14.077   5.916   3.075  1.00  0.00     0.074 A 
ATOM     55  C   UNL     1      13.584  -0.498   2.642  1.00  0.00     0.029 A 
ATOM     56  N   UNL     1      14.722   1.254   1.976  1.00  0.00    -0.354 N 
ATOM     57  N   UNL     1      14.583   5.129   3.983  1.00  0.00    -0.248 NA
ATOM     58  C   UNL     1      14.343   5.526   1.699  1.00  0.00     0.031 C 
ATOM     59  C   UNL     1      14.012   0.256   3.776  1.00  0.00     0.029 A 
ATOM     60  C   UNL     1      14.528   1.470   3.319  1.00  0.00     0.049 A 
ATOM     61  H   UNL     1      15.415   1.669   1.413  1.00  0.00     0.167 HD
ATOM     62  C   UNL     1      14.825   3.935   3.324  1.00  0.00     0.074 A 
ATOM     63  C   UNL     1      14.760   4.272   1.902  1.00  0.00     0.031 C 
ATOM     64  C   UNL     1      14.773   2.739   3.982  1.00  0.00     0.034 A 
BRANCH  51  65
ATOM     65  C   UNL     1      13.659   0.903  -0.967  1.00  0.00     0.023 A 
ATOM     66  C   UNL     1      14.992   0.469  -1.111  1.00  0.00     0.031 A 
ATOM     67  C   UNL     1      13.191   1.772  -1.979  1.00  0.00     0.131 A 
ATOM     68  C   UNL     1      15.820   0.989  -2.121  1.00  0.00     0.055 A 
ATOM     69  C   UNL     1      14.000   2.231  -3.024  1.00  0.00     0.041 A 
ATOM     70  F   UNL     1      11.963   2.300  -1.977  1.00  0.00    -0.206 F 
ATOM     71  C   UNL     1      15.334   1.872  -3.079  1.00  0.00     0.022 A 
BRANCH  68  72
ATOM     72  S   UNL     1      17.595   0.641  -2.033  1.00  0.00     0.124 S 
ATOM     73  O   UNL     1      17.912   1.103  -0.685  1.00  0.00    -0.237 OA
ATOM     74  O   UNL     1      17.627  -0.802  -2.244  1.00  0.00    -0.237 OA
ATOM     75  O   UNL     1      18.151   1.444  -3.118  1.00  0.00    -0.744 OA
ENDBRANCH  68  72
ENDBRANCH  51  65
BRANCH  52  76
ATOM     76  C   UNL     1      12.972   8.286   3.058  1.00  0.00     0.023 A 
ATOM     77  C   UNL     1      14.161   9.046   3.128  1.00  0.00     0.031 A 
ATOM     78  C   UNL     1      11.858   8.911   2.454  1.00  0.00     0.131 A 
ATOM     79  C   UNL     1      14.204  10.357   2.596  1.00  0.00     0.055 A 
ATOM     80  C   UNL     1      11.906  10.206   1.931  1.00  0.00     0.041 A 
ATOM     81  F   UNL     1      10.705   8.248   2.267  1.00  0.00    -0.206 F 
ATOM     82  C   UNL     1      13.086  10.930   1.988  1.00  0.00     0.022 A 
BRANCH  79  83
ATOM     83  S   UNL     1      15.763  11.305   2.585  1.00  0.00     0.124 S 
ATOM     84  O   UNL     1      15.913  11.670   3.988  1.00  0.00    -0.237 OA
ATOM     85  O   UNL     1      16.718  10.338   2.058  1.00  0.00    -0.237 OA
ATOM     86  O   UNL     1      15.473  12.424   1.687  1.00  0.00    -0.744 OA
ENDBRANCH  79  83
ENDBRANCH  52  76
BRANCH  64  87
ATOM     87  C   UNL     1      14.766   2.741   5.501  1.00  0.00     0.023 A 
ATOM     88  C   UNL     1      13.846   3.442   6.316  1.00  0.00     0.031 A 
ATOM     89  C   UNL     1      15.692   1.901   6.147  1.00  0.00     0.131 A 
ATOM     90  C   UNL     1      13.891   3.297   7.719  1.00  0.00     0.055 A 
ATOM     91  C   UNL     1      15.717   1.742   7.531  1.00  0.00     0.041 A 
ATOM     92  F   UNL     1      16.581   1.190   5.433  1.00  0.00    -0.206 F 
ATOM     93  C   UNL     1      14.821   2.446   8.324  1.00  0.00     0.022 A 
BRANCH  90  94
ATOM     94  S   UNL     1      12.759   4.239   8.795  1.00  0.00     0.124 S 
ATOM     95  O   UNL     1      12.804   5.589   8.246  1.00  0.00    -0.237 OA
ATOM     96  O   UNL     1      11.496   3.524   8.628  1.00  0.00    -0.237 OA
ATOM     97  O   UNL     1      13.361   4.102  10.123  1.00  0.00    -0.744 OA
ENDBRANCH  90  94
ENDBRANCH  64  87
ENDBRANCH  38  39
ENDBRANCH  30  33
ENDBRANCH  28  29
ENDBRANCH   1  28
TORSDOF 16
