REMARK SMILES COc1c(Cl)cc(C(=O)NCCCNC(=O)c2ccc(-c3c4nc(c(-c5cc(S(=O)(=O)[O-])ccc5F)c5ccc([nH]5)c(-c5cc(S(=O)(=O)[O-])ccc5F)c5nc(c(-c6cc(S(=O)(=O)[O-])ccc6F)c6ccc3[nH]6)C=C5)C=C4)cc2)cc1NC(=S)NC(=O)c1cccc(C)c1OC
REMARK SMILES IDX 11 1 10 2 8 3 9 4 7 6 3 7 4 8 81 9 5 10 6 11 80 12 2 13 1 14
REMARK SMILES IDX 82 15 83 17 84 18 85 19 86 20 87 22 88 23 89 24 94 25 90 26
REMARK SMILES IDX 92 27 91 28 93 29 95 30 96 31 12 32 13 33 14 34 15 35 16 37
REMARK SMILES IDX 17 38 18 39 79 40 19 41 78 42 20 43 21 44 22 45 72 46 23 47
REMARK SMILES IDX 77 48 71 49 73 50 24 51 76 52 70 53 69 54 25 56 57 57 37 58
REMARK SMILES IDX 56 59 38 60 41 61 55 62 74 63 39 64 40 65 54 67 75 68 42 69
REMARK SMILES IDX 26 70 27 71 35 72 28 73 34 74 36 75 33 76 29 77 30 78 31 79
REMARK SMILES IDX 32 80 58 81 59 82 67 83 60 84 66 85 68 86 65 87 61 88 62 89
REMARK SMILES IDX 63 90 64 91 43 92 44 93 52 94 45 95 51 96 53 97 50 98 46 99
REMARK SMILES IDX 47 100 48 101 49 102
REMARK H PARENT 10 5 82 16 85 21 14 36 73 55 41 66
REMARK Flexibility Score: inf
ROOT
ATOM      1  C   UNL     1      -0.323   2.888   7.322  1.00  0.00     0.118 C 
ENDROOT
BRANCH   1   2
ATOM      2  N   UNL     1       1.126   2.556   6.952  1.00  0.00    -0.352 N 
ATOM      3  C   UNL     1       1.991   2.219   5.535  1.00  0.00     0.251 C 
ATOM      4  O   UNL     1       3.106   2.236   6.093  1.00  0.00    -0.269 OA
ATOM      5  H   UNL     1       1.707   2.531   7.746  1.00  0.00     0.163 HD
BRANCH   3   6
ATOM      6  C   UNL     1       1.179   1.396   3.692  1.00  0.00     0.043 A 
ATOM      7  C   UNL     1       0.204   0.253   1.222  1.00  0.00     0.160 A 
ATOM      8  C   UNL     1       1.465  -0.043   1.641  1.00  0.00     0.086 A 
ATOM      9  C   UNL     1      -0.700   0.742   2.124  1.00  0.00     0.085 A 
ATOM     10  Cl  UNL     1       2.905  -0.767   1.068  1.00  0.00    -0.080 Cl
ATOM     11  C   UNL     1       1.675   0.593   2.794  1.00  0.00     0.038 A 
ATOM     12  C   UNL     1      -0.100   1.444   3.098  1.00  0.00     0.044 A 
BRANCH   7  13
ATOM     13  O   UNL     1      -0.165   0.400  -0.062  1.00  0.00    -0.493 OA
ATOM     14  C   UNL     1       0.621  -0.444  -0.854  1.00  0.00     0.278 C 
ENDBRANCH   7  13
BRANCH   9  15
ATOM     15  N   UNL     1      -2.069   1.002   2.102  1.00  0.00    -0.329 N 
ATOM     16  H   UNL     1      -2.514   0.898   1.230  1.00  0.00     0.169 HD
BRANCH  15  17
ATOM     17  C   UNL     1      -2.886   1.390   3.162  1.00  0.00     0.177 C 
ATOM     18  S   UNL     1      -4.425   1.933   2.800  1.00  0.00    -0.040 S 
BRANCH  17  19
ATOM     19  N   UNL     1      -2.463   1.420   4.512  1.00  0.00    -0.299 N 
ATOM     20  C   UNL     1      -1.362   0.866   5.205  1.00  0.00     0.261 C 
ATOM     21  H   UNL     1      -3.065   1.938   5.094  1.00  0.00     0.172 HD
ATOM     22  O   UNL     1      -1.476  -0.262   5.683  1.00  0.00    -0.269 OA
BRANCH  20  23
ATOM     23  C   UNL     1       0.063   1.607   5.302  1.00  0.00     0.082 A 
ATOM     24  C   UNL     1       1.396   0.277   5.472  1.00  0.00     0.018 A 
ATOM     25  C   UNL     1       0.603   3.233   4.400  1.00  0.00     0.134 A 
ATOM     26  C   UNL     1       3.098   0.495   4.788  1.00  0.00     0.001 A 
ATOM     27  C   UNL     1       2.231   3.270   3.496  1.00  0.00    -0.008 A 
ATOM     28  C   UNL     1       3.515   2.018   3.797  1.00  0.00     0.007 A 
ATOM     29  C   UNL     1       1.933   3.503   1.700  1.00  0.00     0.048 C 
BRANCH  25  30
ATOM     30  O   UNL     1      -0.230   4.074   3.597  1.00  0.00    -0.496 OA
ATOM     31  C   UNL     1      -1.512   4.440   4.060  1.00  0.00     0.278 C 
ENDBRANCH  25  30
ENDBRANCH  20  23
ENDBRANCH  17  19
ENDBRANCH  15  17
ENDBRANCH   9  15
ENDBRANCH   3   6
ENDBRANCH   1   2
BRANCH   1  32
ATOM     32  C   UNL     1      -1.188   1.706   7.841  1.00  0.00     0.042 C 
BRANCH  32  33
ATOM     33  C   UNL     1      -1.280   1.610   9.326  1.00  0.00     0.118 C 
BRANCH  33  34
ATOM     34  N   UNL     1      -1.840   2.841   9.839  1.00  0.00    -0.352 N 
ATOM     35  C   UNL     1      -3.060   3.038  10.411  1.00  0.00     0.251 C 
ATOM     36  H   UNL     1      -1.266   3.638   9.766  1.00  0.00     0.163 HD
ATOM     37  O   UNL     1      -3.560   4.157  10.403  1.00  0.00    -0.269 OA
BRANCH  35  38
ATOM     38  C   UNL     1      -3.727   1.887  11.032  1.00  0.00     0.039 A 
ATOM     39  C   UNL     1      -5.114   1.856  11.086  1.00  0.00     0.014 A 
ATOM     40  C   UNL     1      -2.962   0.855  11.589  1.00  0.00     0.014 A 
ATOM     41  C   UNL     1      -5.721   0.802  11.750  1.00  0.00     0.010 A 
ATOM     42  C   UNL     1      -3.572  -0.288  12.047  1.00  0.00     0.010 A 
ATOM     43  C   UNL     1      -4.956  -0.289  12.205  1.00  0.00    -0.014 A 
BRANCH  43  44
ATOM     44  C   UNL     1      -5.586  -1.408  12.923  1.00  0.00     0.031 A 
ATOM     45  C   UNL     1      -5.165  -1.720  14.326  1.00  0.00     0.074 A 
ATOM     46  C   UNL     1      -6.545  -2.126  12.312  1.00  0.00     0.049 A 
ATOM     47  N   UNL     1      -5.648  -2.635  15.122  1.00  0.00    -0.248 NA
ATOM     48  C   UNL     1      -4.070  -0.927  14.915  1.00  0.00     0.031 C 
ATOM     49  C   UNL     1      -7.003  -1.909  10.940  1.00  0.00     0.029 A 
ATOM     50  N   UNL     1      -7.318  -3.163  12.763  1.00  0.00    -0.354 N 
ATOM     51  C   UNL     1      -4.936  -2.514  16.303  1.00  0.00     0.074 A 
ATOM     52  C   UNL     1      -3.932  -1.495  16.101  1.00  0.00     0.031 C 
ATOM     53  C   UNL     1      -8.021  -2.740  10.684  1.00  0.00     0.029 A 
ATOM     54  C   UNL     1      -8.242  -3.597  11.843  1.00  0.00     0.049 A 
ATOM     55  H   UNL     1      -7.221  -3.558  13.660  1.00  0.00     0.167 HD
ATOM     56  C   UNL     1      -5.129  -3.183  17.459  1.00  0.00     0.034 A 
ATOM     57  C   UNL     1      -9.156  -4.585  11.907  1.00  0.00     0.034 A 
ATOM     58  C   UNL     1      -6.105  -4.221  17.625  1.00  0.00     0.049 A 
ATOM     59  C   UNL     1      -9.254  -5.401  13.164  1.00  0.00     0.074 A 
ATOM     60  C   UNL     1      -6.363  -4.953  18.768  1.00  0.00     0.029 A 
ATOM     61  N   UNL     1      -6.950  -4.703  16.636  1.00  0.00    -0.354 N 
ATOM     62  N   UNL     1      -8.572  -5.268  14.277  1.00  0.00    -0.248 NA
ATOM     63  C   UNL     1     -10.232  -6.495  13.179  1.00  0.00     0.031 C 
ATOM     64  C   UNL     1      -7.276  -5.950  18.445  1.00  0.00     0.029 A 
ATOM     65  C   UNL     1      -7.689  -5.762  17.137  1.00  0.00     0.049 A 
ATOM     66  H   UNL     1      -7.014  -4.348  15.720  1.00  0.00     0.167 HD
ATOM     67  C   UNL     1      -9.074  -6.232  15.142  1.00  0.00     0.074 A 
ATOM     68  C   UNL     1     -10.114  -6.938  14.421  1.00  0.00     0.031 C 
ATOM     69  C   UNL     1      -8.711  -6.484  16.424  1.00  0.00     0.034 A 
BRANCH  56  70
ATOM     70  C   UNL     1      -4.214  -2.866  18.605  1.00  0.00     0.023 A 
ATOM     71  C   UNL     1      -4.149  -1.583  19.170  1.00  0.00     0.031 A 
ATOM     72  C   UNL     1      -3.372  -3.867  19.119  1.00  0.00     0.131 A 
ATOM     73  C   UNL     1      -3.179  -1.311  20.141  1.00  0.00     0.055 A 
ATOM     74  C   UNL     1      -2.499  -3.619  20.173  1.00  0.00     0.041 A 
ATOM     75  F   UNL     1      -3.383  -5.106  18.601  1.00  0.00    -0.206 F 
ATOM     76  C   UNL     1      -2.383  -2.328  20.675  1.00  0.00     0.022 A 
BRANCH  73  77
ATOM     77  S   UNL     1      -2.801   0.421  20.519  1.00  0.00     0.124 S 
ATOM     78  O   UNL     1      -2.468   0.942  19.195  1.00  0.00    -0.237 OA
ATOM     79  O   UNL     1      -4.049   0.902  21.099  1.00  0.00    -0.237 OA
ATOM     80  O   UNL     1      -1.674   0.328  21.444  1.00  0.00    -0.744 OA
ENDBRANCH  73  77
ENDBRANCH  56  70
BRANCH  57  81
ATOM     81  C   UNL     1     -10.007  -4.899  10.727  1.00  0.00     0.023 A 
ATOM     82  C   UNL     1     -11.408  -4.849  10.794  1.00  0.00     0.031 A 
ATOM     83  C   UNL     1      -9.413  -5.335   9.528  1.00  0.00     0.131 A 
ATOM     84  C   UNL     1     -12.165  -5.294   9.700  1.00  0.00     0.055 A 
ATOM     85  C   UNL     1     -10.171  -5.675   8.412  1.00  0.00     0.041 A 
ATOM     86  F   UNL     1      -8.078  -5.427   9.424  1.00  0.00    -0.206 F 
ATOM     87  C   UNL     1     -11.557  -5.668   8.499  1.00  0.00     0.022 A 
BRANCH  84  88
ATOM     88  S   UNL     1     -13.945  -5.573   9.922  1.00  0.00     0.124 S 
ATOM     89  O   UNL     1     -13.953  -6.523  11.029  1.00  0.00    -0.237 OA
ATOM     90  O   UNL     1     -14.435  -4.232  10.221  1.00  0.00    -0.237 OA
ATOM     91  O   UNL     1     -14.365  -6.116   8.632  1.00  0.00    -0.744 OA
ENDBRANCH  84  88
ENDBRANCH  57  81
BRANCH  69  92
ATOM     92  C   UNL     1      -9.512  -7.505  17.188  1.00  0.00     0.023 A 
ATOM     93  C   UNL     1      -9.615  -8.844  16.784  1.00  0.00     0.031 A 
ATOM     94  C   UNL     1     -10.227  -7.099  18.333  1.00  0.00     0.131 A 
ATOM     95  C   UNL     1     -10.523  -9.687  17.438  1.00  0.00     0.055 A 
ATOM     96  C   UNL     1     -11.023  -7.980  19.056  1.00  0.00     0.041 A 
ATOM     97  F   UNL     1     -10.164  -5.830  18.769  1.00  0.00    -0.206 F 
ATOM     98  C   UNL     1     -11.199  -9.276  18.591  1.00  0.00     0.022 A 
BRANCH  95  99
ATOM     99  S   UNL     1     -11.003 -11.235  16.625  1.00  0.00     0.124 S 
ATOM    100  O   UNL     1     -11.455 -10.756  15.323  1.00  0.00    -0.237 OA
ATOM    101  O   UNL     1      -9.757 -11.994  16.628  1.00  0.00    -0.237 OA
ATOM    102  O   UNL     1     -12.055 -11.762  17.492  1.00  0.00    -0.744 OA
ENDBRANCH  95  99
ENDBRANCH  69  92
ENDBRANCH  43  44
ENDBRANCH  35  38
ENDBRANCH  33  34
ENDBRANCH  32  33
ENDBRANCH   1  32
TORSDOF 19
