REMARK SMILES CCN(CCO)C(=O)N[C@H]1CCCCC[C@H]1C(=O)NCCCNC(=O)c1ccc(-c2c3nc(c(-c4cc(S(=O)(=O)[O-])ccc4F)c4ccc([nH]4)c(-c4cc(S(=O)(=O)[O-])ccc4F)c4nc(c(-c5cc(S(=O)(=O)[O-])ccc5F)c5ccc2[nH]5)C=C4)C=C3)cc1
REMARK SMILES IDX 17 1 18 2 19 3 16 5 10 6 9 7 7 8 8 9 3 11 2 12 1 13 4 14
REMARK SMILES IDX 5 15 6 16 11 18 15 20 14 21 13 22 12 23 20 25 21 26 22 27
REMARK SMILES IDX 23 28 24 29 25 31 26 32 27 33 88 34 28 35 87 36 29 37 30 38
REMARK SMILES IDX 31 39 81 40 32 41 86 42 80 43 82 44 33 45 85 46 79 47 78 48
REMARK SMILES IDX 34 50 66 51 46 52 65 53 47 54 50 55 64 56 83 57 48 58 49 59
REMARK SMILES IDX 63 61 84 62 51 63 35 64 36 65 44 66 37 67 43 68 45 69 42 70
REMARK SMILES IDX 38 71 39 72 40 73 41 74 67 75 68 76 76 77 69 78 75 79 77 80
REMARK SMILES IDX 74 81 70 82 71 83 72 84 73 85 52 86 53 87 61 88 54 89 60 90
REMARK SMILES IDX 62 91 59 92 55 93 56 94 57 95 58 96
REMARK H PARENT 19 4 9 10 6 17 23 30 82 49 50 60
REMARK Flexibility Score: 90.00
ROOT
ATOM      1  C   UNL     1       0.735  -6.817   3.967  1.00  0.00     0.225 C 
ATOM      2  O   UNL     1       0.209  -7.686   3.256  1.00  0.00    -0.275 OA
ATOM      3  N   UNL     1       0.091  -6.534   5.125  1.00  0.00    -0.356 N 
ATOM      4  H   UNL     1      -0.889  -6.620   5.090  1.00  0.00     0.163 HD
ENDROOT
BRANCH   1   5
ATOM      5  C   UNL     1       2.033  -6.153   3.485  1.00  0.00     0.101 C 
BRANCH   5   6
ATOM      6  C   UNL     1       2.169  -4.624   3.443  1.00  0.00     0.096 C 
BRANCH   6   7
ATOM      7  N   UNL     1       0.930  -3.845   3.383  1.00  0.00    -0.334 N 
ATOM      8  C   UNL     1      -0.247  -3.896   2.732  1.00  0.00     0.317 C 
ATOM      9  O   UNL     1      -1.055  -3.019   3.053  1.00  0.00    -0.249 OA
ATOM     10  H   UNL     1       0.969  -3.068   3.987  1.00  0.00     0.165 HD
BRANCH   8  11
ATOM     11  N   UNL     1      -0.581  -4.877   1.845  1.00  0.00    -0.323 N 
BRANCH  11  12
ATOM     12  C   UNL     1      -2.018  -5.204   1.770  1.00  0.00     0.118 C 
ATOM     13  C   UNL     1      -2.680  -5.595   3.087  1.00  0.00     0.027 C 
ENDBRANCH  11  12
BRANCH  11  14
ATOM     14  C   UNL     1       0.169  -5.364   0.669  1.00  0.00     0.149 C 
BRANCH  14  15
ATOM     15  C   UNL     1       1.390  -4.634   0.110  1.00  0.00     0.177 C 
BRANCH  15  16
ATOM     16  O   UNL     1       1.209  -3.234  -0.012  1.00  0.00    -0.395 OA
ATOM     17  H   UNL     1       0.487  -3.054  -0.635  1.00  0.00     0.210 HD
ENDBRANCH  15  16
ENDBRANCH  14  15
ENDBRANCH  11  14
ENDBRANCH   8  11
ENDBRANCH   6   7
BRANCH   6  18
ATOM     18  C   UNL     1       3.254  -3.943   4.319  1.00  0.00     0.026 CG0
ATOM     19  G   UNL     1       3.551  -4.433   5.726  1.00  0.00     0.000 G0
ENDBRANCH   6  18
ENDBRANCH   5   6
BRANCH   5  20
ATOM     20  C   UNL     1       3.320  -6.925   3.780  1.00  0.00     0.015 C 
BRANCH  20  21
ATOM     21  C   UNL     1       3.755  -7.029   5.226  1.00  0.00     0.001 C 
BRANCH  21  22
ATOM     22  C   UNL     1       4.315  -5.753   5.850  1.00  0.00     0.000 C 
BRANCH  22  23
ATOM     23  C   UNL     1       3.551  -4.433   5.726  1.00  0.00     0.002 CG0
ATOM     24  G   UNL     1       3.254  -3.943   4.319  1.00  0.00     0.000 G0
ENDBRANCH  22  23
ENDBRANCH  21  22
ENDBRANCH  20  21
ENDBRANCH   5  20
ENDBRANCH   1   5
BRANCH   3  25
ATOM     25  C   UNL     1       0.622  -6.125   6.399  1.00  0.00     0.117 C 
BRANCH  25  26
ATOM     26  C   UNL     1       0.054  -4.828   6.949  1.00  0.00     0.042 C 
BRANCH  26  27
ATOM     27  C   UNL     1      -1.374  -4.969   7.455  1.00  0.00     0.118 C 
BRANCH  27  28
ATOM     28  N   UNL     1      -1.476  -5.996   8.488  1.00  0.00    -0.352 N 
ATOM     29  C   UNL     1      -1.257  -5.934   9.843  1.00  0.00     0.251 C 
ATOM     30  H   UNL     1      -1.748  -6.883   8.157  1.00  0.00     0.163 HD
ATOM     31  O   UNL     1      -0.962  -6.969  10.435  1.00  0.00    -0.269 OA
BRANCH  29  32
ATOM     32  C   UNL     1      -1.383  -4.660  10.588  1.00  0.00     0.039 A 
ATOM     33  C   UNL     1      -0.664  -4.487  11.777  1.00  0.00     0.014 A 
ATOM     34  C   UNL     1      -2.288  -3.677  10.187  1.00  0.00     0.014 A 
ATOM     35  C   UNL     1      -0.846  -3.329  12.541  1.00  0.00     0.010 A 
ATOM     36  C   UNL     1      -2.376  -2.475  10.880  1.00  0.00     0.010 A 
ATOM     37  C   UNL     1      -1.694  -2.305  12.090  1.00  0.00    -0.014 A 
BRANCH  37  38
ATOM     38  C   UNL     1      -1.947  -1.085  12.900  1.00  0.00     0.031 A 
ATOM     39  C   UNL     1      -3.351  -0.768  13.358  1.00  0.00     0.074 A 
ATOM     40  C   UNL     1      -0.934  -0.240  13.167  1.00  0.00     0.049 A 
ATOM     41  N   UNL     1      -3.802   0.281  13.997  1.00  0.00    -0.248 NA
ATOM     42  C   UNL     1      -4.399  -1.738  12.999  1.00  0.00     0.031 C 
ATOM     43  C   UNL     1       0.449  -0.409  12.714  1.00  0.00     0.029 A 
ATOM     44  N   UNL     1      -0.907   0.930  13.880  1.00  0.00    -0.354 N 
ATOM     45  C   UNL     1      -5.182   0.114  14.079  1.00  0.00     0.074 A 
ATOM     46  C   UNL     1      -5.499  -1.097  13.356  1.00  0.00     0.031 C 
ATOM     47  C   UNL     1       1.197   0.595  13.199  1.00  0.00     0.029 A 
ATOM     48  C   UNL     1       0.344   1.497  13.964  1.00  0.00     0.049 A 
ATOM     49  H   UNL     1      -1.707   1.327  14.294  1.00  0.00     0.167 HD
ATOM     50  C   UNL     1      -6.096   0.880  14.726  1.00  0.00     0.034 A 
ATOM     51  C   UNL     1       0.753   2.614  14.596  1.00  0.00     0.034 A 
ATOM     52  C   UNL     1      -5.745   2.058  15.481  1.00  0.00     0.049 A 
ATOM     53  C   UNL     1      -0.265   3.409  15.371  1.00  0.00     0.074 A 
ATOM     54  C   UNL     1      -6.563   2.887  16.227  1.00  0.00     0.029 A 
ATOM     55  N   UNL     1      -4.455   2.566  15.596  1.00  0.00    -0.354 N 
ATOM     56  N   UNL     1      -1.560   3.213  15.480  1.00  0.00    -0.248 NA
ATOM     57  C   UNL     1       0.239   4.559  16.130  1.00  0.00     0.031 C 
ATOM     58  C   UNL     1      -5.778   3.921  16.753  1.00  0.00     0.029 A 
ATOM     59  C   UNL     1      -4.458   3.700  16.393  1.00  0.00     0.049 A 
ATOM     60  H   UNL     1      -3.657   2.177  15.172  1.00  0.00     0.167 HD
ATOM     61  C   UNL     1      -2.021   4.201  16.345  1.00  0.00     0.074 A 
ATOM     62  C   UNL     1      -0.859   4.970  16.746  1.00  0.00     0.031 C 
ATOM     63  C   UNL     1      -3.286   4.455  16.769  1.00  0.00     0.034 A 
BRANCH  50  64
ATOM     64  C   UNL     1      -7.550   0.467  14.626  1.00  0.00     0.023 A 
ATOM     65  C   UNL     1      -7.999  -0.782  15.093  1.00  0.00     0.031 A 
ATOM     66  C   UNL     1      -8.493   1.309  14.010  1.00  0.00     0.131 A 
ATOM     67  C   UNL     1      -9.319  -1.192  14.850  1.00  0.00     0.055 A 
ATOM     68  C   UNL     1      -9.830   0.932  13.854  1.00  0.00     0.041 A 
ATOM     69  F   UNL     1      -8.128   2.507  13.526  1.00  0.00    -0.206 F 
ATOM     70  C   UNL     1     -10.246  -0.333  14.258  1.00  0.00     0.022 A 
BRANCH  67  71
ATOM     71  S   UNL     1      -9.761  -2.922  15.173  1.00  0.00     0.124 S 
ATOM     72  O   UNL     1      -8.844  -3.630  14.282  1.00  0.00    -0.237 OA
ATOM     73  O   UNL     1      -9.495  -3.056  16.600  1.00  0.00    -0.237 OA
ATOM     74  O   UNL     1     -11.170  -2.994  14.790  1.00  0.00    -0.744 OA
ENDBRANCH  67  71
ENDBRANCH  50  64
BRANCH  51  75
ATOM     75  C   UNL     1       2.186   3.021  14.557  1.00  0.00     0.023 A 
ATOM     76  C   UNL     1       2.970   3.009  15.722  1.00  0.00     0.031 A 
ATOM     77  C   UNL     1       2.791   3.443  13.360  1.00  0.00     0.131 A 
ATOM     78  C   UNL     1       4.301   3.454  15.677  1.00  0.00     0.055 A 
ATOM     79  C   UNL     1       4.130   3.838  13.310  1.00  0.00     0.041 A 
ATOM     80  F   UNL     1       2.091   3.459  12.214  1.00  0.00    -0.206 F 
ATOM     81  C   UNL     1       4.889   3.857  14.476  1.00  0.00     0.022 A 
BRANCH  78  82
ATOM     82  S   UNL     1       5.233   3.564  17.228  1.00  0.00     0.124 S 
ATOM     83  O   UNL     1       4.386   4.447  18.024  1.00  0.00    -0.237 OA
ATOM     84  O   UNL     1       5.280   2.169  17.652  1.00  0.00    -0.237 OA
ATOM     85  O   UNL     1       6.514   4.132  16.816  1.00  0.00    -0.744 OA
ENDBRANCH  78  82
ENDBRANCH  51  75
BRANCH  63  86
ATOM     86  C   UNL     1      -3.452   5.590  17.747  1.00  0.00     0.023 A 
ATOM     87  C   UNL     1      -3.188   6.921  17.381  1.00  0.00     0.031 A 
ATOM     88  C   UNL     1      -3.838   5.331  19.074  1.00  0.00     0.131 A 
ATOM     89  C   UNL     1      -3.235   7.933  18.351  1.00  0.00     0.055 A 
ATOM     90  C   UNL     1      -3.950   6.352  20.018  1.00  0.00     0.041 A 
ATOM     91  F   UNL     1      -4.103   4.077  19.476  1.00  0.00    -0.206 F 
ATOM     92  C   UNL     1      -3.628   7.659  19.663  1.00  0.00     0.022 A 
BRANCH  89  93
ATOM     93  S   UNL     1      -2.648   9.589  17.902  1.00  0.00     0.124 S 
ATOM     94  O   UNL     1      -1.300   9.312  17.414  1.00  0.00    -0.237 OA
ATOM     95  O   UNL     1      -3.619  10.001  16.894  1.00  0.00    -0.237 OA
ATOM     96  O   UNL     1      -2.710  10.328  19.162  1.00  0.00    -0.744 OA
ENDBRANCH  89  93
ENDBRANCH  63  86
ENDBRANCH  37  38
ENDBRANCH  29  32
ENDBRANCH  27  28
ENDBRANCH  26  27
ENDBRANCH  25  26
ENDBRANCH   3  25
TORSDOF 19
