REMARK SMILES CC[C@@H](C(=O)NCCCNC(=O)c1ccc(-c2c3nc(c(-c4cc(S(=O)(=O)[O-])ccc4F)c4ccc([nH]4)c(-c4cc(S(=O)(=O)[O-])ccc4F)c4nc(c(-c5cc(S(=O)(=O)[O-])ccc5F)c5ccc2[nH]5)C=C4)C=C3)cc1)N1C(=O)/C(=C\c2ccc(C(=O)OC)cc2)SC1=S
REMARK SMILES IDX 7 1 6 2 4 3 5 4 3 6 2 7 1 8 76 9 77 10 92 11 78 12 79 13
REMARK SMILES IDX 91 14 93 15 80 16 81 17 82 18 90 19 83 20 89 21 84 22 85 23
REMARK SMILES IDX 86 24 87 25 88 26 8 27 9 28 10 29 11 30 12 32 13 33 14 34
REMARK SMILES IDX 75 35 15 36 74 37 16 38 17 39 18 40 68 41 19 42 73 43 67 44
REMARK SMILES IDX 69 45 20 46 72 47 66 48 65 49 21 51 53 52 33 53 52 54 34 55
REMARK SMILES IDX 37 56 51 57 70 58 35 59 36 60 50 62 71 63 38 64 22 65 23 66
REMARK SMILES IDX 31 67 24 68 30 69 32 70 29 71 25 72 26 73 27 74 28 75 54 76
REMARK SMILES IDX 55 77 63 78 56 79 62 80 64 81 61 82 57 83 58 84 59 85 60 86
REMARK SMILES IDX 39 87 40 88 48 89 41 90 47 91 49 92 46 93 42 94 43 95 44 96
REMARK SMILES IDX 45 97
REMARK H PARENT 6 5 10 31 69 50 37 61
REMARK Flexibility Score: inf
ROOT
ATOM      1  C   UNL     1       1.815  -2.193  -0.027  1.00  0.00     0.117 C 
ENDROOT
BRANCH   1   2
ATOM      2  N   UNL     1       0.661  -2.395  -0.893  1.00  0.00    -0.354 N 
ATOM      3  C   UNL     1       0.101  -1.622  -1.870  1.00  0.00     0.243 C 
ATOM      4  O   UNL     1      -1.017  -1.960  -2.279  1.00  0.00    -0.273 OA
ATOM      5  H   UNL     1       0.196  -3.250  -0.746  1.00  0.00     0.163 HD
BRANCH   3   6
ATOM      6  C   UNL     1       0.803  -0.343  -2.419  1.00  0.00     0.181 C 
BRANCH   6   7
ATOM      7  C   UNL     1       0.151   0.849  -1.666  1.00  0.00     0.032 C 
ATOM      8  C   UNL     1       0.447   0.951  -0.184  1.00  0.00     0.006 C 
ENDBRANCH   6   7
BRANCH   6   9
ATOM      9  N   UNL     1       0.540  -0.231  -3.899  1.00  0.00    -0.280 N 
ATOM     10  C   UNL     1       0.468  -1.382  -4.671  1.00  0.00     0.266 C 
ATOM     11  C   UNL     1       0.726   0.884  -4.688  1.00  0.00     0.149 C 
ATOM     12  O   UNL     1       0.949  -2.468  -4.379  1.00  0.00    -0.268 OA
ATOM     13  C   UNL     1      -0.130  -1.064  -6.003  1.00  0.00     0.081 C 
ATOM     14  S   UNL     1      -0.031   0.632  -6.261  1.00  0.00    -0.054 SA
ATOM     15  S   UNL     1       1.596   2.279  -4.396  1.00  0.00    -0.052 S 
ATOM     16  C   UNL     1      -0.670  -1.899  -6.901  1.00  0.00     0.029 C 
BRANCH  16  17
ATOM     17  C   UNL     1      -0.794  -3.344  -6.728  1.00  0.00    -0.024 A 
ATOM     18  C   UNL     1      -0.033  -4.197  -7.534  1.00  0.00     0.009 A 
ATOM     19  C   UNL     1      -1.655  -3.884  -5.766  1.00  0.00     0.009 A 
ATOM     20  C   UNL     1      -0.099  -5.579  -7.348  1.00  0.00     0.016 A 
ATOM     21  C   UNL     1      -1.723  -5.267  -5.582  1.00  0.00     0.016 A 
ATOM     22  C   UNL     1      -0.932  -6.121  -6.361  1.00  0.00     0.060 A 
BRANCH  22  23
ATOM     23  C   UNL     1      -0.915  -7.596  -6.163  1.00  0.00     0.337 C 
ATOM     24  O   UNL     1      -0.280  -8.364  -6.864  1.00  0.00    -0.246 OA
BRANCH  23  25
ATOM     25  O   UNL     1      -1.676  -7.937  -5.092  1.00  0.00    -0.465 OA
ATOM     26  C   UNL     1      -1.647  -9.329  -4.777  1.00  0.00     0.282 C 
ENDBRANCH  23  25
ENDBRANCH  22  23
ENDBRANCH  16  17
ENDBRANCH   6   9
ENDBRANCH   3   6
ENDBRANCH   1   2
BRANCH   1  27
ATOM     27  C   UNL     1       1.394  -1.948   1.427  1.00  0.00     0.042 C 
BRANCH  27  28
ATOM     28  C   UNL     1       0.790  -3.159   2.133  1.00  0.00     0.118 C 
BRANCH  28  29
ATOM     29  N   UNL     1       1.807  -4.012   2.718  1.00  0.00    -0.352 N 
ATOM     30  C   UNL     1       2.101  -4.261   4.039  1.00  0.00     0.251 C 
ATOM     31  H   UNL     1       2.375  -4.487   2.069  1.00  0.00     0.163 HD
ATOM     32  O   UNL     1       3.166  -4.814   4.307  1.00  0.00    -0.269 OA
BRANCH  30  33
ATOM     33  C   UNL     1       1.179  -3.860   5.135  1.00  0.00     0.039 A 
ATOM     34  C   UNL     1       1.729  -3.427   6.346  1.00  0.00     0.014 A 
ATOM     35  C   UNL     1      -0.210  -3.962   5.016  1.00  0.00     0.014 A 
ATOM     36  C   UNL     1       0.895  -3.061   7.409  1.00  0.00     0.010 A 
ATOM     37  C   UNL     1      -1.042  -3.513   6.045  1.00  0.00     0.010 A 
ATOM     38  C   UNL     1      -0.501  -3.071   7.262  1.00  0.00    -0.014 A 
BRANCH  38  39
ATOM     39  C   UNL     1      -1.394  -2.647   8.379  1.00  0.00     0.031 A 
ATOM     40  C   UNL     1      -2.361  -3.625   8.999  1.00  0.00     0.074 A 
ATOM     41  C   UNL     1      -1.353  -1.375   8.825  1.00  0.00     0.049 A 
ATOM     42  N   UNL     1      -3.231  -3.436   9.959  1.00  0.00    -0.248 NA
ATOM     43  C   UNL     1      -2.369  -4.988   8.447  1.00  0.00     0.031 C 
ATOM     44  C   UNL     1      -0.485  -0.322   8.291  1.00  0.00     0.029 A 
ATOM     45  N   UNL     1      -2.050  -0.748   9.829  1.00  0.00    -0.354 N 
ATOM     46  C   UNL     1      -3.892  -4.650  10.123  1.00  0.00     0.074 A 
ATOM     47  C   UNL     1      -3.368  -5.546   9.113  1.00  0.00     0.031 C 
ATOM     48  C   UNL     1      -0.674   0.804   8.996  1.00  0.00     0.029 A 
ATOM     49  C   UNL     1      -1.710   0.576   9.998  1.00  0.00     0.049 A 
ATOM     50  H   UNL     1      -2.729  -1.202  10.377  1.00  0.00     0.167 HD
ATOM     51  C   UNL     1      -4.826  -4.997  11.044  1.00  0.00     0.034 A 
ATOM     52  C   UNL     1      -2.183   1.504  10.855  1.00  0.00     0.034 A 
ATOM     53  C   UNL     1      -5.336  -4.095  12.050  1.00  0.00     0.049 A 
ATOM     54  C   UNL     1      -3.252   1.107  11.843  1.00  0.00     0.074 A 
ATOM     55  C   UNL     1      -6.251  -4.354  13.056  1.00  0.00     0.029 A 
ATOM     56  N   UNL     1      -4.984  -2.756  12.174  1.00  0.00    -0.354 N 
ATOM     57  N   UNL     1      -3.830  -0.060  12.011  1.00  0.00    -0.248 NA
ATOM     58  C   UNL     1      -3.721   2.150  12.763  1.00  0.00     0.031 C 
ATOM     59  C   UNL     1      -6.510  -3.159  13.735  1.00  0.00     0.029 A 
ATOM     60  C   UNL     1      -5.689  -2.171  13.215  1.00  0.00     0.049 A 
ATOM     61  H   UNL     1      -4.329  -2.291  11.605  1.00  0.00     0.167 HD
ATOM     62  C   UNL     1      -4.707   0.103  13.081  1.00  0.00     0.074 A 
ATOM     63  C   UNL     1      -4.565   1.474  13.528  1.00  0.00     0.031 C 
ATOM     64  C   UNL     1      -5.551  -0.799  13.646  1.00  0.00     0.034 A 
BRANCH  51  65
ATOM     65  C   UNL     1      -5.375  -6.405  10.986  1.00  0.00     0.023 A 
ATOM     66  C   UNL     1      -4.549  -7.529  11.171  1.00  0.00     0.031 A 
ATOM     67  C   UNL     1      -6.738  -6.632  10.723  1.00  0.00     0.131 A 
ATOM     68  C   UNL     1      -5.074  -8.820  11.013  1.00  0.00     0.055 A 
ATOM     69  C   UNL     1      -7.272  -7.920  10.654  1.00  0.00     0.041 A 
ATOM     70  F   UNL     1      -7.574  -5.603  10.516  1.00  0.00    -0.206 F 
ATOM     71  C   UNL     1      -6.436  -9.025  10.783  1.00  0.00     0.022 A 
BRANCH  68  72
ATOM     72  S   UNL     1      -3.923 -10.222  10.957  1.00  0.00     0.124 S 
ATOM     73  O   UNL     1      -3.060  -9.849   9.838  1.00  0.00    -0.237 OA
ATOM     74  O   UNL     1      -3.310 -10.180  12.278  1.00  0.00    -0.237 OA
ATOM     75  O   UNL     1      -4.792 -11.370  10.707  1.00  0.00    -0.744 OA
ENDBRANCH  68  72
ENDBRANCH  51  65
BRANCH  52  76
ATOM     76  C   UNL     1      -1.664   2.904  10.819  1.00  0.00     0.023 A 
ATOM     77  C   UNL     1      -0.996   3.458  11.924  1.00  0.00     0.031 A 
ATOM     78  C   UNL     1      -1.873   3.726   9.698  1.00  0.00     0.131 A 
ATOM     79  C   UNL     1      -0.608   4.807  11.904  1.00  0.00     0.055 A 
ATOM     80  C   UNL     1      -1.430   5.050   9.659  1.00  0.00     0.041 A 
ATOM     81  F   UNL     1      -2.505   3.249   8.614  1.00  0.00    -0.206 F 
ATOM     82  C   UNL     1      -0.806   5.602  10.773  1.00  0.00     0.022 A 
BRANCH  79  83
ATOM     83  S   UNL     1       0.073   5.537  13.418  1.00  0.00     0.124 S 
ATOM     84  O   UNL     1      -1.005   5.304  14.371  1.00  0.00    -0.237 OA
ATOM     85  O   UNL     1       1.286   4.750  13.614  1.00  0.00    -0.237 OA
ATOM     86  O   UNL     1       0.292   6.935  13.052  1.00  0.00    -0.744 OA
ENDBRANCH  79  83
ENDBRANCH  52  76
BRANCH  64  87
ATOM     87  C   UNL     1      -6.352  -0.337  14.842  1.00  0.00     0.023 A 
ATOM     88  C   UNL     1      -7.318   0.680  14.741  1.00  0.00     0.031 A 
ATOM     89  C   UNL     1      -6.125  -0.907  16.108  1.00  0.00     0.131 A 
ATOM     90  C   UNL     1      -7.970   1.143  15.894  1.00  0.00     0.055 A 
ATOM     91  C   UNL     1      -6.830  -0.493  17.239  1.00  0.00     0.041 A 
ATOM     92  F   UNL     1      -5.212  -1.878  16.267  1.00  0.00    -0.206 F 
ATOM     93  C   UNL     1      -7.747   0.550  17.139  1.00  0.00     0.022 A 
BRANCH  90  94
ATOM     94  S   UNL     1      -9.027   2.611  15.766  1.00  0.00     0.124 S 
ATOM     95  O   UNL     1      -8.104   3.603  15.224  1.00  0.00    -0.237 OA
ATOM     96  O   UNL     1     -10.080   2.159  14.861  1.00  0.00    -0.237 OA
ATOM     97  O   UNL     1      -9.454   2.849  17.143  1.00  0.00    -0.744 OA
ENDBRANCH  90  94
ENDBRANCH  64  87
ENDBRANCH  38  39
ENDBRANCH  30  33
ENDBRANCH  28  29
ENDBRANCH  27  28
ENDBRANCH   1  27
TORSDOF 18
