REMARK SMILES O=C(NCCCNC(=O)[C@@H]1C=C[C@@H](NC(=O)[C@@H]2CCS(=O)(=O)C2)C1)c1ccc(-c2c3nc(c(-c4cc(S(=O)(=O)[O-])ccc4F)c4ccc([nH]4)c(-c4cc(S(=O)(=O)[O-])ccc4F)c4nc(c(-c5cc(S(=O)(=O)[O-])ccc5F)c5ccc2[nH]5)C=C4)C=C3)cc1
REMARK SMILES IDX 4 1 3 2 1 3 2 4 25 6 26 7 87 8 27 9 86 10 28 11 29 12 30 13
REMARK SMILES IDX 80 14 31 15 85 16 79 17 81 18 32 19 84 20 78 21 77 22 33 24
REMARK SMILES IDX 65 25 45 26 64 27 46 28 49 29 63 30 82 31 47 32 48 33 62 35
REMARK SMILES IDX 83 36 50 37 34 38 35 39 43 40 36 41 42 42 44 43 41 44 37 45
REMARK SMILES IDX 38 46 39 47 40 48 66 49 67 50 75 51 68 52 74 53 76 54 73 55
REMARK SMILES IDX 69 56 70 57 71 58 72 59 51 60 52 61 60 62 53 63 59 64 61 65
REMARK SMILES IDX 58 66 54 67 55 68 56 69 57 70 5 71 6 72 7 73 8 74 9 76 10 77
REMARK SMILES IDX 11 78 24 79 12 80 13 81 14 82 15 83 16 85 17 86 18 87 23 88
REMARK SMILES IDX 19 89 20 90 21 91 22 92
REMARK H PARENT 3 5 81 23 49 34 7 75 14 84
REMARK Flexibility Score: inf
ROOT
ATOM      1  C   UNL     1       9.899  -6.404   6.595  1.00  0.00     0.118 C 
ENDROOT
BRANCH   1   2
ATOM      2  N   UNL     1      10.419  -5.624   7.707  1.00  0.00    -0.352 N 
ATOM      3  O   UNL     1      10.874  -5.108   9.837  1.00  0.00    -0.269 OA
ATOM      4  C   UNL     1      10.726  -5.992   8.995  1.00  0.00     0.251 C 
ATOM      5  H   UNL     1      10.578  -4.674   7.503  1.00  0.00     0.163 HD
BRANCH   4   6
ATOM      6  C   UNL     1      10.874  -7.417   9.383  1.00  0.00     0.039 A 
ATOM      7  C   UNL     1      11.439  -8.353   8.516  1.00  0.00     0.014 A 
ATOM      8  C   UNL     1      10.516  -7.811  10.678  1.00  0.00     0.014 A 
ATOM      9  C   UNL     1      11.514  -9.694   8.882  1.00  0.00     0.010 A 
ATOM     10  C   UNL     1      10.694  -9.139  11.084  1.00  0.00     0.010 A 
ATOM     11  C   UNL     1      11.177 -10.099  10.181  1.00  0.00    -0.014 A 
BRANCH  11  12
ATOM     12  C   UNL     1      11.409 -11.510  10.595  1.00  0.00     0.031 A 
ATOM     13  C   UNL     1      10.267 -12.388  11.027  1.00  0.00     0.074 A 
ATOM     14  C   UNL     1      12.666 -11.999  10.570  1.00  0.00     0.049 A 
ATOM     15  N   UNL     1      10.292 -13.623  11.461  1.00  0.00    -0.248 NA
ATOM     16  C   UNL     1       8.924 -11.795  10.978  1.00  0.00     0.031 C 
ATOM     17  C   UNL     1      13.854 -11.242  10.162  1.00  0.00     0.029 A 
ATOM     18  N   UNL     1      13.160 -13.241  10.880  1.00  0.00    -0.354 N 
ATOM     19  C   UNL     1       8.972 -13.951  11.755  1.00  0.00     0.074 A 
ATOM     20  C   UNL     1       8.181 -12.768  11.486  1.00  0.00     0.031 C 
ATOM     21  C   UNL     1      14.926 -12.046  10.205  1.00  0.00     0.029 A 
ATOM     22  C   UNL     1      14.524 -13.345  10.727  1.00  0.00     0.049 A 
ATOM     23  H   UNL     1      12.593 -13.986  11.184  1.00  0.00     0.167 HD
ATOM     24  C   UNL     1       8.472 -15.132  12.203  1.00  0.00     0.034 A 
ATOM     25  C   UNL     1      15.367 -14.358  11.008  1.00  0.00     0.034 A 
ATOM     26  C   UNL     1       9.289 -16.297  12.467  1.00  0.00     0.049 A 
ATOM     27  C   UNL     1      14.800 -15.634  11.569  1.00  0.00     0.074 A 
ATOM     28  C   UNL     1       8.889 -17.552  12.895  1.00  0.00     0.029 A 
ATOM     29  N   UNL     1      10.675 -16.349  12.349  1.00  0.00    -0.354 N 
ATOM     30  N   UNL     1      13.550 -15.933  11.836  1.00  0.00    -0.248 NA
ATOM     31  C   UNL     1      15.755 -16.709  11.863  1.00  0.00     0.031 C 
ATOM     32  C   UNL     1      10.031 -18.327  13.121  1.00  0.00     0.029 A 
ATOM     33  C   UNL     1      11.144 -17.597  12.735  1.00  0.00     0.049 A 
ATOM     34  H   UNL     1      11.241 -15.606  12.036  1.00  0.00     0.167 HD
ATOM     35  C   UNL     1      13.565 -17.244  12.301  1.00  0.00     0.074 A 
ATOM     36  C   UNL     1      14.947 -17.679  12.265  1.00  0.00     0.031 C 
ATOM     37  C   UNL     1      12.528 -18.019  12.711  1.00  0.00     0.034 A 
BRANCH  24  38
ATOM     38  C   UNL     1       6.988 -15.195  12.506  1.00  0.00     0.023 A 
ATOM     39  C   UNL     1       6.003 -14.976  11.524  1.00  0.00     0.031 A 
ATOM     40  C   UNL     1       6.551 -15.450  13.820  1.00  0.00     0.131 A 
ATOM     41  C   UNL     1       4.646 -14.933  11.889  1.00  0.00     0.055 A 
ATOM     42  C   UNL     1       5.197 -15.505  14.155  1.00  0.00     0.041 A 
ATOM     43  F   UNL     1       7.437 -15.639  14.811  1.00  0.00    -0.206 F 
ATOM     44  C   UNL     1       4.236 -15.231  13.190  1.00  0.00     0.022 A 
BRANCH  41  45
ATOM     45  S   UNL     1       3.421 -14.354  10.680  1.00  0.00     0.124 S 
ATOM     46  O   UNL     1       3.791 -12.947  10.544  1.00  0.00    -0.237 OA
ATOM     47  O   UNL     1       3.680 -15.214   9.532  1.00  0.00    -0.237 OA
ATOM     48  O   UNL     1       2.144 -14.584  11.354  1.00  0.00    -0.744 OA
ENDBRANCH  41  45
ENDBRANCH  24  38
BRANCH  25  49
ATOM     49  C   UNL     1      16.835 -14.189  10.805  1.00  0.00     0.023 A 
ATOM     50  C   UNL     1      17.538 -14.980   9.884  1.00  0.00     0.031 A 
ATOM     51  C   UNL     1      17.562 -13.240  11.549  1.00  0.00     0.131 A 
ATOM     52  C   UNL     1      18.929 -14.836   9.759  1.00  0.00     0.055 A 
ATOM     53  C   UNL     1      18.934 -13.058  11.376  1.00  0.00     0.041 A 
ATOM     54  F   UNL     1      16.939 -12.456  12.443  1.00  0.00    -0.206 F 
ATOM     55  C   UNL     1      19.628 -13.868  10.485  1.00  0.00     0.022 A 
BRANCH  52  56
ATOM     56  S   UNL     1      19.829 -15.992   8.690  1.00  0.00     0.124 S 
ATOM     57  O   UNL     1      19.489 -17.276   9.290  1.00  0.00    -0.237 OA
ATOM     58  O   UNL     1      19.240 -15.717   7.383  1.00  0.00    -0.237 OA
ATOM     59  O   UNL     1      21.223 -15.579   8.841  1.00  0.00    -0.744 OA
ENDBRANCH  52  56
ENDBRANCH  25  49
BRANCH  37  60
ATOM     60  C   UNL     1      12.848 -19.445  13.099  1.00  0.00     0.023 A 
ATOM     61  C   UNL     1      13.646 -19.756  14.215  1.00  0.00     0.031 A 
ATOM     62  C   UNL     1      12.350 -20.511  12.327  1.00  0.00     0.131 A 
ATOM     63  C   UNL     1      13.967 -21.094  14.493  1.00  0.00     0.055 A 
ATOM     64  C   UNL     1      12.614 -21.842  12.651  1.00  0.00     0.041 A 
ATOM     65  F   UNL     1      11.592 -20.274  11.244  1.00  0.00    -0.206 F 
ATOM     66  C   UNL     1      13.438 -22.139  13.731  1.00  0.00     0.022 A 
BRANCH  63  67
ATOM     67  S   UNL     1      15.171 -21.450  15.803  1.00  0.00     0.124 S 
ATOM     68  O   UNL     1      16.344 -20.712  15.344  1.00  0.00    -0.237 OA
ATOM     69  O   UNL     1      14.508 -20.920  16.990  1.00  0.00    -0.237 OA
ATOM     70  O   UNL     1      15.301 -22.905  15.764  1.00  0.00    -0.744 OA
ENDBRANCH  63  67
ENDBRANCH  37  60
ENDBRANCH  11  12
ENDBRANCH   4   6
ENDBRANCH   1   2
BRANCH   1  71
ATOM     71  C   UNL     1       8.410  -6.169   6.394  1.00  0.00     0.042 C 
BRANCH  71  72
ATOM     72  C   UNL     1       8.064  -4.816   5.785  1.00  0.00     0.117 C 
BRANCH  72  73
ATOM     73  N   UNL     1       8.287  -4.794   4.354  1.00  0.00    -0.356 N 
ATOM     74  C   UNL     1       7.439  -4.848   3.296  1.00  0.00     0.227 C 
ATOM     75  H   UNL     1       9.236  -4.728   4.101  1.00  0.00     0.163 HD
ATOM     76  O   UNL     1       7.957  -4.692   2.182  1.00  0.00    -0.274 OA
BRANCH  74  77
ATOM     77  C   UNL     1       5.920  -5.069   3.395  1.00  0.00     0.103 C 
ATOM     78  C   UNL     1       5.110  -3.946   3.965  1.00  0.00    -0.016 C 
ATOM     79  C   UNL     1       5.439  -6.285   4.188  1.00  0.00     0.047 C 
ATOM     80  C   UNL     1       4.377  -4.337   5.016  1.00  0.00    -0.006 C 
ATOM     81  C   UNL     1       4.694  -5.739   5.420  1.00  0.00     0.106 C 
BRANCH  81  82
ATOM     82  N   UNL     1       3.503  -6.488   5.718  1.00  0.00    -0.350 N 
ATOM     83  C   UNL     1       3.276  -7.459   6.650  1.00  0.00     0.224 C 
ATOM     84  H   UNL     1       2.724  -6.264   5.159  1.00  0.00     0.164 HD
ATOM     85  O   UNL     1       2.144  -7.942   6.669  1.00  0.00    -0.275 OA
BRANCH  83  86
ATOM     86  C   UNL     1       4.325  -7.838   7.710  1.00  0.00     0.094 C 
ATOM     87  C   UNL     1       5.721  -8.174   7.193  1.00  0.00     0.030 C 
ATOM     88  C   UNL     1       3.922  -9.115   8.479  1.00  0.00     0.150 C 
ATOM     89  C   UNL     1       5.625  -9.499   6.472  1.00  0.00     0.138 C 
ATOM     90  S   UNL     1       4.594 -10.485   7.517  1.00  0.00     0.151 S 
ATOM     91  O   UNL     1       3.577 -11.059   6.667  1.00  0.00    -0.229 OA
ATOM     92  O   UNL     1       5.518 -11.248   8.330  1.00  0.00    -0.229 OA
ENDBRANCH  83  86
ENDBRANCH  81  82
ENDBRANCH  74  77
ENDBRANCH  72  73
ENDBRANCH  71  72
ENDBRANCH   1  71
TORSDOF 15
