REMARK SMILES O=C(CCCNC(=O)COc1ccc2c3c(c(=O)oc2c1)CCC3)NCCCNC(=O)c1ccc(-c2c3nc(c(-c4cc(S(=O)(=O)[O-])ccc4F)c4ccc([nH]4)c(-c4cc(S(=O)(=O)[O-])ccc4F)c4nc(c(-c5cc(S(=O)(=O)[O-])ccc5F)c5ccc2[nH]5)C=C4)C=C3)cc1
REMARK SMILES IDX 1 1 2 2 25 3 3 5 4 6 5 7 6 8 7 9 8 11 9 12 10 13 11 14 12 15
REMARK SMILES IDX 21 16 13 17 20 18 14 19 19 20 15 21 17 22 16 23 24 24 18 25
REMARK SMILES IDX 22 26 23 27 26 28 27 29 28 30 29 31 30 32 31 34 32 35 33 36
REMARK SMILES IDX 94 37 34 38 93 39 35 40 36 41 37 42 87 43 38 44 92 45 86 46
REMARK SMILES IDX 88 47 39 48 91 49 85 50 84 51 40 53 72 54 52 55 71 56 53 57
REMARK SMILES IDX 56 58 70 59 89 60 54 61 55 62 69 64 90 65 57 66 41 67 42 68
REMARK SMILES IDX 50 69 43 70 49 71 51 72 48 73 44 74 45 75 46 76 47 77 73 78
REMARK SMILES IDX 74 79 82 80 75 81 81 82 83 83 80 84 76 85 77 86 78 87 79 88
REMARK SMILES IDX 58 89 59 90 67 91 60 92 66 93 68 94 65 95 61 96 62 97 63 98
REMARK SMILES IDX 64 99
REMARK H PARENT 25 4 6 10 29 33 88 52 56 63
REMARK Flexibility Score: inf
ROOT
ATOM      1  O   UNL     1       0.900  -0.355  -0.438  1.00  0.00    -0.275 OA
ATOM      2  C   UNL     1       2.057  -0.161  -0.085  1.00  0.00     0.220 C 
ATOM      3  N   UNL     1       2.651   1.077  -0.032  1.00  0.00    -0.356 N 
ATOM      4  H   UNL     1       3.566   1.141   0.325  1.00  0.00     0.163 HD
ENDROOT
BRANCH   2   5
ATOM      5  C   UNL     1       2.988  -1.294   0.298  1.00  0.00     0.102 C 
BRANCH   5   6
ATOM      6  C   UNL     1       3.878  -1.734  -0.868  1.00  0.00     0.031 C 
BRANCH   6   7
ATOM      7  C   UNL     1       4.893  -0.695  -1.353  1.00  0.00     0.116 C 
BRANCH   7   8
ATOM      8  N   UNL     1       5.782  -0.246  -0.298  1.00  0.00    -0.353 N 
ATOM      9  C   UNL     1       7.140  -0.312  -0.230  1.00  0.00     0.257 C 
ATOM     10  H   UNL     1       5.339   0.165   0.480  1.00  0.00     0.163 HD
ATOM     11  O   UNL     1       7.688   0.230   0.732  1.00  0.00    -0.271 OA
BRANCH   9  12
ATOM     12  C   UNL     1       7.947  -1.047  -1.303  1.00  0.00     0.329 C 
BRANCH  12  13
ATOM     13  O   UNL     1       7.495  -2.310  -1.768  1.00  0.00    -0.484 OA
BRANCH  13  14
ATOM     14  C   UNL     1       7.591  -3.373  -0.915  1.00  0.00     0.123 A 
ATOM     15  C   UNL     1       7.752  -4.616  -1.538  1.00  0.00     0.047 A 
ATOM     16  C   UNL     1       7.460  -3.317   0.468  1.00  0.00     0.094 A 
ATOM     17  C   UNL     1       7.798  -5.798  -0.788  1.00  0.00     0.016 A 
ATOM     18  C   UNL     1       7.484  -4.501   1.202  1.00  0.00     0.142 A 
ATOM     19  C   UNL     1       7.654  -5.748   0.597  1.00  0.00     0.021 A 
ATOM     20  O   UNL     1       7.306  -4.378   2.602  1.00  0.00    -0.422 OA
ATOM     21  C   UNL     1       7.663  -6.909   1.460  1.00  0.00    -0.027 A 
ATOM     22  C   UNL     1       7.304  -5.485   3.445  1.00  0.00     0.339 A 
ATOM     23  C   UNL     1       7.507  -6.774   2.779  1.00  0.00     0.042 A 
ATOM     24  C   UNL     1       7.835  -8.334   1.067  1.00  0.00     0.037 C 
ATOM     25  O   UNL     1       7.136  -5.399   4.652  1.00  0.00    -0.246 OA
ATOM     26  C   UNL     1       7.555  -8.073   3.495  1.00  0.00     0.044 C 
ATOM     27  C   UNL     1       7.404  -9.071   2.342  1.00  0.00     0.010 C 
ENDBRANCH  13  14
ENDBRANCH  12  13
ENDBRANCH   9  12
ENDBRANCH   7   8
ENDBRANCH   6   7
ENDBRANCH   5   6
ENDBRANCH   2   5
BRANCH   3  28
ATOM     28  C   UNL     1       1.999   2.292  -0.474  1.00  0.00     0.117 C 
BRANCH  28  29
ATOM     29  C   UNL     1       2.335   3.479   0.420  1.00  0.00     0.042 C 
BRANCH  29  30
ATOM     30  C   UNL     1       3.817   3.841   0.490  1.00  0.00     0.118 C 
BRANCH  30  31
ATOM     31  N   UNL     1       4.361   4.294  -0.778  1.00  0.00    -0.352 N 
ATOM     32  C   UNL     1       5.082   5.428  -1.071  1.00  0.00     0.251 C 
ATOM     33  H   UNL     1       4.188   3.699  -1.544  1.00  0.00     0.163 HD
ATOM     34  O   UNL     1       5.317   5.691  -2.248  1.00  0.00    -0.269 OA
BRANCH  32  35
ATOM     35  C   UNL     1       5.543   6.341   0.003  1.00  0.00     0.039 A 
ATOM     36  C   UNL     1       5.489   7.719  -0.225  1.00  0.00     0.014 A 
ATOM     37  C   UNL     1       6.057   5.863   1.212  1.00  0.00     0.014 A 
ATOM     38  C   UNL     1       5.905   8.610   0.769  1.00  0.00     0.010 A 
ATOM     39  C   UNL     1       6.388   6.754   2.235  1.00  0.00     0.010 A 
ATOM     40  C   UNL     1       6.335   8.139   2.021  1.00  0.00    -0.014 A 
BRANCH  40  41
ATOM     41  C   UNL     1       6.764   9.090   3.085  1.00  0.00     0.031 A 
ATOM     42  C   UNL     1       8.185   9.078   3.590  1.00  0.00     0.074 A 
ATOM     43  C   UNL     1       5.875   9.960   3.606  1.00  0.00     0.049 A 
ATOM     44  N   UNL     1       8.749   9.835   4.498  1.00  0.00    -0.248 NA
ATOM     45  C   UNL     1       9.082   8.062   3.019  1.00  0.00     0.031 C 
ATOM     46  C   UNL     1       4.461  10.045   3.235  1.00  0.00     0.029 A 
ATOM     47  N   UNL     1       6.027  10.945   4.551  1.00  0.00    -0.354 N 
ATOM     48  C   UNL     1      10.061   9.385   4.609  1.00  0.00     0.074 A 
ATOM     49  C   UNL     1      10.184   8.242   3.730  1.00  0.00     0.031 C 
ATOM     50  C   UNL     1       3.888  11.053   3.913  1.00  0.00     0.029 A 
ATOM     51  C   UNL     1       4.876  11.659   4.799  1.00  0.00     0.049 A 
ATOM     52  H   UNL     1       6.880  11.123   5.010  1.00  0.00     0.167 HD
ATOM     53  C   UNL     1      11.079   9.893   5.349  1.00  0.00     0.034 A 
ATOM     54  C   UNL     1       4.642  12.685   5.641  1.00  0.00     0.034 A 
ATOM     55  C   UNL     1      10.943  11.037   6.221  1.00  0.00     0.049 A 
ATOM     56  C   UNL     1       5.784  13.222   6.470  1.00  0.00     0.074 A 
ATOM     57  C   UNL     1      11.915  11.656   6.988  1.00  0.00     0.029 A 
ATOM     58  N   UNL     1       9.761  11.730   6.449  1.00  0.00    -0.354 N 
ATOM     59  N   UNL     1       7.033  12.818   6.522  1.00  0.00    -0.248 NA
ATOM     60  C   UNL     1       5.487  14.370   7.334  1.00  0.00     0.031 C 
ATOM     61  C   UNL     1      11.306  12.671   7.735  1.00  0.00     0.029 A 
ATOM     62  C   UNL     1       9.974  12.752   7.364  1.00  0.00     0.049 A 
ATOM     63  H   UNL     1       8.897  11.527   6.023  1.00  0.00     0.167 HD
ATOM     64  C   UNL     1       7.678  13.692   7.394  1.00  0.00     0.074 A 
ATOM     65  C   UNL     1       6.684  14.653   7.824  1.00  0.00     0.031 C 
ATOM     66  C   UNL     1       8.976  13.703   7.796  1.00  0.00     0.034 A 
BRANCH  53  67
ATOM     67  C   UNL     1      12.418   9.194   5.265  1.00  0.00     0.023 A 
ATOM     68  C   UNL     1      13.128   9.097   4.054  1.00  0.00     0.031 A 
ATOM     69  C   UNL     1      12.982   8.591   6.403  1.00  0.00     0.131 A 
ATOM     70  C   UNL     1      14.312   8.347   3.991  1.00  0.00     0.055 A 
ATOM     71  C   UNL     1      14.207   7.923   6.354  1.00  0.00     0.041 A 
ATOM     72  F   UNL     1      12.345   8.629   7.584  1.00  0.00    -0.206 F 
ATOM     73  C   UNL     1      14.872   7.783   5.139  1.00  0.00     0.022 A 
BRANCH  70  74
ATOM     74  S   UNL     1      15.026   7.989   2.362  1.00  0.00     0.124 S 
ATOM     75  O   UNL     1      13.920   7.302   1.700  1.00  0.00    -0.237 OA
ATOM     76  O   UNL     1      15.347   9.319   1.858  1.00  0.00    -0.237 OA
ATOM     77  O   UNL     1      16.178   7.143   2.671  1.00  0.00    -0.744 OA
ENDBRANCH  70  74
ENDBRANCH  53  67
BRANCH  54  78
ATOM     78  C   UNL     1       3.278  13.283   5.751  1.00  0.00     0.023 A 
ATOM     79  C   UNL     1       3.040  14.624   5.406  1.00  0.00     0.031 A 
ATOM     80  C   UNL     1       2.201  12.534   6.257  1.00  0.00     0.131 A 
ATOM     81  C   UNL     1       1.774  15.190   5.625  1.00  0.00     0.055 A 
ATOM     82  C   UNL     1       0.927  13.085   6.415  1.00  0.00     0.041 A 
ATOM     83  F   UNL     1       2.369  11.247   6.601  1.00  0.00    -0.206 F 
ATOM     84  C   UNL     1       0.713  14.426   6.113  1.00  0.00     0.022 A 
BRANCH  81  85
ATOM     85  S   UNL     1       1.560  16.972   5.358  1.00  0.00     0.124 S 
ATOM     86  O   UNL     1       2.561  17.530   6.260  1.00  0.00    -0.237 OA
ATOM     87  O   UNL     1       1.840  17.100   3.931  1.00  0.00    -0.237 OA
ATOM     88  O   UNL     1       0.170  17.209   5.742  1.00  0.00    -0.744 OA
ENDBRANCH  81  85
ENDBRANCH  54  78
BRANCH  66  89
ATOM     89  C   UNL     1       9.404  14.836   8.703  1.00  0.00     0.023 A 
ATOM     90  C   UNL     1       8.854  15.016   9.985  1.00  0.00     0.031 A 
ATOM     91  C   UNL     1      10.348  15.779   8.255  1.00  0.00     0.131 A 
ATOM     92  C   UNL     1       9.183  16.156  10.734  1.00  0.00     0.055 A 
ATOM     93  C   UNL     1      10.733  16.867   9.040  1.00  0.00     0.041 A 
ATOM     94  F   UNL     1      10.907  15.664   7.040  1.00  0.00    -0.206 F 
ATOM     95  C   UNL     1      10.133  17.073  10.278  1.00  0.00     0.022 A 
BRANCH  92  96
ATOM     96  S   UNL     1       8.242  16.504  12.246  1.00  0.00     0.124 S 
ATOM     97  O   UNL     1       6.867  16.485  11.758  1.00  0.00    -0.237 OA
ATOM     98  O   UNL     1       8.625  15.395  13.113  1.00  0.00    -0.237 OA
ATOM     99  O   UNL     1       8.734  17.816  12.663  1.00  0.00    -0.744 OA
ENDBRANCH  92  96
ENDBRANCH  66  89
ENDBRANCH  40  41
ENDBRANCH  32  35
ENDBRANCH  30  31
ENDBRANCH  29  30
ENDBRANCH  28  29
ENDBRANCH   3  28
TORSDOF 19
