REMARK SMILES CC(C)[C@H](/N=C1\C(=O)C(=O)[C@H]1[NH+]1CCCC1)C(=O)NCCCNC(=O)c1ccc(-c2c3nc(c(-c4cc(S(=O)(=O)[O-])ccc4F)c4ccc([nH]4)c(-c4cc(S(=O)(=O)[O-])ccc4F)c4nc(c(-c5cc(S(=O)(=O)[O-])ccc5F)c5ccc2[nH]5)C=C4)C=C3)cc1
REMARK SMILES IDX 21 1 20 2 19 3 17 4 18 5 4 7 2 8 1 9 3 10 5 11 6 12 7 13
REMARK SMILES IDX 11 14 8 15 9 16 10 17 12 18 13 19 16 20 14 22 15 23 22 24
REMARK SMILES IDX 23 25 24 26 25 28 26 29 27 30 88 31 28 32 87 33 29 34 30 35
REMARK SMILES IDX 31 36 81 37 32 38 86 39 80 40 82 41 33 42 85 43 79 44 78 45
REMARK SMILES IDX 34 47 66 48 46 49 65 50 47 51 50 52 64 53 83 54 48 55 49 56
REMARK SMILES IDX 63 58 84 59 51 60 35 61 36 62 44 63 37 64 43 65 45 66 42 67
REMARK SMILES IDX 38 68 39 69 40 70 41 71 67 72 68 73 76 74 69 75 75 76 77 77
REMARK SMILES IDX 74 78 70 79 71 80 72 81 73 82 52 83 53 84 61 85 54 86 60 87
REMARK SMILES IDX 62 88 59 89 55 90 56 91 57 92 58 93
REMARK H PARENT 19 6 12 21 23 27 82 46 50 57
REMARK Flexibility Score: inf
ROOT
ATOM      1  C   UNL     1       1.126  -3.321   3.529  1.00  0.00     0.042 C 
ENDROOT
BRANCH   1   2
ATOM      2  C   UNL     1       0.002  -3.045   2.539  1.00  0.00     0.117 C 
BRANCH   2   3
ATOM      3  N   UNL     1      -0.814  -1.903   2.903  1.00  0.00    -0.354 N 
ATOM      4  C   UNL     1      -1.233  -0.847   2.152  1.00  0.00     0.245 C 
ATOM      5  O   UNL     1      -1.964  -0.018   2.705  1.00  0.00    -0.273 OA
ATOM      6  H   UNL     1      -1.112  -1.889   3.841  1.00  0.00     0.163 HD
BRANCH   4   7
ATOM      7  C   UNL     1      -0.865  -0.688   0.657  1.00  0.00     0.197 C 
BRANCH   7   8
ATOM      8  C   UNL     1      -1.589  -1.668  -0.306  1.00  0.00     0.017 C 
ATOM      9  C   UNL     1      -0.846  -2.944  -0.709  1.00  0.00     0.010 C 
ATOM     10  C   UNL     1      -3.001  -2.029   0.171  1.00  0.00     0.010 C 
ENDBRANCH   7   8
BRANCH   7  11
ATOM     11  N   UNL     1       0.611  -0.660   0.549  1.00  0.00    -0.266 NA
ATOM     12  C   UNL     1       1.153  -0.191  -0.510  1.00  0.00     0.153 C 
ATOM     13  C   UNL     1       0.659   0.227  -1.841  1.00  0.00     0.255 C 
ATOM     14  C   UNL     1       2.620  -0.053  -0.932  1.00  0.00     0.314 C 
ATOM     15  O   UNL     1      -0.359   0.691  -2.244  1.00  0.00    -0.283 OA
ATOM     16  C   UNL     1       2.044   0.021  -2.404  1.00  0.00     0.268 C 
ATOM     17  O   UNL     1       2.376   0.008  -3.558  1.00  0.00    -0.283 OA
BRANCH  14  18
ATOM     18  N   UNL     1       3.397   1.141  -0.502  1.00  0.00    -0.321 N 
ATOM     19  C   UNL     1       3.505   1.222   0.961  1.00  0.00     0.263 C 
ATOM     20  C   UNL     1       2.892   2.449  -0.931  1.00  0.00     0.263 C 
ATOM     21  H   UNL     1       4.290   0.979  -0.969  1.00  0.00     0.349 HD
ATOM     22  C   UNL     1       2.463   2.235   1.425  1.00  0.00     0.067 C 
ATOM     23  C   UNL     1       1.956   2.918   0.166  1.00  0.00     0.067 C 
ENDBRANCH  14  18
ENDBRANCH   7  11
ENDBRANCH   4   7
ENDBRANCH   2   3
ENDBRANCH   1   2
BRANCH   1  24
ATOM     24  C   UNL     1       0.661  -3.717   4.926  1.00  0.00     0.118 C 
BRANCH  24  25
ATOM     25  N   UNL     1      -0.034  -4.996   4.952  1.00  0.00    -0.352 N 
ATOM     26  C   UNL     1       0.376  -6.238   5.375  1.00  0.00     0.251 C 
ATOM     27  H   UNL     1      -0.956  -4.966   4.607  1.00  0.00     0.163 HD
ATOM     28  O   UNL     1      -0.323  -7.214   5.111  1.00  0.00    -0.269 OA
BRANCH  26  29
ATOM     29  C   UNL     1       1.648  -6.421   6.114  1.00  0.00     0.039 A 
ATOM     30  C   UNL     1       2.441  -7.538   5.824  1.00  0.00     0.014 A 
ATOM     31  C   UNL     1       2.041  -5.542   7.125  1.00  0.00     0.014 A 
ATOM     32  C   UNL     1       3.658  -7.727   6.489  1.00  0.00     0.010 A 
ATOM     33  C   UNL     1       3.286  -5.690   7.735  1.00  0.00     0.010 A 
ATOM     34  C   UNL     1       4.109  -6.783   7.423  1.00  0.00    -0.014 A 
BRANCH  34  35
ATOM     35  C   UNL     1       5.425  -6.916   8.103  1.00  0.00     0.031 A 
ATOM     36  C   UNL     1       5.484  -7.064   9.599  1.00  0.00     0.074 A 
ATOM     37  C   UNL     1       6.565  -6.797   7.396  1.00  0.00     0.049 A 
ATOM     38  N   UNL     1       6.511  -6.973  10.404  1.00  0.00    -0.248 NA
ATOM     39  C   UNL     1       4.203  -7.302  10.280  1.00  0.00     0.031 C 
ATOM     40  C   UNL     1       6.651  -6.607   5.946  1.00  0.00     0.029 A 
ATOM     41  N   UNL     1       7.873  -6.791   7.810  1.00  0.00    -0.354 N 
ATOM     42  C   UNL     1       5.995  -7.078  11.691  1.00  0.00     0.074 A 
ATOM     43  C   UNL     1       4.561  -7.232  11.554  1.00  0.00     0.031 C 
ATOM     44  C   UNL     1       7.943  -6.507   5.593  1.00  0.00     0.029 A 
ATOM     45  C   UNL     1       8.772  -6.586   6.791  1.00  0.00     0.049 A 
ATOM     46  H   UNL     1       8.142  -6.921   8.748  1.00  0.00     0.167 HD
ATOM     47  C   UNL     1       6.654  -7.045  12.877  1.00  0.00     0.034 A 
ATOM     48  C   UNL     1      10.111  -6.452   6.820  1.00  0.00     0.034 A 
ATOM     49  C   UNL     1       8.088  -6.948  13.002  1.00  0.00     0.049 A 
ATOM     50  C   UNL     1      10.832  -6.519   8.136  1.00  0.00     0.074 A 
ATOM     51  C   UNL     1       8.861  -6.957  14.152  1.00  0.00     0.029 A 
ATOM     52  N   UNL     1       8.969  -6.838  11.935  1.00  0.00    -0.354 N 
ATOM     53  N   UNL     1      10.330  -6.603   9.344  1.00  0.00    -0.248 NA
ATOM     54  C   UNL     1      12.299  -6.477   8.088  1.00  0.00     0.031 C 
ATOM     55  C   UNL     1      10.206  -6.830  13.780  1.00  0.00     0.029 A 
ATOM     56  C   UNL     1      10.274  -6.779  12.397  1.00  0.00     0.049 A 
ATOM     57  H   UNL     1       8.704  -6.807  10.987  1.00  0.00     0.167 HD
ATOM     58  C   UNL     1      11.422  -6.628  10.203  1.00  0.00     0.074 A 
ATOM     59  C   UNL     1      12.609  -6.560   9.375  1.00  0.00     0.031 C 
ATOM     60  C   UNL     1      11.441  -6.700  11.557  1.00  0.00     0.034 A 
BRANCH  47  61
ATOM     61  C   UNL     1       5.812  -7.064  14.126  1.00  0.00     0.023 A 
ATOM     62  C   UNL     1       5.055  -8.190  14.491  1.00  0.00     0.031 A 
ATOM     63  C   UNL     1       5.715  -5.913  14.927  1.00  0.00     0.131 A 
ATOM     64  C   UNL     1       4.171  -8.113  15.577  1.00  0.00     0.055 A 
ATOM     65  C   UNL     1       4.888  -5.867  16.051  1.00  0.00     0.041 A 
ATOM     66  F   UNL     1       6.401  -4.803  14.612  1.00  0.00    -0.206 F 
ATOM     67  C   UNL     1       4.097  -6.966  16.372  1.00  0.00     0.022 A 
BRANCH  64  68
ATOM     68  S   UNL     1       3.011  -9.481  15.848  1.00  0.00     0.124 S 
ATOM     69  O   UNL     1       2.255  -9.476  14.597  1.00  0.00    -0.237 OA
ATOM     70  O   UNL     1       3.904 -10.616  16.050  1.00  0.00    -0.237 OA
ATOM     71  O   UNL     1       2.256  -9.062  17.026  1.00  0.00    -0.744 OA
ENDBRANCH  64  68
ENDBRANCH  47  61
BRANCH  48  72
ATOM     72  C   UNL     1      10.859  -6.211   5.561  1.00  0.00     0.023 A 
ATOM     73  C   UNL     1      11.583  -7.242   4.947  1.00  0.00     0.031 A 
ATOM     74  C   UNL     1      10.862  -4.940   4.963  1.00  0.00     0.131 A 
ATOM     75  C   UNL     1      12.306  -6.978   3.774  1.00  0.00     0.055 A 
ATOM     76  C   UNL     1      11.565  -4.688   3.784  1.00  0.00     0.041 A 
ATOM     77  F   UNL     1      10.167  -3.931   5.512  1.00  0.00    -0.206 F 
ATOM     78  C   UNL     1      12.298  -5.710   3.187  1.00  0.00     0.022 A 
BRANCH  75  79
ATOM     79  S   UNL     1      13.281  -8.318   3.037  1.00  0.00     0.124 S 
ATOM     80  O   UNL     1      14.210  -8.640   4.114  1.00  0.00    -0.237 OA
ATOM     81  O   UNL     1      12.256  -9.317   2.754  1.00  0.00    -0.237 OA
ATOM     82  O   UNL     1      13.881  -7.694   1.860  1.00  0.00    -0.744 OA
ENDBRANCH  75  79
ENDBRANCH  48  72
BRANCH  60  83
ATOM     83  C   UNL     1      12.795  -6.746  12.206  1.00  0.00     0.023 A 
ATOM     84  C   UNL     1      13.578  -5.588  12.347  1.00  0.00     0.031 A 
ATOM     85  C   UNL     1      13.314  -7.968  12.664  1.00  0.00     0.131 A 
ATOM     86  C   UNL     1      14.862  -5.683  12.903  1.00  0.00     0.055 A 
ATOM     87  C   UNL     1      14.581  -8.052  13.242  1.00  0.00     0.041 A 
ATOM     88  F   UNL     1      12.601  -9.099  12.544  1.00  0.00    -0.206 F 
ATOM     89  C   UNL     1      15.365  -6.906  13.357  1.00  0.00     0.022 A 
BRANCH  86  90
ATOM     90  S   UNL     1      15.892  -4.192  12.981  1.00  0.00     0.124 S 
ATOM     91  O   UNL     1      16.014  -3.832  11.572  1.00  0.00    -0.237 OA
ATOM     92  O   UNL     1      15.083  -3.296  13.801  1.00  0.00    -0.237 OA
ATOM     93  O   UNL     1      17.126  -4.660  13.609  1.00  0.00    -0.744 OA
ENDBRANCH  86  90
ENDBRANCH  60  83
ENDBRANCH  34  35
ENDBRANCH  26  29
ENDBRANCH  24  25
ENDBRANCH   1  24
TORSDOF 16
