REMARK SMILES C[C@@H](C(=O)NCCCNC(=O)c1ccc(-c2c3nc(c(-c4cc(S(=O)(=O)[O-])ccc4F)c4ccc([nH]4)c(-c4cc(S(=O)(=O)[O-])ccc4F)c4nc(c(-c5cc(S(=O)(=O)[O-])ccc5F)c5ccc2[nH]5)C=C4)C=C3)cc1)c1ccc(C[C@@H]2CCC[C@@H]2O)cc1
REMARK SMILES IDX 6 1 5 2 3 3 4 4 2 6 1 7 75 8 76 9 87 10 77 11 86 12 78 13
REMARK SMILES IDX 79 14 80 15 81 16 84 17 82 18 83 19 85 20 7 22 8 23 9 24
REMARK SMILES IDX 10 25 11 27 12 28 13 29 74 30 14 31 73 32 15 33 16 34 17 35
REMARK SMILES IDX 67 36 18 37 72 38 66 39 68 40 19 41 71 42 65 43 64 44 20 46
REMARK SMILES IDX 52 47 32 48 51 49 33 50 36 51 50 52 69 53 34 54 35 55 49 57
REMARK SMILES IDX 70 58 37 59 21 60 22 61 30 62 23 63 29 64 31 65 28 66 24 67
REMARK SMILES IDX 25 68 26 69 27 70 53 71 54 72 62 73 55 74 61 75 63 76 60 77
REMARK SMILES IDX 56 78 57 79 58 80 59 81 38 82 39 83 47 84 40 85 46 86 48 87
REMARK SMILES IDX 45 88 41 89 42 90 43 91 44 92
REMARK H PARENT 5 5 85 21 9 26 68 45 36 56
REMARK Flexibility Score: inf
ROOT
ATOM      1  C   UNL     1     -11.358   3.514   7.144  1.00  0.00     0.117 C 
ENDROOT
BRANCH   1   2
ATOM      2  N   UNL     1     -11.299   3.882   5.743  1.00  0.00    -0.356 N 
ATOM      3  C   UNL     1     -10.452   3.463   4.757  1.00  0.00     0.227 C 
ATOM      4  O   UNL     1     -10.379   4.204   3.776  1.00  0.00    -0.274 OA
ATOM      5  H   UNL     1     -11.976   4.537   5.457  1.00  0.00     0.163 HD
BRANCH   3   6
ATOM      6  C   UNL     1      -9.653   2.160   4.935  1.00  0.00     0.105 C 
ATOM      7  C   UNL     1      -8.402   2.465   5.774  1.00  0.00     0.023 C 
BRANCH   6   8
ATOM      8  C   UNL     1      -9.231   1.405   3.668  1.00  0.00    -0.036 A 
ATOM      9  C   UNL     1      -8.581   0.164   3.812  1.00  0.00     0.005 A 
ATOM     10  C   UNL     1      -9.386   1.895   2.367  1.00  0.00     0.005 A 
ATOM     11  C   UNL     1      -7.997  -0.486   2.721  1.00  0.00     0.004 A 
ATOM     12  C   UNL     1      -8.793   1.253   1.276  1.00  0.00     0.004 A 
ATOM     13  C   UNL     1      -8.040   0.090   1.450  1.00  0.00    -0.048 A 
BRANCH  13  14
ATOM     14  C   UNL     1      -7.260  -0.481   0.293  1.00  0.00     0.041 C 
BRANCH  14  15
ATOM     15  C   UNL     1      -5.737  -0.205   0.246  1.00  0.00     0.022 C 
ATOM     16  C   UNL     1      -4.929  -0.844   1.382  1.00  0.00     0.007 C 
ATOM     17  C   UNL     1      -5.277   1.257   0.292  1.00  0.00     0.117 C 
ATOM     18  C   UNL     1      -4.639   0.263   2.400  1.00  0.00     0.003 C 
ATOM     19  C   UNL     1      -5.113   1.570   1.774  1.00  0.00     0.032 C 
BRANCH  17  20
ATOM     20  O   UNL     1      -6.153   2.140  -0.375  1.00  0.00    -0.393 OA
ATOM     21  H   UNL     1      -7.032   2.094   0.034  1.00  0.00     0.210 HD
ENDBRANCH  17  20
ENDBRANCH  14  15
ENDBRANCH  13  14
ENDBRANCH   6   8
ENDBRANCH   3   6
ENDBRANCH   1   2
BRANCH   1  22
ATOM     22  C   UNL     1     -10.635   4.541   8.017  1.00  0.00     0.042 C 
BRANCH  22  23
ATOM     23  C   UNL     1     -11.182   5.962   7.910  1.00  0.00     0.118 C 
BRANCH  23  24
ATOM     24  N   UNL     1     -12.558   6.065   8.365  1.00  0.00    -0.352 N 
ATOM     25  C   UNL     1     -13.094   6.835   9.366  1.00  0.00     0.251 C 
ATOM     26  H   UNL     1     -13.202   5.498   7.883  1.00  0.00     0.163 HD
ATOM     27  O   UNL     1     -14.249   6.617   9.735  1.00  0.00    -0.269 OA
BRANCH  25  28
ATOM     28  C   UNL     1     -12.292   7.895  10.016  1.00  0.00     0.039 A 
ATOM     29  C   UNL     1     -12.376   8.047  11.403  1.00  0.00     0.014 A 
ATOM     30  C   UNL     1     -11.479   8.753   9.270  1.00  0.00     0.014 A 
ATOM     31  C   UNL     1     -11.602   9.017  12.044  1.00  0.00     0.010 A 
ATOM     32  C   UNL     1     -10.650   9.667   9.919  1.00  0.00     0.010 A 
ATOM     33  C   UNL     1     -10.704   9.811  11.313  1.00  0.00    -0.014 A 
BRANCH  33  34
ATOM     34  C   UNL     1      -9.817  10.794  11.994  1.00  0.00     0.031 A 
ATOM     35  C   UNL     1      -9.948  12.265  11.703  1.00  0.00     0.074 A 
ATOM     36  C   UNL     1      -8.861  10.354  12.837  1.00  0.00     0.049 A 
ATOM     37  N   UNL     1      -9.227  13.263  12.145  1.00  0.00    -0.248 NA
ATOM     38  C   UNL     1     -11.015  12.662  10.771  1.00  0.00     0.031 C 
ATOM     39  C   UNL     1      -8.612   8.950  13.172  1.00  0.00     0.029 A 
ATOM     40  N   UNL     1      -7.915  11.038  13.561  1.00  0.00    -0.354 N 
ATOM     41  C   UNL     1      -9.744  14.404  11.539  1.00  0.00     0.074 A 
ATOM     42  C   UNL     1     -10.800  13.963  10.652  1.00  0.00     0.031 C 
ATOM     43  C   UNL     1      -7.600   8.880  14.051  1.00  0.00     0.029 A 
ATOM     44  C   UNL     1      -7.091  10.224  14.305  1.00  0.00     0.049 A 
ATOM     45  H   UNL     1      -7.834  12.019  13.549  1.00  0.00     0.167 HD
ATOM     46  C   UNL     1      -9.384  15.699  11.721  1.00  0.00     0.034 A 
ATOM     47  C   UNL     1      -6.035  10.521  15.088  1.00  0.00     0.034 A 
ATOM     48  C   UNL     1      -8.332  16.122  12.615  1.00  0.00     0.049 A 
ATOM     49  C   UNL     1      -5.635  11.966  15.252  1.00  0.00     0.074 A 
ATOM     50  C   UNL     1      -7.922  17.410  12.913  1.00  0.00     0.029 A 
ATOM     51  N   UNL     1      -7.517  15.268  13.349  1.00  0.00    -0.354 N 
ATOM     52  N   UNL     1      -6.165  13.037  14.707  1.00  0.00    -0.248 NA
ATOM     53  C   UNL     1      -4.503  12.243  16.145  1.00  0.00     0.031 C 
ATOM     54  C   UNL     1      -6.813  17.333  13.762  1.00  0.00     0.029 A 
ATOM     55  C   UNL     1      -6.585  16.001  14.069  1.00  0.00     0.049 A 
ATOM     56  H   UNL     1      -7.590  14.286  13.356  1.00  0.00     0.167 HD
ATOM     57  C   UNL     1      -5.449  14.117  15.217  1.00  0.00     0.074 A 
ATOM     58  C   UNL     1      -4.463  13.567  16.125  1.00  0.00     0.031 C 
ATOM     59  C   UNL     1      -5.597  15.442  14.963  1.00  0.00     0.034 A 
BRANCH  46  60
ATOM     60  C   UNL     1     -10.114  16.748  10.915  1.00  0.00     0.023 A 
ATOM     61  C   UNL     1     -11.496  16.967  11.063  1.00  0.00     0.031 A 
ATOM     62  C   UNL     1      -9.422  17.536   9.977  1.00  0.00     0.131 A 
ATOM     63  C   UNL     1     -12.151  17.896  10.240  1.00  0.00     0.055 A 
ATOM     64  C   UNL     1     -10.065  18.517   9.221  1.00  0.00     0.041 A 
ATOM     65  F   UNL     1      -8.107  17.359   9.775  1.00  0.00    -0.206 F 
ATOM     66  C   UNL     1     -11.441  18.692   9.339  1.00  0.00     0.022 A 
BRANCH  63  67
ATOM     67  S   UNL     1     -13.963  17.951  10.267  1.00  0.00     0.124 S 
ATOM     68  O   UNL     1     -14.305  16.581   9.889  1.00  0.00    -0.237 OA
ATOM     69  O   UNL     1     -14.248  18.322  11.648  1.00  0.00    -0.237 OA
ATOM     70  O   UNL     1     -14.291  18.965   9.268  1.00  0.00    -0.744 OA
ENDBRANCH  63  67
ENDBRANCH  46  60
BRANCH  47  71
ATOM     71  C   UNL     1      -5.265   9.435  15.761  1.00  0.00     0.023 A 
ATOM     72  C   UNL     1      -5.212   9.341  17.161  1.00  0.00     0.031 A 
ATOM     73  C   UNL     1      -4.536   8.495  15.011  1.00  0.00     0.131 A 
ATOM     74  C   UNL     1      -4.409   8.361  17.767  1.00  0.00     0.055 A 
ATOM     75  C   UNL     1      -3.786   7.486  15.617  1.00  0.00     0.041 A 
ATOM     76  F   UNL     1      -4.554   8.536  13.669  1.00  0.00    -0.206 F 
ATOM     77  C   UNL     1      -3.708   7.424  17.005  1.00  0.00     0.022 A 
BRANCH  74  78
ATOM     78  S   UNL     1      -4.221   8.385  19.571  1.00  0.00     0.124 S 
ATOM     79  O   UNL     1      -3.686   9.723  19.796  1.00  0.00    -0.237 OA
ATOM     80  O   UNL     1      -5.589   8.155  20.021  1.00  0.00    -0.237 OA
ATOM     81  O   UNL     1      -3.289   7.289  19.829  1.00  0.00    -0.744 OA
ENDBRANCH  74  78
ENDBRANCH  47  71
BRANCH  59  82
ATOM     82  C   UNL     1      -4.697  16.393  15.716  1.00  0.00     0.023 A 
ATOM     83  C   UNL     1      -3.305  16.413  15.520  1.00  0.00     0.031 A 
ATOM     84  C   UNL     1      -5.244  17.288  16.654  1.00  0.00     0.131 A 
ATOM     85  C   UNL     1      -2.502  17.266  16.292  1.00  0.00     0.055 A 
ATOM     86  C   UNL     1      -4.447  18.182  17.370  1.00  0.00     0.041 A 
ATOM     87  F   UNL     1      -6.566  17.310  16.888  1.00  0.00    -0.206 F 
ATOM     88  C   UNL     1      -3.066  18.164  17.202  1.00  0.00     0.022 A 
BRANCH  85  89
ATOM     89  S   UNL     1      -0.699  17.114  16.167  1.00  0.00     0.124 S 
ATOM     90  O   UNL     1      -0.487  15.715  16.524  1.00  0.00    -0.237 OA
ATOM     91  O   UNL     1      -0.452  17.459  14.770  1.00  0.00    -0.237 OA
ATOM     92  O   UNL     1      -0.204  18.085  17.141  1.00  0.00    -0.744 OA
ENDBRANCH  85  89
ENDBRANCH  59  82
ENDBRANCH  33  34
ENDBRANCH  25  28
ENDBRANCH  23  24
ENDBRANCH  22  23
ENDBRANCH   1  22
TORSDOF 17
