REMARK SMILES COC(=O)C1CCN(C(=O)N[C@@H]2C=C[C@H](C(=O)NCCCNC(=O)c3ccc(-c4c5nc(c(-c6cc(S(=O)(=O)[O-])ccc6F)c6ccc([nH]6)c(-c6cc(S(=O)(=O)[O-])ccc6F)c6nc(c(-c7cc(S(=O)(=O)[O-])ccc7F)c7ccc4[nH]7)C=C6)C=C5)cc3)C2)CC1
REMARK SMILES IDX 20 1 19 2 18 3 16 4 17 5 15 7 12 8 13 9 88 10 14 11 11 12
REMARK SMILES IDX 5 13 6 14 90 15 7 16 89 17 8 18 9 19 10 20 3 22 4 23 2 24
REMARK SMILES IDX 1 25 21 26 22 27 23 28 24 30 25 31 26 32 87 33 27 34 86 35
REMARK SMILES IDX 28 36 29 37 30 38 80 39 31 40 85 41 79 42 81 43 32 44 84 45
REMARK SMILES IDX 78 46 77 47 33 49 65 50 45 51 64 52 46 53 49 54 63 55 82 56
REMARK SMILES IDX 47 57 48 58 62 60 83 61 50 62 34 63 35 64 43 65 36 66 42 67
REMARK SMILES IDX 44 68 41 69 37 70 38 71 39 72 40 73 66 74 67 75 75 76 68 77
REMARK SMILES IDX 74 78 76 79 73 80 69 81 70 82 71 83 72 84 51 85 52 86 60 87
REMARK SMILES IDX 53 88 59 89 61 90 58 91 54 92 55 93 56 94 57 95
REMARK H PARENT 18 6 11 21 22 29 81 48 49 59
REMARK Flexibility Score: inf
ROOT
ATOM      1  C   UNL     1       1.789  11.577  -2.125  1.00  0.00     0.042 C 
ENDROOT
BRANCH   1   2
ATOM      2  C   UNL     1       1.472  10.142  -1.736  1.00  0.00     0.117 C 
BRANCH   2   3
ATOM      3  N   UNL     1       1.060  10.040  -0.345  1.00  0.00    -0.356 N 
ATOM      4  C   UNL     1       0.034   9.380   0.253  1.00  0.00     0.227 C 
ATOM      5  O   UNL     1       0.044   9.345   1.491  1.00  0.00    -0.274 OA
ATOM      6  H   UNL     1       1.631  10.542   0.279  1.00  0.00     0.163 HD
BRANCH   4   7
ATOM      7  C   UNL     1      -1.065   8.605  -0.491  1.00  0.00     0.103 C 
ATOM      8  C   UNL     1      -0.522   6.622  -1.883  1.00  0.00     0.107 C 
ATOM      9  C   UNL     1      -1.030   7.785  -2.690  1.00  0.00    -0.006 C 
ATOM     10  C   UNL     1      -0.826   7.082  -0.455  1.00  0.00     0.047 C 
ATOM     11  C   UNL     1      -1.337   8.847  -1.935  1.00  0.00    -0.016 C 
BRANCH   8  12
ATOM     12  N   UNL     1       0.767   6.229  -2.451  1.00  0.00    -0.332 N 
ATOM     13  C   UNL     1       4.614   7.285   0.939  1.00  0.00     0.102 C 
ATOM     14  C   UNL     1       5.125   6.400  -0.191  1.00  0.00     0.037 C 
ATOM     15  C   UNL     1       3.191   6.860   1.257  1.00  0.00     0.037 C 
ATOM     16  C   UNL     1       4.281   6.559  -1.446  1.00  0.00     0.122 C 
ATOM     17  C   UNL     1       2.281   6.735   0.042  1.00  0.00     0.122 C 
ATOM     18  N   UNL     1       2.839   6.404  -1.242  1.00  0.00    -0.325 N 
ATOM     19  C   UNL     1       2.096   6.154  -2.355  1.00  0.00     0.317 C 
ATOM     20  O   UNL     1       2.640   5.819  -3.417  1.00  0.00    -0.249 OA
ATOM     21  H   UNL     1       0.550   5.827  -3.323  1.00  0.00     0.165 HD
BRANCH  13  22
ATOM     22  C   UNL     1       4.747   8.785   0.678  1.00  0.00     0.308 C 
ATOM     23  O   UNL     1       4.077   9.644   1.223  1.00  0.00    -0.252 OA
BRANCH  22  24
ATOM     24  O   UNL     1       5.805   9.016  -0.146  1.00  0.00    -0.469 OA
ATOM     25  C   UNL     1       6.311  10.349  -0.217  1.00  0.00     0.282 C 
ENDBRANCH  22  24
ENDBRANCH  13  22
ENDBRANCH   8  12
ENDBRANCH   4   7
ENDBRANCH   2   3
ENDBRANCH   1   2
BRANCH   1  26
ATOM     26  C   UNL     1       3.244  11.931  -1.875  1.00  0.00     0.118 C 
BRANCH  26  27
ATOM     27  N   UNL     1       4.133  11.331  -2.867  1.00  0.00    -0.352 N 
ATOM     28  C   UNL     1       5.080  11.946  -3.654  1.00  0.00     0.251 C 
ATOM     29  H   UNL     1       4.044  10.358  -2.987  1.00  0.00     0.163 HD
ATOM     30  O   UNL     1       5.623  11.330  -4.564  1.00  0.00    -0.269 OA
BRANCH  28  31
ATOM     31  C   UNL     1       5.414  13.362  -3.398  1.00  0.00     0.039 A 
ATOM     32  C   UNL     1       5.451  14.265  -4.461  1.00  0.00     0.014 A 
ATOM     33  C   UNL     1       5.640  13.798  -2.090  1.00  0.00     0.014 A 
ATOM     34  C   UNL     1       5.649  15.623  -4.201  1.00  0.00     0.010 A 
ATOM     35  C   UNL     1       5.749  15.155  -1.826  1.00  0.00     0.010 A 
ATOM     36  C   UNL     1       5.766  16.081  -2.878  1.00  0.00    -0.014 A 
BRANCH  36  37
ATOM     37  C   UNL     1       5.938  17.521  -2.563  1.00  0.00     0.031 A 
ATOM     38  C   UNL     1       7.198  17.987  -1.886  1.00  0.00     0.074 A 
ATOM     39  C   UNL     1       4.933  18.384  -2.803  1.00  0.00     0.049 A 
ATOM     40  N   UNL     1       7.517  19.179  -1.452  1.00  0.00    -0.248 NA
ATOM     41  C   UNL     1       8.213  16.958  -1.618  1.00  0.00     0.031 C 
ATOM     42  C   UNL     1       3.641  18.034  -3.399  1.00  0.00     0.029 A 
ATOM     43  N   UNL     1       4.837  19.731  -2.569  1.00  0.00    -0.354 N 
ATOM     44  C   UNL     1       8.759  19.037  -0.842  1.00  0.00     0.074 A 
ATOM     45  C   UNL     1       9.088  17.629  -0.888  1.00  0.00     0.031 C 
ATOM     46  C   UNL     1       2.898  19.146  -3.518  1.00  0.00     0.029 A 
ATOM     47  C   UNL     1       3.642  20.278  -2.974  1.00  0.00     0.049 A 
ATOM     48  H   UNL     1       5.556  20.258  -2.151  1.00  0.00     0.167 HD
ATOM     49  C   UNL     1       9.564  19.997  -0.321  1.00  0.00     0.034 A 
ATOM     50  C   UNL     1       3.202  21.550  -2.917  1.00  0.00     0.034 A 
ATOM     51  C   UNL     1       9.217  21.397  -0.300  1.00  0.00     0.049 A 
ATOM     52  C   UNL     1       4.109  22.605  -2.338  1.00  0.00     0.074 A 
ATOM     53  C   UNL     1       9.970  22.470   0.144  1.00  0.00     0.029 A 
ATOM     54  N   UNL     1       8.005  21.920  -0.739  1.00  0.00    -0.354 N 
ATOM     55  N   UNL     1       5.310  22.472  -1.822  1.00  0.00    -0.248 NA
ATOM     56  C   UNL     1       3.607  23.984  -2.353  1.00  0.00     0.031 C 
ATOM     57  C   UNL     1       9.191  23.628   0.035  1.00  0.00     0.029 A 
ATOM     58  C   UNL     1       7.981  23.294  -0.552  1.00  0.00     0.049 A 
ATOM     59  H   UNL     1       7.271  21.391  -1.126  1.00  0.00     0.167 HD
ATOM     60  C   UNL     1       5.723  23.759  -1.487  1.00  0.00     0.074 A 
ATOM     61  C   UNL     1       4.645  24.650  -1.866  1.00  0.00     0.031 C 
ATOM     62  C   UNL     1       6.892  24.168  -0.929  1.00  0.00     0.034 A 
BRANCH  49  63
ATOM     63  C   UNL     1      10.873  19.541   0.286  1.00  0.00     0.023 A 
ATOM     64  C   UNL     1      11.832  18.840  -0.470  1.00  0.00     0.031 A 
ATOM     65  C   UNL     1      11.136  19.734   1.653  1.00  0.00     0.131 A 
ATOM     66  C   UNL     1      12.938  18.255   0.165  1.00  0.00     0.055 A 
ATOM     67  C   UNL     1      12.294  19.239   2.259  1.00  0.00     0.041 A 
ATOM     68  F   UNL     1      10.256  20.378   2.436  1.00  0.00    -0.206 F 
ATOM     69  C   UNL     1      13.191  18.473   1.519  1.00  0.00     0.022 A 
BRANCH  66  70
ATOM     70  S   UNL     1      13.919  17.040  -0.761  1.00  0.00     0.124 S 
ATOM     71  O   UNL     1      12.898  16.066  -1.140  1.00  0.00    -0.237 OA
ATOM     72  O   UNL     1      14.472  17.842  -1.845  1.00  0.00    -0.237 OA
ATOM     73  O   UNL     1      14.888  16.562   0.223  1.00  0.00    -0.744 OA
ENDBRANCH  66  70
ENDBRANCH  49  63
BRANCH  50  74
ATOM     74  C   UNL     1       1.859  21.904  -3.454  1.00  0.00     0.023 A 
ATOM     75  C   UNL     1       1.734  22.706  -4.600  1.00  0.00     0.031 A 
ATOM     76  C   UNL     1       0.682  21.460  -2.827  1.00  0.00     0.131 A 
ATOM     77  C   UNL     1       0.461  23.070  -5.064  1.00  0.00     0.055 A 
ATOM     78  C   UNL     1      -0.583  21.788  -3.319  1.00  0.00     0.041 A 
ATOM     79  F   UNL     1       0.747  20.680  -1.736  1.00  0.00    -0.206 F 
ATOM     80  C   UNL     1      -0.698  22.607  -4.439  1.00  0.00     0.022 A 
BRANCH  77  81
ATOM     81  S   UNL     1       0.343  24.206  -6.473  1.00  0.00     0.124 S 
ATOM     82  O   UNL     1       1.022  25.390  -5.958  1.00  0.00    -0.237 OA
ATOM     83  O   UNL     1       1.044  23.467  -7.518  1.00  0.00    -0.237 OA
ATOM     84  O   UNL     1      -1.097  24.349  -6.675  1.00  0.00    -0.744 OA
ENDBRANCH  77  81
ENDBRANCH  50  74
BRANCH  62  85
ATOM     85  C   UNL     1       7.081  25.655  -0.753  1.00  0.00     0.023 A 
ATOM     86  C   UNL     1       6.294  26.407   0.136  1.00  0.00     0.031 A 
ATOM     87  C   UNL     1       8.057  26.332  -1.506  1.00  0.00     0.131 A 
ATOM     88  C   UNL     1       6.453  27.799   0.204  1.00  0.00     0.055 A 
ATOM     89  C   UNL     1       8.255  27.708  -1.387  1.00  0.00     0.041 A 
ATOM     90  F   UNL     1       8.836  25.665  -2.373  1.00  0.00    -0.206 F 
ATOM     91  C   UNL     1       7.440  28.452  -0.539  1.00  0.00     0.022 A 
BRANCH  88  92
ATOM     92  S   UNL     1       5.280  28.763   1.198  1.00  0.00     0.124 S 
ATOM     93  O   UNL     1       4.000  28.381   0.611  1.00  0.00    -0.237 OA
ATOM     94  O   UNL     1       5.536  28.269   2.547  1.00  0.00    -0.237 OA
ATOM     95  O   UNL     1       5.684  30.147   0.958  1.00  0.00    -0.744 OA
ENDBRANCH  88  92
ENDBRANCH  62  85
ENDBRANCH  36  37
ENDBRANCH  28  31
ENDBRANCH  26  27
ENDBRANCH   1  26
TORSDOF 16
