REMARK SMILES O=C(NCc1ccc(C(=O)NCCCNC(=O)c2ccc(-c3c4nc(c(-c5cc(S(=O)(=O)[O-])ccc5F)c5ccc([nH]5)c(-c5cc(S(=O)(=O)[O-])ccc5F)c5nc(c(-c6cc(S(=O)(=O)[O-])ccc6F)c6ccc3[nH]6)C=C5)C=C4)cc2)cc1)Nc1ccccc1Br
REMARK SMILES IDX 13 1 12 2 11 3 9 4 10 5 8 7 5 8 6 9 82 10 7 11 81 12 4 13
REMARK SMILES IDX 3 14 1 15 2 16 83 17 84 20 85 21 89 22 86 23 88 24 90 25
REMARK SMILES IDX 87 26 14 27 15 28 16 29 17 31 18 32 19 33 80 34 20 35 79 36
REMARK SMILES IDX 21 37 22 38 23 39 73 40 24 41 78 42 72 43 74 44 25 45 77 46
REMARK SMILES IDX 71 47 70 48 26 50 58 51 38 52 57 53 39 54 42 55 56 56 75 57
REMARK SMILES IDX 40 58 41 59 55 61 76 62 43 63 27 64 28 65 36 66 29 67 35 68
REMARK SMILES IDX 37 69 34 70 30 71 31 72 32 73 33 74 59 75 60 76 68 77 61 78
REMARK SMILES IDX 67 79 69 80 66 81 62 82 63 83 64 84 65 85 44 86 45 87 53 88
REMARK SMILES IDX 46 89 52 90 54 91 51 92 47 93 48 94 49 95 50 96
REMARK H PARENT 11 6 3 18 83 19 15 30 74 49 42 60
REMARK Flexibility Score: inf
ROOT
ATOM      1  C   UNL     1       8.022   1.185  -7.218  1.00  0.00     0.042 C 
ENDROOT
BRANCH   1   2
ATOM      2  C   UNL     1       6.596   0.634  -7.244  1.00  0.00     0.118 C 
BRANCH   2   3
ATOM      3  N   UNL     1       6.576  -0.796  -6.989  1.00  0.00    -0.352 N 
ATOM      4  C   UNL     1       6.220  -1.523  -5.882  1.00  0.00     0.251 C 
ATOM      5  O   UNL     1       6.207  -2.750  -5.976  1.00  0.00    -0.269 OA
ATOM      6  H   UNL     1       6.873  -1.344  -7.751  1.00  0.00     0.163 HD
BRANCH   4   7
ATOM      7  C   UNL     1       5.801  -0.894  -4.601  1.00  0.00     0.039 A 
ATOM      8  C   UNL     1       4.894   0.174  -2.150  1.00  0.00    -0.029 A 
ATOM      9  C   UNL     1       4.399  -1.049  -2.619  1.00  0.00     0.006 A 
ATOM     10  C   UNL     1       5.884   0.829  -2.893  1.00  0.00     0.006 A 
ATOM     11  C   UNL     1       4.845  -1.574  -3.836  1.00  0.00     0.014 A 
ATOM     12  C   UNL     1       6.346   0.289  -4.098  1.00  0.00     0.014 A 
BRANCH   8  13
ATOM     13  C   UNL     1       4.437   0.744  -0.833  1.00  0.00     0.153 C 
BRANCH  13  14
ATOM     14  N   UNL     1       2.993   0.799  -0.736  1.00  0.00    -0.334 N 
ATOM     15  O   UNL     1       0.934   0.314  -0.049  1.00  0.00    -0.248 OA
ATOM     16  C   UNL     1       2.139   0.141   0.095  1.00  0.00     0.319 C 
ATOM     17  N   UNL     1       2.724  -0.622   1.066  1.00  0.00    -0.307 N 
ATOM     18  H   UNL     1       2.559   1.411  -1.373  1.00  0.00     0.165 HD
ATOM     19  H   UNL     1       3.689  -0.491   1.206  1.00  0.00     0.171 HD
BRANCH  17  20
ATOM     20  C   UNL     1       2.088  -1.577   1.889  1.00  0.00     0.057 A 
ATOM     21  C   UNL     1       2.603  -1.677   3.194  1.00  0.00     0.027 A 
ATOM     22  C   UNL     1       1.046  -2.443   1.514  1.00  0.00     0.041 A 
ATOM     23  C   UNL     1       2.049  -2.555   4.127  1.00  0.00     0.002 A 
ATOM     24  C   UNL     1       0.486  -3.315   2.462  1.00  0.00     0.018 A 
ATOM     25  Br  UNL     1       0.461  -2.707  -0.278  1.00  0.00    -0.049 Br
ATOM     26  C   UNL     1       0.978  -3.363   3.766  1.00  0.00     0.001 A 
ENDBRANCH  17  20
ENDBRANCH  13  14
ENDBRANCH   8  13
ENDBRANCH   4   7
ENDBRANCH   2   3
ENDBRANCH   1   2
BRANCH   1  27
ATOM     27  C   UNL     1       8.846   0.803  -8.445  1.00  0.00     0.118 C 
BRANCH  27  28
ATOM     28  N   UNL     1       8.389   1.492  -9.642  1.00  0.00    -0.352 N 
ATOM     29  C   UNL     1       9.074   2.316 -10.501  1.00  0.00     0.251 C 
ATOM     30  H   UNL     1       7.443   1.345  -9.871  1.00  0.00     0.163 HD
ATOM     31  O   UNL     1       8.441   2.983 -11.315  1.00  0.00    -0.269 OA
BRANCH  29  32
ATOM     32  C   UNL     1      10.551   2.416 -10.445  1.00  0.00     0.039 A 
ATOM     33  C   UNL     1      11.146   3.668 -10.631  1.00  0.00     0.014 A 
ATOM     34  C   UNL     1      11.354   1.286 -10.268  1.00  0.00     0.014 A 
ATOM     35  C   UNL     1      12.537   3.794 -10.588  1.00  0.00     0.010 A 
ATOM     36  C   UNL     1      12.739   1.422 -10.162  1.00  0.00     0.010 A 
ATOM     37  C   UNL     1      13.345   2.677 -10.326  1.00  0.00    -0.014 A 
BRANCH  37  38
ATOM     38  C   UNL     1      14.824   2.799 -10.235  1.00  0.00     0.031 A 
ATOM     39  C   UNL     1      15.703   2.115 -11.248  1.00  0.00     0.074 A 
ATOM     40  C   UNL     1      15.376   3.479  -9.210  1.00  0.00     0.049 A 
ATOM     41  N   UNL     1      17.007   2.019 -11.284  1.00  0.00    -0.248 NA
ATOM     42  C   UNL     1      15.018   1.424 -12.351  1.00  0.00     0.031 C 
ATOM     43  C   UNL     1      14.628   4.158  -8.149  1.00  0.00     0.029 A 
ATOM     44  N   UNL     1      16.690   3.699  -8.880  1.00  0.00    -0.354 N 
ATOM     45  C   UNL     1      17.302   1.253 -12.407  1.00  0.00     0.074 A 
ATOM     46  C   UNL     1      16.034   0.862 -12.989  1.00  0.00     0.031 C 
ATOM     47  C   UNL     1      15.494   4.724  -7.293  1.00  0.00     0.029 A 
ATOM     48  C   UNL     1      16.856   4.413  -7.716  1.00  0.00     0.049 A 
ATOM     49  H   UNL     1      17.443   3.376  -9.426  1.00  0.00     0.167 HD
ATOM     50  C   UNL     1      18.515   0.926 -12.919  1.00  0.00     0.034 A 
ATOM     51  C   UNL     1      17.977   4.762  -7.054  1.00  0.00     0.034 A 
ATOM     52  C   UNL     1      19.770   1.329 -12.331  1.00  0.00     0.049 A 
ATOM     53  C   UNL     1      19.315   4.370  -7.630  1.00  0.00     0.074 A 
ATOM     54  C   UNL     1      21.055   1.076 -12.779  1.00  0.00     0.029 A 
ATOM     55  N   UNL     1      19.898   2.070 -11.163  1.00  0.00    -0.354 N 
ATOM     56  N   UNL     1      19.575   3.671  -8.711  1.00  0.00    -0.248 NA
ATOM     57  C   UNL     1      20.509   4.826  -6.907  1.00  0.00     0.031 C 
ATOM     58  C   UNL     1      21.958   1.615 -11.855  1.00  0.00     0.029 A 
ATOM     59  C   UNL     1      21.238   2.266 -10.867  1.00  0.00     0.049 A 
ATOM     60  H   UNL     1      19.146   2.408 -10.623  1.00  0.00     0.167 HD
ATOM     61  C   UNL     1      20.962   3.629  -8.811  1.00  0.00     0.074 A 
ATOM     62  C   UNL     1      21.482   4.389  -7.692  1.00  0.00     0.031 C 
ATOM     63  C   UNL     1      21.739   3.021  -9.743  1.00  0.00     0.034 A 
BRANCH  50  64
ATOM     64  C   UNL     1      18.535   0.075 -14.166  1.00  0.00     0.023 A 
ATOM     65  C   UNL     1      18.002   0.540 -15.381  1.00  0.00     0.031 A 
ATOM     66  C   UNL     1      19.076  -1.223 -14.140  1.00  0.00     0.131 A 
ATOM     67  C   UNL     1      17.954  -0.309 -16.497  1.00  0.00     0.055 A 
ATOM     68  C   UNL     1      19.098  -2.035 -15.276  1.00  0.00     0.041 A 
ATOM     69  F   UNL     1      19.583  -1.729 -13.005  1.00  0.00    -0.206 F 
ATOM     70  C   UNL     1      18.521  -1.585 -16.460  1.00  0.00     0.022 A 
BRANCH  67  71
ATOM     71  S   UNL     1      17.023   0.230 -17.957  1.00  0.00     0.124 S 
ATOM     72  O   UNL     1      15.680   0.391 -17.405  1.00  0.00    -0.237 OA
ATOM     73  O   UNL     1      17.710   1.460 -18.334  1.00  0.00    -0.237 OA
ATOM     74  O   UNL     1      17.176  -0.882 -18.892  1.00  0.00    -0.744 OA
ENDBRANCH  67  71
ENDBRANCH  50  64
BRANCH  51  75
ATOM     75  C   UNL     1      17.893   5.502  -5.762  1.00  0.00     0.023 A 
ATOM     76  C   UNL     1      18.406   6.802  -5.634  1.00  0.00     0.031 A 
ATOM     77  C   UNL     1      17.340   4.897  -4.619  1.00  0.00     0.131 A 
ATOM     78  C   UNL     1      18.405   7.435  -4.381  1.00  0.00     0.055 A 
ATOM     79  C   UNL     1      17.291   5.552  -3.387  1.00  0.00     0.041 A 
ATOM     80  F   UNL     1      16.829   3.657  -4.686  1.00  0.00    -0.206 F 
ATOM     81  C   UNL     1      17.840   6.824  -3.260  1.00  0.00     0.022 A 
BRANCH  78  82
ATOM     82  S   UNL     1      19.242   9.036  -4.217  1.00  0.00     0.124 S 
ATOM     83  O   UNL     1      20.584   8.720  -4.694  1.00  0.00    -0.237 OA
ATOM     84  O   UNL     1      18.436   9.888  -5.085  1.00  0.00    -0.237 OA
ATOM     85  O   UNL     1      19.139   9.328  -2.789  1.00  0.00    -0.744 OA
ENDBRANCH  78  82
ENDBRANCH  51  75
BRANCH  63  86
ATOM     86  C   UNL     1      23.232   3.199  -9.610  1.00  0.00     0.023 A 
ATOM     87  C   UNL     1      23.953   2.632  -8.545  1.00  0.00     0.031 A 
ATOM     88  C   UNL     1      23.938   3.960 -10.558  1.00  0.00     0.131 A 
ATOM     89  C   UNL     1      25.328   2.881  -8.422  1.00  0.00     0.055 A 
ATOM     90  C   UNL     1      25.316   4.157 -10.462  1.00  0.00     0.041 A 
ATOM     91  F   UNL     1      23.298   4.525 -11.594  1.00  0.00    -0.206 F 
ATOM     92  C   UNL     1      26.017   3.627  -9.382  1.00  0.00     0.022 A 
BRANCH  89  93
ATOM     93  S   UNL     1      26.191   2.289  -6.941  1.00  0.00     0.124 S 
ATOM     94  O   UNL     1      25.453   2.955  -5.873  1.00  0.00    -0.237 OA
ATOM     95  O   UNL     1      26.014   0.844  -7.033  1.00  0.00    -0.237 OA
ATOM     96  O   UNL     1      27.563   2.757  -7.133  1.00  0.00    -0.744 OA
ENDBRANCH  89  93
ENDBRANCH  63  86
ENDBRANCH  37  38
ENDBRANCH  29  32
ENDBRANCH  27  28
ENDBRANCH   1  27
TORSDOF 16
