REMARK SMILES CCCNC(=O)[C@H](C)Oc1c(F)cc(C(=O)NCCCNC(=O)c2ccc(-c3c4nc(c(-c5cc(S(=O)(=O)[O-])ccc5F)c5ccc([nH]5)c(-c5cc(S(=O)(=O)[O-])ccc5F)c5nc(c(-c6cc(S(=O)(=O)[O-])ccc6F)c6ccc3[nH]6)C=C5)C=C4)cc2)cc1F
REMARK SMILES IDX 18 1 17 2 15 3 16 4 14 6 10 7 11 8 88 9 12 10 13 11 87 12
REMARK SMILES IDX 89 13 9 14 7 15 8 16 5 17 4 18 6 20 3 21 2 22 1 23 19 24
REMARK SMILES IDX 20 25 21 26 22 27 23 29 24 30 25 31 86 32 26 33 85 34 27 35
REMARK SMILES IDX 28 36 29 37 79 38 30 39 84 40 78 41 80 42 31 43 83 44 77 45
REMARK SMILES IDX 76 46 32 48 64 49 44 50 63 51 45 52 48 53 62 54 81 55 46 56
REMARK SMILES IDX 47 57 61 59 82 60 49 61 33 62 34 63 42 64 35 65 41 66 43 67
REMARK SMILES IDX 40 68 36 69 37 70 38 71 39 72 65 73 66 74 74 75 67 76 73 77
REMARK SMILES IDX 75 78 72 79 68 80 69 81 70 82 71 83 50 84 51 85 59 86 52 87
REMARK SMILES IDX 58 88 60 89 57 90 53 91 54 92 55 93 56 94
REMARK H PARENT 17 5 4 19 21 28 80 47 48 58
REMARK Flexibility Score: inf
ROOT
ATOM      1  C   UNL     1       4.420   1.383   0.088  1.00  0.00     0.118 C 
ENDROOT
BRANCH   1   2
ATOM      2  N   UNL     1       5.005   2.395  -0.774  1.00  0.00    -0.352 N 
ATOM      3  C   UNL     1       4.666   2.866  -2.018  1.00  0.00     0.251 C 
ATOM      4  O   UNL     1       5.301   3.828  -2.452  1.00  0.00    -0.269 OA
ATOM      5  H   UNL     1       5.801   2.828  -0.391  1.00  0.00     0.163 HD
BRANCH   3   6
ATOM      6  C   UNL     1       3.570   2.299  -2.853  1.00  0.00     0.045 A 
ATOM      7  C   UNL     1       1.508   1.340  -4.555  1.00  0.00     0.191 A 
ATOM      8  C   UNL     1       2.056   0.543  -3.558  1.00  0.00     0.168 A 
ATOM      9  C   UNL     1       2.051   2.613  -4.727  1.00  0.00     0.168 A 
ATOM     10  F   UNL     1       1.674  -0.726  -3.386  1.00  0.00    -0.203 F 
ATOM     11  C   UNL     1       3.079   1.003  -2.730  1.00  0.00     0.057 A 
ATOM     12  C   UNL     1       3.055   3.099  -3.884  1.00  0.00     0.057 A 
ATOM     13  F   UNL     1       1.619   3.400  -5.724  1.00  0.00    -0.203 F 
BRANCH   7  14
ATOM     14  O   UNL     1       0.569   0.921  -5.457  1.00  0.00    -0.475 OA
BRANCH  14  15
ATOM     15  C   UNL     1      -0.664   0.383  -4.939  1.00  0.00     0.259 C 
ATOM     16  C   UNL     1      -0.539  -1.121  -4.742  1.00  0.00     0.064 C 
BRANCH  15  17
ATOM     17  C   UNL     1      -1.383   1.275  -3.885  1.00  0.00     0.260 C 
ATOM     18  N   UNL     1      -2.299   0.839  -2.983  1.00  0.00    -0.353 N 
ATOM     19  H   UNL     1      -2.829   1.568  -2.588  1.00  0.00     0.163 HD
ATOM     20  O   UNL     1      -1.210   2.503  -3.886  1.00  0.00    -0.271 OA
BRANCH  18  21
ATOM     21  C   UNL     1      -2.666  -0.470  -2.477  1.00  0.00     0.115 C 
BRANCH  21  22
ATOM     22  C   UNL     1      -1.922  -0.776  -1.176  1.00  0.00     0.018 C 
ATOM     23  C   UNL     1      -2.446   0.052  -0.007  1.00  0.00     0.006 C 
ENDBRANCH  21  22
ENDBRANCH  18  21
ENDBRANCH  15  17
ENDBRANCH  14  15
ENDBRANCH   7  14
ENDBRANCH   3   6
ENDBRANCH   1   2
BRANCH   1  24
ATOM     24  C   UNL     1       5.149   0.042  -0.032  1.00  0.00     0.042 C 
BRANCH  24  25
ATOM     25  C   UNL     1       6.430  -0.036   0.793  1.00  0.00     0.118 C 
BRANCH  25  26
ATOM     26  N   UNL     1       6.152  -0.054   2.221  1.00  0.00    -0.352 N 
ATOM     27  C   UNL     1       6.498  -0.971   3.182  1.00  0.00     0.251 C 
ATOM     28  H   UNL     1       5.632   0.714   2.550  1.00  0.00     0.163 HD
ATOM     29  O   UNL     1       5.946  -0.912   4.278  1.00  0.00    -0.269 OA
BRANCH  27  30
ATOM     30  C   UNL     1       7.506  -2.023   2.912  1.00  0.00     0.039 A 
ATOM     31  C   UNL     1       7.317  -3.290   3.474  1.00  0.00     0.014 A 
ATOM     32  C   UNL     1       8.658  -1.760   2.166  1.00  0.00     0.014 A 
ATOM     33  C   UNL     1       8.254  -4.302   3.247  1.00  0.00     0.010 A 
ATOM     34  C   UNL     1       9.556  -2.788   1.882  1.00  0.00     0.010 A 
ATOM     35  C   UNL     1       9.367  -4.068   2.424  1.00  0.00    -0.014 A 
BRANCH  35  36
ATOM     36  C   UNL     1      10.341  -5.149   2.122  1.00  0.00     0.031 A 
ATOM     37  C   UNL     1      11.770  -5.035   2.580  1.00  0.00     0.074 A 
ATOM     38  C   UNL     1       9.951  -6.200   1.374  1.00  0.00     0.049 A 
ATOM     39  N   UNL     1      12.782  -5.830   2.346  1.00  0.00    -0.248 NA
ATOM     40  C   UNL     1      12.109  -3.850   3.382  1.00  0.00     0.031 C 
ATOM     41  C   UNL     1       8.604  -6.396   0.834  1.00  0.00     0.029 A 
ATOM     42  N   UNL     1      10.650  -7.292   0.924  1.00  0.00    -0.354 N 
ATOM     43  C   UNL     1      13.883  -5.234   2.953  1.00  0.00     0.074 A 
ATOM     44  C   UNL     1      13.420  -3.983   3.517  1.00  0.00     0.031 C 
ATOM     45  C   UNL     1       8.571  -7.544   0.139  1.00  0.00     0.029 A 
ATOM     46  C   UNL     1       9.901  -8.143   0.145  1.00  0.00     0.049 A 
ATOM     47  H   UNL     1      11.597  -7.451   1.139  1.00  0.00     0.167 HD
ATOM     48  C   UNL     1      15.155  -5.697   3.045  1.00  0.00     0.034 A 
ATOM     49  C   UNL     1      10.250  -9.269  -0.508  1.00  0.00     0.034 A 
ATOM     50  C   UNL     1      15.591  -6.955   2.485  1.00  0.00     0.049 A 
ATOM     51  C   UNL     1      11.669  -9.762  -0.398  1.00  0.00     0.074 A 
ATOM     52  C   UNL     1      16.833  -7.558   2.582  1.00  0.00     0.029 A 
ATOM     53  N   UNL     1      14.802  -7.798   1.711  1.00  0.00    -0.354 N 
ATOM     54  N   UNL     1      12.684  -9.221   0.234  1.00  0.00    -0.248 NA
ATOM     55  C   UNL     1      11.985 -11.024  -1.079  1.00  0.00     0.031 C 
ATOM     56  C   UNL     1      16.817  -8.725   1.809  1.00  0.00     0.029 A 
ATOM     57  C   UNL     1      15.541  -8.895   1.293  1.00  0.00     0.049 A 
ATOM     58  H   UNL     1      13.856  -7.639   1.491  1.00  0.00     0.167 HD
ATOM     59  C   UNL     1      13.756 -10.088   0.044  1.00  0.00     0.074 A 
ATOM     60  C   UNL     1      13.255 -11.196  -0.745  1.00  0.00     0.031 C 
ATOM     61  C   UNL     1      15.035  -9.982   0.486  1.00  0.00     0.034 A 
BRANCH  48  62
ATOM     62  C   UNL     1      16.166  -4.819   3.749  1.00  0.00     0.023 A 
ATOM     63  C   UNL     1      16.027  -4.467   5.103  1.00  0.00     0.031 A 
ATOM     64  C   UNL     1      17.267  -4.298   3.047  1.00  0.00     0.131 A 
ATOM     65  C   UNL     1      16.918  -3.552   5.686  1.00  0.00     0.055 A 
ATOM     66  C   UNL     1      18.201  -3.456   3.657  1.00  0.00     0.041 A 
ATOM     67  F   UNL     1      17.446  -4.581   1.747  1.00  0.00    -0.206 F 
ATOM     68  C   UNL     1      18.019  -3.064   4.980  1.00  0.00     0.022 A 
BRANCH  65  69
ATOM     69  S   UNL     1      16.524  -2.888   7.328  1.00  0.00     0.124 S 
ATOM     70  O   UNL     1      15.204  -2.304   7.101  1.00  0.00    -0.237 OA
ATOM     71  O   UNL     1      16.561  -4.079   8.167  1.00  0.00    -0.237 OA
ATOM     72  O   UNL     1      17.591  -1.919   7.571  1.00  0.00    -0.744 OA
ENDBRANCH  65  69
ENDBRANCH  48  62
BRANCH  49  73
ATOM     73  C   UNL     1       9.245  -9.997  -1.334  1.00  0.00     0.023 A 
ATOM     74  C   UNL     1       8.802 -11.279  -0.976  1.00  0.00     0.031 A 
ATOM     75  C   UNL     1       8.723  -9.421  -2.506  1.00  0.00     0.131 A 
ATOM     76  C   UNL     1       7.892 -11.959  -1.801  1.00  0.00     0.055 A 
ATOM     77  C   UNL     1       7.782 -10.081  -3.297  1.00  0.00     0.041 A 
ATOM     78  F   UNL     1       9.107  -8.192  -2.888  1.00  0.00    -0.206 F 
ATOM     79  C   UNL     1       7.369 -11.364  -2.951  1.00  0.00     0.022 A 
BRANCH  76  80
ATOM     80  S   UNL     1       7.444 -13.666  -1.379  1.00  0.00     0.124 S 
ATOM     81  O   UNL     1       8.743 -14.329  -1.402  1.00  0.00    -0.237 OA
ATOM     82  O   UNL     1       6.830 -13.502  -0.066  1.00  0.00    -0.237 OA
ATOM     83  O   UNL     1       6.527 -14.051  -2.449  1.00  0.00    -0.744 OA
ENDBRANCH  76  80
ENDBRANCH  49  73
BRANCH  61  84
ATOM     84  C   UNL     1      15.971 -11.116   0.146  1.00  0.00     0.023 A 
ATOM     85  C   UNL     1      16.364 -11.378  -1.179  1.00  0.00     0.031 A 
ATOM     86  C   UNL     1      16.464 -11.955   1.161  1.00  0.00     0.131 A 
ATOM     87  C   UNL     1      17.179 -12.486  -1.460  1.00  0.00     0.055 A 
ATOM     88  C   UNL     1      17.324 -13.018   0.882  1.00  0.00     0.041 A 
ATOM     89  F   UNL     1      16.119 -11.754   2.442  1.00  0.00    -0.206 F 
ATOM     90  C   UNL     1      17.675 -13.297  -0.436  1.00  0.00     0.022 A 
BRANCH  87  91
ATOM     91  S   UNL     1      17.505 -12.910  -3.193  1.00  0.00     0.124 S 
ATOM     92  O   UNL     1      16.157 -13.116  -3.713  1.00  0.00    -0.237 OA
ATOM     93  O   UNL     1      18.202 -11.724  -3.679  1.00  0.00    -0.237 OA
ATOM     94  O   UNL     1      18.325 -14.116  -3.102  1.00  0.00    -0.744 OA
ENDBRANCH  87  91
ENDBRANCH  61  84
ENDBRANCH  35  36
ENDBRANCH  27  30
ENDBRANCH  25  26
ENDBRANCH  24  25
ENDBRANCH   1  24
TORSDOF 18
