REMARK SMILES Cc1ccc(C[C@H](C(=O)NCCCNC(=O)c2ccc(-c3c4nc(c(-c5cc(S(=O)(=O)[O-])ccc5F)c5ccc([nH]5)c(-c5cc(S(=O)(=O)[O-])ccc5F)c5nc(c(-c6cc(S(=O)(=O)[O-])ccc6F)c6ccc3[nH]6)C=C5)C=C4)cc2)[C@@H]2CCCC[C@@H]2O)cc1
REMARK SMILES IDX 12 1 11 2 10 3 8 4 9 5 7 7 6 8 5 9 1 10 2 11 3 12 88 13 4 14
REMARK SMILES IDX 87 15 80 16 81 17 85 18 82 19 84 20 83 21 86 22 13 24 14 25
REMARK SMILES IDX 15 26 16 28 17 29 18 30 79 31 19 32 78 33 20 34 21 35 22 36
REMARK SMILES IDX 72 37 23 38 77 39 71 40 73 41 24 42 76 43 70 44 69 45 25 47
REMARK SMILES IDX 57 48 37 49 56 50 38 51 41 52 55 53 74 54 39 55 40 56 54 58
REMARK SMILES IDX 75 59 42 60 26 61 27 62 35 63 28 64 34 65 36 66 33 67 29 68
REMARK SMILES IDX 30 69 31 70 32 71 58 72 59 73 67 74 60 75 66 76 68 77 65 78
REMARK SMILES IDX 61 79 62 80 63 81 64 82 43 83 44 84 52 85 45 86 51 87 53 88
REMARK SMILES IDX 50 89 46 90 47 91 48 92 49 93
REMARK H PARENT 10 6 86 23 14 27 73 46 41 57
REMARK Flexibility Score: inf
ROOT
ATOM      1  C   UNL     1      -5.738  -1.812   4.165  1.00  0.00     0.042 C 
ENDROOT
BRANCH   1   2
ATOM      2  C   UNL     1      -5.518  -1.000   2.912  1.00  0.00     0.117 C 
BRANCH   2   3
ATOM      3  N   UNL     1      -4.603  -1.499   1.931  1.00  0.00    -0.356 N 
ATOM      4  C   UNL     1      -4.553  -1.112   0.624  1.00  0.00     0.223 C 
ATOM      5  O   UNL     1      -3.602  -1.548  -0.038  1.00  0.00    -0.275 OA
ATOM      6  H   UNL     1      -3.955  -2.179   2.225  1.00  0.00     0.163 HD
BRANCH   4   7
ATOM      7  C   UNL     1      -5.699  -0.277  -0.044  1.00  0.00     0.088 C 
BRANCH   7   8
ATOM      8  C   UNL     1      -5.725   1.233   0.371  1.00  0.00     0.049 C 
BRANCH   8   9
ATOM      9  C   UNL     1      -6.214   1.670   1.739  1.00  0.00    -0.047 A 
ATOM     10  C   UNL     1      -7.324   2.416   5.854  1.00  0.00     0.044 C 
ATOM     11  C   UNL     1      -6.973   2.252   4.403  1.00  0.00    -0.051 A 
ATOM     12  C   UNL     1      -7.867   1.622   3.531  1.00  0.00     0.004 A 
ATOM     13  C   UNL     1      -5.723   2.652   3.916  1.00  0.00     0.004 A 
ATOM     14  C   UNL     1      -7.504   1.360   2.203  1.00  0.00     0.004 A 
ATOM     15  C   UNL     1      -5.352   2.376   2.595  1.00  0.00     0.004 A 
ENDBRANCH   8   9
ENDBRANCH   7   8
BRANCH   7  16
ATOM     16  C   UNL     1      -5.501  -0.433  -1.620  1.00  0.00     0.030 C 
ATOM     17  C   UNL     1      -6.066   0.682  -2.521  1.00  0.00     0.007 C 
ATOM     18  C   UNL     1      -5.991  -1.803  -2.171  1.00  0.00     0.118 C 
ATOM     19  C   UNL     1      -7.584   0.636  -2.634  1.00  0.00     0.001 C 
ATOM     20  C   UNL     1      -7.510  -1.862  -2.366  1.00  0.00     0.032 C 
ATOM     21  C   UNL     1      -8.033  -0.703  -3.204  1.00  0.00     0.003 C 
BRANCH  18  22
ATOM     22  O   UNL     1      -5.622  -2.899  -1.347  1.00  0.00    -0.393 OA
ATOM     23  H   UNL     1      -6.067  -2.822  -0.488  1.00  0.00     0.210 HD
ENDBRANCH  18  22
ENDBRANCH   7  16
ENDBRANCH   4   7
ENDBRANCH   2   3
ENDBRANCH   1   2
BRANCH   1  24
ATOM     24  C   UNL     1      -4.704  -1.516   5.251  1.00  0.00     0.118 C 
BRANCH  24  25
ATOM     25  N   UNL     1      -4.761  -0.130   5.759  1.00  0.00    -0.352 N 
ATOM     26  C   UNL     1      -4.888   0.456   7.014  1.00  0.00     0.251 C 
ATOM     27  H   UNL     1      -4.692   0.537   5.038  1.00  0.00     0.163 HD
ATOM     28  O   UNL     1      -4.778   1.648   7.173  1.00  0.00    -0.269 OA
BRANCH  26  29
ATOM     29  C   UNL     1      -5.035  -0.389   8.219  1.00  0.00     0.039 A 
ATOM     30  C   UNL     1      -3.910  -0.327   9.053  1.00  0.00     0.014 A 
ATOM     31  C   UNL     1      -5.803  -1.531   8.112  1.00  0.00     0.014 A 
ATOM     32  C   UNL     1      -3.249  -1.509   9.320  1.00  0.00     0.010 A 
ATOM     33  C   UNL     1      -5.122  -2.705   8.332  1.00  0.00     0.010 A 
ATOM     34  C   UNL     1      -3.782  -2.664   8.773  1.00  0.00    -0.014 A 
BRANCH  34  35
ATOM     35  C   UNL     1      -2.975  -3.822   8.404  1.00  0.00     0.031 A 
ATOM     36  C   UNL     1      -3.337  -5.119   8.993  1.00  0.00     0.074 A 
ATOM     37  C   UNL     1      -2.043  -3.750   7.420  1.00  0.00     0.049 A 
ATOM     38  N   UNL     1      -2.651  -6.193   8.856  1.00  0.00    -0.248 NA
ATOM     39  C   UNL     1      -4.499  -5.288   9.860  1.00  0.00     0.031 C 
ATOM     40  C   UNL     1      -1.462  -4.864   6.670  1.00  0.00     0.029 A 
ATOM     41  N   UNL     1      -1.256  -2.654   7.052  1.00  0.00    -0.354 N 
ATOM     42  C   UNL     1      -3.386  -7.231   9.366  1.00  0.00     0.074 A 
ATOM     43  C   UNL     1      -4.482  -6.606  10.056  1.00  0.00     0.031 C 
ATOM     44  C   UNL     1      -0.286  -4.484   6.148  1.00  0.00     0.029 A 
ATOM     45  C   UNL     1       0.008  -3.164   6.666  1.00  0.00     0.049 A 
ATOM     46  H   UNL     1      -1.529  -1.708   7.059  1.00  0.00     0.167 HD
ATOM     47  C   UNL     1      -3.007  -8.495   9.045  1.00  0.00     0.034 A 
ATOM     48  C   UNL     1       1.138  -2.832   7.360  1.00  0.00     0.034 A 
ATOM     49  C   UNL     1      -1.655  -8.498   8.471  1.00  0.00     0.049 A 
ATOM     50  C   UNL     1       1.787  -3.998   8.092  1.00  0.00     0.074 A 
ATOM     51  C   UNL     1      -1.102  -8.633   7.210  1.00  0.00     0.029 A 
ATOM     52  N   UNL     1      -0.629  -8.046   9.281  1.00  0.00    -0.354 N 
ATOM     53  N   UNL     1       1.357  -5.231   8.055  1.00  0.00    -0.248 NA
ATOM     54  C   UNL     1       2.924  -3.843   9.002  1.00  0.00     0.031 C 
ATOM     55  C   UNL     1       0.261  -8.191   7.279  1.00  0.00     0.029 A 
ATOM     56  C   UNL     1       0.538  -7.829   8.587  1.00  0.00     0.049 A 
ATOM     57  H   UNL     1      -0.725  -7.897  10.249  1.00  0.00     0.167 HD
ATOM     58  C   UNL     1       2.026  -5.979   8.991  1.00  0.00     0.074 A 
ATOM     59  C   UNL     1       3.021  -5.073   9.536  1.00  0.00     0.031 C 
ATOM     60  C   UNL     1       1.672  -7.262   9.308  1.00  0.00     0.034 A 
BRANCH  47  61
ATOM     61  C   UNL     1      -3.874  -9.726   9.129  1.00  0.00     0.023 A 
ATOM     62  C   UNL     1      -3.378 -10.909   8.549  1.00  0.00     0.031 A 
ATOM     63  C   UNL     1      -5.188  -9.818   9.639  1.00  0.00     0.131 A 
ATOM     64  C   UNL     1      -4.164 -12.071   8.457  1.00  0.00     0.055 A 
ATOM     65  C   UNL     1      -5.963 -10.981   9.567  1.00  0.00     0.041 A 
ATOM     66  F   UNL     1      -5.822  -8.798  10.218  1.00  0.00    -0.206 F 
ATOM     67  C   UNL     1      -5.457 -12.115   8.963  1.00  0.00     0.022 A 
BRANCH  64  68
ATOM     68  S   UNL     1      -3.477 -13.518   7.617  1.00  0.00     0.124 S 
ATOM     69  O   UNL     1      -3.243 -13.006   6.271  1.00  0.00    -0.237 OA
ATOM     70  O   UNL     1      -2.294 -13.804   8.419  1.00  0.00    -0.237 OA
ATOM     71  O   UNL     1      -4.550 -14.507   7.722  1.00  0.00    -0.744 OA
ENDBRANCH  64  68
ENDBRANCH  47  61
BRANCH  48  72
ATOM     72  C   UNL     1       1.092  -1.416   7.827  1.00  0.00     0.023 A 
ATOM     73  C   UNL     1       1.058  -0.418   6.829  1.00  0.00     0.031 A 
ATOM     74  C   UNL     1       0.611  -1.091   9.102  1.00  0.00     0.131 A 
ATOM     75  C   UNL     1       0.385   0.789   7.067  1.00  0.00     0.055 A 
ATOM     76  C   UNL     1      -0.008   0.140   9.350  1.00  0.00     0.041 A 
ATOM     77  F   UNL     1       0.587  -2.011  10.079  1.00  0.00    -0.206 F 
ATOM     78  C   UNL     1      -0.172   1.065   8.317  1.00  0.00     0.022 A 
BRANCH  75  79
ATOM     79  S   UNL     1       0.038   1.871   5.648  1.00  0.00     0.124 S 
ATOM     80  O   UNL     1       1.358   2.422   5.359  1.00  0.00    -0.237 OA
ATOM     81  O   UNL     1      -0.492   0.929   4.664  1.00  0.00    -0.237 OA
ATOM     82  O   UNL     1      -0.936   2.826   6.168  1.00  0.00    -0.744 OA
ENDBRANCH  75  79
ENDBRANCH  48  72
BRANCH  60  83
ATOM     83  C   UNL     1       2.356  -8.066  10.391  1.00  0.00     0.023 A 
ATOM     84  C   UNL     1       3.752  -8.085  10.526  1.00  0.00     0.031 A 
ATOM     85  C   UNL     1       1.634  -8.902  11.276  1.00  0.00     0.131 A 
ATOM     86  C   UNL     1       4.364  -8.865  11.526  1.00  0.00     0.055 A 
ATOM     87  C   UNL     1       2.251  -9.755  12.194  1.00  0.00     0.041 A 
ATOM     88  F   UNL     1       0.295  -8.886  11.333  1.00  0.00    -0.206 F 
ATOM     89  C   UNL     1       3.627  -9.733  12.331  1.00  0.00     0.022 A 
BRANCH  86  90
ATOM     90  S   UNL     1       6.136  -8.652  11.828  1.00  0.00     0.124 S 
ATOM     91  O   UNL     1       6.716  -8.873  10.508  1.00  0.00    -0.237 OA
ATOM     92  O   UNL     1       6.186  -7.278  12.322  1.00  0.00    -0.237 OA
ATOM     93  O   UNL     1       6.443  -9.677  12.824  1.00  0.00    -0.744 OA
ENDBRANCH  86  90
ENDBRANCH  60  83
ENDBRANCH  34  35
ENDBRANCH  26  29
ENDBRANCH  24  25
ENDBRANCH   1  24
TORSDOF 17
