REMARK SMILES Cc1ccc(C(F)(F)F)cc1/C=C/C(=O)NCCCNC(=O)c1ccc(-c2c3nc(c(-c4cc(S(=O)(=O)[O-])ccc4F)c4ccc([nH]4)c(-c4cc(S(=O)(=O)[O-])ccc4F)c4nc(c(-c5cc(S(=O)(=O)[O-])ccc5F)c5ccc2[nH]5)C=C4)C=C3)cc1
REMARK SMILES IDX 18 1 17 2 16 3 14 4 15 5 13 7 12 8 11 9 1 10 2 11 3 12 4 13
REMARK SMILES IDX 10 14 5 15 6 16 7 17 8 18 9 19 19 20 20 21 21 22 22 24 23 25
REMARK SMILES IDX 24 26 85 27 25 28 84 29 26 30 27 31 28 32 78 33 29 34 83 35
REMARK SMILES IDX 77 36 79 37 30 38 82 39 76 40 75 41 31 43 63 44 43 45 62 46
REMARK SMILES IDX 44 47 47 48 61 49 80 50 45 51 46 52 60 54 81 55 48 56 32 57
REMARK SMILES IDX 33 58 41 59 34 60 40 61 42 62 39 63 35 64 36 65 37 66 38 67
REMARK SMILES IDX 64 68 65 69 73 70 66 71 72 72 74 73 71 74 67 75 68 76 69 77
REMARK SMILES IDX 70 78 49 79 50 80 58 81 51 82 57 83 59 84 56 85 52 86 53 87
REMARK SMILES IDX 54 88 55 89
REMARK H PARENT 16 6 20 23 79 42 47 53
REMARK Flexibility Score: inf
ROOT
ATOM      1  C   UNL     1       4.058   3.187  -1.860  1.00  0.00     0.042 C 
ENDROOT
BRANCH   1   2
ATOM      2  C   UNL     1       3.111   3.275  -0.689  1.00  0.00     0.118 C 
BRANCH   2   3
ATOM      3  N   UNL     1       2.433   4.546  -0.494  1.00  0.00    -0.352 N 
ATOM      4  C   UNL     1       1.116   4.728  -0.163  1.00  0.00     0.244 C 
ATOM      5  O   UNL     1       0.615   5.842  -0.021  1.00  0.00    -0.270 OA
ATOM      6  H   UNL     1       2.975   5.360  -0.611  1.00  0.00     0.163 HD
BRANCH   4   7
ATOM      7  C   UNL     1       0.249   3.526  -0.146  1.00  0.00     0.072 C 
ATOM      8  C   UNL     1       0.540   2.466   0.629  1.00  0.00     0.014 C 
BRANCH   8   9
ATOM      9  C   UNL     1      -0.074   1.148   0.414  1.00  0.00    -0.022 A 
ATOM     10  C   UNL     1       2.206  -0.076   0.286  1.00  0.00     0.045 C 
ATOM     11  C   UNL     1       0.699  -0.025   0.256  1.00  0.00    -0.044 A 
ATOM     12  C   UNL     1       0.046  -1.248   0.025  1.00  0.00     0.004 A 
ATOM     13  C   UNL     1      -1.342  -1.315  -0.059  1.00  0.00     0.013 A 
ATOM     14  C   UNL     1      -1.472   1.063   0.334  1.00  0.00     0.021 A 
ATOM     15  C   UNL     1      -2.115  -0.158   0.084  1.00  0.00     0.056 A 
BRANCH  15  16
ATOM     16  C   UNL     1      -3.614  -0.234  -0.019  1.00  0.00     0.416 C 
ATOM     17  F   UNL     1      -4.026  -0.909  -1.131  1.00  0.00    -0.166 F 
ATOM     18  F   UNL     1      -4.176  -0.889   1.036  1.00  0.00    -0.166 F 
ATOM     19  F   UNL     1      -4.229   0.979  -0.077  1.00  0.00    -0.166 F 
ENDBRANCH  15  16
ENDBRANCH   8   9
ENDBRANCH   4   7
ENDBRANCH   2   3
ENDBRANCH   1   2
BRANCH   1  20
ATOM     20  C   UNL     1       5.343   3.965  -1.691  1.00  0.00     0.118 C 
BRANCH  20  21
ATOM     21  N   UNL     1       6.497   3.136  -1.309  1.00  0.00    -0.352 N 
ATOM     22  C   UNL     1       7.852   3.284  -1.586  1.00  0.00     0.251 C 
ATOM     23  H   UNL     1       6.273   2.345  -0.768  1.00  0.00     0.163 HD
ATOM     24  O   UNL     1       8.691   2.517  -1.123  1.00  0.00    -0.269 OA
BRANCH  22  25
ATOM     25  C   UNL     1       8.314   4.489  -2.323  1.00  0.00     0.039 A 
ATOM     26  C   UNL     1       9.146   5.353  -1.600  1.00  0.00     0.014 A 
ATOM     27  C   UNL     1       7.528   4.971  -3.352  1.00  0.00     0.014 A 
ATOM     28  C   UNL     1       8.851   6.707  -1.601  1.00  0.00     0.010 A 
ATOM     29  C   UNL     1       7.106   6.274  -3.225  1.00  0.00     0.010 A 
ATOM     30  C   UNL     1       7.714   7.113  -2.287  1.00  0.00    -0.014 A 
BRANCH  30  31
ATOM     31  C   UNL     1       7.125   8.431  -2.166  1.00  0.00     0.031 A 
ATOM     32  C   UNL     1       7.513   9.398  -3.198  1.00  0.00     0.074 A 
ATOM     33  C   UNL     1       6.242   8.723  -1.188  1.00  0.00     0.049 A 
ATOM     34  N   UNL     1       7.566  10.667  -3.027  1.00  0.00    -0.248 NA
ATOM     35  C   UNL     1       7.984   8.970  -4.512  1.00  0.00     0.031 C 
ATOM     36  C   UNL     1       5.426   9.925  -1.046  1.00  0.00     0.029 A 
ATOM     37  N   UNL     1       6.060   8.044   0.015  1.00  0.00    -0.354 N 
ATOM     38  C   UNL     1       7.771  11.233  -4.265  1.00  0.00     0.074 A 
ATOM     39  C   UNL     1       8.157  10.142  -5.119  1.00  0.00     0.031 C 
ATOM     40  C   UNL     1       5.043  10.043   0.238  1.00  0.00     0.029 A 
ATOM     41  C   UNL     1       5.717   9.003   0.994  1.00  0.00     0.049 A 
ATOM     42  H   UNL     1       6.154   7.074   0.157  1.00  0.00     0.167 HD
ATOM     43  C   UNL     1       7.424  12.537  -4.446  1.00  0.00     0.034 A 
ATOM     44  C   UNL     1       6.559   9.214   2.051  1.00  0.00     0.034 A 
ATOM     45  C   UNL     1       6.988  13.122  -3.171  1.00  0.00     0.049 A 
ATOM     46  C   UNL     1       7.275  10.556   1.973  1.00  0.00     0.074 A 
ATOM     47  C   UNL     1       5.747  13.350  -2.599  1.00  0.00     0.029 A 
ATOM     48  N   UNL     1       7.901  13.197  -2.128  1.00  0.00    -0.354 N 
ATOM     49  N   UNL     1       7.135  11.425   1.007  1.00  0.00    -0.248 NA
ATOM     50  C   UNL     1       8.271  10.977   2.953  1.00  0.00     0.031 C 
ATOM     51  C   UNL     1       5.929  13.505  -1.190  1.00  0.00     0.029 A 
ATOM     52  C   UNL     1       7.281  13.427  -0.911  1.00  0.00     0.049 A 
ATOM     53  H   UNL     1       8.874  13.097  -2.240  1.00  0.00     0.167 HD
ATOM     54  C   UNL     1       8.013  12.467   1.177  1.00  0.00     0.074 A 
ATOM     55  C   UNL     1       8.721  12.117   2.403  1.00  0.00     0.031 C 
ATOM     56  C   UNL     1       8.108  13.512   0.290  1.00  0.00     0.034 A 
BRANCH  43  57
ATOM     57  C   UNL     1       7.187  13.175  -5.800  1.00  0.00     0.023 A 
ATOM     58  C   UNL     1       6.355  14.310  -5.863  1.00  0.00     0.031 A 
ATOM     59  C   UNL     1       7.667  12.722  -7.048  1.00  0.00     0.131 A 
ATOM     60  C   UNL     1       5.967  14.874  -7.093  1.00  0.00     0.055 A 
ATOM     61  C   UNL     1       7.243  13.249  -8.275  1.00  0.00     0.041 A 
ATOM     62  F   UNL     1       8.616  11.787  -7.157  1.00  0.00    -0.206 F 
ATOM     63  C   UNL     1       6.380  14.329  -8.304  1.00  0.00     0.022 A 
BRANCH  60  64
ATOM     64  S   UNL     1       4.909  16.343  -7.087  1.00  0.00     0.124 S 
ATOM     65  O   UNL     1       3.700  15.847  -6.438  1.00  0.00    -0.237 OA
ATOM     66  O   UNL     1       5.710  17.296  -6.328  1.00  0.00    -0.237 OA
ATOM     67  O   UNL     1       4.761  16.658  -8.508  1.00  0.00    -0.744 OA
ENDBRANCH  60  64
ENDBRANCH  43  57
BRANCH  44  68
ATOM     68  C   UNL     1       7.158   7.919   2.523  1.00  0.00     0.023 A 
ATOM     69  C   UNL     1       6.247   6.920   2.945  1.00  0.00     0.031 A 
ATOM     70  C   UNL     1       8.403   7.505   2.031  1.00  0.00     0.131 A 
ATOM     71  C   UNL     1       6.479   5.579   2.598  1.00  0.00     0.055 A 
ATOM     72  C   UNL     1       8.654   6.158   1.760  1.00  0.00     0.041 A 
ATOM     73  F   UNL     1       9.322   8.402   1.644  1.00  0.00    -0.206 F 
ATOM     74  C   UNL     1       7.661   5.201   1.963  1.00  0.00     0.022 A 
BRANCH  71  75
ATOM     75  S   UNL     1       5.105   4.395   2.700  1.00  0.00     0.124 S 
ATOM     76  O   UNL     1       5.106   4.037   4.113  1.00  0.00    -0.237 OA
ATOM     77  O   UNL     1       3.971   5.189   2.236  1.00  0.00    -0.237 OA
ATOM     78  O   UNL     1       5.495   3.326   1.779  1.00  0.00    -0.744 OA
ENDBRANCH  71  75
ENDBRANCH  44  68
BRANCH  56  79
ATOM     79  C   UNL     1       9.037  14.707   0.456  1.00  0.00     0.023 A 
ATOM     80  C   UNL     1       9.558  15.085   1.698  1.00  0.00     0.031 A 
ATOM     81  C   UNL     1       9.401  15.552  -0.625  1.00  0.00     0.131 A 
ATOM     82  C   UNL     1      10.515  16.107   1.813  1.00  0.00     0.055 A 
ATOM     83  C   UNL     1      10.295  16.620  -0.499  1.00  0.00     0.041 A 
ATOM     84  F   UNL     1       8.917  15.391  -1.863  1.00  0.00    -0.206 F 
ATOM     85  C   UNL     1      10.888  16.883   0.721  1.00  0.00     0.022 A 
BRANCH  82  86
ATOM     86  S   UNL     1      11.309  16.353   3.419  1.00  0.00     0.124 S 
ATOM     87  O   UNL     1      10.162  16.508   4.315  1.00  0.00    -0.237 OA
ATOM     88  O   UNL     1      12.058  15.105   3.570  1.00  0.00    -0.237 OA
ATOM     89  O   UNL     1      12.117  17.546   3.228  1.00  0.00    -0.744 OA
ENDBRANCH  82  86
ENDBRANCH  56  79
ENDBRANCH  30  31
ENDBRANCH  22  25
ENDBRANCH  20  21
ENDBRANCH   1  20
TORSDOF 15
