REMARK SMILES CC[C@@](O)(C(=O)NCCCNC(=O)c1ccc(-c2c3nc(c(-c4cc(S(=O)(=O)[O-])ccc4F)c4ccc([nH]4)c(-c4cc(S(=O)(=O)[O-])ccc4F)c4nc(c(-c5cc(S(=O)(=O)[O-])ccc5F)c5ccc2[nH]5)C=C4)C=C3)cc1)[C@H]1CCCc2ccccc21
REMARK SMILES IDX 10 1 9 2 8 3 7 4 5 5 6 6 3 8 2 9 1 10 4 11 77 13 78 14 86 15
REMARK SMILES IDX 79 16 81 17 85 18 80 19 82 20 84 21 83 22 11 23 12 24 13 26
REMARK SMILES IDX 14 27 15 28 76 29 16 30 75 31 17 32 18 33 19 34 69 35 20 36
REMARK SMILES IDX 74 37 68 38 70 39 21 40 73 41 67 42 66 43 22 45 54 46 34 47
REMARK SMILES IDX 53 48 35 49 38 50 52 51 71 52 36 53 37 54 51 56 72 57 39 58
REMARK SMILES IDX 23 59 24 60 32 61 25 62 31 63 33 64 30 65 26 66 27 67 28 68
REMARK SMILES IDX 29 69 55 70 56 71 64 72 57 73 63 74 65 75 62 76 58 77 59 78
REMARK SMILES IDX 60 79 61 80 40 81 41 82 49 83 42 84 48 85 50 86 47 87 43 88
REMARK SMILES IDX 44 89 45 90 46 91
REMARK H PARENT 7 7 4 12 11 25 70 44 38 55
REMARK Flexibility Score: inf
ROOT
ATOM      1  C   UNL     1      -3.654  -0.863   4.172  1.00  0.00     0.118 C 
ENDROOT
BRANCH   1   2
ATOM      2  C   UNL     1      -2.954  -0.236   2.974  1.00  0.00     0.042 C 
BRANCH   2   3
ATOM      3  C   UNL     1      -1.968   0.863   3.373  1.00  0.00     0.117 C 
BRANCH   3   4
ATOM      4  N   UNL     1      -0.748   0.269   3.879  1.00  0.00    -0.354 N 
ATOM      5  C   UNL     1       0.397  -0.106   3.233  1.00  0.00     0.252 C 
ATOM      6  O   UNL     1       1.170  -0.805   3.899  1.00  0.00    -0.272 OA
ATOM      7  H   UNL     1      -0.742   0.109   4.850  1.00  0.00     0.163 HD
BRANCH   5   8
ATOM      8  C   UNL     1       0.731   0.362   1.766  1.00  0.00     0.149 C 
BRANCH   8   9
ATOM      9  C   UNL     1      -0.323  -0.162   0.746  1.00  0.00     0.043 C 
ATOM     10  C   UNL     1      -0.167   0.315  -0.695  1.00  0.00     0.007 C 
ENDBRANCH   8   9
BRANCH   8  11
ATOM     11  O   UNL     1       0.625   1.793   1.855  1.00  0.00    -0.379 OA
ATOM     12  H   UNL     1      -0.294   2.038   2.045  1.00  0.00     0.212 HD
ENDBRANCH   8  11
BRANCH   8  13
ATOM     13  C   UNL     1       2.229  -0.120   1.452  1.00  0.00     0.061 C 
ATOM     14  C   UNL     1       2.173  -1.578   0.888  1.00  0.00     0.012 C 
ATOM     15  C   UNL     1       3.135   0.694   0.518  1.00  0.00    -0.038 A 
ATOM     16  C   UNL     1       3.517  -2.267   0.693  1.00  0.00     0.006 C 
ATOM     17  C   UNL     1       4.229   0.027  -0.081  1.00  0.00    -0.044 A 
ATOM     18  C   UNL     1       3.004   2.062   0.265  1.00  0.00     0.004 A 
ATOM     19  C   UNL     1       4.668  -1.303   0.475  1.00  0.00     0.036 C 
ATOM     20  C   UNL     1       4.979   0.652  -1.085  1.00  0.00     0.004 A 
ATOM     21  C   UNL     1       3.764   2.690  -0.723  1.00  0.00     0.000 A 
ATOM     22  C   UNL     1       4.713   1.970  -1.438  1.00  0.00     0.000 A 
ENDBRANCH   8  13
ENDBRANCH   5   8
ENDBRANCH   3   4
ENDBRANCH   2   3
ENDBRANCH   1   2
BRANCH   1  23
ATOM     23  N   UNL     1      -4.663   0.028   4.720  1.00  0.00    -0.352 N 
ATOM     24  C   UNL     1      -6.029  -0.116   4.756  1.00  0.00     0.251 C 
ATOM     25  H   UNL     1      -4.318   0.856   5.125  1.00  0.00     0.163 HD
ATOM     26  O   UNL     1      -6.727   0.863   4.997  1.00  0.00    -0.269 OA
BRANCH  24  27
ATOM     27  C   UNL     1      -6.652  -1.434   4.491  1.00  0.00     0.039 A 
ATOM     28  C   UNL     1      -7.850  -1.484   3.772  1.00  0.00     0.014 A 
ATOM     29  C   UNL     1      -6.085  -2.614   4.980  1.00  0.00     0.014 A 
ATOM     30  C   UNL     1      -8.450  -2.717   3.505  1.00  0.00     0.010 A 
ATOM     31  C   UNL     1      -6.635  -3.846   4.637  1.00  0.00     0.010 A 
ATOM     32  C   UNL     1      -7.832  -3.912   3.910  1.00  0.00    -0.014 A 
BRANCH  32  33
ATOM     33  C   UNL     1      -8.438  -5.237   3.616  1.00  0.00     0.031 A 
ATOM     34  C   UNL     1      -8.862  -6.135   4.748  1.00  0.00     0.074 A 
ATOM     35  C   UNL     1      -8.547  -5.659   2.341  1.00  0.00     0.049 A 
ATOM     36  N   UNL     1      -9.314  -7.362   4.710  1.00  0.00    -0.248 NA
ATOM     37  C   UNL     1      -8.726  -5.587   6.106  1.00  0.00     0.031 C 
ATOM     38  C   UNL     1      -8.143  -4.892   1.161  1.00  0.00     0.029 A 
ATOM     39  N   UNL     1      -9.019  -6.838   1.823  1.00  0.00    -0.354 N 
ATOM     40  C   UNL     1      -9.499  -7.739   6.037  1.00  0.00     0.074 A 
ATOM     41  C   UNL     1      -9.045  -6.632   6.852  1.00  0.00     0.031 C 
ATOM     42  C   UNL     1      -8.405  -5.611   0.059  1.00  0.00     0.029 A 
ATOM     43  C   UNL     1      -8.944  -6.909   0.451  1.00  0.00     0.049 A 
ATOM     44  H   UNL     1      -9.378  -7.566   2.381  1.00  0.00     0.167 HD
ATOM     45  C   UNL     1     -10.023  -8.890   6.529  1.00  0.00     0.034 A 
ATOM     46  C   UNL     1      -9.257  -7.912  -0.393  1.00  0.00     0.034 A 
ATOM     47  C   UNL     1     -10.478  -9.979   5.697  1.00  0.00     0.049 A 
ATOM     48  C   UNL     1      -9.803  -9.198   0.174  1.00  0.00     0.074 A 
ATOM     49  C   UNL     1     -11.069 -11.169   6.083  1.00  0.00     0.029 A 
ATOM     50  N   UNL     1     -10.383 -10.015   4.311  1.00  0.00    -0.354 N 
ATOM     51  N   UNL     1     -10.012  -9.525   1.429  1.00  0.00    -0.248 NA
ATOM     52  C   UNL     1     -10.163 -10.246  -0.789  1.00  0.00     0.031 C 
ATOM     53  C   UNL     1     -11.261 -11.954   4.941  1.00  0.00     0.029 A 
ATOM     54  C   UNL     1     -10.873 -11.221   3.830  1.00  0.00     0.049 A 
ATOM     55  H   UNL     1     -10.022  -9.291   3.751  1.00  0.00     0.167 HD
ATOM     56  C   UNL     1     -10.561 -10.804   1.402  1.00  0.00     0.074 A 
ATOM     57  C   UNL     1     -10.660 -11.182   0.007  1.00  0.00     0.031 C 
ATOM     58  C   UNL     1     -10.955 -11.591   2.436  1.00  0.00     0.034 A 
BRANCH  45  59
ATOM     59  C   UNL     1     -10.095  -9.033   8.032  1.00  0.00     0.023 A 
ATOM     60  C   UNL     1     -10.846  -8.146   8.825  1.00  0.00     0.031 A 
ATOM     61  C   UNL     1      -9.370 -10.043   8.690  1.00  0.00     0.131 A 
ATOM     62  C   UNL     1     -10.779  -8.225  10.224  1.00  0.00     0.055 A 
ATOM     63  C   UNL     1      -9.384 -10.175  10.080  1.00  0.00     0.041 A 
ATOM     64  F   UNL     1      -8.617 -10.909   7.993  1.00  0.00    -0.206 F 
ATOM     65  C   UNL     1     -10.076  -9.251  10.857  1.00  0.00     0.022 A 
BRANCH  62  66
ATOM     66  S   UNL     1     -11.482  -6.867  11.200  1.00  0.00     0.124 S 
ATOM     67  O   UNL     1     -10.749  -5.717  10.675  1.00  0.00    -0.237 OA
ATOM     68  O   UNL     1     -12.898  -6.933  10.859  1.00  0.00    -0.237 OA
ATOM     69  O   UNL     1     -11.152  -7.229  12.577  1.00  0.00    -0.744 OA
ENDBRANCH  62  66
ENDBRANCH  45  59
BRANCH  46  70
ATOM     70  C   UNL     1      -9.050  -7.750  -1.861  1.00  0.00     0.023 A 
ATOM     71  C   UNL     1     -10.136  -7.753  -2.751  1.00  0.00     0.031 A 
ATOM     72  C   UNL     1      -7.757  -7.617  -2.400  1.00  0.00     0.131 A 
ATOM     73  C   UNL     1      -9.908  -7.667  -4.133  1.00  0.00     0.055 A 
ATOM     74  C   UNL     1      -7.539  -7.476  -3.771  1.00  0.00     0.041 A 
ATOM     75  F   UNL     1      -6.684  -7.602  -1.593  1.00  0.00    -0.206 F 
ATOM     76  C   UNL     1      -8.618  -7.513  -4.648  1.00  0.00     0.022 A 
BRANCH  73  77
ATOM     77  S   UNL     1     -11.320  -7.836  -5.259  1.00  0.00     0.124 S 
ATOM     78  O   UNL     1     -11.825  -9.157  -4.905  1.00  0.00    -0.237 OA
ATOM     79  O   UNL     1     -12.154  -6.704  -4.871  1.00  0.00    -0.237 OA
ATOM     80  O   UNL     1     -10.712  -7.734  -6.584  1.00  0.00    -0.744 OA
ENDBRANCH  73  77
ENDBRANCH  46  70
BRANCH  58  81
ATOM     81  C   UNL     1     -11.579 -12.922   2.089  1.00  0.00     0.023 A 
ATOM     82  C   UNL     1     -10.845 -13.952   1.475  1.00  0.00     0.031 A 
ATOM     83  C   UNL     1     -12.936 -13.160   2.377  1.00  0.00     0.131 A 
ATOM     84  C   UNL     1     -11.485 -15.149   1.119  1.00  0.00     0.055 A 
ATOM     85  C   UNL     1     -13.550 -14.377   2.080  1.00  0.00     0.041 A 
ATOM     86  F   UNL     1     -13.688 -12.211   2.958  1.00  0.00    -0.206 F 
ATOM     87  C   UNL     1     -12.827 -15.376   1.435  1.00  0.00     0.022 A 
BRANCH  84  88
ATOM     88  S   UNL     1     -10.564 -16.374   0.147  1.00  0.00     0.124 S 
ATOM     89  O   UNL     1     -10.192 -15.604  -1.036  1.00  0.00    -0.237 OA
ATOM     90  O   UNL     1      -9.472 -16.729   1.047  1.00  0.00    -0.237 OA
ATOM     91  O   UNL     1     -11.544 -17.434  -0.086  1.00  0.00    -0.744 OA
ENDBRANCH  84  88
ENDBRANCH  58  81
ENDBRANCH  32  33
ENDBRANCH  24  27
ENDBRANCH   1  23
TORSDOF 16
