REMARK SMILES O=C(CSc1ccc2ccccc2n1)NCc1ccc(C(=O)NCCCNC(=O)c2ccc(-c3c4nc(c(-c5cc(S(=O)(=O)[O-])ccc5F)c5ccc([nH]5)c(-c5cc(S(=O)(=O)[O-])ccc5F)c5nc(c(-c6cc(S(=O)(=O)[O-])ccc6F)c6ccc3[nH]6)C=C5)C=C4)cc2)cc1
REMARK SMILES IDX 24 1 23 2 21 3 22 4 20 6 17 7 18 8 94 9 19 10 93 11 16 12
REMARK SMILES IDX 15 13 1 14 2 15 3 17 4 18 5 19 6 20 14 21 7 22 13 23 8 24
REMARK SMILES IDX 12 25 9 26 11 27 10 28 25 29 26 30 27 31 28 32 29 34 30 35
REMARK SMILES IDX 31 36 92 37 32 38 91 39 33 40 34 41 35 42 85 43 36 44 90 45
REMARK SMILES IDX 84 46 86 47 37 48 89 49 83 50 82 51 38 53 70 54 50 55 69 56
REMARK SMILES IDX 51 57 54 58 68 59 87 60 52 61 53 62 67 64 88 65 55 66 39 67
REMARK SMILES IDX 40 68 48 69 41 70 47 71 49 72 46 73 42 74 43 75 44 76 45 77
REMARK SMILES IDX 71 78 72 79 80 80 73 81 79 82 81 83 78 84 74 85 75 86 76 87
REMARK SMILES IDX 77 88 56 89 57 90 65 91 58 92 64 93 66 94 63 95 59 96 60 97
REMARK SMILES IDX 61 98 62 99
REMARK H PARENT 23 5 15 16 27 33 86 52 54 63
REMARK Flexibility Score: inf
ROOT
ATOM      1  C   UNL     1       1.394   5.248  -5.409  1.00  0.00     0.118 C 
ENDROOT
BRANCH   1   2
ATOM      2  N   UNL     1       2.623   4.887  -6.093  1.00  0.00    -0.352 N 
ATOM      3  C   UNL     1       3.420   3.773  -6.013  1.00  0.00     0.251 C 
ATOM      4  O   UNL     1       4.368   3.683  -6.794  1.00  0.00    -0.269 OA
ATOM      5  H   UNL     1       2.942   5.565  -6.732  1.00  0.00     0.163 HD
BRANCH   3   6
ATOM      6  C   UNL     1       3.159   2.656  -5.066  1.00  0.00     0.039 A 
ATOM      7  C   UNL     1       2.720   0.424  -3.389  1.00  0.00    -0.029 A 
ATOM      8  C   UNL     1       3.321   0.262  -4.643  1.00  0.00     0.006 A 
ATOM      9  C   UNL     1       2.361   1.715  -2.979  1.00  0.00     0.006 A 
ATOM     10  C   UNL     1       3.537   1.368  -5.472  1.00  0.00     0.014 A 
ATOM     11  C   UNL     1       2.610   2.821  -3.794  1.00  0.00     0.014 A 
BRANCH   7  12
ATOM     12  C   UNL     1       2.441  -0.765  -2.505  1.00  0.00     0.151 C 
BRANCH  12  13
ATOM     13  N   UNL     1       3.022  -0.588  -1.194  1.00  0.00    -0.351 N 
ATOM     14  O   UNL     1       1.050  -0.110  -0.126  1.00  0.00    -0.274 OA
ATOM     15  C   UNL     1       2.271  -0.254  -0.093  1.00  0.00     0.230 C 
ATOM     16  H   UNL     1       3.993  -0.710  -1.086  1.00  0.00     0.163 HD
BRANCH  15  17
ATOM     17  C   UNL     1       3.063   0.006   1.174  1.00  0.00     0.176 C 
BRANCH  17  18
ATOM     18  S   UNL     1       4.117  -1.399   1.639  1.00  0.00    -0.096 SA
BRANCH  18  19
ATOM     19  C   UNL     1       2.972  -2.759   1.755  1.00  0.00     0.097 A 
ATOM     20  C   UNL     1       1.615  -2.628   2.008  1.00  0.00     0.036 A 
ATOM     21  N   UNL     1       3.559  -3.969   1.601  1.00  0.00    -0.241 NA
ATOM     22  C   UNL     1       0.829  -3.776   2.077  1.00  0.00     0.013 A 
ATOM     23  C   UNL     1       2.807  -5.079   1.694  1.00  0.00     0.072 A 
ATOM     24  C   UNL     1       1.420  -5.032   1.925  1.00  0.00     0.000 A 
ATOM     25  C   UNL     1       3.409  -6.324   1.566  1.00  0.00     0.029 A 
ATOM     26  C   UNL     1       0.672  -6.221   2.009  1.00  0.00     0.010 A 
ATOM     27  C   UNL     1       2.674  -7.509   1.660  1.00  0.00     0.002 A 
ATOM     28  C   UNL     1       1.302  -7.457   1.878  1.00  0.00     0.001 A 
ENDBRANCH  18  19
ENDBRANCH  17  18
ENDBRANCH  15  17
ENDBRANCH  12  13
ENDBRANCH   7  12
ENDBRANCH   3   6
ENDBRANCH   1   2
BRANCH   1  29
ATOM     29  C   UNL     1       1.653   6.263  -4.295  1.00  0.00     0.042 C 
BRANCH  29  30
ATOM     30  C   UNL     1       1.905   7.678  -4.806  1.00  0.00     0.118 C 
BRANCH  30  31
ATOM     31  N   UNL     1       0.694   8.280  -5.339  1.00  0.00    -0.352 N 
ATOM     32  C   UNL     1       0.098   9.479  -5.041  1.00  0.00     0.251 C 
ATOM     33  H   UNL     1       0.229   7.743  -6.021  1.00  0.00     0.163 HD
ATOM     34  O   UNL     1      -1.048   9.678  -5.436  1.00  0.00    -0.269 OA
BRANCH  32  35
ATOM     35  C   UNL     1       0.804  10.520  -4.256  1.00  0.00     0.039 A 
ATOM     36  C   UNL     1       0.052  11.325  -3.393  1.00  0.00     0.014 A 
ATOM     37  C   UNL     1       2.170  10.772  -4.420  1.00  0.00     0.014 A 
ATOM     38  C   UNL     1       0.667  12.366  -2.690  1.00  0.00     0.010 A 
ATOM     39  C   UNL     1       2.795  11.767  -3.668  1.00  0.00     0.010 A 
ATOM     40  C   UNL     1       2.045  12.592  -2.815  1.00  0.00    -0.014 A 
BRANCH  40  41
ATOM     41  C   UNL     1       2.702  13.730  -2.117  1.00  0.00     0.031 A 
ATOM     42  C   UNL     1       3.286  14.863  -2.923  1.00  0.00     0.074 A 
ATOM     43  C   UNL     1       2.805  13.729  -0.774  1.00  0.00     0.049 A 
ATOM     44  N   UNL     1       3.958  15.910  -2.517  1.00  0.00    -0.248 NA
ATOM     45  C   UNL     1       3.114  14.792  -4.383  1.00  0.00     0.031 C 
ATOM     46  C   UNL     1       2.303  12.675   0.111  1.00  0.00     0.029 A 
ATOM     47  N   UNL     1       3.370  14.638   0.084  1.00  0.00    -0.354 N 
ATOM     48  C   UNL     1       4.312  16.606  -3.669  1.00  0.00     0.074 A 
ATOM     49  C   UNL     1       3.819  15.837  -4.791  1.00  0.00     0.031 C 
ATOM     50  C   UNL     1       2.569  13.007   1.385  1.00  0.00     0.029 A 
ATOM     51  C   UNL     1       3.291  14.275   1.409  1.00  0.00     0.049 A 
ATOM     52  H   UNL     1       3.794  15.474  -0.220  1.00  0.00     0.167 HD
ATOM     53  C   UNL     1       4.971  17.786  -3.780  1.00  0.00     0.034 A 
ATOM     54  C   UNL     1       3.756  14.892   2.515  1.00  0.00     0.034 A 
ATOM     55  C   UNL     1       5.425  18.559  -2.649  1.00  0.00     0.049 A 
ATOM     56  C   UNL     1       4.466  16.215   2.365  1.00  0.00     0.074 A 
ATOM     57  C   UNL     1       6.057  19.791  -2.644  1.00  0.00     0.029 A 
ATOM     58  N   UNL     1       5.289  18.178  -1.321  1.00  0.00    -0.354 N 
ATOM     59  N   UNL     1       4.752  16.881   1.268  1.00  0.00    -0.248 NA
ATOM     60  C   UNL     1       4.894  16.882   3.601  1.00  0.00     0.031 C 
ATOM     61  C   UNL     1       6.351  20.129  -1.318  1.00  0.00     0.029 A 
ATOM     62  C   UNL     1       5.839  19.142  -0.491  1.00  0.00     0.049 A 
ATOM     63  H   UNL     1       4.865  17.344  -1.013  1.00  0.00     0.167 HD
ATOM     64  C   UNL     1       5.352  18.064   1.691  1.00  0.00     0.074 A 
ATOM     65  C   UNL     1       5.374  18.026   3.138  1.00  0.00     0.031 C 
ATOM     66  C   UNL     1       5.838  19.094   0.951  1.00  0.00     0.034 A 
BRANCH  53  67
ATOM     67  C   UNL     1       5.264  18.298  -5.170  1.00  0.00     0.023 A 
ATOM     68  C   UNL     1       4.238  18.673  -6.054  1.00  0.00     0.031 A 
ATOM     69  C   UNL     1       6.592  18.407  -5.619  1.00  0.00     0.131 A 
ATOM     70  C   UNL     1       4.552  19.078  -7.361  1.00  0.00     0.055 A 
ATOM     71  C   UNL     1       6.902  18.884  -6.894  1.00  0.00     0.041 A 
ATOM     72  F   UNL     1       7.614  18.046  -4.826  1.00  0.00    -0.206 F 
ATOM     73  C   UNL     1       5.878  19.211  -7.778  1.00  0.00     0.022 A 
BRANCH  70  74
ATOM     74  S   UNL     1       3.200  19.319  -8.545  1.00  0.00     0.124 S 
ATOM     75  O   UNL     1       2.622  17.978  -8.607  1.00  0.00    -0.237 OA
ATOM     76  O   UNL     1       2.385  20.337  -7.893  1.00  0.00    -0.237 OA
ATOM     77  O   UNL     1       3.883  19.752  -9.762  1.00  0.00    -0.744 OA
ENDBRANCH  70  74
ENDBRANCH  53  67
BRANCH  54  78
ATOM     78  C   UNL     1       3.573  14.281   3.864  1.00  0.00     0.023 A 
ATOM     79  C   UNL     1       2.811  14.926   4.852  1.00  0.00     0.031 A 
ATOM     80  C   UNL     1       4.218  13.081   4.211  1.00  0.00     0.131 A 
ATOM     81  C   UNL     1       2.767  14.406   6.154  1.00  0.00     0.055 A 
ATOM     82  C   UNL     1       4.122  12.535   5.492  1.00  0.00     0.041 A 
ATOM     83  F   UNL     1       4.953  12.418   3.304  1.00  0.00    -0.206 F 
ATOM     84  C   UNL     1       3.409  13.209   6.479  1.00  0.00     0.022 A 
BRANCH  81  85
ATOM     85  S   UNL     1       1.955  15.382   7.450  1.00  0.00     0.124 S 
ATOM     86  O   UNL     1       2.652  16.659   7.342  1.00  0.00    -0.237 OA
ATOM     87  O   UNL     1       0.564  15.370   7.009  1.00  0.00    -0.237 OA
ATOM     88  O   UNL     1       2.228  14.623   8.669  1.00  0.00    -0.744 OA
ENDBRANCH  81  85
ENDBRANCH  54  78
BRANCH  66  89
ATOM     89  C   UNL     1       6.361  20.292   1.705  1.00  0.00     0.023 A 
ATOM     90  C   UNL     1       7.513  20.222   2.507  1.00  0.00     0.031 A 
ATOM     91  C   UNL     1       5.675  21.518   1.635  1.00  0.00     0.131 A 
ATOM     92  C   UNL     1       7.908  21.339   3.259  1.00  0.00     0.055 A 
ATOM     93  C   UNL     1       6.109  22.643   2.337  1.00  0.00     0.041 A 
ATOM     94  F   UNL     1       4.569  21.640   0.883  1.00  0.00    -0.206 F 
ATOM     95  C   UNL     1       7.222  22.552   3.167  1.00  0.00     0.022 A 
BRANCH  92  96
ATOM     96  S   UNL     1       9.271  21.153   4.441  1.00  0.00     0.124 S 
ATOM     97  O   UNL     1       8.803  20.051   5.275  1.00  0.00    -0.237 OA
ATOM     98  O   UNL     1      10.402  20.856   3.568  1.00  0.00    -0.237 OA
ATOM     99  O   UNL     1       9.328  22.454   5.107  1.00  0.00    -0.744 OA
ENDBRANCH  92  96
ENDBRANCH  66  89
ENDBRANCH  40  41
ENDBRANCH  32  35
ENDBRANCH  30  31
ENDBRANCH  29  30
ENDBRANCH   1  29
TORSDOF 18
