REMARK SMILES Cc1cccc(CS(=O)(=O)c2ccc(C(=O)NCCCNC(=O)c3ccc(-c4c5nc(c(-c6cc(S(=O)(=O)[O-])ccc6F)c6ccc([nH]6)c(-c6cc(S(=O)(=O)[O-])ccc6F)c6nc(c(-c7cc(S(=O)(=O)[O-])ccc7F)c7ccc4[nH]7)C=C6)C=C5)cc3)cc2F)n1
REMARK SMILES IDX 19 1 18 2 17 3 15 4 16 5 14 7 11 8 12 9 88 10 13 11 87 12
REMARK SMILES IDX 89 13 8 14 9 15 10 16 7 17 6 18 1 19 2 20 3 21 90 22 4 23
REMARK SMILES IDX 5 24 20 25 21 26 22 27 23 29 24 30 25 31 86 32 26 33 85 34
REMARK SMILES IDX 27 35 28 36 29 37 79 38 30 39 84 40 78 41 80 42 31 43 83 44
REMARK SMILES IDX 77 45 76 46 32 48 64 49 44 50 63 51 45 52 48 53 62 54 81 55
REMARK SMILES IDX 46 56 47 57 61 59 82 60 49 61 33 62 34 63 42 64 35 65 41 66
REMARK SMILES IDX 43 67 40 68 36 69 37 70 38 71 39 72 65 73 66 74 74 75 67 76
REMARK SMILES IDX 73 77 75 78 72 79 68 80 69 81 70 82 71 83 50 84 51 85 59 86
REMARK SMILES IDX 52 87 58 88 60 89 57 90 53 91 54 92 55 93 56 94
REMARK H PARENT 17 6 21 28 80 47 48 58
REMARK Flexibility Score: inf
ROOT
ATOM      1  C   UNL     1      -3.960   2.904   8.290  1.00  0.00     0.042 C 
ENDROOT
BRANCH   1   2
ATOM      2  C   UNL     1      -2.542   2.394   8.040  1.00  0.00     0.118 C 
BRANCH   2   3
ATOM      3  N   UNL     1      -2.559   1.009   7.604  1.00  0.00    -0.352 N 
ATOM      4  C   UNL     1      -2.398   0.435   6.372  1.00  0.00     0.251 C 
ATOM      5  O   UNL     1      -2.417  -0.793   6.292  1.00  0.00    -0.269 OA
ATOM      6  H   UNL     1      -2.716   0.362   8.329  1.00  0.00     0.163 HD
BRANCH   4   7
ATOM      7  C   UNL     1      -2.131   1.223   5.142  1.00  0.00     0.042 A 
ATOM      8  C   UNL     1      -1.485   2.576   2.761  1.00  0.00     0.103 A 
ATOM      9  C   UNL     1      -0.918   1.330   3.038  1.00  0.00     0.024 A 
ATOM     10  C   UNL     1      -2.363   3.139   3.680  1.00  0.00     0.142 A 
ATOM     11  C   UNL     1      -1.264   0.645   4.205  1.00  0.00     0.015 A 
ATOM     12  C   UNL     1      -2.699   2.464   4.857  1.00  0.00     0.054 A 
ATOM     13  F   UNL     1      -2.907   4.348   3.494  1.00  0.00    -0.206 F 
BRANCH   8  14
ATOM     14  S   UNL     1      -0.992   3.470   1.308  1.00  0.00     0.186 S 
ATOM     15  O   UNL     1       0.465   3.528   1.347  1.00  0.00    -0.223 OA
ATOM     16  O   UNL     1      -1.730   4.715   1.277  1.00  0.00    -0.223 OA
BRANCH  14  17
ATOM     17  C   UNL     1      -1.567   2.547  -0.106  1.00  0.00     0.198 C 
BRANCH  17  18
ATOM     18  C   UNL     1      -0.987   1.167  -0.158  1.00  0.00     0.056 A 
ATOM     19  C   UNL     1       2.422  -0.210  -0.142  1.00  0.00     0.067 C 
ATOM     20  C   UNL     1       0.925  -0.172  -0.197  1.00  0.00     0.038 A 
ATOM     21  C   UNL     1       0.167  -1.332  -0.161  1.00  0.00     0.023 A 
ATOM     22  N   UNL     1       0.359   1.057  -0.220  1.00  0.00    -0.257 NA
ATOM     23  C   UNL     1      -1.220  -1.219  -0.156  1.00  0.00     0.004 A 
ATOM     24  C   UNL     1      -1.809   0.044  -0.155  1.00  0.00     0.025 A 
ENDBRANCH  17  18
ENDBRANCH  14  17
ENDBRANCH   8  14
ENDBRANCH   4   7
ENDBRANCH   2   3
ENDBRANCH   1   2
BRANCH   1  25
ATOM     25  C   UNL     1      -4.593   2.329   9.555  1.00  0.00     0.118 C 
BRANCH  25  26
ATOM     26  N   UNL     1      -3.940   2.822  10.759  1.00  0.00    -0.352 N 
ATOM     27  C   UNL     1      -4.456   3.547  11.804  1.00  0.00     0.251 C 
ATOM     28  H   UNL     1      -2.983   2.604  10.834  1.00  0.00     0.163 HD
ATOM     29  O   UNL     1      -3.686   4.086  12.594  1.00  0.00    -0.269 OA
BRANCH  27  30
ATOM     30  C   UNL     1      -5.919   3.683  11.977  1.00  0.00     0.039 A 
ATOM     31  C   UNL     1      -6.439   4.914  12.386  1.00  0.00     0.014 A 
ATOM     32  C   UNL     1      -6.774   2.593  11.783  1.00  0.00     0.014 A 
ATOM     33  C   UNL     1      -7.818   5.065  12.549  1.00  0.00     0.010 A 
ATOM     34  C   UNL     1      -8.153   2.764  11.877  1.00  0.00     0.010 A 
ATOM     35  C   UNL     1      -8.689   4.000  12.266  1.00  0.00    -0.014 A 
BRANCH  35  36
ATOM     36  C   UNL     1     -10.162   4.161  12.375  1.00  0.00     0.031 A 
ATOM     37  C   UNL     1     -10.937   3.361  13.386  1.00  0.00     0.074 A 
ATOM     38  C   UNL     1     -10.804   4.993  11.530  1.00  0.00     0.049 A 
ATOM     39  N   UNL     1     -12.230   3.300  13.573  1.00  0.00    -0.248 NA
ATOM     40  C   UNL     1     -10.160   2.499  14.291  1.00  0.00     0.031 C 
ATOM     41  C   UNL     1     -10.160   5.805  10.495  1.00  0.00     0.029 A 
ATOM     42  N   UNL     1     -12.136   5.296  11.406  1.00  0.00    -0.354 N 
ATOM     43  C   UNL     1     -12.422   2.390  14.607  1.00  0.00     0.074 A 
ATOM     44  C   UNL     1     -11.117   1.885  14.972  1.00  0.00     0.031 C 
ATOM     45  C   UNL     1     -11.093   6.540   9.869  1.00  0.00     0.029 A 
ATOM     46  C   UNL     1     -12.406   6.215  10.418  1.00  0.00     0.049 A 
ATOM     47  H   UNL     1     -12.835   4.894  11.972  1.00  0.00     0.167 HD
ATOM     48  C   UNL     1     -13.581   2.026  15.208  1.00  0.00     0.034 A 
ATOM     49  C   UNL     1     -13.576   6.730   9.994  1.00  0.00     0.034 A 
ATOM     50  C   UNL     1     -14.872   2.556  14.851  1.00  0.00     0.049 A 
ATOM     51  C   UNL     1     -14.853   6.285  10.656  1.00  0.00     0.074 A 
ATOM     52  C   UNL     1     -16.100   2.287  15.431  1.00  0.00     0.029 A 
ATOM     53  N   UNL     1     -15.105   3.462  13.827  1.00  0.00    -0.354 N 
ATOM     54  N   UNL     1     -15.014   5.423  11.633  1.00  0.00    -0.248 NA
ATOM     55  C   UNL     1     -16.102   6.876  10.160  1.00  0.00     0.031 C 
ATOM     56  C   UNL     1     -17.081   2.982  14.718  1.00  0.00     0.029 A 
ATOM     57  C   UNL     1     -16.459   3.741  13.740  1.00  0.00     0.049 A 
ATOM     58  H   UNL     1     -14.410   3.851  13.247  1.00  0.00     0.167 HD
ATOM     59  C   UNL     1     -16.382   5.387  11.884  1.00  0.00     0.074 A 
ATOM     60  C   UNL     1     -17.001   6.314  10.958  1.00  0.00     0.031 C 
ATOM     61  C   UNL     1     -17.062   4.657  12.802  1.00  0.00     0.034 A 
BRANCH  48  62
ATOM     62  C   UNL     1     -13.510   0.998  16.307  1.00  0.00     0.023 A 
ATOM     63  C   UNL     1     -12.899   1.280  17.540  1.00  0.00     0.031 A 
ATOM     64  C   UNL     1     -14.092  -0.270  16.131  1.00  0.00     0.131 A 
ATOM     65  C   UNL     1     -12.850   0.294  18.537  1.00  0.00     0.055 A 
ATOM     66  C   UNL     1     -14.096  -1.225  17.149  1.00  0.00     0.041 A 
ATOM     67  F   UNL     1     -14.674  -0.599  14.966  1.00  0.00    -0.206 F 
ATOM     68  C   UNL     1     -13.467  -0.947  18.360  1.00  0.00     0.022 A 
BRANCH  65  69
ATOM     69  S   UNL     1     -11.906   0.631  20.047  1.00  0.00     0.124 S 
ATOM     70  O   UNL     1     -10.546   0.738  19.525  1.00  0.00    -0.237 OA
ATOM     71  O   UNL     1     -12.504   1.870  20.528  1.00  0.00    -0.237 OA
ATOM     72  O   UNL     1     -12.158  -0.545  20.878  1.00  0.00    -0.744 OA
ENDBRANCH  65  69
ENDBRANCH  48  62
BRANCH  49  73
ATOM     73  C   UNL     1     -13.593   7.721   8.882  1.00  0.00     0.023 A 
ATOM     74  C   UNL     1     -13.934   9.061   9.117  1.00  0.00     0.031 A 
ATOM     75  C   UNL     1     -13.256   7.342   7.571  1.00  0.00     0.131 A 
ATOM     76  C   UNL     1     -13.951   9.974   8.051  1.00  0.00     0.055 A 
ATOM     77  C   UNL     1     -13.236   8.262   6.521  1.00  0.00     0.041 A 
ATOM     78  F   UNL     1     -12.912   6.073   7.298  1.00  0.00    -0.206 F 
ATOM     79  C   UNL     1     -13.591   9.586   6.758  1.00  0.00     0.022 A 
BRANCH  76  80
ATOM     80  S   UNL     1     -14.479  11.679   8.372  1.00  0.00     0.124 S 
ATOM     81  O   UNL     1     -15.869  11.488   8.772  1.00  0.00    -0.237 OA
ATOM     82  O   UNL     1     -13.558  12.091   9.426  1.00  0.00    -0.237 OA
ATOM     83  O   UNL     1     -14.284  12.343   7.085  1.00  0.00    -0.744 OA
ENDBRANCH  76  80
ENDBRANCH  49  73
BRANCH  61  84
ATOM     84  C   UNL     1     -18.553   4.849  12.878  1.00  0.00     0.023 A 
ATOM     85  C   UNL     1     -19.409   4.356  11.879  1.00  0.00     0.031 A 
ATOM     86  C   UNL     1     -19.125   5.484  13.995  1.00  0.00     0.131 A 
ATOM     87  C   UNL     1     -20.795   4.528  12.005  1.00  0.00     0.055 A 
ATOM     88  C   UNL     1     -20.507   5.610  14.137  1.00  0.00     0.041 A 
ATOM     89  F   UNL     1     -18.349   5.968  14.977  1.00  0.00    -0.206 F 
ATOM     90  C   UNL     1     -21.350   5.134  13.137  1.00  0.00     0.022 A 
BRANCH  87  91
ATOM     91  S   UNL     1     -21.869   3.972  10.655  1.00  0.00     0.124 S 
ATOM     92  O   UNL     1     -21.462   4.851   9.564  1.00  0.00    -0.237 OA
ATOM     93  O   UNL     1     -21.498   2.567  10.514  1.00  0.00    -0.237 OA
ATOM     94  O   UNL     1     -23.217   4.205  11.170  1.00  0.00    -0.744 OA
ENDBRANCH  87  91
ENDBRANCH  61  84
ENDBRANCH  35  36
ENDBRANCH  27  30
ENDBRANCH  25  26
ENDBRANCH   1  25
TORSDOF 16
