REMARK SMILES COc1ccc(C(=O)C[C@H](C)CC(=O)NCCCNC(=O)c2ccc(-c3c4nc(c(-c5cc(S(=O)(=O)[O-])ccc5F)c5ccc([nH]5)c(-c5cc(S(=O)(=O)[O-])ccc5F)c5nc(c(-c6cc(S(=O)(=O)[O-])ccc6F)c6ccc3[nH]6)C=C5)C=C4)cc2)c(OC)c1
REMARK SMILES IDX 16 1 15 2 13 3 14 4 12 6 10 7 11 8 9 9 7 10 8 11 6 12 3 13
REMARK SMILES IDX 4 14 88 15 5 16 85 17 2 18 1 19 86 20 87 21 17 22 18 23
REMARK SMILES IDX 19 24 20 25 21 27 22 28 23 29 84 30 24 31 83 32 25 33 26 34
REMARK SMILES IDX 27 35 77 36 28 37 82 38 76 39 78 40 29 41 81 42 75 43 74 44
REMARK SMILES IDX 30 46 62 47 42 48 61 49 43 50 46 51 60 52 79 53 44 54 45 55
REMARK SMILES IDX 59 57 80 58 47 59 31 60 32 61 40 62 33 63 39 64 41 65 38 66
REMARK SMILES IDX 34 67 35 68 36 69 37 70 63 71 64 72 72 73 65 74 71 75 73 76
REMARK SMILES IDX 70 77 66 78 67 79 68 80 69 81 48 82 49 83 57 84 50 85 56 86
REMARK SMILES IDX 58 87 55 88 51 89 52 90 53 91 54 92
REMARK H PARENT 15 5 19 26 78 45 46 56
REMARK Flexibility Score: inf
ROOT
ATOM      1  C   UNL     1       6.039   6.954  -4.876  1.00  0.00     0.117 C 
ENDROOT
BRANCH   1   2
ATOM      2  N   UNL     1       6.159   7.720  -3.641  1.00  0.00    -0.356 N 
ATOM      3  C   UNL     1       6.159   7.319  -2.331  1.00  0.00     0.220 C 
ATOM      4  O   UNL     1       6.451   8.154  -1.471  1.00  0.00    -0.275 OA
ATOM      5  H   UNL     1       6.258   8.691  -3.770  1.00  0.00     0.163 HD
BRANCH   3   6
ATOM      6  C   UNL     1       5.698   5.918  -1.927  1.00  0.00     0.103 C 
BRANCH   6   7
ATOM      7  C   UNL     1       4.205   5.934  -1.538  1.00  0.00     0.003 C 
ATOM      8  C   UNL     1       3.387   6.535  -2.659  1.00  0.00     0.008 C 
BRANCH   7   9
ATOM      9  C   UNL     1       3.642   4.577  -1.053  1.00  0.00     0.085 C 
BRANCH   9  10
ATOM     10  C   UNL     1       3.442   3.442  -2.059  1.00  0.00     0.166 C 
ATOM     11  O   UNL     1       4.170   2.446  -1.999  1.00  0.00    -0.294 OA
BRANCH  10  12
ATOM     12  C   UNL     1       2.428   3.510  -3.169  1.00  0.00     0.060 A 
ATOM     13  C   UNL     1       0.965   3.843  -5.523  1.00  0.00     0.122 A 
ATOM     14  C   UNL     1       2.056   2.989  -5.521  1.00  0.00     0.047 A 
ATOM     15  C   UNL     1       0.513   4.428  -4.342  1.00  0.00     0.093 A 
ATOM     16  C   UNL     1       2.787   2.824  -4.347  1.00  0.00     0.019 A 
ATOM     17  C   UNL     1       1.240   4.272  -3.153  1.00  0.00     0.133 A 
BRANCH  13  18
ATOM     18  O   UNL     1       0.324   4.066  -6.708  1.00  0.00    -0.497 OA
ATOM     19  C   UNL     1       0.578   5.397  -7.165  1.00  0.00     0.278 C 
ENDBRANCH  13  18
BRANCH  17  20
ATOM     20  O   UNL     1       0.830   4.833  -1.971  1.00  0.00    -0.496 OA
ATOM     21  C   UNL     1      -0.010   5.990  -2.061  1.00  0.00     0.278 C 
ENDBRANCH  17  20
ENDBRANCH  10  12
ENDBRANCH   9  10
ENDBRANCH   7   9
ENDBRANCH   6   7
ENDBRANCH   3   6
ENDBRANCH   1   2
BRANCH   1  22
ATOM     22  C   UNL     1       4.758   7.190  -5.691  1.00  0.00     0.042 C 
BRANCH  22  23
ATOM     23  C   UNL     1       4.562   8.591  -6.263  1.00  0.00     0.118 C 
BRANCH  23  24
ATOM     24  N   UNL     1       5.158   8.708  -7.581  1.00  0.00    -0.352 N 
ATOM     25  C   UNL     1       4.589   8.669  -8.833  1.00  0.00     0.251 C 
ATOM     26  H   UNL     1       6.134   8.838  -7.579  1.00  0.00     0.163 HD
ATOM     27  O   UNL     1       5.331   8.433  -9.787  1.00  0.00    -0.269 OA
BRANCH  25  28
ATOM     28  C   UNL     1       3.136   8.896  -9.078  1.00  0.00     0.039 A 
ATOM     29  C   UNL     1       2.547   8.273 -10.188  1.00  0.00     0.014 A 
ATOM     30  C   UNL     1       2.371   9.799  -8.335  1.00  0.00     0.014 A 
ATOM     31  C   UNL     1       1.215   8.537 -10.538  1.00  0.00     0.010 A 
ATOM     32  C   UNL     1       1.018  10.008  -8.643  1.00  0.00     0.010 A 
ATOM     33  C   UNL     1       0.426   9.397  -9.761  1.00  0.00    -0.014 A 
BRANCH  33  34
ATOM     34  C   UNL     1      -0.995   9.691 -10.119  1.00  0.00     0.031 A 
ATOM     35  C   UNL     1      -1.417  11.091 -10.492  1.00  0.00     0.074 A 
ATOM     36  C   UNL     1      -1.927   8.718 -10.060  1.00  0.00     0.049 A 
ATOM     37  N   UNL     1      -2.613  11.554 -10.757  1.00  0.00    -0.248 NA
ATOM     38  C   UNL     1      -0.355  12.104 -10.562  1.00  0.00     0.031 C 
ATOM     39  C   UNL     1      -1.659   7.322  -9.719  1.00  0.00     0.029 A 
ATOM     40  N   UNL     1      -3.286   8.748 -10.263  1.00  0.00    -0.354 N 
ATOM     41  C   UNL     1      -2.450  12.911 -11.018  1.00  0.00     0.074 A 
ATOM     42  C   UNL     1      -1.046  13.205 -10.819  1.00  0.00     0.031 C 
ATOM     43  C   UNL     1      -2.812   6.635  -9.709  1.00  0.00     0.029 A 
ATOM     44  C   UNL     1      -3.909   7.543 -10.024  1.00  0.00     0.049 A 
ATOM     45  H   UNL     1      -3.769   9.556 -10.552  1.00  0.00     0.167 HD
ATOM     46  C   UNL     1      -3.378  13.821 -11.412  1.00  0.00     0.034 A 
ATOM     47  C   UNL     1      -5.214   7.203 -10.043  1.00  0.00     0.034 A 
ATOM     48  C   UNL     1      -4.772  13.513 -11.626  1.00  0.00     0.049 A 
ATOM     49  C   UNL     1      -6.234   8.240 -10.437  1.00  0.00     0.074 A 
ATOM     50  C   UNL     1      -5.776  14.342 -12.097  1.00  0.00     0.029 A 
ATOM     51  N   UNL     1      -5.366  12.283 -11.372  1.00  0.00    -0.354 N 
ATOM     52  N   UNL     1      -6.048   9.503 -10.745  1.00  0.00    -0.248 NA
ATOM     53  C   UNL     1      -7.633   7.801 -10.513  1.00  0.00     0.031 C 
ATOM     54  C   UNL     1      -6.985  13.639 -12.059  1.00  0.00     0.029 A 
ATOM     55  C   UNL     1      -6.726  12.345 -11.638  1.00  0.00     0.049 A 
ATOM     56  H   UNL     1      -4.890  11.483 -11.050  1.00  0.00     0.167 HD
ATOM     57  C   UNL     1      -7.303   9.995 -11.093  1.00  0.00     0.074 A 
ATOM     58  C   UNL     1      -8.233   8.893 -10.962  1.00  0.00     0.031 C 
ATOM     59  C   UNL     1      -7.650  11.244 -11.495  1.00  0.00     0.034 A 
BRANCH  46  60
ATOM     60  C   UNL     1      -2.915  15.246 -11.615  1.00  0.00     0.023 A 
ATOM     61  C   UNL     1      -1.972  15.585 -12.602  1.00  0.00     0.031 A 
ATOM     62  C   UNL     1      -3.415  16.279 -10.803  1.00  0.00     0.131 A 
ATOM     63  C   UNL     1      -1.504  16.904 -12.700  1.00  0.00     0.055 A 
ATOM     64  C   UNL     1      -3.005  17.605 -10.960  1.00  0.00     0.041 A 
ATOM     65  F   UNL     1      -4.305  16.015  -9.832  1.00  0.00    -0.206 F 
ATOM     66  C   UNL     1      -2.032  17.921 -11.903  1.00  0.00     0.022 A 
BRANCH  63  67
ATOM     67  S   UNL     1      -0.093  17.242 -13.790  1.00  0.00     0.124 S 
ATOM     68  O   UNL     1       0.929  16.361 -13.229  1.00  0.00    -0.237 OA
ATOM     69  O   UNL     1      -0.610  16.870 -15.100  1.00  0.00    -0.237 OA
ATOM     70  O   UNL     1       0.153  18.671 -13.597  1.00  0.00    -0.744 OA
ENDBRANCH  63  67
ENDBRANCH  46  60
BRANCH  47  71
ATOM     71  C   UNL     1      -5.639   5.822  -9.671  1.00  0.00     0.023 A 
ATOM     72  C   UNL     1      -6.239   4.968 -10.609  1.00  0.00     0.031 A 
ATOM     73  C   UNL     1      -5.488   5.352  -8.353  1.00  0.00     0.131 A 
ATOM     74  C   UNL     1      -6.712   3.709 -10.208  1.00  0.00     0.055 A 
ATOM     75  C   UNL     1      -5.913   4.079  -7.971  1.00  0.00     0.041 A 
ATOM     76  F   UNL     1      -4.913   6.126  -7.418  1.00  0.00    -0.206 F 
ATOM     77  C   UNL     1      -6.543   3.254  -8.898  1.00  0.00     0.022 A 
BRANCH  74  78
ATOM     78  S   UNL     1      -7.632   2.706 -11.406  1.00  0.00     0.124 S 
ATOM     79  O   UNL     1      -8.707   3.614 -11.790  1.00  0.00    -0.237 OA
ATOM     80  O   UNL     1      -6.618   2.446 -12.423  1.00  0.00    -0.237 OA
ATOM     81  O   UNL     1      -8.046   1.541 -10.628  1.00  0.00    -0.744 OA
ENDBRANCH  74  78
ENDBRANCH  47  71
BRANCH  59  82
ATOM     82  C   UNL     1      -9.095  11.465 -11.871  1.00  0.00     0.023 A 
ATOM     83  C   UNL     1     -10.127  11.399 -10.918  1.00  0.00     0.031 A 
ATOM     84  C   UNL     1      -9.446  11.726 -13.208  1.00  0.00     0.131 A 
ATOM     85  C   UNL     1     -11.463  11.534 -11.324  1.00  0.00     0.055 A 
ATOM     86  C   UNL     1     -10.772  11.919 -13.596  1.00  0.00     0.041 A 
ATOM     87  F   UNL     1      -8.502  11.796 -14.160  1.00  0.00    -0.206 F 
ATOM     88  C   UNL     1     -11.791  11.810 -12.654  1.00  0.00     0.022 A 
BRANCH  85  89
ATOM     89  S   UNL     1     -12.776  11.249 -10.105  1.00  0.00     0.124 S 
ATOM     90  O   UNL     1     -12.508   9.877  -9.686  1.00  0.00    -0.237 OA
ATOM     91  O   UNL     1     -12.508  12.283  -9.111  1.00  0.00    -0.237 OA
ATOM     92  O   UNL     1     -14.005  11.434 -10.875  1.00  0.00    -0.744 OA
ENDBRANCH  85  89
ENDBRANCH  59  82
ENDBRANCH  33  34
ENDBRANCH  25  28
ENDBRANCH  23  24
ENDBRANCH  22  23
ENDBRANCH   1  22
TORSDOF 19
