REMARK SMILES C[C@@H]1[C@@H](C)CCC[C@H]1NC(=O)N[C@@](C)(C(=O)NCCCNC(=O)c1ccc(-c2c3nc(c(-c4cc(S(=O)(=O)[O-])ccc4F)c4ccc([nH]4)c(-c4cc(S(=O)(=O)[O-])ccc4F)c4nc(c(-c5cc(S(=O)(=O)[O-])ccc5F)c5ccc2[nH]5)C=C4)C=C3)cc1)C(F)(F)F
REMARK SMILES IDX 19 1 18 2 17 3 15 4 16 5 13 7 14 8 12 9 9 10 10 11 11 13
REMARK SMILES IDX 8 15 1 16 2 17 3 18 5 19 4 20 7 21 6 22 87 23 88 24 89 25
REMARK SMILES IDX 90 26 20 27 21 28 22 29 23 31 24 32 25 33 86 34 26 35 85 36
REMARK SMILES IDX 27 37 28 38 29 39 79 40 30 41 84 42 78 43 80 44 31 45 83 46
REMARK SMILES IDX 77 47 76 48 32 50 64 51 44 52 63 53 45 54 48 55 62 56 81 57
REMARK SMILES IDX 46 58 47 59 61 61 82 62 49 63 33 64 34 65 42 66 35 67 41 68
REMARK SMILES IDX 43 69 40 70 36 71 37 72 38 73 39 74 65 75 66 76 74 77 67 78
REMARK SMILES IDX 73 79 75 80 72 81 68 82 69 83 70 84 71 85 50 86 51 87 59 88
REMARK SMILES IDX 52 89 58 90 60 91 57 92 53 93 54 94 55 95 56 96
REMARK H PARENT 17 6 9 12 12 14 21 30 80 49 48 60
REMARK Flexibility Score: inf
ROOT
ATOM      1  C   UNL     1       4.569   4.627   5.920  1.00  0.00     0.042 C 
ENDROOT
BRANCH   1   2
ATOM      2  C   UNL     1       5.157   4.345   4.546  1.00  0.00     0.117 C 
BRANCH   2   3
ATOM      3  N   UNL     1       5.044   2.941   4.207  1.00  0.00    -0.354 N 
ATOM      4  C   UNL     1       4.442   2.257   3.209  1.00  0.00     0.255 C 
ATOM      5  O   UNL     1       4.296   1.055   3.458  1.00  0.00    -0.272 OA
ATOM      6  H   UNL     1       5.510   2.354   4.846  1.00  0.00     0.163 HD
BRANCH   4   7
ATOM      7  C   UNL     1       3.842   2.922   1.952  1.00  0.00     0.213 C 
ATOM      8  C   UNL     1       4.742   3.991   1.306  1.00  0.00     0.056 C 
BRANCH   7   9
ATOM      9  N   UNL     1       2.582   3.557   2.489  1.00  0.00    -0.316 N 
ATOM     10  N   UNL     1       0.578   3.509   1.200  1.00  0.00    -0.335 N 
ATOM     11  C   UNL     1       1.345   3.930   2.198  1.00  0.00     0.316 C 
ATOM     12  H   UNL     1      -0.257   4.024   1.116  1.00  0.00     0.165 HD
ATOM     13  O   UNL     1       0.843   4.755   2.970  1.00  0.00    -0.249 OA
ATOM     14  H   UNL     1       2.745   3.785   3.433  1.00  0.00     0.166 HD
BRANCH  10  15
ATOM     15  C   UNL     1       0.694   2.461   0.207  1.00  0.00     0.087 C 
ATOM     16  C   UNL     1       0.421  -0.037  -0.141  1.00  0.00     0.010 C 
ATOM     17  C   UNL     1      -0.187   1.227   0.503  1.00  0.00     0.011 C 
ATOM     18  C   UNL     1      -1.647   1.376   0.016  1.00  0.00    -0.009 C 
ATOM     19  C   UNL     1      -1.711   1.887  -1.433  1.00  0.00     0.004 C 
ATOM     20  C   UNL     1      -2.496   2.245   0.948  1.00  0.00     0.008 C 
ATOM     21  C   UNL     1       0.545   3.018  -1.207  1.00  0.00     0.025 C 
ATOM     22  C   UNL     1      -0.903   3.162  -1.658  1.00  0.00     0.002 C 
ENDBRANCH  10  15
ENDBRANCH   7   9
BRANCH   7  23
ATOM     23  C   UNL     1       3.852   1.735   0.966  1.00  0.00     0.420 C 
ATOM     24  F   UNL     1       2.984   0.756   1.284  1.00  0.00    -0.168 F 
ATOM     25  F   UNL     1       3.585   2.143  -0.305  1.00  0.00    -0.168 F 
ATOM     26  F   UNL     1       5.086   1.169   0.881  1.00  0.00    -0.168 F 
ENDBRANCH   7  23
ENDBRANCH   4   7
ENDBRANCH   2   3
ENDBRANCH   1   2
BRANCH   1  27
ATOM     27  C   UNL     1       5.052   3.684   7.013  1.00  0.00     0.118 C 
BRANCH  27  28
ATOM     28  N   UNL     1       6.504   3.579   7.064  1.00  0.00    -0.352 N 
ATOM     29  C   UNL     1       7.376   3.958   8.057  1.00  0.00     0.251 C 
ATOM     30  H   UNL     1       6.923   3.177   6.269  1.00  0.00     0.163 HD
ATOM     31  O   UNL     1       8.575   4.007   7.825  1.00  0.00    -0.269 OA
BRANCH  29  32
ATOM     32  C   UNL     1       6.840   4.330   9.381  1.00  0.00     0.039 A 
ATOM     33  C   UNL     1       7.349   5.455  10.029  1.00  0.00     0.014 A 
ATOM     34  C   UNL     1       5.812   3.583   9.962  1.00  0.00     0.014 A 
ATOM     35  C   UNL     1       6.776   5.868  11.231  1.00  0.00     0.010 A 
ATOM     36  C   UNL     1       5.168   4.063  11.093  1.00  0.00     0.010 A 
ATOM     37  C   UNL     1       5.654   5.200  11.751  1.00  0.00    -0.014 A 
BRANCH  37  38
ATOM     38  C   UNL     1       4.992   5.666  12.995  1.00  0.00     0.031 A 
ATOM     39  C   UNL     1       4.932   4.764  14.198  1.00  0.00     0.074 A 
ATOM     40  C   UNL     1       4.409   6.879  13.023  1.00  0.00     0.049 A 
ATOM     41  N   UNL     1       4.391   4.980  15.370  1.00  0.00    -0.248 NA
ATOM     42  C   UNL     1       5.527   3.427  14.050  1.00  0.00     0.031 C 
ATOM     43  C   UNL     1       4.359   7.819  11.900  1.00  0.00     0.029 A 
ATOM     44  N   UNL     1       3.755   7.536  14.033  1.00  0.00    -0.354 N 
ATOM     45  C   UNL     1       4.571   3.804  16.091  1.00  0.00     0.074 A 
ATOM     46  C   UNL     1       5.188   2.853  15.193  1.00  0.00     0.031 C 
ATOM     47  C   UNL     1       3.766   8.954  12.303  1.00  0.00     0.029 A 
ATOM     48  C   UNL     1       3.346   8.804  13.692  1.00  0.00     0.049 A 
ATOM     49  H   UNL     1       3.594   7.138  14.919  1.00  0.00     0.167 HD
ATOM     50  C   UNL     1       4.281   3.551  17.392  1.00  0.00     0.034 A 
ATOM     51  C   UNL     1       2.711   9.741  14.422  1.00  0.00     0.034 A 
ATOM     52  C   UNL     1       3.664   4.517  18.269  1.00  0.00     0.049 A 
ATOM     53  C   UNL     1       2.359   9.426  15.853  1.00  0.00     0.074 A 
ATOM     54  C   UNL     1       3.369   4.397  19.615  1.00  0.00     0.029 A 
ATOM     55  N   UNL     1       3.233   5.782  17.882  1.00  0.00    -0.354 N 
ATOM     56  N   UNL     1       2.595   8.334  16.544  1.00  0.00    -0.248 NA
ATOM     57  C   UNL     1       1.666  10.479  16.603  1.00  0.00     0.031 C 
ATOM     58  C   UNL     1       2.685   5.550  20.019  1.00  0.00     0.029 A 
ATOM     59  C   UNL     1       2.636   6.433  18.952  1.00  0.00     0.049 A 
ATOM     60  H   UNL     1       3.336   6.160  16.979  1.00  0.00     0.167 HD
ATOM     61  C   UNL     1       2.108   8.584  17.825  1.00  0.00     0.074 A 
ATOM     62  C   UNL     1       1.586   9.937  17.809  1.00  0.00     0.031 C 
ATOM     63  C   UNL     1       2.098   7.774  18.916  1.00  0.00     0.034 A 
BRANCH  50  64
ATOM     64  C   UNL     1       4.600   2.167  17.913  1.00  0.00     0.023 A 
ATOM     65  C   UNL     1       5.909   1.649  17.884  1.00  0.00     0.031 A 
ATOM     66  C   UNL     1       3.576   1.325  18.382  1.00  0.00     0.131 A 
ATOM     67  C   UNL     1       6.140   0.303  18.205  1.00  0.00     0.055 A 
ATOM     68  C   UNL     1       3.831   0.017  18.800  1.00  0.00     0.041 A 
ATOM     69  F   UNL     1       2.303   1.748  18.415  1.00  0.00    -0.206 F 
ATOM     70  C   UNL     1       5.115  -0.510  18.690  1.00  0.00     0.022 A 
BRANCH  67  71
ATOM     71  S   UNL     1       7.751  -0.419  17.785  1.00  0.00     0.124 S 
ATOM     72  O   UNL     1       7.834  -0.142  16.353  1.00  0.00    -0.237 OA
ATOM     73  O   UNL     1       8.665   0.334  18.636  1.00  0.00    -0.237 OA
ATOM     74  O   UNL     1       7.594  -1.831  18.130  1.00  0.00    -0.744 OA
ENDBRANCH  67  71
ENDBRANCH  50  64
BRANCH  51  75
ATOM     75  C   UNL     1       2.389  11.071  13.830  1.00  0.00     0.023 A 
ATOM     76  C   UNL     1       2.977  12.241  14.338  1.00  0.00     0.031 A 
ATOM     77  C   UNL     1       1.470  11.199  12.774  1.00  0.00     0.131 A 
ATOM     78  C   UNL     1       2.607  13.492  13.820  1.00  0.00     0.055 A 
ATOM     79  C   UNL     1       1.147  12.441  12.225  1.00  0.00     0.041 A 
ATOM     80  F   UNL     1       0.884  10.112  12.248  1.00  0.00    -0.206 F 
ATOM     81  C   UNL     1       1.707  13.599  12.757  1.00  0.00     0.022 A 
BRANCH  78  82
ATOM     82  S   UNL     1       3.261  14.986  14.612  1.00  0.00     0.124 S 
ATOM     83  O   UNL     1       2.772  14.838  15.977  1.00  0.00    -0.237 OA
ATOM     84  O   UNL     1       4.699  14.824  14.423  1.00  0.00    -0.237 OA
ATOM     85  O   UNL     1       2.654  16.071  13.844  1.00  0.00    -0.744 OA
ENDBRANCH  78  82
ENDBRANCH  51  75
BRANCH  63  86
ATOM     86  C   UNL     1       1.537   8.359  20.192  1.00  0.00     0.023 A 
ATOM     87  C   UNL     1       0.192   8.754  20.298  1.00  0.00     0.031 A 
ATOM     88  C   UNL     1       2.373   8.562  21.305  1.00  0.00     0.131 A 
ATOM     89  C   UNL     1      -0.257   9.404  21.458  1.00  0.00     0.055 A 
ATOM     90  C   UNL     1       1.900   9.136  22.486  1.00  0.00     0.041 A 
ATOM     91  F   UNL     1       3.668   8.210  21.263  1.00  0.00    -0.206 F 
ATOM     92  C   UNL     1       0.583   9.579  22.560  1.00  0.00     0.022 A 
BRANCH  89  93
ATOM     93  S   UNL     1      -1.915  10.140  21.453  1.00  0.00     0.124 S 
ATOM     94  O   UNL     1      -1.847  11.029  20.297  1.00  0.00    -0.237 OA
ATOM     95  O   UNL     1      -2.775   8.971  21.308  1.00  0.00    -0.237 OA
ATOM     96  O   UNL     1      -1.995  10.813  22.748  1.00  0.00    -0.744 OA
ENDBRANCH  89  93
ENDBRANCH  63  86
ENDBRANCH  37  38
ENDBRANCH  29  32
ENDBRANCH  27  28
ENDBRANCH   1  27
TORSDOF 16
