REMARK SMILES CCCCn1cc(C(N)=O)c2cc(C(=O)NCCCNC(=O)c3ccc(-c4c5nc(c(-c6cc(S(=O)(=O)[O-])ccc6F)c6ccc([nH]6)c(-c6cc(S(=O)(=O)[O-])ccc6F)c6nc(c(-c7cc(S(=O)(=O)[O-])ccc7F)c7ccc4[nH]7)C=C6)C=C5)cc3)cnc21
REMARK SMILES IDX 18 1 17 2 16 3 14 4 15 5 13 7 5 8 6 9 88 10 7 11 11 12 87 13
REMARK SMILES IDX 12 14 86 15 4 16 3 17 2 18 1 19 8 20 9 21 10 22 19 25 20 26
REMARK SMILES IDX 21 27 22 29 23 30 24 31 85 32 25 33 84 34 26 35 27 36 28 37
REMARK SMILES IDX 78 38 29 39 83 40 77 41 79 42 30 43 82 44 76 45 75 46 31 48
REMARK SMILES IDX 63 49 43 50 62 51 44 52 47 53 61 54 80 55 45 56 46 57 60 59
REMARK SMILES IDX 81 60 48 61 32 62 33 63 41 64 34 65 40 66 42 67 39 68 35 69
REMARK SMILES IDX 36 70 37 71 38 72 64 73 65 74 73 75 66 76 72 77 74 78 71 79
REMARK SMILES IDX 67 80 68 81 69 82 70 83 49 84 50 85 58 86 51 87 57 88 59 89
REMARK SMILES IDX 56 90 52 91 53 92 54 93 55 94
REMARK H PARENT 16 6 9 23 9 24 20 28 79 47 47 58
REMARK Flexibility Score: inf
ROOT
ATOM      1  C   UNL     1      -2.584   5.072  -8.004  1.00  0.00     0.042 C 
ENDROOT
BRANCH   1   2
ATOM      2  C   UNL     1      -3.263   5.754  -6.807  1.00  0.00     0.118 C 
BRANCH   2   3
ATOM      3  N   UNL     1      -4.484   5.074  -6.415  1.00  0.00    -0.352 N 
ATOM      4  C   UNL     1      -4.745   4.104  -5.483  1.00  0.00     0.252 C 
ATOM      5  O   UNL     1      -5.923   3.804  -5.290  1.00  0.00    -0.269 OA
ATOM      6  H   UNL     1      -5.280   5.368  -6.915  1.00  0.00     0.163 HD
BRANCH   4   7
ATOM      7  C   UNL     1      -3.706   3.427  -4.668  1.00  0.00     0.058 A 
ATOM      8  N   UNL     1      -1.067   1.523  -2.226  1.00  0.00    -0.332 N 
ATOM      9  C   UNL     1      -1.872   0.823  -1.372  1.00  0.00     0.102 A 
ATOM     10  C   UNL     1      -1.853   2.167  -3.141  1.00  0.00     0.140 A 
ATOM     11  C   UNL     1      -3.200   1.154  -1.614  1.00  0.00     0.066 A 
ATOM     12  C   UNL     1      -3.185   2.031  -2.749  1.00  0.00     0.032 A 
ATOM     13  N   UNL     1      -1.384   2.812  -4.223  1.00  0.00    -0.237 NA
ATOM     14  C   UNL     1      -4.131   2.734  -3.523  1.00  0.00     0.028 A 
ATOM     15  C   UNL     1      -2.357   3.374  -4.975  1.00  0.00     0.127 A 
BRANCH   8  16
ATOM     16  C   UNL     1       0.384   1.535  -2.226  1.00  0.00     0.123 C 
BRANCH  16  17
ATOM     17  C   UNL     1       1.024   2.205  -1.002  1.00  0.00     0.022 C 
BRANCH  17  18
ATOM     18  C   UNL     1       0.859   1.477   0.336  1.00  0.00    -0.002 C 
ATOM     19  C   UNL     1       1.323   0.028   0.314  1.00  0.00     0.004 C 
ENDBRANCH  17  18
ENDBRANCH  16  17
ENDBRANCH   8  16
BRANCH  11  20
ATOM     20  C   UNL     1      -4.278   0.610  -0.791  1.00  0.00     0.250 C 
ATOM     21  N   UNL     1      -5.557   0.818  -1.214  1.00  0.00    -0.366 N 
ATOM     22  O   UNL     1      -4.075  -0.025   0.234  1.00  0.00    -0.269 OA
ATOM     23  H   UNL     1      -5.726   1.329  -2.039  1.00  0.00     0.159 HD
ATOM     24  H   UNL     1      -6.313   0.459  -0.695  1.00  0.00     0.159 HD
ENDBRANCH  11  20
ENDBRANCH   4   7
ENDBRANCH   2   3
ENDBRANCH   1   2
BRANCH   1  25
ATOM     25  C   UNL     1      -3.170   5.529  -9.328  1.00  0.00     0.118 C 
BRANCH  25  26
ATOM     26  N   UNL     1      -2.874   6.939  -9.577  1.00  0.00    -0.352 N 
ATOM     27  C   UNL     1      -3.336   7.768 -10.573  1.00  0.00     0.251 C 
ATOM     28  H   UNL     1      -2.252   7.356  -8.938  1.00  0.00     0.163 HD
ATOM     29  O   UNL     1      -2.740   8.811 -10.822  1.00  0.00    -0.269 OA
BRANCH  27  30
ATOM     30  C   UNL     1      -4.542   7.395 -11.329  1.00  0.00     0.039 A 
ATOM     31  C   UNL     1      -4.646   7.695 -12.691  1.00  0.00     0.014 A 
ATOM     32  C   UNL     1      -5.584   6.755 -10.659  1.00  0.00     0.014 A 
ATOM     33  C   UNL     1      -5.786   7.294 -13.379  1.00  0.00     0.010 A 
ATOM     34  C   UNL     1      -6.629   6.223 -11.366  1.00  0.00     0.010 A 
ATOM     35  C   UNL     1      -6.766   6.550 -12.706  1.00  0.00    -0.014 A 
BRANCH  35  36
ATOM     36  C   UNL     1      -7.925   6.032 -13.411  1.00  0.00     0.031 A 
ATOM     37  C   UNL     1      -7.594   5.075 -14.490  1.00  0.00     0.074 A 
ATOM     38  C   UNL     1      -9.188   6.234 -12.988  1.00  0.00     0.049 A 
ATOM     39  N   UNL     1      -7.558   5.311 -15.759  1.00  0.00    -0.248 NA
ATOM     40  C   UNL     1      -7.056   3.760 -14.110  1.00  0.00     0.031 C 
ATOM     41  C   UNL     1      -9.631   6.866 -11.737  1.00  0.00     0.029 A 
ATOM     42  N   UNL     1     -10.355   5.826 -13.552  1.00  0.00    -0.354 N 
ATOM     43  C   UNL     1      -7.240   4.094 -16.351  1.00  0.00     0.074 A 
ATOM     44  C   UNL     1      -6.707   3.265 -15.299  1.00  0.00     0.031 C 
ATOM     45  C   UNL     1     -10.943   6.608 -11.541  1.00  0.00     0.029 A 
ATOM     46  C   UNL     1     -11.465   5.966 -12.733  1.00  0.00     0.049 A 
ATOM     47  H   UNL     1     -10.408   5.462 -14.466  1.00  0.00     0.167 HD
ATOM     48  C   UNL     1      -7.721   3.764 -17.583  1.00  0.00     0.034 A 
ATOM     49  C   UNL     1     -12.729   5.576 -13.014  1.00  0.00     0.034 A 
ATOM     50  C   UNL     1      -8.394   4.885 -18.184  1.00  0.00     0.049 A 
ATOM     51  C   UNL     1     -12.846   5.464 -14.484  1.00  0.00     0.074 A 
ATOM     52  C   UNL     1      -8.015   6.077 -18.758  1.00  0.00     0.029 A 
ATOM     53  N   UNL     1      -9.719   4.996 -17.834  1.00  0.00    -0.354 N 
ATOM     54  N   UNL     1     -12.780   6.488 -15.289  1.00  0.00    -0.248 NA
ATOM     55  C   UNL     1     -12.671   4.162 -15.115  1.00  0.00     0.031 C 
ATOM     56  C   UNL     1      -9.090   6.981 -18.525  1.00  0.00     0.029 A 
ATOM     57  C   UNL     1     -10.115   6.307 -17.857  1.00  0.00     0.049 A 
ATOM     58  H   UNL     1     -10.302   4.238 -17.598  1.00  0.00     0.167 HD
ATOM     59  C   UNL     1     -12.113   6.001 -16.397  1.00  0.00     0.074 A 
ATOM     60  C   UNL     1     -12.245   4.552 -16.319  1.00  0.00     0.031 C 
ATOM     61  C   UNL     1     -11.251   6.792 -17.095  1.00  0.00     0.034 A 
BRANCH  48  62
ATOM     62  C   UNL     1      -7.985   2.354 -18.054  1.00  0.00     0.023 A 
ATOM     63  C   UNL     1      -8.084   1.265 -17.170  1.00  0.00     0.031 A 
ATOM     64  C   UNL     1      -8.374   2.103 -19.385  1.00  0.00     0.131 A 
ATOM     65  C   UNL     1      -8.499  -0.001 -17.601  1.00  0.00     0.055 A 
ATOM     66  C   UNL     1      -8.858   0.856 -19.803  1.00  0.00     0.041 A 
ATOM     67  F   UNL     1      -8.341   3.078 -20.308  1.00  0.00    -0.206 F 
ATOM     68  C   UNL     1      -8.918  -0.207 -18.910  1.00  0.00     0.022 A 
BRANCH  65  69
ATOM     69  S   UNL     1      -8.518  -1.393 -16.439  1.00  0.00     0.124 S 
ATOM     70  O   UNL     1      -9.908  -1.829 -16.512  1.00  0.00    -0.237 OA
ATOM     71  O   UNL     1      -7.537  -2.292 -17.043  1.00  0.00    -0.237 OA
ATOM     72  O   UNL     1      -8.106  -0.788 -15.176  1.00  0.00    -0.744 OA
ENDBRANCH  65  69
ENDBRANCH  48  62
BRANCH  49  73
ATOM     73  C   UNL     1     -13.714   4.964 -12.100  1.00  0.00     0.023 A 
ATOM     74  C   UNL     1     -13.264   4.178 -11.025  1.00  0.00     0.031 A 
ATOM     75  C   UNL     1     -15.067   4.859 -12.464  1.00  0.00     0.131 A 
ATOM     76  C   UNL     1     -14.128   3.262 -10.411  1.00  0.00     0.055 A 
ATOM     77  C   UNL     1     -15.933   3.959 -11.835  1.00  0.00     0.041 A 
ATOM     78  F   UNL     1     -15.553   5.573 -13.491  1.00  0.00    -0.206 F 
ATOM     79  C   UNL     1     -15.458   3.139 -10.816  1.00  0.00     0.022 A 
BRANCH  76  80
ATOM     80  S   UNL     1     -13.507   2.143  -9.126  1.00  0.00     0.124 S 
ATOM     81  O   UNL     1     -14.580   2.180  -8.135  1.00  0.00    -0.237 OA
ATOM     82  O   UNL     1     -13.374   0.892  -9.863  1.00  0.00    -0.237 OA
ATOM     83  O   UNL     1     -12.258   2.772  -8.705  1.00  0.00    -0.744 OA
ENDBRANCH  76  80
ENDBRANCH  49  73
BRANCH  61  84
ATOM     84  C   UNL     1     -11.380   8.284 -16.940  1.00  0.00     0.023 A 
ATOM     85  C   UNL     1     -11.634   9.015 -18.110  1.00  0.00     0.031 A 
ATOM     86  C   UNL     1     -11.104   9.003 -15.763  1.00  0.00     0.131 A 
ATOM     87  C   UNL     1     -11.561  10.410 -18.100  1.00  0.00     0.055 A 
ATOM     88  C   UNL     1     -11.095  10.402 -15.742  1.00  0.00     0.041 A 
ATOM     89  F   UNL     1     -10.773   8.382 -14.625  1.00  0.00    -0.206 F 
ATOM     90  C   UNL     1     -11.309  11.113 -16.919  1.00  0.00     0.022 A 
BRANCH  87  91
ATOM     91  S   UNL     1     -11.669  11.333 -19.652  1.00  0.00     0.124 S 
ATOM     92  O   UNL     1     -12.812  12.209 -19.415  1.00  0.00    -0.237 OA
ATOM     93  O   UNL     1     -10.369  11.998 -19.703  1.00  0.00    -0.237 OA
ATOM     94  O   UNL     1     -11.874  10.301 -20.664  1.00  0.00    -0.744 OA
ENDBRANCH  87  91
ENDBRANCH  61  84
ENDBRANCH  35  36
ENDBRANCH  27  30
ENDBRANCH  25  26
ENDBRANCH   1  25
TORSDOF 17
