REMARK SMILES Cc1ccc(C(N)=O)c(NCc2ccc(C(=O)NCCCNC(=O)c3ccc(-c4c5nc(c(-c6cc(S(=O)(=O)[O-])ccc6F)c6ccc([nH]6)c(-c6cc(S(=O)(=O)[O-])ccc6F)c6nc(c(-c7cc(S(=O)(=O)[O-])ccc7F)c7ccc4[nH]7)C=C6)C=C5)cc3)o2)n1
REMARK SMILES IDX 19 1 18 2 16 3 17 4 15 6 12 7 13 8 88 9 14 10 11 11 10 12
REMARK SMILES IDX 9 14 1 15 2 16 3 17 89 18 4 19 5 20 6 21 7 22 8 23 20 26
REMARK SMILES IDX 21 27 22 28 23 29 24 31 25 32 26 33 87 34 27 35 86 36 28 37
REMARK SMILES IDX 29 38 30 39 80 40 31 41 85 42 79 43 81 44 32 45 84 46 78 47
REMARK SMILES IDX 77 48 33 50 65 51 45 52 64 53 46 54 49 55 63 56 82 57 47 58
REMARK SMILES IDX 48 59 62 61 83 62 50 63 34 64 35 65 43 66 36 67 42 68 44 69
REMARK SMILES IDX 41 70 37 71 38 72 39 73 40 74 66 75 67 76 75 77 68 78 74 79
REMARK SMILES IDX 76 80 73 81 69 82 70 83 71 84 72 85 51 86 52 87 60 88 53 89
REMARK SMILES IDX 59 90 61 91 58 92 54 93 55 94 56 95 57 96
REMARK H PARENT 18 5 10 13 7 24 7 25 22 30 81 49 49 60
REMARK Flexibility Score: inf
ROOT
ATOM      1  C   UNL     1      -1.035   7.040  -5.477  1.00  0.00     0.118 C 
ENDROOT
BRANCH   1   2
ATOM      2  N   UNL     1      -1.009   7.802  -4.245  1.00  0.00    -0.349 N 
ATOM      3  C   UNL     1      -1.023   7.395  -2.930  1.00  0.00     0.286 C 
ATOM      4  O   UNL     1      -0.854   8.284  -2.093  1.00  0.00    -0.266 OA
ATOM      5  H   UNL     1      -0.976   8.778  -4.369  1.00  0.00     0.163 HD
BRANCH   3   6
ATOM      6  C   UNL     1      -1.206   6.000  -2.572  1.00  0.00     0.191 A 
ATOM      7  C   UNL     1      -1.065   4.307  -1.148  1.00  0.00     0.124 A 
ATOM      8  C   UNL     1      -1.588   3.791  -2.312  1.00  0.00     0.048 A 
ATOM      9  O   UNL     1      -0.826   5.638  -1.300  1.00  0.00    -0.454 OA
ATOM     10  C   UNL     1      -1.721   4.881  -3.204  1.00  0.00     0.056 A 
BRANCH   7  11
ATOM     11  C   UNL     1      -0.754   3.722   0.189  1.00  0.00     0.190 C 
BRANCH  11  12
ATOM     12  N   UNL     1      -1.534   2.532   0.491  1.00  0.00    -0.362 N 
ATOM     13  H   UNL     1      -2.448   2.628   0.846  1.00  0.00     0.162 HD
BRANCH  12  14
ATOM     14  C   UNL     1      -1.012   1.266   0.288  1.00  0.00     0.139 A 
ATOM     15  C   UNL     1       2.394  -0.103  -0.049  1.00  0.00     0.067 C 
ATOM     16  C   UNL     1       0.898  -0.064   0.027  1.00  0.00     0.040 A 
ATOM     17  C   UNL     1       0.147  -1.224  -0.062  1.00  0.00     0.024 A 
ATOM     18  N   UNL     1       0.334   1.158   0.182  1.00  0.00    -0.236 NA
ATOM     19  C   UNL     1      -1.236  -1.120   0.017  1.00  0.00     0.019 A 
ATOM     20  C   UNL     1      -1.834   0.136   0.185  1.00  0.00     0.081 A 
BRANCH  20  21
ATOM     21  C   UNL     1      -3.320   0.171   0.217  1.00  0.00     0.252 C 
ATOM     22  N   UNL     1      -3.943   1.321  -0.179  1.00  0.00    -0.365 N 
ATOM     23  O   UNL     1      -3.973  -0.811   0.549  1.00  0.00    -0.269 OA
ATOM     24  H   UNL     1      -3.409   2.104  -0.444  1.00  0.00     0.159 HD
ATOM     25  H   UNL     1      -4.927   1.365  -0.200  1.00  0.00     0.159 HD
ENDBRANCH  20  21
ENDBRANCH  12  14
ENDBRANCH  11  12
ENDBRANCH   7  11
ENDBRANCH   3   6
ENDBRANCH   1   2
BRANCH   1  26
ATOM     26  C   UNL     1      -2.416   7.057  -6.127  1.00  0.00     0.042 C 
BRANCH  26  27
ATOM     27  C   UNL     1      -2.732   8.373  -6.839  1.00  0.00     0.118 C 
BRANCH  27  28
ATOM     28  N   UNL     1      -1.868   8.587  -7.993  1.00  0.00    -0.352 N 
ATOM     29  C   UNL     1      -2.177   8.730  -9.323  1.00  0.00     0.251 C 
ATOM     30  H   UNL     1      -0.907   8.636  -7.785  1.00  0.00     0.163 HD
ATOM     31  O   UNL     1      -1.274   8.647 -10.152  1.00  0.00    -0.269 OA
BRANCH  29  32
ATOM     32  C   UNL     1      -3.569   8.973  -9.761  1.00  0.00     0.039 A 
ATOM     33  C   UNL     1      -4.021   8.363 -10.935  1.00  0.00     0.014 A 
ATOM     34  C   UNL     1      -4.412   9.836  -9.056  1.00  0.00     0.014 A 
ATOM     35  C   UNL     1      -5.332   8.575 -11.370  1.00  0.00     0.010 A 
ATOM     36  C   UNL     1      -5.739   9.991  -9.452  1.00  0.00     0.010 A 
ATOM     37  C   UNL     1      -6.213   9.365 -10.615  1.00  0.00    -0.014 A 
BRANCH  37  38
ATOM     38  C   UNL     1      -7.630   9.550 -11.026  1.00  0.00     0.031 A 
ATOM     39  C   UNL     1      -8.140  10.917 -11.395  1.00  0.00     0.074 A 
ATOM     40  C   UNL     1      -8.471   8.497 -10.999  1.00  0.00     0.049 A 
ATOM     41  N   UNL     1      -9.357  11.296 -11.690  1.00  0.00    -0.248 NA
ATOM     42  C   UNL     1      -7.153  12.007 -11.405  1.00  0.00     0.031 C 
ATOM     43  C   UNL     1      -8.101   7.130 -10.623  1.00  0.00     0.029 A 
ATOM     44  N   UNL     1      -9.812   8.409 -11.280  1.00  0.00    -0.354 N 
ATOM     45  C   UNL     1      -9.287  12.669 -11.902  1.00  0.00     0.074 A 
ATOM     46  C   UNL     1      -7.917  13.061 -11.647  1.00  0.00     0.031 C 
ATOM     47  C   UNL     1      -9.182   6.340 -10.715  1.00  0.00     0.029 A 
ATOM     48  C   UNL     1     -10.332   7.147 -11.107  1.00  0.00     0.049 A 
ATOM     49  H   UNL     1     -10.351   9.178 -11.578  1.00  0.00     0.167 HD
ATOM     50  C   UNL     1     -10.271  13.519 -12.290  1.00  0.00     0.034 A 
ATOM     51  C   UNL     1     -11.596   6.695 -11.233  1.00  0.00     0.034 A 
ATOM     52  C   UNL     1     -11.629  13.105 -12.556  1.00  0.00     0.049 A 
ATOM     53  C   UNL     1     -12.676   7.662 -11.648  1.00  0.00     0.074 A 
ATOM     54  C   UNL     1     -12.688  13.867 -13.016  1.00  0.00     0.029 A 
ATOM     55  N   UNL     1     -12.118  11.817 -12.376  1.00  0.00    -0.354 N 
ATOM     56  N   UNL     1     -12.582   8.948 -11.897  1.00  0.00    -0.248 NA
ATOM     57  C   UNL     1     -14.029   7.114 -11.809  1.00  0.00     0.031 C 
ATOM     58  C   UNL     1     -13.831  13.060 -13.046  1.00  0.00     0.029 A 
ATOM     59  C   UNL     1     -13.470  11.773 -12.683  1.00  0.00     0.049 A 
ATOM     60  H   UNL     1     -11.583  11.047 -12.074  1.00  0.00     0.167 HD
ATOM     61  C   UNL     1     -13.859   9.354 -12.276  1.00  0.00     0.074 A 
ATOM     62  C   UNL     1     -14.698   8.175 -12.236  1.00  0.00     0.031 C 
ATOM     63  C   UNL     1     -14.297  10.590 -12.629  1.00  0.00     0.034 A 
BRANCH  50  64
ATOM     64  C   UNL     1      -9.919  14.982 -12.422  1.00  0.00     0.023 A 
ATOM     65  C   UNL     1      -8.967  15.435 -13.353  1.00  0.00     0.031 A 
ATOM     66  C   UNL     1     -10.528  15.939 -11.590  1.00  0.00     0.131 A 
ATOM     67  C   UNL     1      -8.597  16.788 -13.377  1.00  0.00     0.055 A 
ATOM     68  C   UNL     1     -10.217  17.297 -11.677  1.00  0.00     0.041 A 
ATOM     69  F   UNL     1     -11.431  15.567 -10.668  1.00  0.00    -0.206 F 
ATOM     70  C   UNL     1      -9.235  17.727 -12.563  1.00  0.00     0.022 A 
BRANCH  67  71
ATOM     71  S   UNL     1      -7.171  17.279 -14.384  1.00  0.00     0.124 S 
ATOM     72  O   UNL     1      -6.109  16.452 -13.813  1.00  0.00    -0.237 OA
ATOM     73  O   UNL     1      -7.600  16.926 -15.732  1.00  0.00    -0.237 OA
ATOM     74  O   UNL     1      -7.043  18.711 -14.123  1.00  0.00    -0.744 OA
ENDBRANCH  67  71
ENDBRANCH  50  64
BRANCH  51  75
ATOM     75  C   UNL     1     -11.919   5.266 -10.954  1.00  0.00     0.023 A 
ATOM     76  C   UNL     1     -12.394   4.420 -11.968  1.00  0.00     0.031 A 
ATOM     77  C   UNL     1     -11.800   4.736  -9.656  1.00  0.00     0.131 A 
ATOM     78  C   UNL     1     -12.779   3.106 -11.661  1.00  0.00     0.055 A 
ATOM     79  C   UNL     1     -12.132   3.412  -9.367  1.00  0.00     0.041 A 
ATOM     80  F   UNL     1     -11.345   5.499  -8.650  1.00  0.00    -0.206 F 
ATOM     81  C   UNL     1     -12.639   2.592 -10.370  1.00  0.00     0.022 A 
BRANCH  78  82
ATOM     82  S   UNL     1     -13.554   2.104 -12.959  1.00  0.00     0.124 S 
ATOM     83  O   UNL     1     -14.695   2.932 -13.332  1.00  0.00    -0.237 OA
ATOM     84  O   UNL     1     -12.483   2.005 -13.944  1.00  0.00    -0.237 OA
ATOM     85  O   UNL     1     -13.885   0.857 -12.273  1.00  0.00    -0.744 OA
ENDBRANCH  78  82
ENDBRANCH  51  75
BRANCH  63  86
ATOM     86  C   UNL     1     -15.743  10.710 -13.045  1.00  0.00     0.023 A 
ATOM     87  C   UNL     1     -16.796  10.509 -12.136  1.00  0.00     0.031 A 
ATOM     88  C   UNL     1     -16.070  11.018 -14.378  1.00  0.00     0.131 A 
ATOM     89  C   UNL     1     -18.125  10.562 -12.583  1.00  0.00     0.055 A 
ATOM     90  C   UNL     1     -17.394  11.131 -14.803  1.00  0.00     0.041 A 
ATOM     91  F   UNL     1     -15.104  11.217 -15.290  1.00  0.00    -0.206 F 
ATOM     92  C   UNL     1     -18.431  10.889 -13.907  1.00  0.00     0.022 A 
BRANCH  89  93
ATOM     93  S   UNL     1     -19.450  10.105 -11.432  1.00  0.00     0.124 S 
ATOM     94  O   UNL     1     -19.081   8.740 -11.070  1.00  0.00    -0.237 OA
ATOM     95  O   UNL     1     -19.308  11.105 -10.379  1.00  0.00    -0.237 OA
ATOM     96  O   UNL     1     -20.663  10.225 -12.240  1.00  0.00    -0.744 OA
ENDBRANCH  89  93
ENDBRANCH  63  86
ENDBRANCH  37  38
ENDBRANCH  29  32
ENDBRANCH  27  28
ENDBRANCH  26  27
ENDBRANCH   1  26
TORSDOF 17
