REMARK SMILES O=C(Cc1cccc(NS(=O)(=O)c2cccc(Cl)c2)c1)NCCCNC(=O)c1ccc(-c2c3nc(c(-c4cc(S(=O)(=O)[O-])ccc4F)c4ccc([nH]4)c(-c4cc(S(=O)(=O)[O-])ccc4F)c4nc(c(-c5cc(S(=O)(=O)[O-])ccc5F)c5ccc2[nH]5)C=C4)C=C3)cc1
REMARK SMILES IDX 22 1 21 2 1 3 2 4 3 6 4 7 5 8 20 9 6 10 8 11 7 12 9 13 10 15
REMARK SMILES IDX 11 16 12 17 13 18 14 19 19 20 15 21 17 22 16 23 18 24 23 25
REMARK SMILES IDX 24 26 25 27 26 28 27 30 28 31 29 32 90 33 30 34 89 35 31 36
REMARK SMILES IDX 32 37 33 38 83 39 34 40 88 41 82 42 84 43 35 44 87 45 81 46
REMARK SMILES IDX 80 47 36 49 68 50 48 51 67 52 49 53 52 54 66 55 85 56 50 57
REMARK SMILES IDX 51 58 65 60 86 61 53 62 37 63 38 64 46 65 39 66 45 67 47 68
REMARK SMILES IDX 44 69 40 70 41 71 42 72 43 73 69 74 70 75 78 76 71 77 77 78
REMARK SMILES IDX 79 79 76 80 72 81 73 82 74 83 75 84 54 85 55 86 63 87 56 88
REMARK SMILES IDX 62 89 64 90 61 91 57 92 58 93 59 94 60 95
REMARK H PARENT 21 5 9 14 25 29 84 48 52 59
REMARK Flexibility Score: inf
ROOT
ATOM      1  C   UNL     1       1.875   2.501  -0.556  1.00  0.00     0.117 C 
ENDROOT
BRANCH   1   2
ATOM      2  N   UNL     1       2.473   1.259  -0.114  1.00  0.00    -0.356 N 
ATOM      3  O   UNL     1       0.881  -0.102  -1.067  1.00  0.00    -0.275 OA
ATOM      4  C   UNL     1       1.929   0.035  -0.445  1.00  0.00     0.224 C 
ATOM      5  H   UNL     1       3.288   1.289   0.437  1.00  0.00     0.163 HD
BRANCH   4   6
ATOM      6  C   UNL     1       2.753  -1.138   0.035  1.00  0.00     0.135 C 
BRANCH   6   7
ATOM      7  C   UNL     1       3.789  -1.645  -0.947  1.00  0.00    -0.037 A 
ATOM      8  C   UNL     1       3.984  -3.030  -1.035  1.00  0.00     0.004 A 
ATOM      9  C   UNL     1       4.665  -0.787  -1.647  1.00  0.00     0.031 A 
ATOM     10  C   UNL     1       5.067  -3.544  -1.735  1.00  0.00     0.002 A 
ATOM     11  C   UNL     1       5.747  -1.301  -2.374  1.00  0.00     0.049 A 
ATOM     12  C   UNL     1       5.968  -2.677  -2.349  1.00  0.00     0.027 A 
BRANCH  11  13
ATOM     13  N   UNL     1       6.734  -0.407  -2.922  1.00  0.00    -0.280 N 
ATOM     14  H   UNL     1       7.201   0.218  -2.322  1.00  0.00     0.180 HD
BRANCH  13  15
ATOM     15  S   UNL     1       7.112  -0.405  -4.585  1.00  0.00     0.261 S 
ATOM     16  O   UNL     1       5.980   0.183  -5.273  1.00  0.00    -0.201 OA
ATOM     17  O   UNL     1       8.428   0.181  -4.710  1.00  0.00    -0.201 OA
BRANCH  15  18
ATOM     18  C   UNL     1       7.234  -2.095  -5.098  1.00  0.00     0.089 A 
ATOM     19  C   UNL     1       6.109  -2.724  -5.645  1.00  0.00     0.022 A 
ATOM     20  C   UNL     1       8.437  -2.791  -4.926  1.00  0.00     0.042 A 
ATOM     21  C   UNL     1       6.159  -4.084  -5.943  1.00  0.00     0.003 A 
ATOM     22  C   UNL     1       8.471  -4.150  -5.228  1.00  0.00     0.042 A 
ATOM     23  C   UNL     1       7.337  -4.800  -5.721  1.00  0.00     0.020 A 
ATOM     24  Cl  UNL     1       9.908  -5.054  -4.949  1.00  0.00    -0.084 Cl
ENDBRANCH  15  18
ENDBRANCH  13  15
ENDBRANCH  11  13
ENDBRANCH   6   7
ENDBRANCH   4   6
ENDBRANCH   1   2
BRANCH   1  25
ATOM     25  C   UNL     1       2.198   3.669   0.366  1.00  0.00     0.042 C 
BRANCH  25  26
ATOM     26  C   UNL     1       3.679   4.021   0.473  1.00  0.00     0.118 C 
BRANCH  26  27
ATOM     27  N   UNL     1       4.260   4.456  -0.784  1.00  0.00    -0.352 N 
ATOM     28  C   UNL     1       5.027   5.562  -1.062  1.00  0.00     0.251 C 
ATOM     29  H   UNL     1       4.077   3.870  -1.554  1.00  0.00     0.163 HD
ATOM     30  O   UNL     1       5.300   5.814  -2.233  1.00  0.00    -0.269 OA
BRANCH  28  31
ATOM     31  C   UNL     1       5.492   6.462   0.021  1.00  0.00     0.039 A 
ATOM     32  C   UNL     1       5.473   7.841  -0.207  1.00  0.00     0.014 A 
ATOM     33  C   UNL     1       5.974   5.969   1.237  1.00  0.00     0.014 A 
ATOM     34  C   UNL     1       5.888   8.722   0.796  1.00  0.00     0.010 A 
ATOM     35  C   UNL     1       6.314   6.850   2.265  1.00  0.00     0.010 A 
ATOM     36  C   UNL     1       6.289   8.237   2.052  1.00  0.00    -0.014 A 
BRANCH  36  37
ATOM     37  C   UNL     1       6.714   9.173   3.128  1.00  0.00     0.031 A 
ATOM     38  C   UNL     1       8.132   9.153   3.636  1.00  0.00     0.074 A 
ATOM     39  C   UNL     1       5.819  10.024   3.668  1.00  0.00     0.049 A 
ATOM     40  N   UNL     1       8.690   9.883   4.570  1.00  0.00    -0.248 NA
ATOM     41  C   UNL     1       9.034   8.159   3.036  1.00  0.00     0.031 C 
ATOM     42  C   UNL     1       4.403  10.107   3.300  1.00  0.00     0.029 A 
ATOM     43  N   UNL     1       5.964  10.985   4.639  1.00  0.00    -0.354 N 
ATOM     44  C   UNL     1      10.002   9.431   4.674  1.00  0.00     0.074 A 
ATOM     45  C   UNL     1      10.131   8.317   3.759  1.00  0.00     0.031 C 
ATOM     46  C   UNL     1       3.821  11.087   4.011  1.00  0.00     0.029 A 
ATOM     47  C   UNL     1       4.807  11.680   4.908  1.00  0.00     0.049 A 
ATOM     48  H   UNL     1       6.816  11.159   5.099  1.00  0.00     0.167 HD
ATOM     49  C   UNL     1      11.013   9.916   5.439  1.00  0.00     0.034 A 
ATOM     50  C   UNL     1       4.569  12.685   5.774  1.00  0.00     0.034 A 
ATOM     51  C   UNL     1      10.873  11.037   6.338  1.00  0.00     0.049 A 
ATOM     52  C   UNL     1       5.710  13.217   6.604  1.00  0.00     0.074 A 
ATOM     53  C   UNL     1      11.839  11.635   7.130  1.00  0.00     0.029 A 
ATOM     54  N   UNL     1       9.692  11.732   6.566  1.00  0.00    -0.354 N 
ATOM     55  N   UNL     1       6.959  12.812   6.653  1.00  0.00    -0.248 NA
ATOM     56  C   UNL     1       5.414  14.360   7.477  1.00  0.00     0.031 C 
ATOM     57  C   UNL     1      11.229  12.649   7.878  1.00  0.00     0.029 A 
ATOM     58  C   UNL     1       9.900  12.738   7.498  1.00  0.00     0.049 A 
ATOM     59  H   UNL     1       8.831  11.539   6.129  1.00  0.00     0.167 HD
ATOM     60  C   UNL     1       7.604  13.677   7.534  1.00  0.00     0.074 A 
ATOM     61  C   UNL     1       6.609  14.634   7.975  1.00  0.00     0.031 C 
ATOM     62  C   UNL     1       8.900  13.684   7.937  1.00  0.00     0.034 A 
BRANCH  49  63
ATOM     63  C   UNL     1      12.349   9.214   5.347  1.00  0.00     0.023 A 
ATOM     64  C   UNL     1      13.073   9.159   4.142  1.00  0.00     0.031 A 
ATOM     65  C   UNL     1      12.891   8.558   6.466  1.00  0.00     0.131 A 
ATOM     66  C   UNL     1      14.248   8.397   4.062  1.00  0.00     0.055 A 
ATOM     67  C   UNL     1      14.107   7.874   6.402  1.00  0.00     0.041 A 
ATOM     68  F   UNL     1      12.239   8.555   7.640  1.00  0.00    -0.206 F 
ATOM     69  C   UNL     1      14.784   7.775   5.191  1.00  0.00     0.022 A 
BRANCH  66  70
ATOM     70  S   UNL     1      14.976   8.099   2.428  1.00  0.00     0.124 S 
ATOM     71  O   UNL     1      13.874   7.439   1.731  1.00  0.00    -0.237 OA
ATOM     72  O   UNL     1      15.302   9.447   1.977  1.00  0.00    -0.237 OA
ATOM     73  O   UNL     1      16.124   7.241   2.715  1.00  0.00    -0.744 OA
ENDBRANCH  66  70
ENDBRANCH  49  63
BRANCH  50  74
ATOM     74  C   UNL     1       3.203  13.269   5.898  1.00  0.00     0.023 A 
ATOM     75  C   UNL     1       2.950  14.602   5.537  1.00  0.00     0.031 A 
ATOM     76  C   UNL     1       2.140  12.516   6.426  1.00  0.00     0.131 A 
ATOM     77  C   UNL     1       1.680  15.158   5.757  1.00  0.00     0.055 A 
ATOM     78  C   UNL     1       0.864  13.057   6.593  1.00  0.00     0.041 A 
ATOM     79  F   UNL     1       2.326  11.234   6.780  1.00  0.00    -0.206 F 
ATOM     80  C   UNL     1       0.632  14.391   6.272  1.00  0.00     0.022 A 
BRANCH  77  81
ATOM     81  S   UNL     1       1.439  16.928   5.441  1.00  0.00     0.124 S 
ATOM     82  O   UNL     1       2.440  17.525   6.317  1.00  0.00    -0.237 OA
ATOM     83  O   UNL     1       1.704  17.018   4.008  1.00  0.00    -0.237 OA
ATOM     84  O   UNL     1       0.050  17.157   5.830  1.00  0.00    -0.744 OA
ENDBRANCH  77  81
ENDBRANCH  50  74
BRANCH  62  85
ATOM     85  C   UNL     1       9.322  14.801   8.863  1.00  0.00     0.023 A 
ATOM     86  C   UNL     1       8.797  14.930  10.161  1.00  0.00     0.031 A 
ATOM     87  C   UNL     1      10.235  15.776   8.421  1.00  0.00     0.131 A 
ATOM     88  C   UNL     1       9.127  16.049  10.941  1.00  0.00     0.055 A 
ATOM     89  C   UNL     1      10.612  16.850   9.228  1.00  0.00     0.041 A 
ATOM     90  F   UNL     1      10.769  15.705   7.191  1.00  0.00    -0.206 F 
ATOM     91  C   UNL     1      10.043  17.002  10.489  1.00  0.00     0.022 A 
BRANCH  88  92
ATOM     92  S   UNL     1       8.243  16.310  12.504  1.00  0.00     0.124 S 
ATOM     93  O   UNL     1       6.849  16.274  12.076  1.00  0.00    -0.237 OA
ATOM     94  O   UNL     1       8.692  15.177  13.307  1.00  0.00    -0.237 OA
ATOM     95  O   UNL     1       8.721  17.616  12.954  1.00  0.00    -0.744 OA
ENDBRANCH  88  92
ENDBRANCH  62  85
ENDBRANCH  36  37
ENDBRANCH  28  31
ENDBRANCH  26  27
ENDBRANCH  25  26
ENDBRANCH   1  25
TORSDOF 17
