REMARK SMILES COc1ncnc(N2CCSC[C@@H]2CC(=O)NCCCNC(=O)c2ccc(-c3c4nc(c(-c5cc(S(=O)(=O)[O-])ccc5F)c5ccc([nH]5)c(-c5cc(S(=O)(=O)[O-])ccc5F)c5nc(c(-c6cc(S(=O)(=O)[O-])ccc6F)c6ccc3[nH]6)C=C5)C=C4)cc2)c1[N+](=O)[O-]
REMARK SMILES IDX 19 1 18 2 17 3 15 4 16 5 14 7 13 8 8 9 9 10 10 11 12 12
REMARK SMILES IDX 11 13 7 14 3 15 4 16 87 17 5 18 6 19 2 20 1 21 88 22 89 23
REMARK SMILES IDX 90 24 20 25 21 26 22 27 23 29 24 30 25 31 86 32 26 33 85 34
REMARK SMILES IDX 27 35 28 36 29 37 79 38 30 39 84 40 78 41 80 42 31 43 83 44
REMARK SMILES IDX 77 45 76 46 32 48 64 49 44 50 63 51 45 52 48 53 62 54 81 55
REMARK SMILES IDX 46 56 47 57 61 59 82 60 49 61 33 62 34 63 42 64 35 65 41 66
REMARK SMILES IDX 43 67 40 68 36 69 37 70 38 71 39 72 65 73 66 74 74 75 67 76
REMARK SMILES IDX 73 77 75 78 72 79 68 80 69 81 70 82 71 83 50 84 51 85 59 86
REMARK SMILES IDX 52 87 58 88 60 89 57 90 53 91 54 92 55 93 56 94
REMARK H PARENT 17 6 21 28 80 47 48 58
REMARK Flexibility Score: inf
ROOT
ATOM      1  C   UNL     1       4.917  -2.700   0.516  1.00  0.00     0.042 C 
ENDROOT
BRANCH   1   2
ATOM      2  C   UNL     1       5.511  -1.814  -0.584  1.00  0.00     0.117 C 
BRANCH   2   3
ATOM      3  N   UNL     1       6.420  -2.518  -1.478  1.00  0.00    -0.356 N 
ATOM      4  C   UNL     1       6.323  -2.752  -2.823  1.00  0.00     0.222 C 
ATOM      5  O   UNL     1       7.295  -3.262  -3.385  1.00  0.00    -0.275 OA
ATOM      6  H   UNL     1       7.227  -2.884  -1.048  1.00  0.00     0.163 HD
BRANCH   4   7
ATOM      7  C   UNL     1       5.105  -2.325  -3.624  1.00  0.00     0.126 C 
BRANCH   7   8
ATOM      8  C   UNL     1       3.879  -3.255  -3.720  1.00  0.00     0.103 C 
ATOM      9  N   UNL     1       3.370  -3.719  -2.409  1.00  0.00    -0.345 N 
ATOM     10  C   UNL     1       3.975  -4.943  -1.817  1.00  0.00     0.129 C 
ATOM     11  C   UNL     1       4.172  -6.165  -2.711  1.00  0.00     0.091 C 
ATOM     12  C   UNL     1       4.018  -4.403  -4.747  1.00  0.00     0.095 C 
ATOM     13  S   UNL     1       5.084  -5.769  -4.228  1.00  0.00    -0.158 SA
BRANCH   9  14
ATOM     14  C   UNL     1       2.007  -3.520  -2.166  1.00  0.00     0.215 A 
ATOM     15  C   UNL     1       0.123  -2.321  -1.292  1.00  0.00     0.299 A 
ATOM     16  N   UNL     1      -0.697  -3.335  -1.609  1.00  0.00    -0.196 NA
ATOM     17  C   UNL     1       1.470  -2.369  -1.590  1.00  0.00     0.372 A 
ATOM     18  C   UNL     1      -0.124  -4.395  -2.197  1.00  0.00     0.228 A 
ATOM     19  N   UNL     1       1.186  -4.543  -2.474  1.00  0.00    -0.212 NA
BRANCH  15  20
ATOM     20  O   UNL     1      -0.430  -1.419  -0.421  1.00  0.00    -0.476 OA
ATOM     21  C   UNL     1      -0.598  -0.087  -0.892  1.00  0.00     0.280 C 
ENDBRANCH  15  20
BRANCH  17  22
ATOM     22  N   UNL     1       2.245  -1.202  -1.357  1.00  0.00     0.072 N 
ATOM     23  O   UNL     1       2.616  -0.570  -2.358  1.00  0.00    -0.258 OA
ATOM     24  O   UNL     1       2.414  -0.832  -0.189  1.00  0.00    -0.258 OA
ENDBRANCH  17  22
ENDBRANCH   9  14
ENDBRANCH   7   8
ENDBRANCH   4   7
ENDBRANCH   2   3
ENDBRANCH   1   2
BRANCH   1  25
ATOM     25  C   UNL     1       5.739  -2.749   1.791  1.00  0.00     0.118 C 
BRANCH  25  26
ATOM     26  N   UNL     1       5.248  -1.791   2.763  1.00  0.00    -0.352 N 
ATOM     27  C   UNL     1       4.160  -1.786   3.604  1.00  0.00     0.251 C 
ATOM     28  H   UNL     1       5.805  -0.983   2.835  1.00  0.00     0.163 HD
ATOM     29  O   UNL     1       3.841  -0.692   4.074  1.00  0.00    -0.269 OA
BRANCH  27  30
ATOM     30  C   UNL     1       3.360  -2.993   3.982  1.00  0.00     0.039 A 
ATOM     31  C   UNL     1       2.080  -2.777   4.522  1.00  0.00     0.014 A 
ATOM     32  C   UNL     1       3.850  -4.299   3.979  1.00  0.00     0.014 A 
ATOM     33  C   UNL     1       1.336  -3.829   5.082  1.00  0.00     0.010 A 
ATOM     34  C   UNL     1       3.068  -5.365   4.451  1.00  0.00     0.010 A 
ATOM     35  C   UNL     1       1.825  -5.141   5.060  1.00  0.00    -0.014 A 
BRANCH  35  36
ATOM     36  C   UNL     1       1.121  -6.263   5.756  1.00  0.00     0.031 A 
ATOM     37  C   UNL     1       1.816  -7.006   6.879  1.00  0.00     0.074 A 
ATOM     38  C   UNL     1      -0.113  -6.651   5.377  1.00  0.00     0.049 A 
ATOM     39  N   UNL     1       1.447  -8.087   7.521  1.00  0.00    -0.248 NA
ATOM     40  C   UNL     1       3.119  -6.476   7.309  1.00  0.00     0.031 C 
ATOM     41  C   UNL     1      -0.904  -6.032   4.312  1.00  0.00     0.029 A 
ATOM     42  N   UNL     1      -0.917  -7.668   5.837  1.00  0.00    -0.354 N 
ATOM     43  C   UNL     1       2.485  -8.384   8.402  1.00  0.00     0.074 A 
ATOM     44  C   UNL     1       3.522  -7.402   8.165  1.00  0.00     0.031 C 
ATOM     45  C   UNL     1      -2.082  -6.670   4.213  1.00  0.00     0.029 A 
ATOM     46  C   UNL     1      -2.115  -7.776   5.165  1.00  0.00     0.049 A 
ATOM     47  H   UNL     1      -0.660  -8.263   6.577  1.00  0.00     0.167 HD
ATOM     48  C   UNL     1       2.563  -9.367   9.336  1.00  0.00     0.034 A 
ATOM     49  C   UNL     1      -3.116  -8.673   5.285  1.00  0.00     0.034 A 
ATOM     50  C   UNL     1       1.507 -10.318   9.593  1.00  0.00     0.049 A 
ATOM     51  C   UNL     1      -3.001  -9.772   6.314  1.00  0.00     0.074 A 
ATOM     52  C   UNL     1       1.461 -11.318  10.550  1.00  0.00     0.029 A 
ATOM     53  N   UNL     1       0.310 -10.389   8.891  1.00  0.00    -0.354 N 
ATOM     54  N   UNL     1      -2.019 -10.026   7.148  1.00  0.00    -0.248 NA
ATOM     55  C   UNL     1      -4.137 -10.697   6.424  1.00  0.00     0.031 C 
ATOM     56  C   UNL     1       0.272 -12.036  10.381  1.00  0.00     0.029 A 
ATOM     57  C   UNL     1      -0.466 -11.432   9.375  1.00  0.00     0.049 A 
ATOM     58  H   UNL     1       0.051  -9.786   8.157  1.00  0.00     0.167 HD
ATOM     59  C   UNL     1      -2.437 -11.119   7.905  1.00  0.00     0.074 A 
ATOM     60  C   UNL     1      -3.763 -11.464   7.438  1.00  0.00     0.031 C 
ATOM     61  C   UNL     1      -1.786 -11.774   8.900  1.00  0.00     0.034 A 
BRANCH  48  62
ATOM     62  C   UNL     1       3.846  -9.479  10.132  1.00  0.00     0.023 A 
ATOM     63  C   UNL     1       4.297  -8.441  10.968  1.00  0.00     0.031 A 
ATOM     64  C   UNL     1       4.645 -10.633  10.037  1.00  0.00     0.131 A 
ATOM     65  C   UNL     1       5.544  -8.541  11.603  1.00  0.00     0.055 A 
ATOM     66  C   UNL     1       5.843 -10.764  10.744  1.00  0.00     0.041 A 
ATOM     67  F   UNL     1       4.282 -11.653   9.243  1.00  0.00    -0.206 F 
ATOM     68  C   UNL     1       6.308  -9.707  11.520  1.00  0.00     0.022 A 
BRANCH  65  69
ATOM     69  S   UNL     1       6.226  -7.066  12.409  1.00  0.00     0.124 S 
ATOM     70  O   UNL     1       6.266  -6.117  11.300  1.00  0.00    -0.237 OA
ATOM     71  O   UNL     1       5.241  -6.792  13.450  1.00  0.00    -0.237 OA
ATOM     72  O   UNL     1       7.534  -7.510  12.888  1.00  0.00    -0.744 OA
ENDBRANCH  65  69
ENDBRANCH  48  62
BRANCH  49  73
ATOM     73  C   UNL     1      -4.314  -8.591   4.397  1.00  0.00     0.023 A 
ATOM     74  C   UNL     1      -5.591  -8.345   4.925  1.00  0.00     0.031 A 
ATOM     75  C   UNL     1      -4.205  -8.806   3.011  1.00  0.00     0.131 A 
ATOM     76  C   UNL     1      -6.714  -8.367   4.083  1.00  0.00     0.055 A 
ATOM     77  C   UNL     1      -5.318  -8.768   2.169  1.00  0.00     0.041 A 
ATOM     78  F   UNL     1      -3.008  -9.046   2.453  1.00  0.00    -0.206 F 
ATOM     79  C   UNL     1      -6.584  -8.561   2.706  1.00  0.00     0.022 A 
BRANCH  76  80
ATOM     80  S   UNL     1      -8.363  -8.228   4.827  1.00  0.00     0.124 S 
ATOM     81  O   UNL     1      -8.369  -9.360   5.747  1.00  0.00    -0.237 OA
ATOM     82  O   UNL     1      -8.309  -6.904   5.438  1.00  0.00    -0.237 OA
ATOM     83  O   UNL     1      -9.264  -8.349   3.683  1.00  0.00    -0.744 OA
ENDBRANCH  76  80
ENDBRANCH  49  73
BRANCH  61  84
ATOM     84  C   UNL     1      -2.526 -12.898   9.587  1.00  0.00     0.023 A 
ATOM     85  C   UNL     1      -2.875 -14.082   8.913  1.00  0.00     0.031 A 
ATOM     86  C   UNL     1      -2.902 -12.773  10.937  1.00  0.00     0.131 A 
ATOM     87  C   UNL     1      -3.630 -15.065   9.571  1.00  0.00     0.055 A 
ATOM     88  C   UNL     1      -3.596 -13.782  11.605  1.00  0.00     0.041 A 
ATOM     89  F   UNL     1      -2.599 -11.664  11.631  1.00  0.00    -0.206 F 
ATOM     90  C   UNL     1      -3.978 -14.931  10.918  1.00  0.00     0.022 A 
BRANCH  87  91
ATOM     91  S   UNL     1      -4.243 -16.479   8.614  1.00  0.00     0.124 S 
ATOM     92  O   UNL     1      -5.013 -15.822   7.562  1.00  0.00    -0.237 OA
ATOM     93  O   UNL     1      -3.007 -17.127   8.189  1.00  0.00    -0.237 OA
ATOM     94  O   UNL     1      -5.036 -17.233   9.584  1.00  0.00    -0.744 OA
ENDBRANCH  87  91
ENDBRANCH  61  84
ENDBRANCH  35  36
ENDBRANCH  27  30
ENDBRANCH  25  26
ENDBRANCH   1  25
TORSDOF 17
