REMARK SMILES COc1ccc(-c2ccc3n(c2=O)C[C@H]2C[C@@H]3CN(C(=O)CCCC(=O)NCCCNC(=O)c3ccc(-c4c5nc(c(-c6cc(S(=O)(=O)[O-])ccc6F)c6ccc([nH]6)c(-c6cc(S(=O)(=O)[O-])ccc6F)c6nc(c(-c7cc(S(=O)(=O)[O-])ccc7F)c7ccc4[nH]7)C=C6)C=C5)cc3)C2)cc1
REMARK SMILES IDX 25 1 26 2 27 3 24 5 23 6 22 7 20 8 21 9 19 10 7 11 8 12
REMARK SMILES IDX 12 13 9 14 11 15 13 16 10 17 14 18 17 19 15 20 16 21 18 22
REMARK SMILES IDX 97 23 6 24 3 25 4 26 99 27 5 28 98 29 2 30 1 31 28 32 29 33
REMARK SMILES IDX 30 34 31 35 32 36 33 38 34 39 35 40 96 41 36 42 95 43 37 44
REMARK SMILES IDX 38 45 39 46 89 47 40 48 94 49 88 50 90 51 41 52 93 53 87 54
REMARK SMILES IDX 86 55 42 57 74 58 54 59 73 60 55 61 58 62 72 63 91 64 56 65
REMARK SMILES IDX 57 66 71 68 92 69 59 70 43 71 44 72 52 73 45 74 51 75 53 76
REMARK SMILES IDX 50 77 46 78 47 79 48 80 49 81 75 82 76 83 84 84 77 85 83 86
REMARK SMILES IDX 85 87 82 88 78 89 79 90 80 91 81 92 60 93 61 94 69 95 62 96
REMARK SMILES IDX 68 97 70 98 67 99 63 100 64 101 65 102 66 103
REMARK H PARENT 27 4 31 37 90 56 58 67
REMARK Flexibility Score: inf
ROOT
ATOM      1  C   UNL     1      -2.797  -7.462   8.515  1.00  0.00     0.220 C 
ATOM      2  O   UNL     1      -3.777  -7.793   7.836  1.00  0.00    -0.275 OA
ATOM      3  N   UNL     1      -2.504  -8.281   9.555  1.00  0.00    -0.356 N 
ATOM      4  H   UNL     1      -3.203  -8.947   9.749  1.00  0.00     0.163 HD
ENDROOT
BRANCH   1   5
ATOM      5  C   UNL     1      -1.966  -6.252   8.083  1.00  0.00     0.100 C 
BRANCH   5   6
ATOM      6  C   UNL     1      -1.667  -5.113   9.051  1.00  0.00     0.020 C 
BRANCH   6   7
ATOM      7  C   UNL     1      -0.474  -5.145  10.006  1.00  0.00     0.101 C 
BRANCH   7   8
ATOM      8  C   UNL     1       0.975  -5.066   9.512  1.00  0.00     0.222 C 
ATOM      9  O   UNL     1       1.524  -3.957   9.555  1.00  0.00    -0.275 OA
BRANCH   8  10
ATOM     10  N   UNL     1       1.714  -6.201   9.188  1.00  0.00    -0.342 N 
ATOM     11  C   UNL     1       2.365  -3.855   4.899  1.00  0.00     0.047 A 
ATOM     12  C   UNL     1       3.422  -3.544   5.666  1.00  0.00     0.016 A 
ATOM     13  C   UNL     1       1.717  -5.201   5.071  1.00  0.00     0.258 A 
ATOM     14  C   UNL     1       3.939  -4.463   6.638  1.00  0.00     0.023 A 
ATOM     15  N   UNL     1       2.258  -6.032   6.062  1.00  0.00    -0.311 N 
ATOM     16  O   UNL     1       0.770  -5.537   4.360  1.00  0.00    -0.269 OA
ATOM     17  C   UNL     1       3.364  -5.660   6.830  1.00  0.00     0.026 A 
ATOM     18  C   UNL     1       1.635  -7.344   6.216  1.00  0.00     0.131 C 
ATOM     19  C   UNL     1       3.842  -6.561   7.957  1.00  0.00     0.056 C 
ATOM     20  C   UNL     1       1.979  -8.086   7.510  1.00  0.00     0.029 C 
ATOM     21  C   UNL     1       3.484  -8.025   7.707  1.00  0.00     0.019 C 
ATOM     22  C   UNL     1       3.175  -6.106   9.269  1.00  0.00     0.129 C 
ATOM     23  C   UNL     1       1.246  -7.509   8.737  1.00  0.00     0.125 C 
BRANCH  11  24
ATOM     24  C   UNL     1       1.866  -2.880   3.917  1.00  0.00    -0.013 A 
ATOM     25  C   UNL     1       0.937  -1.019   2.025  1.00  0.00     0.118 A 
ATOM     26  C   UNL     1       0.095  -1.475   3.042  1.00  0.00     0.047 A 
ATOM     27  C   UNL     1       2.252  -1.480   1.966  1.00  0.00     0.047 A 
ATOM     28  C   UNL     1       0.552  -2.407   3.978  1.00  0.00     0.013 A 
ATOM     29  C   UNL     1       2.712  -2.406   2.905  1.00  0.00     0.013 A 
BRANCH  25  30
ATOM     30  O   UNL     1       0.379  -0.111   1.167  1.00  0.00    -0.497 OA
ATOM     31  C   UNL     1       1.005   0.001  -0.105  1.00  0.00     0.278 C 
ENDBRANCH  25  30
ENDBRANCH  11  24
ENDBRANCH   8  10
ENDBRANCH   7   8
ENDBRANCH   6   7
ENDBRANCH   5   6
ENDBRANCH   1   5
BRANCH   3  32
ATOM     32  C   UNL     1      -1.363  -8.360  10.429  1.00  0.00     0.117 C 
BRANCH  32  33
ATOM     33  C   UNL     1      -1.679  -8.134  11.892  1.00  0.00     0.042 C 
BRANCH  33  34
ATOM     34  C   UNL     1      -1.750  -9.438  12.655  1.00  0.00     0.118 C 
BRANCH  34  35
ATOM     35  N   UNL     1      -0.440 -10.069  12.826  1.00  0.00    -0.352 N 
ATOM     36  C   UNL     1       0.143 -10.560  13.974  1.00  0.00     0.251 C 
ATOM     37  H   UNL     1       0.099 -10.154  12.007  1.00  0.00     0.163 HD
ATOM     38  O   UNL     1       1.311 -10.939  13.951  1.00  0.00    -0.269 OA
BRANCH  36  39
ATOM     39  C   UNL     1      -0.637 -10.572  15.230  1.00  0.00     0.039 A 
ATOM     40  C   UNL     1      -0.043 -10.141  16.418  1.00  0.00     0.014 A 
ATOM     41  C   UNL     1      -1.986 -10.924  15.207  1.00  0.00     0.014 A 
ATOM     42  C   UNL     1      -0.834  -9.968  17.556  1.00  0.00     0.010 A 
ATOM     43  C   UNL     1      -2.792 -10.613  16.291  1.00  0.00     0.010 A 
ATOM     44  C   UNL     1      -2.226 -10.147  17.486  1.00  0.00    -0.014 A 
BRANCH  44  45
ATOM     45  C   UNL     1      -3.119  -9.896  18.647  1.00  0.00     0.031 A 
ATOM     46  C   UNL     1      -4.003 -11.008  19.150  1.00  0.00     0.074 A 
ATOM     47  C   UNL     1      -3.204  -8.661  19.182  1.00  0.00     0.049 A 
ATOM     48  N   UNL     1      -4.956 -10.972  20.044  1.00  0.00    -0.248 NA
ATOM     49  C   UNL     1      -3.830 -12.325  18.514  1.00  0.00     0.031 C 
ATOM     50  C   UNL     1      -2.446  -7.488  18.738  1.00  0.00     0.029 A 
ATOM     51  N   UNL     1      -3.975  -8.183  20.211  1.00  0.00    -0.354 N 
ATOM     52  C   UNL     1      -5.515 -12.247  20.050  1.00  0.00     0.074 A 
ATOM     53  C   UNL     1      -4.854 -13.000  19.008  1.00  0.00     0.031 C 
ATOM     54  C   UNL     1      -2.759  -6.440  19.517  1.00  0.00     0.029 A 
ATOM     55  C   UNL     1      -3.775  -6.848  20.482  1.00  0.00     0.049 A 
ATOM     56  H   UNL     1      -4.612  -8.743  20.711  1.00  0.00     0.167 HD
ATOM     57  C   UNL     1      -6.463 -12.756  20.875  1.00  0.00     0.034 A 
ATOM     58  C   UNL     1      -4.350  -6.047  21.400  1.00  0.00     0.034 A 
ATOM     59  C   UNL     1      -7.074 -12.000  21.938  1.00  0.00     0.049 A 
ATOM     60  C   UNL     1      -5.388  -6.637  22.321  1.00  0.00     0.074 A 
ATOM     61  C   UNL     1      -7.995 -12.423  22.879  1.00  0.00     0.029 A 
ATOM     62  N   UNL     1      -6.819 -10.660  22.204  1.00  0.00    -0.354 N 
ATOM     63  N   UNL     1      -5.871  -7.859  22.348  1.00  0.00    -0.248 NA
ATOM     64  C   UNL     1      -5.949  -5.745  23.343  1.00  0.00     0.031 C 
ATOM     65  C   UNL     1      -8.338 -11.326  23.678  1.00  0.00     0.029 A 
ATOM     66  C   UNL     1      -7.579 -10.236  23.282  1.00  0.00     0.049 A 
ATOM     67  H   UNL     1      -6.190 -10.095  21.700  1.00  0.00     0.167 HD
ATOM     68  C   UNL     1      -6.769  -7.888  23.410  1.00  0.00     0.074 A 
ATOM     69  C   UNL     1      -6.748  -6.568  24.006  1.00  0.00     0.031 C 
ATOM     70  C   UNL     1      -7.542  -8.912  23.856  1.00  0.00     0.034 A 
BRANCH  57  71
ATOM     71  C   UNL     1      -6.888 -14.188  20.642  1.00  0.00     0.023 A 
ATOM     72  C   UNL     1      -5.974 -15.253  20.737  1.00  0.00     0.031 A 
ATOM     73  C   UNL     1      -8.209 -14.490  20.270  1.00  0.00     0.131 A 
ATOM     74  C   UNL     1      -6.364 -16.549  20.369  1.00  0.00     0.055 A 
ATOM     75  C   UNL     1      -8.616 -15.799  19.998  1.00  0.00     0.041 A 
ATOM     76  F   UNL     1      -9.124 -13.517  20.142  1.00  0.00    -0.206 F 
ATOM     77  C   UNL     1      -7.687 -16.835  20.027  1.00  0.00     0.022 A 
BRANCH  74  78
ATOM     78  S   UNL     1      -5.080 -17.817  20.185  1.00  0.00     0.124 S 
ATOM     79  O   UNL     1      -4.233 -17.228  19.150  1.00  0.00    -0.237 OA
ATOM     80  O   UNL     1      -4.503 -17.880  21.522  1.00  0.00    -0.237 OA
ATOM     81  O   UNL     1      -5.827 -19.003  19.769  1.00  0.00    -0.744 OA
ENDBRANCH  74  78
ENDBRANCH  57  71
BRANCH  58  82
ATOM     82  C   UNL     1      -3.959  -4.612  21.508  1.00  0.00     0.023 A 
ATOM     83  C   UNL     1      -3.322  -4.124  22.661  1.00  0.00     0.031 A 
ATOM     84  C   UNL     1      -4.249  -3.697  20.480  1.00  0.00     0.131 A 
ATOM     85  C   UNL     1      -3.038  -2.754  22.779  1.00  0.00     0.055 A 
ATOM     86  C   UNL     1      -3.917  -2.344  20.580  1.00  0.00     0.041 A 
ATOM     87  F   UNL     1      -4.849  -4.111  19.353  1.00  0.00    -0.206 F 
ATOM     88  C   UNL     1      -3.320  -1.863  21.742  1.00  0.00     0.022 A 
BRANCH  85  89
ATOM     89  S   UNL     1      -2.367  -2.139  24.349  1.00  0.00     0.124 S 
ATOM     90  O   UNL     1      -3.394  -2.558  25.295  1.00  0.00    -0.237 OA
ATOM     91  O   UNL     1      -1.093  -2.846  24.430  1.00  0.00    -0.237 OA
ATOM     92  O   UNL     1      -2.266  -0.698  24.133  1.00  0.00    -0.744 OA
ENDBRANCH  85  89
ENDBRANCH  58  82
BRANCH  70  93
ATOM     93  C   UNL     1      -8.386  -8.647  25.077  1.00  0.00     0.023 A 
ATOM     94  C   UNL     1      -9.467  -7.750  25.048  1.00  0.00     0.031 A 
ATOM     95  C   UNL     1      -8.098  -9.300  26.289  1.00  0.00     0.131 A 
ATOM     96  C   UNL     1     -10.185  -7.486  26.223  1.00  0.00     0.055 A 
ATOM     97  C   UNL     1      -8.854  -9.080  27.439  1.00  0.00     0.041 A 
ATOM     98  F   UNL     1      -7.076 -10.168  26.371  1.00  0.00    -0.206 F 
ATOM     99  C   UNL     1      -9.897  -8.158  27.414  1.00  0.00     0.022 A 
BRANCH  96 100
ATOM    100  S   UNL     1     -11.444  -6.181  26.198  1.00  0.00     0.124 S 
ATOM    101  O   UNL     1     -10.665  -5.016  25.791  1.00  0.00    -0.237 OA
ATOM    102  O   UNL     1     -12.396  -6.686  25.214  1.00  0.00    -0.237 OA
ATOM    103  O   UNL     1     -11.934  -6.150  27.575  1.00  0.00    -0.744 OA
ENDBRANCH  96 100
ENDBRANCH  70  93
ENDBRANCH  44  45
ENDBRANCH  36  39
ENDBRANCH  34  35
ENDBRANCH  33  34
ENDBRANCH  32  33
ENDBRANCH   3  32
TORSDOF 19
