REMARK SMILES C[C@@H]1CC(C)(C)C[C@@](CC(=O)Nc2cccc(C(F)(F)F)c2)(C(=O)NCCCNC(=O)c2ccc(-c3c4nc(c(-c5cc(S(=O)(=O)[O-])ccc5F)c5ccc([nH]5)c(-c5cc(S(=O)(=O)[O-])ccc5F)c5nc(c(-c6cc(S(=O)(=O)[O-])ccc6F)c6ccc3[nH]6)C=C5)C=C4)cc2)C1
REMARK SMILES IDX 26 1 25 2 23 3 24 4 8 6 1 7 2 8 3 9 95 10 4 11 5 12 6 13
REMARK SMILES IDX 7 14 9 15 10 16 11 17 12 18 13 20 14 21 22 22 15 23 17 24
REMARK SMILES IDX 16 25 18 26 19 27 20 28 21 29 27 30 28 31 29 32 30 33 31 35
REMARK SMILES IDX 32 36 33 37 94 38 34 39 93 40 35 41 36 42 37 43 87 44 38 45
REMARK SMILES IDX 92 46 86 47 88 48 39 49 91 50 85 51 84 52 40 54 72 55 52 56
REMARK SMILES IDX 71 57 53 58 56 59 70 60 89 61 54 62 55 63 69 65 90 66 57 67
REMARK SMILES IDX 41 68 42 69 50 70 43 71 49 72 51 73 48 74 44 75 45 76 46 77
REMARK SMILES IDX 47 78 73 79 74 80 82 81 75 82 81 83 83 84 80 85 76 86 77 87
REMARK SMILES IDX 78 88 79 89 58 90 59 91 67 92 60 93 66 94 68 95 65 96 61 97
REMARK SMILES IDX 62 98 63 99 64 100
REMARK H PARENT 25 5 12 19 29 34 88 53 56 64
REMARK Flexibility Score: inf
ROOT
ATOM      1  C   UNL     1       0.249  -3.593   2.725  1.00  0.00     0.117 C 
ENDROOT
BRANCH   1   2
ATOM      2  N   UNL     1       0.648  -3.619   1.315  1.00  0.00    -0.356 N 
ATOM      3  C   UNL     1       0.770  -2.642   0.357  1.00  0.00     0.226 C 
ATOM      4  O   UNL     1       1.202  -3.021  -0.735  1.00  0.00    -0.274 OA
ATOM      5  H   UNL     1       0.875  -4.520   0.988  1.00  0.00     0.163 HD
BRANCH   3   6
ATOM      6  C   UNL     1       0.385  -1.130   0.608  1.00  0.00     0.059 C 
ATOM      7  C   UNL     1       0.573   2.223   0.045  1.00  0.00     0.008 C 
ATOM      8  C   UNL     1       0.104   1.081  -0.846  1.00  0.00    -0.013 C 
ATOM      9  C   UNL     1      -1.405   0.926  -0.855  1.00  0.00     0.009 C 
ATOM     10  C   UNL     1       0.758  -0.288  -0.640  1.00  0.00     0.020 C 
ATOM     11  C   UNL     1      -2.001   0.121   0.317  1.00  0.00    -0.034 C 
ATOM     12  C   UNL     1      -2.198   0.989   1.570  1.00  0.00     0.011 C 
ATOM     13  C   UNL     1      -3.416  -0.306  -0.160  1.00  0.00     0.011 C 
ATOM     14  C   UNL     1      -1.183  -1.152   0.693  1.00  0.00     0.024 C 
BRANCH   6  15
ATOM     15  C   UNL     1       1.182  -0.789   1.896  1.00  0.00     0.117 C 
BRANCH  15  16
ATOM     16  C   UNL     1       1.881   0.492   2.264  1.00  0.00     0.225 C 
ATOM     17  O   UNL     1       1.360   1.208   3.135  1.00  0.00    -0.275 OA
ATOM     18  N   UNL     1       3.087   0.920   1.823  1.00  0.00    -0.326 N 
ATOM     19  H   UNL     1       3.423   1.655   2.386  1.00  0.00     0.169 HD
BRANCH  18  20
ATOM     20  C   UNL     1       4.001   0.623   0.797  1.00  0.00     0.041 A 
ATOM     21  C   UNL     1       4.930   1.647   0.540  1.00  0.00     0.026 A 
ATOM     22  C   UNL     1       3.987  -0.481  -0.051  1.00  0.00     0.039 A 
ATOM     23  C   UNL     1       5.722   1.643  -0.606  1.00  0.00     0.003 A 
ATOM     24  C   UNL     1       4.709  -0.451  -1.268  1.00  0.00     0.058 A 
ATOM     25  C   UNL     1       5.585   0.614  -1.526  1.00  0.00     0.013 A 
BRANCH  24  26
ATOM     26  C   UNL     1       4.500  -1.504  -2.336  1.00  0.00     0.416 C 
ATOM     27  F   UNL     1       4.775  -1.034  -3.590  1.00  0.00    -0.166 F 
ATOM     28  F   UNL     1       5.294  -2.594  -2.167  1.00  0.00    -0.166 F 
ATOM     29  F   UNL     1       3.222  -1.955  -2.400  1.00  0.00    -0.166 F 
ENDBRANCH  24  26
ENDBRANCH  18  20
ENDBRANCH  15  16
ENDBRANCH   6  15
ENDBRANCH   3   6
ENDBRANCH   1   2
BRANCH   1  30
ATOM     30  C   UNL     1       0.311  -4.954   3.421  1.00  0.00     0.042 C 
BRANCH  30  31
ATOM     31  C   UNL     1       1.724  -5.496   3.664  1.00  0.00     0.118 C 
BRANCH  31  32
ATOM     32  N   UNL     1       2.473  -4.765   4.680  1.00  0.00    -0.352 N 
ATOM     33  C   UNL     1       2.999  -5.162   5.894  1.00  0.00     0.251 C 
ATOM     34  H   UNL     1       2.634  -3.819   4.460  1.00  0.00     0.163 HD
ATOM     35  O   UNL     1       3.512  -4.316   6.615  1.00  0.00    -0.269 OA
BRANCH  33  36
ATOM     36  C   UNL     1       2.919  -6.572   6.357  1.00  0.00     0.039 A 
ATOM     37  C   UNL     1       2.631  -6.821   7.705  1.00  0.00     0.014 A 
ATOM     38  C   UNL     1       3.155  -7.648   5.501  1.00  0.00     0.014 A 
ATOM     39  C   UNL     1       2.479  -8.136   8.163  1.00  0.00     0.010 A 
ATOM     40  C   UNL     1       2.927  -8.954   5.939  1.00  0.00     0.010 A 
ATOM     41  C   UNL     1       2.571  -9.216   7.271  1.00  0.00    -0.014 A 
BRANCH  41  42
ATOM     42  C   UNL     1       2.280 -10.615   7.698  1.00  0.00     0.031 A 
ATOM     43  C   UNL     1       3.339 -11.681   7.596  1.00  0.00     0.074 A 
ATOM     44  C   UNL     1       1.033 -10.951   8.088  1.00  0.00     0.049 A 
ATOM     45  N   UNL     1       3.240 -12.973   7.786  1.00  0.00    -0.248 NA
ATOM     46  C   UNL     1       4.678 -11.235   7.190  1.00  0.00     0.031 C 
ATOM     47  C   UNL     1      -0.097 -10.027   8.198  1.00  0.00     0.029 A 
ATOM     48  N   UNL     1       0.501 -12.165   8.451  1.00  0.00    -0.354 N 
ATOM     49  C   UNL     1       4.495 -13.499   7.494  1.00  0.00     0.074 A 
ATOM     50  C   UNL     1       5.318 -12.387   7.062  1.00  0.00     0.031 C 
ATOM     51  C   UNL     1      -1.179 -10.700   8.621  1.00  0.00     0.029 A 
ATOM     52  C   UNL     1      -0.838 -12.112   8.764  1.00  0.00     0.049 A 
ATOM     53  H   UNL     1       1.028 -12.996   8.483  1.00  0.00     0.167 HD
ATOM     54  C   UNL     1       4.927 -14.783   7.594  1.00  0.00     0.034 A 
ATOM     55  C   UNL     1      -1.702 -13.088   9.110  1.00  0.00     0.034 A 
ATOM     56  C   UNL     1       4.102 -15.877   8.049  1.00  0.00     0.049 A 
ATOM     57  C   UNL     1      -1.208 -14.509   9.198  1.00  0.00     0.074 A 
ATOM     58  C   UNL     1       4.458 -17.200   8.254  1.00  0.00     0.029 A 
ATOM     59  N   UNL     1       2.751 -15.782   8.361  1.00  0.00    -0.354 N 
ATOM     60  N   UNL     1      -0.007 -14.983   8.959  1.00  0.00    -0.248 NA
ATOM     61  C   UNL     1      -2.186 -15.524   9.608  1.00  0.00     0.031 C 
ATOM     62  C   UNL     1       3.313 -17.914   8.625  1.00  0.00     0.029 A 
ATOM     63  C   UNL     1       2.255 -17.025   8.726  1.00  0.00     0.049 A 
ATOM     64  H   UNL     1       2.223 -14.952   8.329  1.00  0.00     0.167 HD
ATOM     65  C   UNL     1      -0.080 -16.348   9.223  1.00  0.00     0.074 A 
ATOM     66  C   UNL     1      -1.439 -16.618   9.646  1.00  0.00     0.031 C 
ATOM     67  C   UNL     1       0.894 -17.290   9.133  1.00  0.00     0.034 A 
BRANCH  54  68
ATOM     68  C   UNL     1       6.351 -15.069   7.171  1.00  0.00     0.023 A 
ATOM     69  C   UNL     1       7.449 -14.470   7.814  1.00  0.00     0.031 A 
ATOM     70  C   UNL     1       6.615 -15.915   6.079  1.00  0.00     0.131 A 
ATOM     71  C   UNL     1       8.743 -14.642   7.301  1.00  0.00     0.055 A 
ATOM     72  C   UNL     1       7.916 -16.157   5.631  1.00  0.00     0.041 A 
ATOM     73  F   UNL     1       5.610 -16.506   5.413  1.00  0.00    -0.206 F 
ATOM     74  C   UNL     1       8.988 -15.502   6.229  1.00  0.00     0.022 A 
BRANCH  71  75
ATOM     75  S   UNL     1      10.072 -13.587   7.942  1.00  0.00     0.124 S 
ATOM     76  O   UNL     1       9.539 -12.252   7.684  1.00  0.00    -0.237 OA
ATOM     77  O   UNL     1      10.144 -13.988   9.342  1.00  0.00    -0.237 OA
ATOM     78  O   UNL     1      11.227 -13.956   7.126  1.00  0.00    -0.744 OA
ENDBRANCH  71  75
ENDBRANCH  54  68
BRANCH  55  79
ATOM     79  C   UNL     1      -3.128 -12.762   9.398  1.00  0.00     0.023 A 
ATOM     80  C   UNL     1      -3.650 -12.907  10.693  1.00  0.00     0.031 A 
ATOM     81  C   UNL     1      -3.995 -12.328   8.380  1.00  0.00     0.131 A 
ATOM     82  C   UNL     1      -5.010 -12.655  10.931  1.00  0.00     0.055 A 
ATOM     83  C   UNL     1      -5.336 -12.034   8.632  1.00  0.00     0.041 A 
ATOM     84  F   UNL     1      -3.543 -12.167   7.126  1.00  0.00    -0.206 F 
ATOM     85  C   UNL     1      -5.853 -12.207   9.912  1.00  0.00     0.022 A 
BRANCH  82  86
ATOM     86  S   UNL     1      -5.676 -12.980  12.586  1.00  0.00     0.124 S 
ATOM     87  O   UNL     1      -5.417 -14.407  12.736  1.00  0.00    -0.237 OA
ATOM     88  O   UNL     1      -4.872 -12.090  13.417  1.00  0.00    -0.237 OA
ATOM     89  O   UNL     1      -7.085 -12.610  12.464  1.00  0.00    -0.744 OA
ENDBRANCH  82  86
ENDBRANCH  55  79
BRANCH  67  90
ATOM     90  C   UNL     1       0.530 -18.695   9.549  1.00  0.00     0.023 A 
ATOM     91  C   UNL     1      -0.379 -19.476   8.814  1.00  0.00     0.031 A 
ATOM     92  C   UNL     1       1.095 -19.254  10.709  1.00  0.00     0.131 A 
ATOM     93  C   UNL     1      -0.735 -20.753   9.275  1.00  0.00     0.055 A 
ATOM     94  C   UNL     1       0.781 -20.546  11.131  1.00  0.00     0.041 A 
ATOM     95  F   UNL     1       1.966 -18.552  11.451  1.00  0.00    -0.206 F 
ATOM     96  C   UNL     1      -0.148 -21.299  10.419  1.00  0.00     0.022 A 
BRANCH  93  97
ATOM     97  S   UNL     1      -2.042 -21.663   8.405  1.00  0.00     0.124 S 
ATOM     98  O   UNL     1      -3.173 -20.747   8.514  1.00  0.00    -0.237 OA
ATOM     99  O   UNL     1      -1.477 -21.821   7.069  1.00  0.00    -0.237 OA
ATOM    100  O   UNL     1      -2.170 -22.900   9.174  1.00  0.00    -0.744 OA
ENDBRANCH  93  97
ENDBRANCH  67  90
ENDBRANCH  41  42
ENDBRANCH  33  36
ENDBRANCH  31  32
ENDBRANCH  30  31
ENDBRANCH   1  30
TORSDOF 17
