REMARK SMILES O=C(NCCCNC(=O)c1cn(C[C@@H]2CCS(=O)(=O)C2)c(=O)[nH]c1=O)c1ccc(-c2c3nc(c(-c4cc(S(=O)(=O)[O-])ccc4F)c4ccc([nH]4)c(-c4cc(S(=O)(=O)[O-])ccc4F)c4nc(c(-c5cc(S(=O)(=O)[O-])ccc5F)c5ccc2[nH]5)C=C4)C=C3)cc1
REMARK SMILES IDX 4 1 3 2 1 3 2 4 26 6 27 7 88 8 28 9 87 10 29 11 30 12 31 13
REMARK SMILES IDX 81 14 32 15 86 16 80 17 82 18 33 19 85 20 79 21 78 22 34 24
REMARK SMILES IDX 66 25 46 26 65 27 47 28 50 29 64 30 83 31 48 32 49 33 63 35
REMARK SMILES IDX 84 36 51 37 35 38 36 39 44 40 37 41 43 42 45 43 42 44 38 45
REMARK SMILES IDX 39 46 40 47 41 48 67 49 68 50 76 51 69 52 75 53 77 54 74 55
REMARK SMILES IDX 70 56 71 57 72 58 73 59 52 60 53 61 61 62 54 63 60 64 62 65
REMARK SMILES IDX 59 66 55 67 56 68 57 69 58 70 5 71 6 72 7 73 8 74 9 76 10 77
REMARK SMILES IDX 11 78 24 79 12 80 23 81 25 82 21 83 22 85 13 86 14 87 15 88
REMARK SMILES IDX 20 89 16 90 17 91 18 92 19 93
REMARK H PARENT 3 5 82 23 50 34 7 75 23 84
REMARK Flexibility Score: inf
ROOT
ATOM      1  C   UNL     1       4.476   0.798  -1.123  1.00  0.00     0.118 C 
ENDROOT
BRANCH   1   2
ATOM      2  N   UNL     1       3.039   0.764  -0.869  1.00  0.00    -0.352 N 
ATOM      3  O   UNL     1       1.081   0.014  -0.077  1.00  0.00    -0.269 OA
ATOM      4  C   UNL     1       2.304   0.048   0.041  1.00  0.00     0.251 C 
ATOM      5  H   UNL     1       2.508   1.357  -1.448  1.00  0.00     0.163 HD
BRANCH   4   6
ATOM      6  C   UNL     1       2.967  -0.676   1.147  1.00  0.00     0.039 A 
ATOM      7  C   UNL     1       2.416  -1.876   1.603  1.00  0.00     0.014 A 
ATOM      8  C   UNL     1       4.105  -0.157   1.765  1.00  0.00     0.014 A 
ATOM      9  C   UNL     1       3.029  -2.562   2.654  1.00  0.00     0.010 A 
ATOM     10  C   UNL     1       4.789  -0.907   2.711  1.00  0.00     0.010 A 
ATOM     11  C   UNL     1       4.235  -2.093   3.203  1.00  0.00    -0.014 A 
BRANCH  11  12
ATOM     12  C   UNL     1       4.895  -2.791   4.336  1.00  0.00     0.031 A 
ATOM     13  C   UNL     1       5.119  -2.068   5.639  1.00  0.00     0.074 A 
ATOM     14  C   UNL     1       5.325  -4.057   4.183  1.00  0.00     0.049 A 
ATOM     15  N   UNL     1       5.692  -2.499   6.732  1.00  0.00    -0.248 NA
ATOM     16  C   UNL     1       4.674  -0.666   5.714  1.00  0.00     0.031 C 
ATOM     17  C   UNL     1       5.227  -4.832   2.946  1.00  0.00     0.029 A 
ATOM     18  N   UNL     1       5.926  -4.915   5.069  1.00  0.00    -0.354 N 
ATOM     19  C   UNL     1       5.675  -1.425   7.615  1.00  0.00     0.074 A 
ATOM     20  C   UNL     1       5.136  -0.295   6.898  1.00  0.00     0.031 C 
ATOM     21  C   UNL     1       5.708  -6.064   3.163  1.00  0.00     0.029 A 
ATOM     22  C   UNL     1       6.192  -6.156   4.539  1.00  0.00     0.049 A 
ATOM     23  H   UNL     1       6.145  -4.667   5.996  1.00  0.00     0.167 HD
ATOM     24  C   UNL     1       6.025  -1.395   8.923  1.00  0.00     0.034 A 
ATOM     25  C   UNL     1       6.758  -7.246   5.097  1.00  0.00     0.034 A 
ATOM     26  C   UNL     1       6.543  -2.537   9.631  1.00  0.00     0.049 A 
ATOM     27  C   UNL     1       7.138  -7.200   6.555  1.00  0.00     0.074 A 
ATOM     28  C   UNL     1       6.895  -2.627  10.965  1.00  0.00     0.029 A 
ATOM     29  N   UNL     1       6.776  -3.785   9.071  1.00  0.00    -0.354 N 
ATOM     30  N   UNL     1       7.033  -6.203   7.403  1.00  0.00    -0.248 NA
ATOM     31  C   UNL     1       7.691  -8.427   7.141  1.00  0.00     0.031 C 
ATOM     32  C   UNL     1       7.401  -3.907  11.195  1.00  0.00     0.029 A 
ATOM     33  C   UNL     1       7.289  -4.646  10.027  1.00  0.00     0.049 A 
ATOM     34  H   UNL     1       6.603  -4.024   8.131  1.00  0.00     0.167 HD
ATOM     35  C   UNL     1       7.494  -6.685   8.625  1.00  0.00     0.074 A 
ATOM     36  C   UNL     1       7.837  -8.077   8.413  1.00  0.00     0.031 C 
ATOM     37  C   UNL     1       7.632  -6.033   9.809  1.00  0.00     0.034 A 
BRANCH  24  38
ATOM     38  C   UNL     1       5.818  -0.109   9.689  1.00  0.00     0.023 A 
ATOM     39  C   UNL     1       6.905   0.534  10.308  1.00  0.00     0.031 A 
ATOM     40  C   UNL     1       4.530   0.426   9.892  1.00  0.00     0.131 A 
ATOM     41  C   UNL     1       6.681   1.652  11.123  1.00  0.00     0.055 A 
ATOM     42  C   UNL     1       4.320   1.573  10.656  1.00  0.00     0.041 A 
ATOM     43  F   UNL     1       3.455  -0.150   9.328  1.00  0.00    -0.206 F 
ATOM     44  C   UNL     1       5.397   2.183  11.288  1.00  0.00     0.022 A 
BRANCH  41  45
ATOM     45  S   UNL     1       8.031   2.417  12.059  1.00  0.00     0.124 S 
ATOM     46  O   UNL     1       8.009   3.787  11.552  1.00  0.00    -0.237 OA
ATOM     47  O   UNL     1       7.575   2.255  13.437  1.00  0.00    -0.237 OA
ATOM     48  O   UNL     1       9.205   1.635  11.686  1.00  0.00    -0.744 OA
ENDBRANCH  41  45
ENDBRANCH  24  38
BRANCH  25  49
ATOM     49  C   UNL     1       6.908  -8.479   4.267  1.00  0.00     0.023 A 
ATOM     50  C   UNL     1       7.695  -8.466   3.100  1.00  0.00     0.031 A 
ATOM     51  C   UNL     1       6.155  -9.632   4.543  1.00  0.00     0.131 A 
ATOM     52  C   UNL     1       7.637  -9.545   2.209  1.00  0.00     0.055 A 
ATOM     53  C   UNL     1       6.167 -10.740   3.693  1.00  0.00     0.041 A 
ATOM     54  F   UNL     1       5.375  -9.686   5.634  1.00  0.00    -0.206 F 
ATOM     55  C   UNL     1       6.893 -10.691   2.508  1.00  0.00     0.022 A 
BRANCH  52  56
ATOM     56  S   UNL     1       8.390  -9.428   0.562  1.00  0.00     0.124 S 
ATOM     57  O   UNL     1       9.297 -10.572   0.557  1.00  0.00    -0.237 OA
ATOM     58  O   UNL     1       7.221  -9.545  -0.307  1.00  0.00    -0.237 OA
ATOM     59  O   UNL     1       9.029  -8.116   0.567  1.00  0.00    -0.744 OA
ENDBRANCH  52  56
ENDBRANCH  25  49
BRANCH  37  60
ATOM     60  C   UNL     1       8.196  -6.795  10.988  1.00  0.00     0.023 A 
ATOM     61  C   UNL     1       7.439  -6.934  12.168  1.00  0.00     0.031 A 
ATOM     62  C   UNL     1       9.524  -7.255  10.997  1.00  0.00     0.131 A 
ATOM     63  C   UNL     1       8.027  -7.483  13.315  1.00  0.00     0.055 A 
ATOM     64  C   UNL     1      10.086  -7.856  12.124  1.00  0.00     0.041 A 
ATOM     65  F   UNL     1      10.297  -7.129   9.906  1.00  0.00    -0.206 F 
ATOM     66  C   UNL     1       9.342  -7.958  13.294  1.00  0.00     0.022 A 
BRANCH  63  67
ATOM     67  S   UNL     1       7.145  -7.508  14.901  1.00  0.00     0.124 S 
ATOM     68  O   UNL     1       7.048  -8.941  15.168  1.00  0.00    -0.237 OA
ATOM     69  O   UNL     1       8.059  -6.773  15.771  1.00  0.00    -0.237 OA
ATOM     70  O   UNL     1       5.881  -6.841  14.612  1.00  0.00    -0.744 OA
ENDBRANCH  63  67
ENDBRANCH  37  60
ENDBRANCH  11  12
ENDBRANCH   4   6
ENDBRANCH   1   2
BRANCH   1  71
ATOM     71  C   UNL     1       4.836   0.246  -2.491  1.00  0.00     0.042 C 
BRANCH  71  72
ATOM     72  C   UNL     1       4.151   0.977  -3.630  1.00  0.00     0.118 C 
BRANCH  72  73
ATOM     73  N   UNL     1       4.605   2.355  -3.799  1.00  0.00    -0.352 N 
ATOM     74  C   UNL     1       5.484   2.896  -4.707  1.00  0.00     0.258 C 
ATOM     75  H   UNL     1       4.219   2.998  -3.162  1.00  0.00     0.163 HD
ATOM     76  O   UNL     1       5.723   4.098  -4.687  1.00  0.00    -0.269 OA
BRANCH  74  77
ATOM     77  C   UNL     1       6.114   1.977  -5.672  1.00  0.00     0.121 A 
ATOM     78  C   UNL     1       5.328   1.258  -6.484  1.00  0.00     0.110 A 
ATOM     79  C   UNL     1       7.565   1.730  -5.699  1.00  0.00     0.266 A 
ATOM     80  N   UNL     1       5.791   0.140  -7.155  1.00  0.00    -0.299 N 
ATOM     81  N   UNL     1       7.950   0.616  -6.396  1.00  0.00    -0.273 N 
ATOM     82  O   UNL     1       8.381   2.423  -5.104  1.00  0.00    -0.268 OA
ATOM     83  C   UNL     1       7.123  -0.255  -7.049  1.00  0.00     0.328 A 
ATOM     84  H   UNL     1       8.915   0.425  -6.431  1.00  0.00     0.175 HD
ATOM     85  O   UNL     1       7.562  -1.302  -7.516  1.00  0.00    -0.248 OA
BRANCH  80  86
ATOM     86  C   UNL     1       4.824  -0.760  -7.779  1.00  0.00     0.131 C 
BRANCH  86  87
ATOM     87  C   UNL     1       4.657  -0.656  -9.306  1.00  0.00     0.025 C 
ATOM     88  C   UNL     1       5.889  -1.046 -10.136  1.00  0.00     0.022 C 
ATOM     89  C   UNL     1       4.214   0.719  -9.805  1.00  0.00     0.142 C 
ATOM     90  C   UNL     1       6.780   0.178 -10.321  1.00  0.00     0.137 C 
ATOM     91  S   UNL     1       5.687   1.584 -10.317  1.00  0.00     0.150 S 
ATOM     92  O   UNL     1       6.086   2.491  -9.258  1.00  0.00    -0.229 OA
ATOM     93  O   UNL     1       5.501   2.034 -11.679  1.00  0.00    -0.229 OA
ENDBRANCH  86  87
ENDBRANCH  80  86
ENDBRANCH  74  77
ENDBRANCH  72  73
ENDBRANCH  71  72
ENDBRANCH   1  71
TORSDOF 15
