REMARK SMILES CC(C)[C@H](NS(=O)(=O)c1cccc(F)c1)C(=O)NCCCNC(=O)c1ccc(-c2c3nc(c(-c4cc(S(=O)(=O)[O-])ccc4F)c4ccc([nH]4)c(-c4cc(S(=O)(=O)[O-])ccc4F)c4nc(c(-c5cc(S(=O)(=O)[O-])ccc5F)c5ccc2[nH]5)C=C4)C=C3)cc1
REMARK SMILES IDX 20 1 19 2 18 3 16 4 17 5 4 7 2 8 1 9 3 10 5 11 6 13 7 14
REMARK SMILES IDX 8 15 9 16 10 17 15 18 11 19 13 20 12 21 14 22 21 23 22 24
REMARK SMILES IDX 23 25 24 27 25 28 26 29 87 30 27 31 86 32 28 33 29 34 30 35
REMARK SMILES IDX 80 36 31 37 85 38 79 39 81 40 32 41 84 42 78 43 77 44 33 46
REMARK SMILES IDX 65 47 45 48 64 49 46 50 49 51 63 52 82 53 47 54 48 55 62 57
REMARK SMILES IDX 83 58 50 59 34 60 35 61 43 62 36 63 42 64 44 65 41 66 37 67
REMARK SMILES IDX 38 68 39 69 40 70 66 71 67 72 75 73 68 74 74 75 76 76 73 77
REMARK SMILES IDX 69 78 70 79 71 80 72 81 51 82 52 83 60 84 53 85 59 86 61 87
REMARK SMILES IDX 58 88 54 89 55 90 56 91 57 92
REMARK H PARENT 18 6 5 12 22 26 81 45 49 56
REMARK Flexibility Score: inf
ROOT
ATOM      1  C   UNL     1       1.075   4.117  -2.677  1.00  0.00     0.042 C 
ENDROOT
BRANCH   1   2
ATOM      2  C   UNL     1      -0.122   3.580  -1.920  1.00  0.00     0.117 C 
BRANCH   2   3
ATOM      3  N   UNL     1      -0.940   2.686  -2.708  1.00  0.00    -0.355 N 
ATOM      4  C   UNL     1      -1.437   1.460  -2.387  1.00  0.00     0.238 C 
ATOM      5  O   UNL     1      -2.195   0.926  -3.202  1.00  0.00    -0.273 OA
ATOM      6  H   UNL     1      -1.170   3.010  -3.608  1.00  0.00     0.163 HD
BRANCH   4   7
ATOM      7  C   UNL     1      -1.049   0.733  -1.087  1.00  0.00     0.161 C 
BRANCH   7   8
ATOM      8  C   UNL     1      -1.516   1.329   0.270  1.00  0.00     0.010 C 
ATOM      9  C   UNL     1      -0.444   1.902   1.205  1.00  0.00     0.009 C 
ATOM     10  C   UNL     1      -2.691   2.304   0.136  1.00  0.00     0.009 C 
ENDBRANCH   7   8
BRANCH   7  11
ATOM     11  N   UNL     1       0.383   0.406  -1.123  1.00  0.00    -0.198 NA
ATOM     12  H   UNL     1       0.795   0.825  -0.289  1.00  0.00     0.142 HD
BRANCH  11  13
ATOM     13  S   UNL     1       0.916  -1.173  -1.169  1.00  0.00     0.241 S 
ATOM     14  O   UNL     1       2.357  -1.101  -1.207  1.00  0.00    -0.207 OA
ATOM     15  O   UNL     1       0.220  -1.906  -0.132  1.00  0.00    -0.207 OA
BRANCH  13  16
ATOM     16  C   UNL     1       0.357  -1.785  -2.739  1.00  0.00     0.085 A 
ATOM     17  C   UNL     1       1.248  -1.866  -3.818  1.00  0.00     0.022 A 
ATOM     18  C   UNL     1      -0.947  -2.271  -2.862  1.00  0.00     0.061 A 
ATOM     19  C   UNL     1       0.812  -2.394  -5.037  1.00  0.00     0.004 A 
ATOM     20  C   UNL     1      -1.369  -2.772  -4.086  1.00  0.00     0.124 A 
ATOM     21  C   UNL     1      -0.504  -2.837  -5.173  1.00  0.00     0.039 A 
ATOM     22  F   UNL     1      -2.627  -3.213  -4.215  1.00  0.00    -0.207 F 
ENDBRANCH  13  16
ENDBRANCH  11  13
ENDBRANCH   7  11
ENDBRANCH   4   7
ENDBRANCH   2   3
ENDBRANCH   1   2
BRANCH   1  23
ATOM     23  C   UNL     1       0.705   5.042  -3.824  1.00  0.00     0.118 C 
BRANCH  23  24
ATOM     24  N   UNL     1       0.019   6.249  -3.379  1.00  0.00    -0.352 N 
ATOM     25  C   UNL     1       0.417   7.564  -3.440  1.00  0.00     0.251 C 
ATOM     26  H   UNL     1      -0.865   6.099  -2.973  1.00  0.00     0.163 HD
ATOM     27  O   UNL     1      -0.224   8.418  -2.834  1.00  0.00    -0.269 OA
BRANCH  25  28
ATOM     28  C   UNL     1       1.626   7.933  -4.206  1.00  0.00     0.039 A 
ATOM     29  C   UNL     1       2.522   8.859  -3.667  1.00  0.00     0.014 A 
ATOM     30  C   UNL     1       1.890   7.343  -5.444  1.00  0.00     0.014 A 
ATOM     31  C   UNL     1       3.723   9.121  -4.330  1.00  0.00     0.010 A 
ATOM     32  C   UNL     1       3.132   7.514  -6.039  1.00  0.00     0.010 A 
ATOM     33  C   UNL     1       4.061   8.411  -5.494  1.00  0.00    -0.014 A 
BRANCH  33  34
ATOM     34  C   UNL     1       5.372   8.594  -6.166  1.00  0.00     0.031 A 
ATOM     35  C   UNL     1       5.424   9.070  -7.593  1.00  0.00     0.074 A 
ATOM     36  C   UNL     1       6.508   8.269  -5.517  1.00  0.00     0.049 A 
ATOM     37  N   UNL     1       6.459   9.204  -8.381  1.00  0.00    -0.248 NA
ATOM     38  C   UNL     1       4.140   9.407  -8.229  1.00  0.00     0.031 C 
ATOM     39  C   UNL     1       6.583   7.759  -4.146  1.00  0.00     0.029 A 
ATOM     40  N   UNL     1       7.819   8.320  -5.921  1.00  0.00    -0.354 N 
ATOM     41  C   UNL     1       5.950   9.625  -9.604  1.00  0.00     0.074 A 
ATOM     42  C   UNL     1       4.511   9.659  -9.475  1.00  0.00     0.031 C 
ATOM     43  C   UNL     1       7.870   7.588  -3.809  1.00  0.00     0.029 A 
ATOM     44  C   UNL     1       8.711   7.920  -4.954  1.00  0.00     0.049 A 
ATOM     45  H   UNL     1       8.094   8.614  -6.819  1.00  0.00     0.167 HD
ATOM     46  C   UNL     1       6.625   9.977 -10.724  1.00  0.00     0.034 A 
ATOM     47  C   UNL     1      10.055   7.823  -4.985  1.00  0.00     0.034 A 
ATOM     48  C   UNL     1       8.061   9.966 -10.829  1.00  0.00     0.049 A 
ATOM     49  C   UNL     1      10.784   8.194  -6.247  1.00  0.00     0.074 A 
ATOM     50  C   UNL     1       8.846  10.364 -11.896  1.00  0.00     0.029 A 
ATOM     51  N   UNL     1       8.928   9.534  -9.834  1.00  0.00    -0.354 N 
ATOM     52  N   UNL     1      10.289   8.611  -7.389  1.00  0.00    -0.248 NA
ATOM     53  C   UNL     1      12.248   8.081  -6.229  1.00  0.00     0.031 C 
ATOM     54  C   UNL     1      10.181  10.104 -11.575  1.00  0.00     0.029 A 
ATOM     55  C   UNL     1      10.238   9.620 -10.277  1.00  0.00     0.049 A 
ATOM     56  H   UNL     1       8.653   9.213  -8.945  1.00  0.00     0.167 HD
ATOM     57  C   UNL     1      11.383   8.830  -8.220  1.00  0.00     0.074 A 
ATOM     58  C   UNL     1      12.564   8.502  -7.447  1.00  0.00     0.031 C 
ATOM     59  C   UNL     1      11.405   9.271  -9.503  1.00  0.00     0.034 A 
BRANCH  46  60
ATOM     60  C   UNL     1       5.816  10.390 -11.928  1.00  0.00     0.023 A 
ATOM     61  C   UNL     1       5.026  11.553 -11.923  1.00  0.00     0.031 A 
ATOM     62  C   UNL     1       5.845   9.616 -13.101  1.00  0.00     0.131 A 
ATOM     63  C   UNL     1       4.256  11.879 -13.049  1.00  0.00     0.055 A 
ATOM     64  C   UNL     1       5.132   9.985 -14.243  1.00  0.00     0.041 A 
ATOM     65  F   UNL     1       6.565   8.484 -13.155  1.00  0.00    -0.206 F 
ATOM     66  C   UNL     1       4.324  11.118 -14.218  1.00  0.00     0.022 A 
BRANCH  63  67
ATOM     67  S   UNL     1       3.087  13.260 -12.929  1.00  0.00     0.124 S 
ATOM     68  O   UNL     1       2.175  12.784 -11.891  1.00  0.00    -0.237 OA
ATOM     69  O   UNL     1       3.950  14.375 -12.559  1.00  0.00    -0.237 OA
ATOM     70  O   UNL     1       2.509  13.336 -14.270  1.00  0.00    -0.744 OA
ENDBRANCH  63  67
ENDBRANCH  46  60
BRANCH  47  71
ATOM     71  C   UNL     1      10.786   7.351  -3.777  1.00  0.00     0.023 A 
ATOM     72  C   UNL     1      11.566   8.234  -3.015  1.00  0.00     0.031 A 
ATOM     73  C   UNL     1      10.677   6.018  -3.342  1.00  0.00     0.131 A 
ATOM     74  C   UNL     1      12.216   7.771  -1.859  1.00  0.00     0.055 A 
ATOM     75  C   UNL     1      11.295   5.571  -2.174  1.00  0.00     0.041 A 
ATOM     76  F   UNL     1       9.929   5.140  -4.031  1.00  0.00    -0.206 F 
ATOM     77  C   UNL     1      12.073   6.450  -1.426  1.00  0.00     0.022 A 
BRANCH  74  78
ATOM     78  S   UNL     1      13.258   8.922  -0.922  1.00  0.00     0.124 S 
ATOM     79  O   UNL     1      14.330   9.192  -1.873  1.00  0.00    -0.237 OA
ATOM     80  O   UNL     1      12.338  10.024  -0.660  1.00  0.00    -0.237 OA
ATOM     81  O   UNL     1      13.646   8.148   0.255  1.00  0.00    -0.744 OA
ENDBRANCH  74  78
ENDBRANCH  47  71
BRANCH  59  82
ATOM     82  C   UNL     1      12.750   9.454 -10.155  1.00  0.00     0.023 A 
ATOM     83  C   UNL     1      13.543   8.355 -10.525  1.00  0.00     0.031 A 
ATOM     84  C   UNL     1      13.211  10.745 -10.470  1.00  0.00     0.131 A 
ATOM     85  C   UNL     1      14.771   8.569 -11.169  1.00  0.00     0.055 A 
ATOM     86  C   UNL     1      14.409  10.949 -11.155  1.00  0.00     0.041 A 
ATOM     87  F   UNL     1      12.488  11.827 -10.141  1.00  0.00    -0.206 F 
ATOM     88  C   UNL     1      15.198   9.858 -11.504  1.00  0.00     0.022 A 
BRANCH  85  89
ATOM     89  S   UNL     1      15.824   7.140 -11.537  1.00  0.00     0.124 S 
ATOM     90  O   UNL     1      16.140   6.646 -10.201  1.00  0.00    -0.237 OA
ATOM     91  O   UNL     1      14.942   6.296 -12.337  1.00  0.00    -0.237 OA
ATOM     92  O   UNL     1      16.950   7.722 -12.266  1.00  0.00    -0.744 OA
ENDBRANCH  85  89
ENDBRANCH  59  82
ENDBRANCH  33  34
ENDBRANCH  25  28
ENDBRANCH  23  24
ENDBRANCH   1  23
TORSDOF 17
