REMARK SMILES CCC[C@@]1(C(=O)NCCCNC(=O)c2ccc(-c3c4nc(c(-c5cc(S(=O)(=O)[O-])ccc5F)c5ccc([nH]5)c(-c5cc(S(=O)(=O)[O-])ccc5F)c5nc(c(-c6cc(S(=O)(=O)[O-])ccc6F)c6ccc3[nH]6)C=C5)C=C4)cc2)CCCN(C(=O)C[C@H]2CCCCO2)C1
REMARK SMILES IDX 9 1 8 2 7 3 5 4 6 5 4 7 77 8 90 9 78 10 80 11 79 12 3 13
REMARK SMILES IDX 2 14 1 15 81 16 82 17 83 18 84 19 85 20 89 21 86 22 88 23
REMARK SMILES IDX 87 24 10 25 11 26 12 27 13 29 14 30 15 31 76 32 16 33 75 34
REMARK SMILES IDX 17 35 18 36 19 37 69 38 20 39 74 40 68 41 70 42 21 43 73 44
REMARK SMILES IDX 67 45 66 46 22 48 54 49 34 50 53 51 35 52 38 53 52 54 71 55
REMARK SMILES IDX 36 56 37 57 51 59 72 60 39 61 23 62 24 63 32 64 25 65 31 66
REMARK SMILES IDX 33 67 30 68 26 69 27 70 28 71 29 72 55 73 56 74 64 75 57 76
REMARK SMILES IDX 63 77 65 78 62 79 58 80 59 81 60 82 61 83 40 84 41 85 49 86
REMARK SMILES IDX 42 87 48 88 50 89 47 90 43 91 44 92 45 93 46 94
REMARK H PARENT 7 6 11 28 70 47 38 58
REMARK Flexibility Score: inf
ROOT
ATOM      1  C   UNL     1       4.526 -11.024  -4.068  1.00  0.00     0.042 C 
ENDROOT
BRANCH   1   2
ATOM      2  C   UNL     1       4.263  -9.607  -4.547  1.00  0.00     0.117 C 
BRANCH   2   3
ATOM      3  N   UNL     1       4.021  -8.655  -3.471  1.00  0.00    -0.355 N 
ATOM      4  C   UNL     1       4.418  -7.361  -3.288  1.00  0.00     0.228 C 
ATOM      5  O   UNL     1       3.984  -6.800  -2.275  1.00  0.00    -0.274 OA
ATOM      6  H   UNL     1       3.468  -9.011  -2.739  1.00  0.00     0.163 HD
BRANCH   4   7
ATOM      7  C   UNL     1       5.450  -6.662  -4.209  1.00  0.00     0.067 C 
ATOM      8  C   UNL     1       5.609  -5.156  -3.807  1.00  0.00     0.020 C 
ATOM      9  C   UNL     1       4.989  -6.682  -5.693  1.00  0.00     0.136 C 
ATOM     10  C   UNL     1       4.474  -4.218  -4.237  1.00  0.00     0.023 C 
ATOM     11  N   UNL     1       3.819  -5.817  -5.908  1.00  0.00    -0.342 N 
ATOM     12  C   UNL     1       4.106  -4.413  -5.699  1.00  0.00     0.119 C 
BRANCH   7  13
ATOM     13  C   UNL     1       6.790  -7.443  -3.963  1.00  0.00     0.018 C 
BRANCH  13  14
ATOM     14  C   UNL     1       8.139  -6.711  -4.027  1.00  0.00    -0.002 C 
ATOM     15  C   UNL     1       8.502  -5.910  -2.779  1.00  0.00     0.004 C 
ENDBRANCH  13  14
ENDBRANCH   7  13
BRANCH  11  16
ATOM     16  C   UNL     1       2.552  -6.369  -6.031  1.00  0.00     0.225 C 
ATOM     17  O   UNL     1       2.391  -7.592  -6.098  1.00  0.00    -0.275 OA
BRANCH  16  18
ATOM     18  C   UNL     1       1.316  -5.479  -6.132  1.00  0.00     0.132 C 
BRANCH  18  19
ATOM     19  C   UNL     1       0.799  -4.799  -4.852  1.00  0.00     0.127 C 
ATOM     20  C   UNL     1       1.057  -5.568  -3.553  1.00  0.00     0.033 C 
ATOM     21  O   UNL     1       1.334  -3.469  -4.803  1.00  0.00    -0.378 OA
ATOM     22  C   UNL     1       0.766  -4.750  -2.293  1.00  0.00     0.005 C 
ATOM     23  C   UNL     1       0.824  -2.699  -3.721  1.00  0.00     0.160 C 
ATOM     24  C   UNL     1       1.246  -3.307  -2.397  1.00  0.00     0.029 C 
ENDBRANCH  18  19
ENDBRANCH  16  18
ENDBRANCH  11  16
ENDBRANCH   4   7
ENDBRANCH   2   3
ENDBRANCH   1   2
BRANCH   1  25
ATOM     25  C   UNL     1       3.356 -11.675  -3.350  1.00  0.00     0.118 C 
BRANCH  25  26
ATOM     26  N   UNL     1       2.182 -11.859  -4.193  1.00  0.00    -0.352 N 
ATOM     27  C   UNL     1       1.562 -13.005  -4.643  1.00  0.00     0.251 C 
ATOM     28  H   UNL     1       1.760 -11.022  -4.493  1.00  0.00     0.163 HD
ATOM     29  O   UNL     1       0.649 -12.915  -5.453  1.00  0.00    -0.269 OA
BRANCH  27  30
ATOM     30  C   UNL     1       2.022 -14.340  -4.192  1.00  0.00     0.039 A 
ATOM     31  C   UNL     1       2.081 -15.381  -5.123  1.00  0.00     0.014 A 
ATOM     32  C   UNL     1       2.401 -14.576  -2.870  1.00  0.00     0.014 A 
ATOM     33  C   UNL     1       2.605 -16.621  -4.747  1.00  0.00     0.010 A 
ATOM     34  C   UNL     1       3.033 -15.768  -2.530  1.00  0.00     0.010 A 
ATOM     35  C   UNL     1       3.138 -16.810  -3.462  1.00  0.00    -0.014 A 
BRANCH  35  36
ATOM     36  C   UNL     1       3.805 -18.085  -3.080  1.00  0.00     0.031 A 
ATOM     37  C   UNL     1       3.277 -18.907  -1.933  1.00  0.00     0.074 A 
ATOM     38  C   UNL     1       4.921 -18.473  -3.731  1.00  0.00     0.049 A 
ATOM     39  N   UNL     1       3.739 -20.025  -1.433  1.00  0.00    -0.248 NA
ATOM     40  C   UNL     1       2.094 -18.385  -1.233  1.00  0.00     0.031 C 
ATOM     41  C   UNL     1       5.564 -17.734  -4.822  1.00  0.00     0.029 A 
ATOM     42  N   UNL     1       5.712 -19.584  -3.578  1.00  0.00    -0.354 N 
ATOM     43  C   UNL     1       2.918 -20.326  -0.351  1.00  0.00     0.074 A 
ATOM     44  C   UNL     1       1.977 -19.235  -0.226  1.00  0.00     0.031 C 
ATOM     45  C   UNL     1       6.614 -18.438  -5.272  1.00  0.00     0.029 A 
ATOM     46  C   UNL     1       6.756 -19.649  -4.472  1.00  0.00     0.049 A 
ATOM     47  H   UNL     1       5.548 -20.270  -2.891  1.00  0.00     0.167 HD
ATOM     48  C   UNL     1       2.931 -21.423   0.448  1.00  0.00     0.034 A 
ATOM     49  C   UNL     1       7.719 -20.579  -4.631  1.00  0.00     0.034 A 
ATOM     50  C   UNL     1       3.867 -22.511   0.295  1.00  0.00     0.049 A 
ATOM     51  C   UNL     1       7.722 -21.780  -3.721  1.00  0.00     0.074 A 
ATOM     52  C   UNL     1       3.923 -23.704   0.995  1.00  0.00     0.029 A 
ATOM     53  N   UNL     1       4.921 -22.535  -0.610  1.00  0.00    -0.354 N 
ATOM     54  N   UNL     1       6.893 -22.087  -2.749  1.00  0.00    -0.248 NA
ATOM     55  C   UNL     1       8.787 -22.766  -3.938  1.00  0.00     0.031 C 
ATOM     56  C   UNL     1       5.056 -24.408   0.572  1.00  0.00     0.029 A 
ATOM     57  C   UNL     1       5.659 -23.700  -0.456  1.00  0.00     0.049 A 
ATOM     58  H   UNL     1       5.117 -21.827  -1.266  1.00  0.00     0.167 HD
ATOM     59  C   UNL     1       7.320 -23.319  -2.261  1.00  0.00     0.074 A 
ATOM     60  C   UNL     1       8.464 -23.705  -3.062  1.00  0.00     0.031 C 
ATOM     61  C   UNL     1       6.813 -24.064  -1.245  1.00  0.00     0.034 A 
BRANCH  48  62
ATOM     62  C   UNL     1       1.922 -21.477   1.574  1.00  0.00     0.023 A 
ATOM     63  C   UNL     1       0.536 -21.457   1.335  1.00  0.00     0.031 A 
ATOM     64  C   UNL     1       2.353 -21.513   2.913  1.00  0.00     0.131 A 
ATOM     65  C   UNL     1      -0.362 -21.383   2.410  1.00  0.00     0.055 A 
ATOM     66  C   UNL     1       1.451 -21.532   3.979  1.00  0.00     0.041 A 
ATOM     67  F   UNL     1       3.662 -21.512   3.211  1.00  0.00    -0.206 F 
ATOM     68  C   UNL     1       0.084 -21.448   3.731  1.00  0.00     0.022 A 
BRANCH  65  69
ATOM     69  S   UNL     1      -2.107 -21.030   2.058  1.00  0.00     0.124 S 
ATOM     70  O   UNL     1      -2.011 -19.771   1.324  1.00  0.00    -0.237 OA
ATOM     71  O   UNL     1      -2.513 -22.195   1.281  1.00  0.00    -0.237 OA
ATOM     72  O   UNL     1      -2.709 -20.923   3.385  1.00  0.00    -0.744 OA
ENDBRANCH  65  69
ENDBRANCH  48  62
BRANCH  49  73
ATOM     73  C   UNL     1       8.755 -20.426  -5.694  1.00  0.00     0.023 A 
ATOM     74  C   UNL     1       8.847 -21.351  -6.747  1.00  0.00     0.031 A 
ATOM     75  C   UNL     1       9.696 -19.382  -5.651  1.00  0.00     0.131 A 
ATOM     76  C   UNL     1       9.884 -21.242  -7.686  1.00  0.00     0.055 A 
ATOM     77  C   UNL     1      10.691 -19.246  -6.620  1.00  0.00     0.041 A 
ATOM     78  F   UNL     1       9.653 -18.469  -4.668  1.00  0.00    -0.206 F 
ATOM     79  C   UNL     1      10.798 -20.188  -7.639  1.00  0.00     0.022 A 
BRANCH  76  80
ATOM     80  S   UNL     1      10.074 -22.554  -8.925  1.00  0.00     0.124 S 
ATOM     81  O   UNL     1      10.256 -23.732  -8.085  1.00  0.00    -0.237 OA
ATOM     82  O   UNL     1       8.811 -22.471  -9.651  1.00  0.00    -0.237 OA
ATOM     83  O   UNL     1      11.253 -22.138  -9.682  1.00  0.00    -0.744 OA
ENDBRANCH  76  80
ENDBRANCH  49  73
BRANCH  61  84
ATOM     84  C   UNL     1       7.483 -25.392  -0.974  1.00  0.00     0.023 A 
ATOM     85  C   UNL     1       8.820 -25.472  -0.546  1.00  0.00     0.031 A 
ATOM     86  C   UNL     1       6.786 -26.595  -1.185  1.00  0.00     0.131 A 
ATOM     87  C   UNL     1       9.440 -26.724  -0.419  1.00  0.00     0.055 A 
ATOM     88  C   UNL     1       7.386 -27.839  -0.983  1.00  0.00     0.041 A 
ATOM     89  F   UNL     1       5.508 -26.583  -1.599  1.00  0.00    -0.206 F 
ATOM     90  C   UNL     1       8.726 -27.908  -0.615  1.00  0.00     0.022 A 
BRANCH  87  91
ATOM     91  S   UNL     1      11.229 -26.780  -0.121  1.00  0.00     0.124 S 
ATOM     92  O   UNL     1      11.748 -26.012  -1.248  1.00  0.00    -0.237 OA
ATOM     93  O   UNL     1      11.347 -26.149   1.189  1.00  0.00    -0.237 OA
ATOM     94  O   UNL     1      11.536 -28.209  -0.150  1.00  0.00    -0.744 OA
ENDBRANCH  87  91
ENDBRANCH  61  84
ENDBRANCH  35  36
ENDBRANCH  27  30
ENDBRANCH  25  26
ENDBRANCH   1  25
TORSDOF 18
