REMARK SMILES C[C@@H](Oc1ccc(-c2ccccc2)cc1)C(=O)N1CCC[C@H](C(=O)NCCCNC(=O)c2ccc(-c3c4nc(c(-c5cc(S(=O)(=O)[O-])ccc5F)c5ccc([nH]5)c(-c5cc(S(=O)(=O)[O-])ccc5F)c5nc(c(-c6cc(S(=O)(=O)[O-])ccc6F)c6ccc3[nH]6)C=C5)C=C4)cc2)C1
REMARK SMILES IDX 26 1 25 2 23 3 24 4 22 6 18 7 19 8 95 9 20 10 21 11 16 12
REMARK SMILES IDX 17 13 2 14 1 15 3 16 4 17 5 18 15 19 6 20 14 21 7 22 8 23
REMARK SMILES IDX 9 24 13 25 10 26 12 27 11 28 27 29 28 30 29 31 30 32 31 34
REMARK SMILES IDX 32 35 33 36 94 37 34 38 93 39 35 40 36 41 37 42 87 43 38 44
REMARK SMILES IDX 92 45 86 46 88 47 39 48 91 49 85 50 84 51 40 53 72 54 52 55
REMARK SMILES IDX 71 56 53 57 56 58 70 59 89 60 54 61 55 62 69 64 90 65 57 66
REMARK SMILES IDX 41 67 42 68 50 69 43 70 49 71 51 72 48 73 44 74 45 75 46 76
REMARK SMILES IDX 47 77 73 78 74 79 82 80 75 81 81 82 83 83 80 84 76 85 77 86
REMARK SMILES IDX 78 87 79 88 58 89 59 90 67 91 60 92 66 93 68 94 65 95 61 96
REMARK SMILES IDX 62 97 63 98 64 99
REMARK H PARENT 25 5 29 33 88 52 56 63
REMARK Flexibility Score: inf
ROOT
ATOM      1  C   UNL     1      -3.302   0.507   0.849  1.00  0.00     0.117 C 
ENDROOT
BRANCH   1   2
ATOM      2  N   UNL     1      -3.283  -0.921   1.074  1.00  0.00    -0.356 N 
ATOM      3  C   UNL     1      -2.885  -1.946   0.279  1.00  0.00     0.224 C 
ATOM      4  O   UNL     1      -2.773  -3.048   0.834  1.00  0.00    -0.275 OA
ATOM      5  H   UNL     1      -3.616  -1.197   1.958  1.00  0.00     0.163 HD
BRANCH   3   6
ATOM      6  C   UNL     1      -2.589  -1.839  -1.225  1.00  0.00     0.098 C 
ATOM      7  N   UNL     1      -1.527   0.330  -1.868  1.00  0.00    -0.339 N 
ATOM      8  C   UNL     1      -2.588   0.636  -2.827  1.00  0.00     0.119 C 
ATOM      9  C   UNL     1      -1.310  -1.087  -1.608  1.00  0.00     0.133 C 
ATOM     10  C   UNL     1      -3.919  -0.033  -2.498  1.00  0.00     0.022 C 
ATOM     11  C   UNL     1      -3.796  -1.499  -2.100  1.00  0.00     0.017 C 
BRANCH   7  12
ATOM     12  C   UNL     1      -0.810   1.385  -1.304  1.00  0.00     0.263 C 
ATOM     13  O   UNL     1      -1.305   2.517  -1.239  1.00  0.00    -0.271 OA
BRANCH  12  14
ATOM     14  C   UNL     1       0.637   1.187  -0.818  1.00  0.00     0.259 C 
ATOM     15  C   UNL     1       0.839   0.285   0.395  1.00  0.00     0.064 C 
BRANCH  14  16
ATOM     16  O   UNL     1       1.330   0.681  -1.966  1.00  0.00    -0.481 OA
BRANCH  16  17
ATOM     17  C   UNL     1       2.627   1.097  -2.024  1.00  0.00     0.120 A 
ATOM     18  C   UNL     1       2.973   2.303  -2.628  1.00  0.00     0.047 A 
ATOM     19  C   UNL     1       3.602   0.201  -1.613  1.00  0.00     0.047 A 
ATOM     20  C   UNL     1       4.324   2.595  -2.856  1.00  0.00     0.012 A 
ATOM     21  C   UNL     1       4.942   0.499  -1.830  1.00  0.00     0.012 A 
ATOM     22  C   UNL     1       5.326   1.679  -2.493  1.00  0.00    -0.018 A 
BRANCH  22  23
ATOM     23  C   UNL     1       6.737   1.870  -2.863  1.00  0.00    -0.018 A 
ATOM     24  C   UNL     1       7.452   3.026  -2.525  1.00  0.00     0.009 A 
ATOM     25  C   UNL     1       7.413   0.854  -3.566  1.00  0.00     0.009 A 
ATOM     26  C   UNL     1       8.806   3.147  -2.857  1.00  0.00     0.001 A 
ATOM     27  C   UNL     1       8.762   0.972  -3.896  1.00  0.00     0.001 A 
ATOM     28  C   UNL     1       9.461   2.119  -3.536  1.00  0.00     0.000 A 
ENDBRANCH  22  23
ENDBRANCH  16  17
ENDBRANCH  14  16
ENDBRANCH  12  14
ENDBRANCH   7  12
ENDBRANCH   3   6
ENDBRANCH   1   2
BRANCH   1  29
ATOM     29  C   UNL     1      -4.689   1.123   0.852  1.00  0.00     0.042 C 
BRANCH  29  30
ATOM     30  C   UNL     1      -5.059   1.760   2.178  1.00  0.00     0.118 C 
BRANCH  30  31
ATOM     31  N   UNL     1      -4.232   2.920   2.500  1.00  0.00    -0.352 N 
ATOM     32  C   UNL     1      -4.569   4.235   2.733  1.00  0.00     0.251 C 
ATOM     33  H   UNL     1      -3.268   2.729   2.562  1.00  0.00     0.163 HD
ATOM     34  O   UNL     1      -3.681   5.067   2.860  1.00  0.00    -0.269 OA
BRANCH  32  35
ATOM     35  C   UNL     1      -5.990   4.646   2.792  1.00  0.00     0.039 A 
ATOM     36  C   UNL     1      -6.368   5.869   2.229  1.00  0.00     0.014 A 
ATOM     37  C   UNL     1      -6.952   3.832   3.389  1.00  0.00     0.014 A 
ATOM     38  C   UNL     1      -7.717   6.230   2.196  1.00  0.00     0.010 A 
ATOM     39  C   UNL     1      -8.300   4.131   3.242  1.00  0.00     0.010 A 
ATOM     40  C   UNL     1      -8.700   5.341   2.659  1.00  0.00    -0.014 A 
BRANCH  40  41
ATOM     41  C   UNL     1     -10.149   5.663   2.587  1.00  0.00     0.031 A 
ATOM     42  C   UNL     1     -10.964   5.704   3.854  1.00  0.00     0.074 A 
ATOM     43  C   UNL     1     -10.743   5.831   1.389  1.00  0.00     0.049 A 
ATOM     44  N   UNL     1     -12.256   5.833   4.007  1.00  0.00    -0.248 NA
ATOM     45  C   UNL     1     -10.227   5.525   5.115  1.00  0.00     0.031 C 
ATOM     46  C   UNL     1     -10.068   5.760   0.091  1.00  0.00     0.029 A 
ATOM     47  N   UNL     1     -12.051   6.086   1.065  1.00  0.00    -0.354 N 
ATOM     48  C   UNL     1     -12.488   5.721   5.375  1.00  0.00     0.074 A 
ATOM     49  C   UNL     1     -11.212   5.433   5.993  1.00  0.00     0.031 C 
ATOM     50  C   UNL     1     -10.960   6.000  -0.884  1.00  0.00     0.029 A 
ATOM     51  C   UNL     1     -12.277   6.191  -0.288  1.00  0.00     0.049 A 
ATOM     52  H   UNL     1     -12.763   6.186   1.739  1.00  0.00     0.167 HD
ATOM     53  C   UNL     1     -13.650   5.875   6.055  1.00  0.00     0.034 A 
ATOM     54  C   UNL     1     -13.420   6.405  -0.970  1.00  0.00     0.034 A 
ATOM     55  C   UNL     1     -14.904   6.197   5.420  1.00  0.00     0.049 A 
ATOM     56  C   UNL     1     -14.701   6.581  -0.195  1.00  0.00     0.074 A 
ATOM     57  C   UNL     1     -16.132   6.441   6.008  1.00  0.00     0.029 A 
ATOM     58  N   UNL     1     -15.089   6.321   4.048  1.00  0.00    -0.354 N 
ATOM     59  N   UNL     1     -14.896   6.519   1.103  1.00  0.00    -0.248 NA
ATOM     60  C   UNL     1     -15.911   6.868  -0.974  1.00  0.00     0.031 C 
ATOM     61  C   UNL     1     -17.070   6.650   4.991  1.00  0.00     0.029 A 
ATOM     62  C   UNL     1     -16.415   6.612   3.770  1.00  0.00     0.049 A 
ATOM     63  H   UNL     1     -14.381   6.217   3.372  1.00  0.00     0.167 HD
ATOM     64  C   UNL     1     -16.248   6.789   1.296  1.00  0.00     0.074 A 
ATOM     65  C   UNL     1     -16.813   7.029  -0.017  1.00  0.00     0.031 C 
ATOM     66  C   UNL     1     -16.959   6.839   2.451  1.00  0.00     0.034 A 
BRANCH  53  67
ATOM     67  C   UNL     1     -13.609   5.679   7.554  1.00  0.00     0.023 A 
ATOM     68  C   UNL     1     -12.808   6.485   8.383  1.00  0.00     0.031 A 
ATOM     69  C   UNL     1     -14.339   4.641   8.159  1.00  0.00     0.131 A 
ATOM     70  C   UNL     1     -12.681   6.183   9.747  1.00  0.00     0.055 A 
ATOM     71  C   UNL     1     -14.281   4.404   9.534  1.00  0.00     0.041 A 
ATOM     72  F   UNL     1     -15.106   3.824   7.421  1.00  0.00    -0.206 F 
ATOM     73  C   UNL     1     -13.433   5.164  10.334  1.00  0.00     0.022 A 
BRANCH  70  74
ATOM     74  S   UNL     1     -11.393   7.030  10.704  1.00  0.00     0.124 S 
ATOM     75  O   UNL     1     -10.187   6.656   9.968  1.00  0.00    -0.237 OA
ATOM     76  O   UNL     1     -11.794   8.428  10.604  1.00  0.00    -0.237 OA
ATOM     77  O   UNL     1     -11.510   6.439  12.035  1.00  0.00    -0.744 OA
ENDBRANCH  70  74
ENDBRANCH  53  67
BRANCH  54  78
ATOM     78  C   UNL     1     -13.410   6.468  -2.460  1.00  0.00     0.023 A 
ATOM     79  C   UNL     1     -13.726   7.658  -3.135  1.00  0.00     0.031 A 
ATOM     80  C   UNL     1     -13.113   5.332  -3.233  1.00  0.00     0.131 A 
ATOM     81  C   UNL     1     -13.781   7.675  -4.538  1.00  0.00     0.055 A 
ATOM     82  C   UNL     1     -13.117   5.367  -4.629  1.00  0.00     0.041 A 
ATOM     83  F   UNL     1     -12.796   4.170  -2.639  1.00  0.00    -0.206 F 
ATOM     84  C   UNL     1     -13.465   6.541  -5.289  1.00  0.00     0.022 A 
BRANCH  81  85
ATOM     85  S   UNL     1     -14.347   9.185  -5.367  1.00  0.00     0.124 S 
ATOM     86  O   UNL     1     -15.673   9.364  -4.788  1.00  0.00    -0.237 OA
ATOM     87  O   UNL     1     -13.333  10.153  -4.960  1.00  0.00    -0.237 OA
ATOM     88  O   UNL     1     -14.326   8.824  -6.783  1.00  0.00    -0.744 OA
ENDBRANCH  81  85
ENDBRANCH  54  78
BRANCH  66  89
ATOM     89  C   UNL     1     -18.417   7.210   2.341  1.00  0.00     0.023 A 
ATOM     90  C   UNL     1     -19.351   6.365   1.717  1.00  0.00     0.031 A 
ATOM     91  C   UNL     1     -18.874   8.433   2.864  1.00  0.00     0.131 A 
ATOM     92  C   UNL     1     -20.684   6.779   1.582  1.00  0.00     0.055 A 
ATOM     93  C   UNL     1     -20.215   8.812   2.781  1.00  0.00     0.041 A 
ATOM     94  F   UNL     1     -18.024   9.278   3.469  1.00  0.00    -0.206 F 
ATOM     95  C   UNL     1     -21.126   7.989   2.126  1.00  0.00     0.022 A 
BRANCH  92  96
ATOM     96  S   UNL     1     -21.818   5.755   0.605  1.00  0.00     0.124 S 
ATOM     97  O   UNL     1     -21.153   5.721  -0.694  1.00  0.00    -0.237 OA
ATOM     98  O   UNL     1     -21.827   4.500   1.350  1.00  0.00    -0.237 OA
ATOM     99  O   UNL     1     -23.073   6.504   0.639  1.00  0.00    -0.744 OA
ENDBRANCH  92  96
ENDBRANCH  66  89
ENDBRANCH  40  41
ENDBRANCH  32  35
ENDBRANCH  30  31
ENDBRANCH  29  30
ENDBRANCH   1  29
TORSDOF 18
