REMARK SMILES CCCN1C(=O)C[C@H](C(=O)NCCCNC(=O)c2ccc(-c3c4nc(c(-c5cc(S(=O)(=O)[O-])ccc5F)c5ccc([nH]5)c(-c5cc(S(=O)(=O)[O-])ccc5F)c5nc(c(-c6cc(S(=O)(=O)[O-])ccc6F)c6ccc3[nH]6)C=C5)C=C4)cc2)[C@@H]1c1cncn1C1CC1
REMARK SMILES IDX 13 1 12 2 11 3 9 4 10 5 8 7 4 8 5 9 81 10 6 11 7 12 3 13
REMARK SMILES IDX 2 14 1 15 82 16 83 17 86 18 84 19 85 20 87 21 88 22 89 23
REMARK SMILES IDX 14 24 15 25 16 26 17 28 18 29 19 30 80 31 20 32 79 33 21 34
REMARK SMILES IDX 22 35 23 36 73 37 24 38 78 39 72 40 74 41 25 42 77 43 71 44
REMARK SMILES IDX 70 45 26 47 58 48 38 49 57 50 39 51 42 52 56 53 75 54 40 55
REMARK SMILES IDX 41 56 55 58 76 59 43 60 27 61 28 62 36 63 29 64 35 65 37 66
REMARK SMILES IDX 34 67 30 68 31 69 32 70 33 71 59 72 60 73 68 74 61 75 67 76
REMARK SMILES IDX 69 77 66 78 62 79 63 80 64 81 65 82 44 83 45 84 53 85 46 86
REMARK SMILES IDX 52 87 54 88 51 89 47 90 48 91 49 92 50 93
REMARK H PARENT 11 6 15 27 74 46 42 57
REMARK Flexibility Score: inf
ROOT
ATOM      1  C   UNL     1      -2.115   4.992   4.912  1.00  0.00     0.042 C 
ENDROOT
BRANCH   1   2
ATOM      2  C   UNL     1      -2.175   4.022   3.760  1.00  0.00     0.117 C 
BRANCH   2   3
ATOM      3  N   UNL     1      -2.354   4.619   2.464  1.00  0.00    -0.356 N 
ATOM      4  C   UNL     1      -1.782   4.242   1.293  1.00  0.00     0.226 C 
ATOM      5  O   UNL     1      -2.287   4.674   0.252  1.00  0.00    -0.275 OA
ATOM      6  H   UNL     1      -2.963   5.391   2.421  1.00  0.00     0.163 HD
BRANCH   4   7
ATOM      7  C   UNL     1      -0.556   3.348   1.215  1.00  0.00     0.116 C 
ATOM      8  N   UNL     1       0.693   1.444   1.722  1.00  0.00    -0.333 N 
ATOM      9  C   UNL     1       1.520   2.535   1.981  1.00  0.00     0.224 C 
ATOM     10  C   UNL     1      -0.663   1.844   1.479  1.00  0.00     0.146 C 
ATOM     11  O   UNL     1       2.712   2.494   2.225  1.00  0.00    -0.275 OA
ATOM     12  C   UNL     1       0.691   3.799   1.959  1.00  0.00     0.116 C 
BRANCH   8  13
ATOM     13  C   UNL     1       1.156   0.059   1.650  1.00  0.00     0.120 C 
BRANCH  13  14
ATOM     14  C   UNL     1       0.674  -0.740   0.443  1.00  0.00     0.018 C 
ATOM     15  C   UNL     1       1.206  -0.206  -0.874  1.00  0.00     0.006 C 
ENDBRANCH  13  14
ENDBRANCH   8  13
BRANCH  10  16
ATOM     16  C   UNL     1      -1.674   1.308   2.438  1.00  0.00     0.061 A 
ATOM     17  C   UNL     1      -3.010   1.148   2.060  1.00  0.00     0.136 A 
ATOM     18  N   UNL     1      -1.650   0.804   3.738  1.00  0.00    -0.330 N 
ATOM     19  N   UNL     1      -3.773   0.601   3.037  1.00  0.00    -0.245 NA
ATOM     20  C   UNL     1      -2.940   0.396   4.023  1.00  0.00     0.199 A 
BRANCH  18  21
ATOM     21  C   UNL     1      -0.680   0.661   4.821  1.00  0.00     0.088 C 
ATOM     22  C   UNL     1       0.821   0.737   4.870  1.00  0.00     0.027 C 
ATOM     23  C   UNL     1       0.025   1.833   5.483  1.00  0.00     0.027 C 
ENDBRANCH  18  21
ENDBRANCH  10  16
ENDBRANCH   4   7
ENDBRANCH   2   3
ENDBRANCH   1   2
BRANCH   1  24
ATOM     24  C   UNL     1      -3.470   5.586   5.240  1.00  0.00     0.118 C 
BRANCH  24  25
ATOM     25  N   UNL     1      -4.456   4.581   5.628  1.00  0.00    -0.352 N 
ATOM     26  C   UNL     1      -5.172   4.444   6.793  1.00  0.00     0.251 C 
ATOM     27  H   UNL     1      -4.637   3.892   4.948  1.00  0.00     0.163 HD
ATOM     28  O   UNL     1      -5.815   3.417   6.991  1.00  0.00    -0.269 OA
BRANCH  26  29
ATOM     29  C   UNL     1      -5.135   5.513   7.812  1.00  0.00     0.039 A 
ATOM     30  C   UNL     1      -5.131   5.166   9.165  1.00  0.00     0.014 A 
ATOM     31  C   UNL     1      -5.082   6.855   7.436  1.00  0.00     0.014 A 
ATOM     32  C   UNL     1      -5.002   6.167  10.128  1.00  0.00     0.010 A 
ATOM     33  C   UNL     1      -4.804   7.829   8.383  1.00  0.00     0.010 A 
ATOM     34  C   UNL     1      -4.793   7.502   9.743  1.00  0.00    -0.014 A 
BRANCH  34  35
ATOM     35  C   UNL     1      -4.619   8.579  10.749  1.00  0.00     0.031 A 
ATOM     36  C   UNL     1      -5.586   9.735  10.779  1.00  0.00     0.074 A 
ATOM     37  C   UNL     1      -3.575   8.536  11.601  1.00  0.00     0.049 A 
ATOM     38  N   UNL     1      -5.588  10.793  11.548  1.00  0.00    -0.248 NA
ATOM     39  C   UNL     1      -6.672   9.721   9.785  1.00  0.00     0.031 C 
ATOM     40  C   UNL     1      -2.544   7.495  11.625  1.00  0.00     0.029 A 
ATOM     41  N   UNL     1      -3.210   9.383  12.615  1.00  0.00    -0.354 N 
ATOM     42  C   UNL     1      -6.663  11.566  11.124  1.00  0.00     0.074 A 
ATOM     43  C   UNL     1      -7.229  10.906   9.971  1.00  0.00     0.031 C 
ATOM     44  C   UNL     1      -1.698   7.736  12.639  1.00  0.00     0.029 A 
ATOM     45  C   UNL     1      -2.090   8.974  13.303  1.00  0.00     0.049 A 
ATOM     46  H   UNL     1      -3.703  10.207  12.832  1.00  0.00     0.167 HD
ATOM     47  C   UNL     1      -7.160  12.702  11.671  1.00  0.00     0.034 A 
ATOM     48  C   UNL     1      -1.454   9.537  14.349  1.00  0.00     0.034 A 
ATOM     49  C   UNL     1      -6.593  13.334  12.835  1.00  0.00     0.049 A 
ATOM     50  C   UNL     1      -2.010  10.816  14.923  1.00  0.00     0.074 A 
ATOM     51  C   UNL     1      -7.038  14.457  13.508  1.00  0.00     0.029 A 
ATOM     52  N   UNL     1      -5.453  12.898  13.498  1.00  0.00    -0.354 N 
ATOM     53  N   UNL     1      -3.066  11.503  14.547  1.00  0.00    -0.248 NA
ATOM     54  C   UNL     1      -1.297  11.389  16.070  1.00  0.00     0.031 C 
ATOM     55  C   UNL     1      -6.126  14.744  14.529  1.00  0.00     0.029 A 
ATOM     56  C   UNL     1      -5.160  13.750  14.551  1.00  0.00     0.049 A 
ATOM     57  H   UNL     1      -4.929  12.100  13.255  1.00  0.00     0.167 HD
ATOM     58  C   UNL     1      -3.158  12.572  15.435  1.00  0.00     0.074 A 
ATOM     59  C   UNL     1      -2.068  12.421  16.377  1.00  0.00     0.031 C 
ATOM     60  C   UNL     1      -4.059  13.587  15.471  1.00  0.00     0.034 A 
BRANCH  47  61
ATOM     61  C   UNL     1      -8.363  13.328  11.004  1.00  0.00     0.023 A 
ATOM     62  C   UNL     1      -9.587  12.643  10.897  1.00  0.00     0.031 A 
ATOM     63  C   UNL     1      -8.279  14.612  10.440  1.00  0.00     0.131 A 
ATOM     64  C   UNL     1     -10.647  13.208  10.174  1.00  0.00     0.055 A 
ATOM     65  C   UNL     1      -9.369  15.208   9.800  1.00  0.00     0.041 A 
ATOM     66  F   UNL     1      -7.132  15.307  10.486  1.00  0.00    -0.206 F 
ATOM     67  C   UNL     1     -10.557  14.499   9.649  1.00  0.00     0.022 A 
BRANCH  64  68
ATOM     68  S   UNL     1     -12.087  12.171   9.797  1.00  0.00     0.124 S 
ATOM     69  O   UNL     1     -11.473  11.076   9.050  1.00  0.00    -0.237 OA
ATOM     70  O   UNL     1     -12.591  11.837  11.124  1.00  0.00    -0.237 OA
ATOM     71  O   UNL     1     -12.945  13.051   9.006  1.00  0.00    -0.744 OA
ENDBRANCH  64  68
ENDBRANCH  47  61
BRANCH  48  72
ATOM     72  C   UNL     1      -0.231   8.908  14.927  1.00  0.00     0.023 A 
ATOM     73  C   UNL     1      -0.207   8.464  16.259  1.00  0.00     0.031 A 
ATOM     74  C   UNL     1       0.953   8.793  14.176  1.00  0.00     0.131 A 
ATOM     75  C   UNL     1       0.988   7.984  16.817  1.00  0.00     0.055 A 
ATOM     76  C   UNL     1       2.122   8.255  14.717  1.00  0.00     0.041 A 
ATOM     77  F   UNL     1       0.988   9.198  12.896  1.00  0.00    -0.206 F 
ATOM     78  C   UNL     1       2.148   7.863  16.051  1.00  0.00     0.022 A 
BRANCH  75  79
ATOM     79  S   UNL     1       1.031   7.625  18.595  1.00  0.00     0.124 S 
ATOM     80  O   UNL     1       0.624   8.904  19.166  1.00  0.00    -0.237 OA
ATOM     81  O   UNL     1       0.067   6.536  18.707  1.00  0.00    -0.237 OA
ATOM     82  O   UNL     1       2.424   7.250  18.832  1.00  0.00    -0.744 OA
ENDBRANCH  75  79
ENDBRANCH  48  72
BRANCH  60  83
ATOM     83  C   UNL     1      -3.917  14.587  16.593  1.00  0.00     0.023 A 
ATOM     84  C   UNL     1      -2.792  15.423  16.698  1.00  0.00     0.031 A 
ATOM     85  C   UNL     1      -4.912  14.691  17.581  1.00  0.00     0.131 A 
ATOM     86  C   UNL     1      -2.655  16.274  17.804  1.00  0.00     0.055 A 
ATOM     87  C   UNL     1      -4.806  15.595  18.638  1.00  0.00     0.041 A 
ATOM     88  F   UNL     1      -6.008  13.916  17.533  1.00  0.00    -0.206 F 
ATOM     89  C   UNL     1      -3.664  16.381  18.763  1.00  0.00     0.022 A 
BRANCH  86  90
ATOM     90  S   UNL     1      -1.086  17.154  18.032  1.00  0.00     0.124 S 
ATOM     91  O   UNL     1      -0.127  16.055  18.074  1.00  0.00    -0.237 OA
ATOM     92  O   UNL     1      -1.029  18.003  16.846  1.00  0.00    -0.237 OA
ATOM     93  O   UNL     1      -1.272  17.864  19.295  1.00  0.00    -0.744 OA
ENDBRANCH  86  90
ENDBRANCH  60  83
ENDBRANCH  34  35
ENDBRANCH  26  29
ENDBRANCH  24  25
ENDBRANCH   1  24
TORSDOF 17
