REMARK SMILES COc1cc(OC)cc(-n2nnc(C(=O)NCCCNC(=O)c3ccc(-c4c5nc(c(-c6cc(S(=O)(=O)[O-])ccc6F)c6ccc([nH]6)c(-c6cc(S(=O)(=O)[O-])ccc6F)c6nc(c(-c7cc(S(=O)(=O)[O-])ccc7F)c7ccc4[nH]7)C=C6)C=C5)cc3)c2C(C)(C)C)c1
REMARK SMILES IDX 18 1 17 2 16 3 14 4 15 5 13 7 10 8 11 9 86 10 12 11 9 12
REMARK SMILES IDX 3 13 4 14 91 15 5 16 8 17 2 18 1 19 6 20 7 21 87 22 88 23
REMARK SMILES IDX 89 24 90 25 19 26 20 27 21 28 22 30 23 31 24 32 85 33 25 34
REMARK SMILES IDX 84 35 26 36 27 37 28 38 78 39 29 40 83 41 77 42 79 43 30 44
REMARK SMILES IDX 82 45 76 46 75 47 31 49 63 50 43 51 62 52 44 53 47 54 61 55
REMARK SMILES IDX 80 56 45 57 46 58 60 60 81 61 48 62 32 63 33 64 41 65 34 66
REMARK SMILES IDX 40 67 42 68 39 69 35 70 36 71 37 72 38 73 64 74 65 75 73 76
REMARK SMILES IDX 66 77 72 78 74 79 71 80 67 81 68 82 69 83 70 84 49 85 50 86
REMARK SMILES IDX 58 87 51 88 57 89 59 90 56 91 52 92 53 93 54 94 55 95
REMARK H PARENT 16 6 20 29 79 48 47 59
REMARK Flexibility Score: inf
ROOT
ATOM      1  C   UNL     1       6.876  -4.417  -3.275  1.00  0.00     0.042 C 
ENDROOT
BRANCH   1   2
ATOM      2  C   UNL     1       7.656  -3.186  -2.821  1.00  0.00     0.118 C 
BRANCH   2   3
ATOM      3  N   UNL     1       7.775  -2.141  -3.847  1.00  0.00    -0.351 N 
ATOM      4  C   UNL     1       7.201  -1.007  -4.366  1.00  0.00     0.273 C 
ATOM      5  O   UNL     1       7.992  -0.435  -5.132  1.00  0.00    -0.267 OA
ATOM      6  H   UNL     1       8.589  -2.328  -4.368  1.00  0.00     0.163 HD
BRANCH   4   7
ATOM      7  C   UNL     1       5.856  -0.402  -4.189  1.00  0.00     0.174 A 
ATOM      8  N   UNL     1       3.773   0.294  -4.052  1.00  0.00    -0.216 N 
ATOM      9  N   UNL     1       4.450   1.233  -4.717  1.00  0.00    -0.061 NA
ATOM     10  C   UNL     1       4.585  -0.784  -3.714  1.00  0.00     0.083 A 
ATOM     11  N   UNL     1       5.712   0.861  -4.761  1.00  0.00    -0.124 NA
BRANCH   8  12
ATOM     12  C   UNL     1       2.381   0.398  -3.937  1.00  0.00     0.074 A 
ATOM     13  C   UNL     1       0.512   0.279  -2.440  1.00  0.00     0.124 A 
ATOM     14  C   UNL     1      -0.273  -0.172  -3.511  1.00  0.00     0.093 A 
ATOM     15  C   UNL     1       1.844   0.611  -2.665  1.00  0.00     0.075 A 
ATOM     16  C   UNL     1       0.260  -0.319  -4.801  1.00  0.00     0.124 A 
ATOM     17  C   UNL     1       1.598  -0.009  -5.025  1.00  0.00     0.075 A 
BRANCH  13  18
ATOM     18  O   UNL     1      -0.090   0.253  -1.210  1.00  0.00    -0.497 OA
ATOM     19  C   UNL     1       0.772   0.354  -0.077  1.00  0.00     0.278 C 
ENDBRANCH  13  18
BRANCH  16  20
ATOM     20  O   UNL     1      -0.596  -0.851  -5.729  1.00  0.00    -0.497 OA
ATOM     21  C   UNL     1      -0.021  -1.279  -6.960  1.00  0.00     0.278 C 
ENDBRANCH  16  20
ENDBRANCH   8  12
BRANCH  10  22
ATOM     22  C   UNL     1       4.103  -2.097  -3.124  1.00  0.00     0.007 C 
ATOM     23  C   UNL     1       4.308  -3.123  -4.263  1.00  0.00     0.017 C 
ATOM     24  C   UNL     1       4.811  -2.221  -1.756  1.00  0.00     0.017 C 
ATOM     25  C   UNL     1       2.634  -2.361  -2.747  1.00  0.00     0.017 C 
ENDBRANCH  10  22
ENDBRANCH   4   7
ENDBRANCH   2   3
ENDBRANCH   1   2
BRANCH   1  26
ATOM     26  C   UNL     1       7.283  -5.739  -2.661  1.00  0.00     0.118 C 
BRANCH  26  27
ATOM     27  N   UNL     1       6.743  -5.967  -1.318  1.00  0.00    -0.352 N 
ATOM     28  C   UNL     1       7.080  -7.022  -0.473  1.00  0.00     0.251 C 
ATOM     29  H   UNL     1       6.083  -5.318  -0.983  1.00  0.00     0.163 HD
ATOM     30  O   UNL     1       6.375  -7.351   0.459  1.00  0.00    -0.269 OA
BRANCH  28  31
ATOM     31  C   UNL     1       8.332  -7.732  -0.804  1.00  0.00     0.039 A 
ATOM     32  C   UNL     1       8.292  -9.042  -1.282  1.00  0.00     0.014 A 
ATOM     33  C   UNL     1       9.453  -6.932  -0.972  1.00  0.00     0.014 A 
ATOM     34  C   UNL     1       9.337  -9.488  -2.097  1.00  0.00     0.010 A 
ATOM     35  C   UNL     1      10.391  -7.327  -1.903  1.00  0.00     0.010 A 
ATOM     36  C   UNL     1      10.355  -8.600  -2.486  1.00  0.00    -0.014 A 
BRANCH  36  37
ATOM     37  C   UNL     1      11.262  -8.938  -3.603  1.00  0.00     0.031 A 
ATOM     38  C   UNL     1      10.706  -9.718  -4.756  1.00  0.00     0.074 A 
ATOM     39  C   UNL     1      12.504  -8.429  -3.771  1.00  0.00     0.049 A 
ATOM     40  N   UNL     1      11.041 -10.914  -5.119  1.00  0.00    -0.248 NA
ATOM     41  C   UNL     1       9.631  -9.145  -5.578  1.00  0.00     0.031 C 
ATOM     42  C   UNL     1      13.224  -7.468  -2.930  1.00  0.00     0.029 A 
ATOM     43  N   UNL     1      13.350  -8.583  -4.833  1.00  0.00    -0.354 N 
ATOM     44  C   UNL     1      10.380 -11.187  -6.316  1.00  0.00     0.074 A 
ATOM     45  C   UNL     1       9.426 -10.117  -6.475  1.00  0.00     0.031 C 
ATOM     46  C   UNL     1      14.236  -6.918  -3.629  1.00  0.00     0.029 A 
ATOM     47  C   UNL     1      14.372  -7.647  -4.874  1.00  0.00     0.049 A 
ATOM     48  H   UNL     1      13.242  -9.293  -5.507  1.00  0.00     0.167 HD
ATOM     49  C   UNL     1      10.794 -12.190  -7.149  1.00  0.00     0.034 A 
ATOM     50  C   UNL     1      15.324  -7.480  -5.821  1.00  0.00     0.034 A 
ATOM     51  C   UNL     1      11.760 -13.042  -6.490  1.00  0.00     0.049 A 
ATOM     52  C   UNL     1      15.521  -8.795  -6.469  1.00  0.00     0.074 A 
ATOM     53  C   UNL     1      11.761 -13.806  -5.338  1.00  0.00     0.029 A 
ATOM     54  N   UNL     1      13.087 -12.917  -6.840  1.00  0.00    -0.354 N 
ATOM     55  N   UNL     1      15.990  -9.833  -5.832  1.00  0.00    -0.248 NA
ATOM     56  C   UNL     1      14.793  -9.104  -7.689  1.00  0.00     0.031 C 
ATOM     57  C   UNL     1      13.064 -13.623  -4.785  1.00  0.00     0.029 A 
ATOM     58  C   UNL     1      13.796 -12.825  -5.668  1.00  0.00     0.049 A 
ATOM     59  H   UNL     1      13.455 -12.897  -7.753  1.00  0.00     0.167 HD
ATOM     60  C   UNL     1      15.238 -10.902  -6.290  1.00  0.00     0.074 A 
ATOM     61  C   UNL     1      14.631 -10.422  -7.529  1.00  0.00     0.031 C 
ATOM     62  C   UNL     1      14.950 -11.967  -5.480  1.00  0.00     0.034 A 
BRANCH  49  63
ATOM     63  C   UNL     1      10.584 -12.291  -8.649  1.00  0.00     0.023 A 
ATOM     64  C   UNL     1      11.086 -13.440  -9.303  1.00  0.00     0.031 A 
ATOM     65  C   UNL     1      10.181 -11.241  -9.497  1.00  0.00     0.131 A 
ATOM     66  C   UNL     1      11.272 -13.471 -10.696  1.00  0.00     0.055 A 
ATOM     67  C   UNL     1      10.298 -11.303 -10.893  1.00  0.00     0.041 A 
ATOM     68  F   UNL     1       9.741 -10.068  -9.027  1.00  0.00    -0.206 F 
ATOM     69  C   UNL     1      10.877 -12.407 -11.499  1.00  0.00     0.022 A 
BRANCH  66  70
ATOM     70  S   UNL     1      12.227 -14.838 -11.413  1.00  0.00     0.124 S 
ATOM     71  O   UNL     1      13.416 -14.844 -10.567  1.00  0.00    -0.237 OA
ATOM     72  O   UNL     1      11.312 -15.962 -11.249  1.00  0.00    -0.237 OA
ATOM     73  O   UNL     1      12.448 -14.409 -12.793  1.00  0.00    -0.744 OA
ENDBRANCH  66  70
ENDBRANCH  49  63
BRANCH  50  74
ATOM     74  C   UNL     1      15.961  -6.207  -6.222  1.00  0.00     0.023 A 
ATOM     75  C   UNL     1      17.222  -6.144  -6.836  1.00  0.00     0.031 A 
ATOM     76  C   UNL     1      15.209  -5.008  -6.173  1.00  0.00     0.131 A 
ATOM     77  C   UNL     1      17.690  -4.920  -7.362  1.00  0.00     0.055 A 
ATOM     78  C   UNL     1      15.682  -3.798  -6.679  1.00  0.00     0.041 A 
ATOM     79  F   UNL     1      13.953  -4.996  -5.697  1.00  0.00    -0.206 F 
ATOM     80  C   UNL     1      16.927  -3.750  -7.285  1.00  0.00     0.022 A 
BRANCH  77  81
ATOM     81  S   UNL     1      19.263  -4.865  -8.273  1.00  0.00     0.124 S 
ATOM     82  O   UNL     1      20.246  -4.961  -7.200  1.00  0.00    -0.237 OA
ATOM     83  O   UNL     1      19.153  -6.019  -9.159  1.00  0.00    -0.237 OA
ATOM     84  O   UNL     1      19.216  -3.570  -8.953  1.00  0.00    -0.744 OA
ENDBRANCH  77  81
ENDBRANCH  50  74
BRANCH  62  85
ATOM     85  C   UNL     1      15.699 -12.107  -4.167  1.00  0.00     0.023 A 
ATOM     86  C   UNL     1      15.760 -11.104  -3.175  1.00  0.00     0.031 A 
ATOM     87  C   UNL     1      16.260 -13.359  -3.856  1.00  0.00     0.131 A 
ATOM     88  C   UNL     1      16.381 -11.362  -1.938  1.00  0.00     0.055 A 
ATOM     89  C   UNL     1      16.854 -13.621  -2.620  1.00  0.00     0.041 A 
ATOM     90  F   UNL     1      16.206 -14.370  -4.739  1.00  0.00    -0.206 F 
ATOM     91  C   UNL     1      16.924 -12.619  -1.659  1.00  0.00     0.022 A 
BRANCH  88  92
ATOM     92  S   UNL     1      16.503 -10.053  -0.678  1.00  0.00     0.124 S 
ATOM     93  O   UNL     1      16.959  -8.890  -1.431  1.00  0.00    -0.237 OA
ATOM     94  O   UNL     1      15.139  -9.981  -0.161  1.00  0.00    -0.237 OA
ATOM     95  O   UNL     1      17.484 -10.587   0.270  1.00  0.00    -0.744 OA
ENDBRANCH  88  92
ENDBRANCH  62  85
ENDBRANCH  36  37
ENDBRANCH  28  31
ENDBRANCH  26  27
ENDBRANCH   1  26
TORSDOF 17
