REMARK SMILES O=C(NCCCNC(=O)c1ccc(-c2ccn(C(F)F)c(=O)c2)cc1O)c1ccc(-c2c3nc(c(-c4cc(S(=O)(=O)[O-])ccc4F)c4ccc([nH]4)c(-c4cc(S(=O)(=O)[O-])ccc4F)c4nc(c(-c5cc(S(=O)(=O)[O-])ccc5F)c5ccc2[nH]5)C=C4)C=C3)cc1
REMARK SMILES IDX 4 1 3 2 1 3 2 4 27 6 28 7 89 8 29 9 88 10 30 11 31 12 32 13
REMARK SMILES IDX 82 14 33 15 87 16 81 17 83 18 34 19 86 20 80 21 79 22 35 24
REMARK SMILES IDX 67 25 47 26 66 27 48 28 51 29 65 30 84 31 49 32 50 33 64 35
REMARK SMILES IDX 85 36 52 37 36 38 37 39 45 40 38 41 44 42 46 43 43 44 39 45
REMARK SMILES IDX 40 46 41 47 42 48 68 49 69 50 77 51 70 52 76 53 78 54 75 55
REMARK SMILES IDX 71 56 72 57 73 58 74 59 53 60 54 61 62 62 55 63 61 64 63 65
REMARK SMILES IDX 60 66 56 67 57 68 58 69 59 70 5 71 6 72 7 73 8 74 9 76 10 77
REMARK SMILES IDX 11 78 25 79 12 80 24 81 13 82 26 83 14 85 15 86 23 87 16 88
REMARK SMILES IDX 21 89 17 90 22 91 18 92 19 93 20 94
REMARK H PARENT 3 5 83 23 51 34 7 75 26 84
REMARK Flexibility Score: inf
ROOT
ATOM      1  C   UNL     1       4.552  -0.942   0.824  1.00  0.00     0.118 C 
ENDROOT
BRANCH   1   2
ATOM      2  N   UNL     1       3.103  -0.890   0.702  1.00  0.00    -0.352 N 
ATOM      3  O   UNL     1       1.087  -0.000   0.290  1.00  0.00    -0.269 OA
ATOM      4  C   UNL     1       2.296   0.022   0.070  1.00  0.00     0.251 C 
ATOM      5  H   UNL     1       2.625  -1.629   1.143  1.00  0.00     0.163 HD
BRANCH   4   6
ATOM      6  C   UNL     1       2.857   1.020  -0.870  1.00  0.00     0.039 A 
ATOM      7  C   UNL     1       2.274   2.291  -0.932  1.00  0.00     0.014 A 
ATOM      8  C   UNL     1       3.884   0.687  -1.756  1.00  0.00     0.014 A 
ATOM      9  C   UNL     1       2.725   3.223  -1.871  1.00  0.00     0.010 A 
ATOM     10  C   UNL     1       4.393   1.643  -2.629  1.00  0.00     0.010 A 
ATOM     11  C   UNL     1       3.788   2.905  -2.729  1.00  0.00    -0.014 A 
BRANCH  11  12
ATOM     12  C   UNL     1       4.215   3.814  -3.823  1.00  0.00     0.031 A 
ATOM     13  C   UNL     1       4.052   3.358  -5.250  1.00  0.00     0.074 A 
ATOM     14  C   UNL     1       4.794   4.999  -3.551  1.00  0.00     0.049 A 
ATOM     15  N   UNL     1       4.502   3.906  -6.347  1.00  0.00    -0.248 NA
ATOM     16  C   UNL     1       3.306   2.105  -5.470  1.00  0.00     0.031 C 
ATOM     17  C   UNL     1       5.007   5.541  -2.211  1.00  0.00     0.029 A 
ATOM     18  N   UNL     1       5.333   5.949  -4.386  1.00  0.00    -0.354 N 
ATOM     19  C   UNL     1       4.123   3.053  -7.377  1.00  0.00     0.074 A 
ATOM     20  C   UNL     1       3.445   1.929  -6.776  1.00  0.00     0.031 C 
ATOM     21  C   UNL     1       5.634   6.724  -2.312  1.00  0.00     0.029 A 
ATOM     22  C   UNL     1       5.924   6.999  -3.720  1.00  0.00     0.049 A 
ATOM     23  H   UNL     1       5.299   5.885  -5.368  1.00  0.00     0.167 HD
ATOM     24  C   UNL     1       4.305   3.210  -8.707  1.00  0.00     0.034 A 
ATOM     25  C   UNL     1       6.645   8.043  -4.182  1.00  0.00     0.034 A 
ATOM     26  C   UNL     1       4.928   4.366  -9.293  1.00  0.00     0.049 A 
ATOM     27  C   UNL     1       6.841   8.193  -5.673  1.00  0.00     0.074 A 
ATOM     28  C   UNL     1       5.094   4.648 -10.636  1.00  0.00     0.029 A 
ATOM     29  N   UNL     1       5.472   5.427  -8.587  1.00  0.00    -0.354 N 
ATOM     30  N   UNL     1       6.414   7.415  -6.640  1.00  0.00    -0.248 NA
ATOM     31  C   UNL     1       7.603   9.359  -6.146  1.00  0.00     0.031 C 
ATOM     32  C   UNL     1       5.805   5.839 -10.743  1.00  0.00     0.029 A 
ATOM     33  C   UNL     1       6.001   6.351  -9.470  1.00  0.00     0.049 A 
ATOM     34  H   UNL     1       5.480   5.511  -7.606  1.00  0.00     0.167 HD
ATOM     35  C   UNL     1       6.826   8.013  -7.828  1.00  0.00     0.074 A 
ATOM     36  C   UNL     1       7.521   9.227  -7.464  1.00  0.00     0.031 C 
ATOM     37  C   UNL     1       6.647   7.587  -9.103  1.00  0.00     0.034 A 
BRANCH  24  38
ATOM     38  C   UNL     1       3.807   2.150  -9.655  1.00  0.00     0.023 A 
ATOM     39  C   UNL     1       4.723   1.488 -10.494  1.00  0.00     0.031 A 
ATOM     40  C   UNL     1       2.434   1.949  -9.872  1.00  0.00     0.131 A 
ATOM     41  C   UNL     1       4.252   0.712 -11.559  1.00  0.00     0.055 A 
ATOM     42  C   UNL     1       1.971   1.131 -10.903  1.00  0.00     0.041 A 
ATOM     43  F   UNL     1       1.523   2.559  -9.097  1.00  0.00    -0.206 F 
ATOM     44  C   UNL     1       2.881   0.526 -11.765  1.00  0.00     0.022 A 
BRANCH  41  45
ATOM     45  S   UNL     1       5.397   0.001 -12.771  1.00  0.00     0.124 S 
ATOM     46  O   UNL     1       5.038  -1.416 -12.730  1.00  0.00    -0.237 OA
ATOM     47  O   UNL     1       5.022   0.704 -13.993  1.00  0.00    -0.237 OA
ATOM     48  O   UNL     1       6.717   0.319 -12.237  1.00  0.00    -0.744 OA
ENDBRANCH  41  45
ENDBRANCH  24  38
BRANCH  25  49
ATOM     49  C   UNL     1       7.215   9.025  -3.211  1.00  0.00     0.023 A 
ATOM     50  C   UNL     1       8.122   8.610  -2.217  1.00  0.00     0.031 A 
ATOM     51  C   UNL     1       6.798  10.366  -3.198  1.00  0.00     0.131 A 
ATOM     52  C   UNL     1       8.524   9.504  -1.217  1.00  0.00     0.055 A 
ATOM     53  C   UNL     1       7.265  11.276  -2.247  1.00  0.00     0.041 A 
ATOM     54  F   UNL     1       5.923  10.812  -4.114  1.00  0.00    -0.206 F 
ATOM     55  C   UNL     1       8.118  10.841  -1.238  1.00  0.00     0.022 A 
BRANCH  52  56
ATOM     56  S   UNL     1       9.467   8.924   0.221  1.00  0.00     0.124 S 
ATOM     57  O   UNL     1      10.706   9.685   0.101  1.00  0.00    -0.237 OA
ATOM     58  O   UNL     1       8.593   9.310   1.327  1.00  0.00    -0.237 OA
ATOM     59  O   UNL     1       9.584   7.486  -0.000  1.00  0.00    -0.744 OA
ENDBRANCH  52  56
ENDBRANCH  25  49
BRANCH  37  60
ATOM     60  C   UNL     1       7.164   8.423 -10.249  1.00  0.00     0.023 A 
ATOM     61  C   UNL     1       6.256   8.917 -11.208  1.00  0.00     0.031 A 
ATOM     62  C   UNL     1       8.538   8.515 -10.522  1.00  0.00     0.131 A 
ATOM     63  C   UNL     1       6.731   9.403 -12.431  1.00  0.00     0.055 A 
ATOM     64  C   UNL     1       9.008   9.057 -11.720  1.00  0.00     0.041 A 
ATOM     65  F   UNL     1       9.441   8.047  -9.646  1.00  0.00    -0.206 F 
ATOM     66  C   UNL     1       8.103   9.482 -12.690  1.00  0.00     0.022 A 
BRANCH  63  67
ATOM     67  S   UNL     1       5.587   9.829 -13.774  1.00  0.00     0.124 S 
ATOM     68  O   UNL     1       5.945  11.218 -14.048  1.00  0.00    -0.237 OA
ATOM     69  O   UNL     1       5.963   8.872 -14.811  1.00  0.00    -0.237 OA
ATOM     70  O   UNL     1       4.265   9.634 -13.187  1.00  0.00    -0.744 OA
ENDBRANCH  63  67
ENDBRANCH  37  60
ENDBRANCH  11  12
ENDBRANCH   4   6
ENDBRANCH   1   2
BRANCH   1  71
ATOM     71  C   UNL     1       5.022  -0.711   2.251  1.00  0.00     0.042 C 
BRANCH  71  72
ATOM     72  C   UNL     1       4.531  -1.749   3.247  1.00  0.00     0.118 C 
BRANCH  72  73
ATOM     73  N   UNL     1       5.004  -3.091   2.948  1.00  0.00    -0.352 N 
ATOM     74  C   UNL     1       5.667  -3.972   3.765  1.00  0.00     0.255 C 
ATOM     75  H   UNL     1       4.825  -3.411   2.035  1.00  0.00     0.163 HD
ATOM     76  O   UNL     1       6.057  -5.051   3.324  1.00  0.00    -0.269 OA
BRANCH  74  77
ATOM     77  C   UNL     1       5.979  -3.608   5.161  1.00  0.00     0.081 A 
ATOM     78  C   UNL     1       7.317  -3.699   5.566  1.00  0.00     0.018 A 
ATOM     79  C   UNL     1       5.002  -3.204   6.076  1.00  0.00     0.128 A 
ATOM     80  C   UNL     1       7.681  -3.346   6.868  1.00  0.00     0.010 A 
ATOM     81  C   UNL     1       5.368  -2.829   7.367  1.00  0.00     0.055 A 
ATOM     82  C   UNL     1       6.710  -2.900   7.774  1.00  0.00    -0.014 A 
BRANCH  79  83
ATOM     83  O   UNL     1       3.681  -3.173   5.723  1.00  0.00    -0.507 OA
ATOM     84  H   UNL     1       3.422  -3.422   4.858  1.00  0.00     0.293 HD
ENDBRANCH  79  83
BRANCH  82  85
ATOM     85  C   UNL     1       7.049  -2.541   9.164  1.00  0.00    -0.011 A 
ATOM     86  C   UNL     1       6.395  -3.172  10.295  1.00  0.00     0.027 A 
ATOM     87  C   UNL     1       7.947  -1.566   9.392  1.00  0.00     0.080 A 
ATOM     88  C   UNL     1       6.646  -2.766  11.543  1.00  0.00     0.095 A 
ATOM     89  C   UNL     1       8.258  -1.122  10.780  1.00  0.00     0.255 A 
ATOM     90  N   UNL     1       7.552  -1.754  11.791  1.00  0.00    -0.258 N 
ATOM     91  O   UNL     1       9.093  -0.237  10.943  1.00  0.00    -0.269 OA
BRANCH  90  92
ATOM     92  C   UNL     1       7.791  -1.305  13.138  1.00  0.00     0.451 C 
ATOM     93  F   UNL     1       9.092  -1.453  13.484  1.00  0.00    -0.185 F 
ATOM     94  F   UNL     1       7.460   0.000  13.283  1.00  0.00    -0.185 F 
ENDBRANCH  90  92
ENDBRANCH  82  85
ENDBRANCH  74  77
ENDBRANCH  72  73
ENDBRANCH  71  72
ENDBRANCH   1  71
TORSDOF 16
