REMARK SMILES Cc1n[nH]c(C(F)(F)Cl)c1C(=O)NCCCNC(=O)c1ccc(-c2c3nc(c(-c4cc(S(=O)(=O)[O-])ccc4F)c4ccc([nH]4)c(-c4cc(S(=O)(=O)[O-])ccc4F)c4nc(c(-c5cc(S(=O)(=O)[O-])ccc5F)c5ccc2[nH]5)C=C4)C=C3)cc1
REMARK SMILES IDX 16 1 15 2 14 3 13 4 11 5 12 6 10 8 1 9 2 10 3 11 4 12 5 13
REMARK SMILES IDX 6 15 7 16 8 17 9 18 17 19 18 20 19 22 20 23 21 24 82 25
REMARK SMILES IDX 22 26 81 27 23 28 24 29 25 30 75 31 26 32 80 33 74 34 76 35
REMARK SMILES IDX 27 36 79 37 73 38 72 39 28 41 60 42 40 43 59 44 41 45 44 46
REMARK SMILES IDX 58 47 77 48 42 49 43 50 57 52 78 53 45 54 29 55 30 56 38 57
REMARK SMILES IDX 31 58 37 59 39 60 36 61 32 62 33 63 34 64 35 65 61 66 62 67
REMARK SMILES IDX 70 68 63 69 69 70 71 71 68 72 64 73 65 74 66 75 67 76 46 77
REMARK SMILES IDX 47 78 55 79 48 80 54 81 56 82 53 83 49 84 50 85 51 86 52 87
REMARK H PARENT 13 7 4 14 17 21 76 40 44 51
REMARK Flexibility Score: inf
ROOT
ATOM      1  C   UNL     1       4.353   3.549  -1.025  1.00  0.00     0.118 C 
ENDROOT
BRANCH   1   2
ATOM      2  C   UNL     1       3.685   2.233  -0.635  1.00  0.00     0.042 C 
BRANCH   2   3
ATOM      3  C   UNL     1       2.701   2.351   0.535  1.00  0.00     0.118 C 
BRANCH   3   4
ATOM      4  N   UNL     1       1.457   2.923   0.079  1.00  0.00    -0.352 N 
ATOM      5  C   UNL     1       0.269   2.395  -0.342  1.00  0.00     0.255 C 
ATOM      6  O   UNL     1      -0.490   3.202  -0.912  1.00  0.00    -0.269 OA
ATOM      7  H   UNL     1       1.466   3.907   0.068  1.00  0.00     0.163 HD
BRANCH   5   8
ATOM      8  C   UNL     1      -0.180   1.026  -0.105  1.00  0.00     0.091 A 
ATOM      9  C   UNL     1       1.865  -0.695  -0.318  1.00  0.00     0.069 C 
ATOM     10  C   UNL     1       0.465  -0.257  -0.084  1.00  0.00     0.072 A 
ATOM     11  N   UNL     1      -0.402  -1.254   0.138  1.00  0.00    -0.180 NA
ATOM     12  N   UNL     1      -1.587  -0.660   0.163  1.00  0.00    -0.274 N 
ATOM     13  C   UNL     1      -1.530   0.697   0.065  1.00  0.00     0.133 A 
ATOM     14  H   UNL     1      -2.433  -1.157   0.246  1.00  0.00     0.190 HD
BRANCH  13  15
ATOM     15  C   UNL     1      -2.841   1.397   0.087  1.00  0.00     0.365 C 
ATOM     16  F   UNL     1      -3.392   1.402  -1.159  1.00  0.00    -0.181 F 
ATOM     17  F   UNL     1      -3.708   0.643   0.835  1.00  0.00    -0.181 F 
ATOM     18  Cl  UNL     1      -2.869   3.017   0.774  1.00  0.00    -0.040 Cl
ENDBRANCH  13  15
ENDBRANCH   5   8
ENDBRANCH   3   4
ENDBRANCH   2   3
ENDBRANCH   1   2
BRANCH   1  19
ATOM     19  N   UNL     1       5.337   3.967  -0.039  1.00  0.00    -0.352 N 
ATOM     20  C   UNL     1       6.689   4.153  -0.176  1.00  0.00     0.251 C 
ATOM     21  H   UNL     1       4.979   4.144   0.861  1.00  0.00     0.163 HD
ATOM     22  O   UNL     1       7.380   4.242   0.843  1.00  0.00    -0.269 OA
BRANCH  20  23
ATOM     23  C   UNL     1       7.323   4.235  -1.511  1.00  0.00     0.039 A 
ATOM     24  C   UNL     1       8.582   3.656  -1.699  1.00  0.00     0.014 A 
ATOM     25  C   UNL     1       6.713   4.925  -2.563  1.00  0.00     0.014 A 
ATOM     26  C   UNL     1       9.204   3.727  -2.949  1.00  0.00     0.010 A 
ATOM     27  C   UNL     1       7.301   4.933  -3.828  1.00  0.00     0.010 A 
ATOM     28  C   UNL     1       8.557   4.341  -4.033  1.00  0.00    -0.014 A 
BRANCH  28  29
ATOM     29  C   UNL     1       9.181   4.385  -5.382  1.00  0.00     0.031 A 
ATOM     30  C   UNL     1       9.549   5.708  -6.001  1.00  0.00     0.074 A 
ATOM     31  C   UNL     1       9.361   3.241  -6.071  1.00  0.00     0.049 A 
ATOM     32  N   UNL     1      10.020   5.963  -7.195  1.00  0.00    -0.248 NA
ATOM     33  C   UNL     1       9.329   6.905  -5.175  1.00  0.00     0.031 C 
ATOM     34  C   UNL     1       9.015   1.902  -5.587  1.00  0.00     0.029 A 
ATOM     35  N   UNL     1       9.870   3.016  -7.325  1.00  0.00    -0.354 N 
ATOM     36  C   UNL     1      10.136   7.347  -7.271  1.00  0.00     0.074 A 
ATOM     37  C   UNL     1       9.632   7.878  -6.022  1.00  0.00     0.031 C 
ATOM     38  C   UNL     1       9.347   0.997  -6.521  1.00  0.00     0.029 A 
ATOM     39  C   UNL     1       9.881   1.689  -7.689  1.00  0.00     0.049 A 
ATOM     40  H   UNL     1      10.197   3.737  -7.910  1.00  0.00     0.167 HD
ATOM     41  C   UNL     1      10.637   8.103  -8.281  1.00  0.00     0.034 A 
ATOM     42  C   UNL     1      10.264   1.099  -8.839  1.00  0.00     0.034 A 
ATOM     43  C   UNL     1      11.150   7.553  -9.513  1.00  0.00     0.049 A 
ATOM     44  C   UNL     1      10.793   1.962  -9.957  1.00  0.00     0.074 A 
ATOM     45  C   UNL     1      11.729   8.219 -10.579  1.00  0.00     0.029 A 
ATOM     46  N   UNL     1      11.140   6.204  -9.847  1.00  0.00    -0.354 N 
ATOM     47  N   UNL     1      10.935   3.267  -9.996  1.00  0.00    -0.248 NA
ATOM     48  C   UNL     1      11.220   1.272 -11.180  1.00  0.00     0.031 C 
ATOM     49  C   UNL     1      12.005   7.284 -11.583  1.00  0.00     0.029 A 
ATOM     50  C   UNL     1      11.674   6.023 -11.114  1.00  0.00     0.049 A 
ATOM     51  H   UNL     1      10.804   5.482  -9.269  1.00  0.00     0.167 HD
ATOM     52  C   UNL     1      11.501   3.549 -11.236  1.00  0.00     0.074 A 
ATOM     53  C   UNL     1      11.686   2.277 -11.906  1.00  0.00     0.031 C 
ATOM     54  C   UNL     1      11.843   4.748 -11.772  1.00  0.00     0.034 A 
BRANCH  41  55
ATOM     55  C   UNL     1      10.626   9.603  -8.102  1.00  0.00     0.023 A 
ATOM     56  C   UNL     1      11.357  10.232  -7.079  1.00  0.00     0.031 A 
ATOM     57  C   UNL     1       9.857  10.417  -8.954  1.00  0.00     0.131 A 
ATOM     58  C   UNL     1      11.245  11.618  -6.885  1.00  0.00     0.055 A 
ATOM     59  C   UNL     1       9.816  11.806  -8.808  1.00  0.00     0.041 A 
ATOM     60  F   UNL     1       9.121   9.875  -9.937  1.00  0.00    -0.206 F 
ATOM     61  C   UNL     1      10.500  12.413  -7.759  1.00  0.00     0.022 A 
BRANCH  58  62
ATOM     62  S   UNL     1      11.970  12.345  -5.390  1.00  0.00     0.124 S 
ATOM     63  O   UNL     1      11.267  11.616  -4.337  1.00  0.00    -0.237 OA
ATOM     64  O   UNL     1      13.387  12.037  -5.544  1.00  0.00    -0.237 OA
ATOM     65  O   UNL     1      11.624  13.761  -5.495  1.00  0.00    -0.744 OA
ENDBRANCH  58  62
ENDBRANCH  41  55
BRANCH  42  66
ATOM     66  C   UNL     1      10.162  -0.380  -9.001  1.00  0.00     0.023 A 
ATOM     67  C   UNL     1      11.312  -1.167  -9.177  1.00  0.00     0.031 A 
ATOM     68  C   UNL     1       8.913  -1.026  -9.025  1.00  0.00     0.131 A 
ATOM     69  C   UNL     1      11.189  -2.544  -9.417  1.00  0.00     0.055 A 
ATOM     70  C   UNL     1       8.799  -2.405  -9.209  1.00  0.00     0.041 A 
ATOM     71  F   UNL     1       7.782  -0.323  -8.856  1.00  0.00    -0.206 F 
ATOM     72  C   UNL     1       9.941  -3.171  -9.420  1.00  0.00     0.022 A 
BRANCH  69  73
ATOM     73  S   UNL     1      12.683  -3.493  -9.813  1.00  0.00     0.124 S 
ATOM     74  O   UNL     1      13.179  -2.787 -10.990  1.00  0.00    -0.237 OA
ATOM     75  O   UNL     1      13.470  -3.340  -8.594  1.00  0.00    -0.237 OA
ATOM     76  O   UNL     1      12.175  -4.840 -10.061  1.00  0.00    -0.744 OA
ENDBRANCH  69  73
ENDBRANCH  42  66
BRANCH  54  77
ATOM     77  C   UNL     1      12.497   4.730 -13.132  1.00  0.00     0.023 A 
ATOM     78  C   UNL     1      11.802   4.324 -14.284  1.00  0.00     0.031 A 
ATOM     79  C   UNL     1      13.843   5.115 -13.272  1.00  0.00     0.131 A 
ATOM     80  C   UNL     1      12.470   4.258 -15.516  1.00  0.00     0.055 A 
ATOM     81  C   UNL     1      14.484   5.108 -14.511  1.00  0.00     0.041 A 
ATOM     82  F   UNL     1      14.556   5.509 -12.205  1.00  0.00    -0.206 F 
ATOM     83  C   UNL     1      13.801   4.665 -15.640  1.00  0.00     0.022 A 
BRANCH  80  84
ATOM     84  S   UNL     1      11.603   3.544 -16.940  1.00  0.00     0.124 S 
ATOM     85  O   UNL     1      11.277   2.206 -16.457  1.00  0.00    -0.237 OA
ATOM     86  O   UNL     1      10.475   4.454 -17.107  1.00  0.00    -0.237 OA
ATOM     87  O   UNL     1      12.600   3.591 -18.008  1.00  0.00    -0.744 OA
ENDBRANCH  80  84
ENDBRANCH  54  77
ENDBRANCH  28  29
ENDBRANCH  20  23
ENDBRANCH   1  19
TORSDOF 14
