REMARK SMILES O=C(NCCCNC(=O)c1ccc2c(c1)C(=O)O[C@H]2c1ccc(F)cc1)c1ccc(-c2c3nc(c(-c4cc(S(=O)(=O)[O-])ccc4F)c4ccc([nH]4)c(-c4cc(S(=O)(=O)[O-])ccc4F)c4nc(c(-c5cc(S(=O)(=O)[O-])ccc5F)c5ccc2[nH]5)C=C4)C=C3)cc1
REMARK SMILES IDX 4 1 3 2 1 3 2 4 27 6 28 7 89 8 29 9 88 10 30 11 31 12 32 13
REMARK SMILES IDX 82 14 33 15 87 16 81 17 83 18 34 19 86 20 80 21 79 22 35 24
REMARK SMILES IDX 67 25 47 26 66 27 48 28 51 29 65 30 84 31 49 32 50 33 64 35
REMARK SMILES IDX 85 36 52 37 36 38 37 39 45 40 38 41 44 42 46 43 43 44 39 45
REMARK SMILES IDX 40 46 41 47 42 48 68 49 69 50 77 51 70 52 76 53 78 54 75 55
REMARK SMILES IDX 71 56 72 57 73 58 74 59 53 60 54 61 62 62 55 63 61 64 63 65
REMARK SMILES IDX 60 66 56 67 57 68 58 69 59 70 5 71 6 72 7 73 8 74 9 76 10 77
REMARK SMILES IDX 11 78 15 79 12 80 14 81 13 82 16 83 19 84 17 85 18 86 20 87
REMARK SMILES IDX 21 88 26 89 22 90 25 91 23 92 24 93
REMARK H PARENT 3 5 83 23 51 34 7 75
REMARK Flexibility Score: inf
ROOT
ATOM      1  C   UNL     1       4.448  -1.196  -0.557  1.00  0.00     0.118 C 
ENDROOT
BRANCH   1   2
ATOM      2  N   UNL     1       3.011  -0.952  -0.609  1.00  0.00    -0.352 N 
ATOM      3  O   UNL     1       1.042   0.033  -0.144  1.00  0.00    -0.269 OA
ATOM      4  C   UNL     1       2.268   0.105  -0.137  1.00  0.00     0.251 C 
ATOM      5  H   UNL     1       2.489  -1.659  -1.054  1.00  0.00     0.163 HD
BRANCH   4   6
ATOM      6  C   UNL     1       2.940   1.307   0.402  1.00  0.00     0.039 A 
ATOM      7  C   UNL     1       4.064   1.837  -0.229  1.00  0.00     0.014 A 
ATOM      8  C   UNL     1       2.442   1.913   1.560  1.00  0.00     0.014 A 
ATOM      9  C   UNL     1       4.804   2.831   0.399  1.00  0.00     0.010 A 
ATOM     10  C   UNL     1       3.123   2.995   2.127  1.00  0.00     0.010 A 
ATOM     11  C   UNL     1       4.337   3.435   1.577  1.00  0.00    -0.014 A 
BRANCH  11  12
ATOM     12  C   UNL     1       5.125   4.539   2.186  1.00  0.00     0.031 A 
ATOM     13  C   UNL     1       5.705   4.407   3.571  1.00  0.00     0.074 A 
ATOM     14  C   UNL     1       5.368   5.646   1.453  1.00  0.00     0.049 A 
ATOM     15  N   UNL     1       6.419   5.271   4.245  1.00  0.00    -0.248 NA
ATOM     16  C   UNL     1       5.450   3.150   4.295  1.00  0.00     0.031 C 
ATOM     17  C   UNL     1       4.869   5.881   0.094  1.00  0.00     0.029 A 
ATOM     18  N   UNL     1       6.111   6.766   1.726  1.00  0.00    -0.354 N 
ATOM     19  C   UNL     1       6.689   4.673   5.471  1.00  0.00     0.074 A 
ATOM     20  C   UNL     1       6.037   3.382   5.463  1.00  0.00     0.031 C 
ATOM     21  C   UNL     1       5.369   7.036  -0.367  1.00  0.00     0.029 A 
ATOM     22  C   UNL     1       6.151   7.669   0.688  1.00  0.00     0.049 A 
ATOM     23  H   UNL     1       6.573   6.911   2.583  1.00  0.00     0.167 HD
ATOM     24  C   UNL     1       7.425   5.155   6.501  1.00  0.00     0.034 A 
ATOM     25  C   UNL     1       6.726   8.884   0.597  1.00  0.00     0.034 A 
ATOM     26  C   UNL     1       8.092   6.432   6.489  1.00  0.00     0.049 A 
ATOM     27  C   UNL     1       7.479   9.419   1.784  1.00  0.00     0.074 A 
ATOM     28  C   UNL     1       8.889   6.991   7.473  1.00  0.00     0.029 A 
ATOM     29  N   UNL     1       8.042   7.348   5.448  1.00  0.00    -0.354 N 
ATOM     30  N   UNL     1       7.715   8.837   2.936  1.00  0.00    -0.248 NA
ATOM     31  C   UNL     1       8.031  10.775   1.667  1.00  0.00     0.031 C 
ATOM     32  C   UNL     1       9.264   8.270   7.057  1.00  0.00     0.029 A 
ATOM     33  C   UNL     1       8.762   8.482   5.784  1.00  0.00     0.049 A 
ATOM     34  H   UNL     1       7.565   7.212   4.598  1.00  0.00     0.167 HD
ATOM     35  C   UNL     1       8.450   9.754   3.678  1.00  0.00     0.074 A 
ATOM     36  C   UNL     1       8.635  10.920   2.839  1.00  0.00     0.031 C 
ATOM     37  C   UNL     1       8.926   9.641   4.942  1.00  0.00     0.034 A 
BRANCH  24  38
ATOM     38  C   UNL     1       7.546   4.318   7.748  1.00  0.00     0.023 A 
ATOM     39  C   UNL     1       8.324   3.150   7.777  1.00  0.00     0.031 A 
ATOM     40  C   UNL     1       6.944   4.747   8.945  1.00  0.00     0.131 A 
ATOM     41  C   UNL     1       8.469   2.439   8.978  1.00  0.00     0.055 A 
ATOM     42  C   UNL     1       7.135   4.065  10.148  1.00  0.00     0.041 A 
ATOM     43  F   UNL     1       6.181   5.851   8.967  1.00  0.00    -0.206 F 
ATOM     44  C   UNL     1       7.901   2.903  10.168  1.00  0.00     0.022 A 
BRANCH  41  45
ATOM     45  S   UNL     1       9.383   0.874   8.960  1.00  0.00     0.124 S 
ATOM     46  O   UNL     1       8.525   0.040   8.121  1.00  0.00    -0.237 OA
ATOM     47  O   UNL     1      10.663   1.258   8.376  1.00  0.00    -0.237 OA
ATOM     48  O   UNL     1       9.432   0.488  10.369  1.00  0.00    -0.744 OA
ENDBRANCH  41  45
ENDBRANCH  24  38
BRANCH  25  49
ATOM     49  C   UNL     1       6.564   9.697  -0.640  1.00  0.00     0.023 A 
ATOM     50  C   UNL     1       7.666  10.026  -1.443  1.00  0.00     0.031 A 
ATOM     51  C   UNL     1       5.296  10.169  -1.031  1.00  0.00     0.131 A 
ATOM     52  C   UNL     1       7.485  10.828  -2.581  1.00  0.00     0.055 A 
ATOM     53  C   UNL     1       5.114  10.923  -2.191  1.00  0.00     0.041 A 
ATOM     54  F   UNL     1       4.209   9.879  -0.299  1.00  0.00    -0.206 F 
ATOM     55  C   UNL     1       6.215  11.265  -2.968  1.00  0.00     0.022 A 
BRANCH  52  56
ATOM     56  S   UNL     1       8.946  11.342  -3.523  1.00  0.00     0.124 S 
ATOM     57  O   UNL     1       9.681  12.117  -2.530  1.00  0.00    -0.237 OA
ATOM     58  O   UNL     1       9.532  10.059  -3.900  1.00  0.00    -0.237 OA
ATOM     59  O   UNL     1       8.383  12.115  -4.628  1.00  0.00    -0.744 OA
ENDBRANCH  52  56
ENDBRANCH  25  49
BRANCH  37  60
ATOM     60  C   UNL     1       9.704  10.801   5.498  1.00  0.00     0.023 A 
ATOM     61  C   UNL     1       9.066  11.997   5.863  1.00  0.00     0.031 A 
ATOM     62  C   UNL     1      11.086  10.684   5.726  1.00  0.00     0.131 A 
ATOM     63  C   UNL     1       9.814  13.042   6.423  1.00  0.00     0.055 A 
ATOM     64  C   UNL     1      11.818  11.709   6.326  1.00  0.00     0.041 A 
ATOM     65  F   UNL     1      11.740   9.558   5.397  1.00  0.00    -0.206 F 
ATOM     66  C   UNL     1      11.182  12.898   6.675  1.00  0.00     0.022 A 
BRANCH  63  67
ATOM     67  S   UNL     1       8.980  14.605   6.804  1.00  0.00     0.124 S 
ATOM     68  O   UNL     1       8.604  15.078   5.475  1.00  0.00    -0.237 OA
ATOM     69  O   UNL     1       7.880  14.176   7.662  1.00  0.00    -0.237 OA
ATOM     70  O   UNL     1      10.014  15.392   7.473  1.00  0.00    -0.744 OA
ENDBRANCH  63  67
ENDBRANCH  37  60
ENDBRANCH  11  12
ENDBRANCH   4   6
ENDBRANCH   1   2
BRANCH   1  71
ATOM     71  C   UNL     1       4.824  -2.347   0.360  1.00  0.00     0.042 C 
BRANCH  71  72
ATOM     72  C   UNL     1       4.271  -3.691  -0.081  1.00  0.00     0.118 C 
BRANCH  72  73
ATOM     73  N   UNL     1       4.756  -4.088  -1.397  1.00  0.00    -0.352 N 
ATOM     74  C   UNL     1       5.618  -5.089  -1.760  1.00  0.00     0.251 C 
ATOM     75  H   UNL     1       4.410  -3.550  -2.145  1.00  0.00     0.163 HD
ATOM     76  O   UNL     1       6.050  -5.145  -2.907  1.00  0.00    -0.269 OA
BRANCH  74  77
ATOM     77  C   UNL     1       6.029  -6.115  -0.781  1.00  0.00     0.040 A 
ATOM     78  C   UNL     1       7.376  -6.531  -0.762  1.00  0.00     0.014 A 
ATOM     79  C   UNL     1       5.089  -6.714   0.061  1.00  0.00     0.030 A 
ATOM     80  C   UNL     1       7.801  -7.527   0.124  1.00  0.00     0.009 A 
ATOM     81  C   UNL     1       5.551  -7.652   0.958  1.00  0.00     0.068 A 
ATOM     82  C   UNL     1       6.862  -8.078   0.982  1.00  0.00     0.012 A 
ATOM     83  C   UNL     1       4.793  -8.377   1.965  1.00  0.00     0.339 C 
ATOM     84  C   UNL     1       6.974  -9.197   1.953  1.00  0.00     0.238 C 
ATOM     85  O   UNL     1       3.612  -8.237   2.214  1.00  0.00    -0.246 OA
ATOM     86  O   UNL     1       5.661  -9.242   2.562  1.00  0.00    -0.449 OA
BRANCH  84  87
ATOM     87  C   UNL     1       7.248 -10.536   1.296  1.00  0.00    -0.003 A 
ATOM     88  C   UNL     1       6.399 -11.039   0.288  1.00  0.00     0.011 A 
ATOM     89  C   UNL     1       8.367 -11.293   1.673  1.00  0.00     0.011 A 
ATOM     90  C   UNL     1       6.673 -12.253  -0.338  1.00  0.00     0.039 A 
ATOM     91  C   UNL     1       8.636 -12.513   1.049  1.00  0.00     0.039 A 
ATOM     92  C   UNL     1       7.790 -12.979   0.048  1.00  0.00     0.123 A 
ATOM     93  F   UNL     1       8.056 -14.145  -0.553  1.00  0.00    -0.207 F 
ENDBRANCH  84  87
ENDBRANCH  74  77
ENDBRANCH  72  73
ENDBRANCH  71  72
ENDBRANCH   1  71
TORSDOF 14
