REMARK SMILES O=C(NCCCNC(=O)[C@H]1C[C@](O)(c2ccccc2Cl)[C@@H](c2ccccc2Cl)O1)c1ccc(-c2c3nc(c(-c4cc(S(=O)(=O)[O-])ccc4F)c4ccc([nH]4)c(-c4cc(S(=O)(=O)[O-])ccc4F)c4nc(c(-c5cc(S(=O)(=O)[O-])ccc5F)c5ccc2[nH]5)C=C4)C=C3)cc1
REMARK SMILES IDX 4 1 3 2 1 3 2 4 30 6 31 7 92 8 32 9 91 10 33 11 34 12 35 13
REMARK SMILES IDX 85 14 36 15 90 16 84 17 86 18 37 19 89 20 83 21 82 22 38 24
REMARK SMILES IDX 70 25 50 26 69 27 51 28 54 29 68 30 87 31 52 32 53 33 67 35
REMARK SMILES IDX 88 36 55 37 39 38 40 39 48 40 41 41 47 42 49 43 46 44 42 45
REMARK SMILES IDX 43 46 44 47 45 48 71 49 72 50 80 51 73 52 79 53 81 54 78 55
REMARK SMILES IDX 74 56 75 57 76 58 77 59 56 60 57 61 65 62 58 63 64 64 66 65
REMARK SMILES IDX 63 66 59 67 60 68 61 69 62 70 5 71 6 72 7 73 8 74 9 76 10 77
REMARK SMILES IDX 11 78 29 79 12 80 21 81 14 82 15 83 19 84 16 85 18 86 20 87
REMARK SMILES IDX 17 88 13 89 22 91 23 92 27 93 24 94 26 95 28 96 25 97
REMARK H PARENT 3 5 86 23 54 34 7 75 13 90
REMARK Flexibility Score: inf
ROOT
ATOM      1  C   UNL     1       9.122   3.010  -0.908  1.00  0.00     0.118 C 
ENDROOT
BRANCH   1   2
ATOM      2  N   UNL     1      10.165   3.872  -1.452  1.00  0.00    -0.352 N 
ATOM      3  O   UNL     1      12.193   4.476  -2.213  1.00  0.00    -0.269 OA
ATOM      4  C   UNL     1      11.416   3.569  -1.946  1.00  0.00     0.251 C 
ATOM      5  H   UNL     1       9.938   4.830  -1.470  1.00  0.00     0.163 HD
BRANCH   4   6
ATOM      6  C   UNL     1      11.829   2.157  -2.121  1.00  0.00     0.039 A 
ATOM      7  C   UNL     1      10.943   1.216  -2.640  1.00  0.00     0.014 A 
ATOM      8  C   UNL     1      13.132   1.770  -1.791  1.00  0.00     0.014 A 
ATOM      9  C   UNL     1      11.278  -0.130  -2.639  1.00  0.00     0.010 A 
ATOM     10  C   UNL     1      13.518   0.430  -1.926  1.00  0.00     0.010 A 
ATOM     11  C   UNL     1      12.584  -0.536  -2.327  1.00  0.00    -0.014 A 
BRANCH  11  12
ATOM     12  C   UNL     1      12.957  -1.956  -2.555  1.00  0.00     0.031 A 
ATOM     13  C   UNL     1      13.418  -2.838  -1.429  1.00  0.00     0.074 A 
ATOM     14  C   UNL     1      12.835  -2.448  -3.806  1.00  0.00     0.049 A 
ATOM     15  N   UNL     1      13.784  -4.093  -1.470  1.00  0.00    -0.248 NA
ATOM     16  C   UNL     1      13.490  -2.238  -0.088  1.00  0.00     0.031 C 
ATOM     17  C   UNL     1      12.403  -1.671  -4.975  1.00  0.00     0.029 A 
ATOM     18  N   UNL     1      13.037  -3.706  -4.311  1.00  0.00    -0.354 N 
ATOM     19  C   UNL     1      14.159  -4.428  -0.173  1.00  0.00     0.074 A 
ATOM     20  C   UNL     1      13.983  -3.238   0.632  1.00  0.00     0.031 C 
ATOM     21  C   UNL     1      12.319  -2.478  -6.040  1.00  0.00     0.029 A 
ATOM     22  C   UNL     1      12.787  -3.804  -5.661  1.00  0.00     0.049 A 
ATOM     23  H   UNL     1      13.334  -4.466  -3.760  1.00  0.00     0.167 HD
ATOM     24  C   UNL     1      14.610  -5.619   0.290  1.00  0.00     0.034 A 
ATOM     25  C   UNL     1      12.957  -4.830  -6.515  1.00  0.00     0.034 A 
ATOM     26  C   UNL     1      14.751  -6.799  -0.530  1.00  0.00     0.049 A 
ATOM     27  C   UNL     1      13.491  -6.125  -5.972  1.00  0.00     0.074 A 
ATOM     28  C   UNL     1      15.121  -8.076  -0.143  1.00  0.00     0.029 A 
ATOM     29  N   UNL     1      14.545  -6.845  -1.903  1.00  0.00    -0.354 N 
ATOM     30  N   UNL     1      13.803  -6.430  -4.733  1.00  0.00    -0.248 NA
ATOM     31  C   UNL     1      13.707  -7.208  -6.937  1.00  0.00     0.031 C 
ATOM     32  C   UNL     1      15.208  -8.873  -1.290  1.00  0.00     0.029 A 
ATOM     33  C   UNL     1      14.828  -8.114  -2.384  1.00  0.00     0.049 A 
ATOM     34  H   UNL     1      14.242  -6.087  -2.453  1.00  0.00     0.167 HD
ATOM     35  C   UNL     1      14.255  -7.743  -4.773  1.00  0.00     0.074 A 
ATOM     36  C   UNL     1      14.137  -8.182  -6.149  1.00  0.00     0.031 C 
ATOM     37  C   UNL     1      14.734  -8.517  -3.767  1.00  0.00     0.034 A 
BRANCH  24  38
ATOM     38  C   UNL     1      15.038  -5.704   1.734  1.00  0.00     0.023 A 
ATOM     39  C   UNL     1      14.119  -5.629   2.795  1.00  0.00     0.031 A 
ATOM     40  C   UNL     1      16.395  -5.902   2.049  1.00  0.00     0.131 A 
ATOM     41  C   UNL     1      14.575  -5.718   4.121  1.00  0.00     0.055 A 
ATOM     42  C   UNL     1      16.834  -6.047   3.366  1.00  0.00     0.041 A 
ATOM     43  F   UNL     1      17.318  -5.962   1.076  1.00  0.00    -0.206 F 
ATOM     44  C   UNL     1      15.922  -5.950   4.412  1.00  0.00     0.022 A 
BRANCH  41  45
ATOM     45  S   UNL     1      13.392  -5.449   5.470  1.00  0.00     0.124 S 
ATOM     46  O   UNL     1      12.957  -4.078   5.213  1.00  0.00    -0.237 OA
ATOM     47  O   UNL     1      12.398  -6.489   5.232  1.00  0.00    -0.237 OA
ATOM     48  O   UNL     1      14.200  -5.624   6.675  1.00  0.00    -0.744 OA
ENDBRANCH  41  45
ENDBRANCH  24  38
BRANCH  25  49
ATOM     49  C   UNL     1      12.700  -4.650  -7.973  1.00  0.00     0.023 A 
ATOM     50  C   UNL     1      11.730  -5.409  -8.642  1.00  0.00     0.031 A 
ATOM     51  C   UNL     1      13.458  -3.734  -8.729  1.00  0.00     0.131 A 
ATOM     52  C   UNL     1      11.571  -5.271 -10.030  1.00  0.00     0.055 A 
ATOM     53  C   UNL     1      13.253  -3.556 -10.096  1.00  0.00     0.041 A 
ATOM     54  F   UNL     1      14.401  -2.982  -8.139  1.00  0.00    -0.206 F 
ATOM     55  C   UNL     1      12.315  -4.339 -10.758  1.00  0.00     0.022 A 
BRANCH  52  56
ATOM     56  S   UNL     1      10.450  -6.406 -10.891  1.00  0.00     0.124 S 
ATOM     57  O   UNL     1      10.945  -7.706 -10.453  1.00  0.00    -0.237 OA
ATOM     58  O   UNL     1       9.151  -6.003 -10.363  1.00  0.00    -0.237 OA
ATOM     59  O   UNL     1      10.671  -6.096 -12.302  1.00  0.00    -0.744 OA
ENDBRANCH  52  56
ENDBRANCH  25  49
BRANCH  37  60
ATOM     60  C   UNL     1      15.157  -9.912  -4.141  1.00  0.00     0.023 A 
ATOM     61  C   UNL     1      16.287 -10.137  -4.947  1.00  0.00     0.031 A 
ATOM     62  C   UNL     1      14.405 -11.022  -3.723  1.00  0.00     0.131 A 
ATOM     63  C   UNL     1      16.600 -11.439  -5.359  1.00  0.00     0.055 A 
ATOM     64  C   UNL     1      14.755 -12.322  -4.088  1.00  0.00     0.041 A 
ATOM     65  F   UNL     1      13.315 -10.859  -2.956  1.00  0.00    -0.206 F 
ATOM     66  C   UNL     1      15.851 -12.535  -4.921  1.00  0.00     0.022 A 
BRANCH  63  67
ATOM     67  S   UNL     1      17.951 -11.674  -6.545  1.00  0.00     0.124 S 
ATOM     68  O   UNL     1      17.469 -10.927  -7.703  1.00  0.00    -0.237 OA
ATOM     69  O   UNL     1      19.090 -11.094  -5.842  1.00  0.00    -0.237 OA
ATOM     70  O   UNL     1      18.004 -13.124  -6.721  1.00  0.00    -0.744 OA
ENDBRANCH  63  67
ENDBRANCH  37  60
ENDBRANCH  11  12
ENDBRANCH   4   6
ENDBRANCH   1   2
BRANCH   1  71
ATOM     71  C   UNL     1       9.209   2.841   0.607  1.00  0.00     0.042 C 
BRANCH  71  72
ATOM     72  C   UNL     1       8.533   3.989   1.336  1.00  0.00     0.117 C 
BRANCH  72  73
ATOM     73  N   UNL     1       7.095   4.018   1.122  1.00  0.00    -0.354 N 
ATOM     74  C   UNL     1       6.099   4.776   1.650  1.00  0.00     0.249 C 
ATOM     75  H   UNL     1       6.781   3.357   0.464  1.00  0.00     0.163 HD
ATOM     76  O   UNL     1       4.984   4.596   1.145  1.00  0.00    -0.272 OA
BRANCH  74  77
ATOM     77  C   UNL     1       6.294   5.795   2.801  1.00  0.00     0.211 C 
ATOM     78  C   UNL     1       7.666   6.388   3.036  1.00  0.00     0.085 C 
ATOM     79  O   UNL     1       5.389   6.893   2.607  1.00  0.00    -0.357 OA
ATOM     80  C   UNL     1       7.509   7.908   3.143  1.00  0.00     0.124 C 
ATOM     81  C   UNL     1       6.111   8.134   2.499  1.00  0.00     0.187 C 
BRANCH  80  82
ATOM     82  C   UNL     1       7.895   8.313   4.577  1.00  0.00     0.005 A 
ATOM     83  C   UNL     1       9.259   8.064   4.927  1.00  0.00     0.008 A 
ATOM     84  C   UNL     1       7.099   8.874   5.586  1.00  0.00     0.047 A 
ATOM     85  C   UNL     1       9.794   8.350   6.182  1.00  0.00     0.001 A 
ATOM     86  C   UNL     1       7.654   9.190   6.845  1.00  0.00     0.021 A 
ATOM     87  Cl  UNL     1       5.413   9.200   5.464  1.00  0.00    -0.084 Cl
ATOM     88  C   UNL     1       8.988   8.927   7.145  1.00  0.00     0.002 A 
ENDBRANCH  80  82
BRANCH  80  89
ATOM     89  O   UNL     1       8.539   8.540   2.344  1.00  0.00    -0.382 OA
ATOM     90  H   UNL     1       8.386   8.344   1.406  1.00  0.00     0.212 HD
ENDBRANCH  80  89
BRANCH  81  91
ATOM     91  C   UNL     1       6.063   8.598   1.036  1.00  0.00     0.003 A 
ATOM     92  C   UNL     1       6.432   7.735  -0.017  1.00  0.00     0.008 A 
ATOM     93  C   UNL     1       5.644   9.895   0.682  1.00  0.00     0.046 A 
ATOM     94  C   UNL     1       6.364   8.131  -1.356  1.00  0.00     0.000 A 
ATOM     95  C   UNL     1       5.568  10.287  -0.663  1.00  0.00     0.021 A 
ATOM     96  Cl  UNL     1       5.208  11.092   1.853  1.00  0.00    -0.084 Cl
ATOM     97  C   UNL     1       5.924   9.406  -1.681  1.00  0.00     0.002 A 
ENDBRANCH  81  91
ENDBRANCH  74  77
ENDBRANCH  72  73
ENDBRANCH  71  72
ENDBRANCH   1  71
TORSDOF 16
