REMARK SMILES O=Cc1ccc2c(c1)C=C(C(=O)NCCCNC(=O)c1ccc(-c3c4nc(c(-c5cc(S(=O)(=O)[O-])ccc5F)c5ccc([nH]5)c(-c5cc(S(=O)(=O)[O-])ccc5F)c5nc(c(-c6cc(S(=O)(=O)[O-])ccc6F)c6ccc3[nH]6)C=C5)C=C4)cc1)[C@H](C(F)(F)F)O2
REMARK SMILES IDX 16 1 15 2 14 3 13 4 11 5 12 6 10 8 3 9 4 10 8 11 5 12 7 13
REMARK SMILES IDX 6 14 9 15 88 16 83 17 2 18 1 19 84 20 85 21 86 22 87 23
REMARK SMILES IDX 17 24 18 25 19 27 20 28 21 29 82 30 22 31 81 32 23 33 24 34
REMARK SMILES IDX 25 35 75 36 26 37 80 38 74 39 76 40 27 41 79 42 73 43 72 44
REMARK SMILES IDX 28 46 60 47 40 48 59 49 41 50 44 51 58 52 77 53 42 54 43 55
REMARK SMILES IDX 57 57 78 58 45 59 29 60 30 61 38 62 31 63 37 64 39 65 36 66
REMARK SMILES IDX 32 67 33 68 34 69 35 70 61 71 62 72 70 73 63 74 69 75 71 76
REMARK SMILES IDX 68 77 64 78 65 79 66 80 67 81 46 82 47 83 55 84 48 85 54 86
REMARK SMILES IDX 56 87 53 88 49 89 50 90 51 91 52 92
REMARK H PARENT 13 7 17 26 76 45 44 56
REMARK Flexibility Score: inf
ROOT
ATOM      1  C   UNL     1       8.357  -4.110   4.207  1.00  0.00     0.118 C 
ENDROOT
BRANCH   1   2
ATOM      2  C   UNL     1       7.519  -3.457   3.109  1.00  0.00     0.042 C 
BRANCH   2   3
ATOM      3  C   UNL     1       8.159  -3.537   1.719  1.00  0.00     0.118 C 
BRANCH   3   4
ATOM      4  N   UNL     1       8.045  -4.881   1.173  1.00  0.00    -0.352 N 
ATOM      5  C   UNL     1       7.143  -5.472   0.348  1.00  0.00     0.251 C 
ATOM      6  O   UNL     1       7.252  -6.677   0.137  1.00  0.00    -0.270 OA
ATOM      7  H   UNL     1       8.769  -5.484   1.459  1.00  0.00     0.163 HD
BRANCH   5   8
ATOM      8  C   UNL     1       6.078  -4.715  -0.363  1.00  0.00     0.067 C 
ATOM      9  C   UNL     1       2.753  -1.237  -0.765  1.00  0.00     0.015 A 
ATOM     10  C   UNL     1       2.529  -1.595  -2.096  1.00  0.00     0.015 A 
ATOM     11  C   UNL     1       3.678  -1.941   0.011  1.00  0.00     0.023 A 
ATOM     12  C   UNL     1       3.244  -2.654  -2.657  1.00  0.00     0.048 A 
ATOM     13  C   UNL     1       4.390  -3.005  -0.556  1.00  0.00     0.018 A 
ATOM     14  C   UNL     1       4.172  -3.355  -1.887  1.00  0.00     0.128 A 
ATOM     15  C   UNL     1       5.412  -3.703   0.208  1.00  0.00     0.025 C 
ATOM     16  O   UNL     1       4.877  -4.330  -2.526  1.00  0.00    -0.475 OA
ATOM     17  C   UNL     1       5.653  -5.267  -1.722  1.00  0.00     0.314 C 
BRANCH   9  18
ATOM     18  C   UNL     1       2.035  -0.090  -0.173  1.00  0.00     0.260 C 
ATOM     19  O   UNL     1       1.206   0.551  -0.807  1.00  0.00    -0.298 OA
ENDBRANCH   9  18
BRANCH  17  20
ATOM     20  C   UNL     1       6.786  -5.805  -2.628  1.00  0.00     0.429 C 
ATOM     21  F   UNL     1       7.121  -7.084  -2.354  1.00  0.00    -0.167 F 
ATOM     22  F   UNL     1       6.401  -5.806  -3.934  1.00  0.00    -0.167 F 
ATOM     23  F   UNL     1       7.906  -5.048  -2.556  1.00  0.00    -0.167 F 
ENDBRANCH  17  20
ENDBRANCH   5   8
ENDBRANCH   3   4
ENDBRANCH   2   3
ENDBRANCH   1   2
BRANCH   1  24
ATOM     24  N   UNL     1       9.544  -3.330   4.509  1.00  0.00    -0.352 N 
ATOM     25  C   UNL     1       9.976  -2.802   5.700  1.00  0.00     0.251 C 
ATOM     26  H   UNL     1      10.131  -3.152   3.738  1.00  0.00     0.163 HD
ATOM     27  O   UNL     1      10.870  -1.961   5.677  1.00  0.00    -0.269 OA
BRANCH  25  28
ATOM     28  C   UNL     1       9.383  -3.222   6.992  1.00  0.00     0.039 A 
ATOM     29  C   UNL     1       9.258  -2.267   8.008  1.00  0.00     0.014 A 
ATOM     30  C   UNL     1       9.025  -4.550   7.245  1.00  0.00     0.014 A 
ATOM     31  C   UNL     1       8.754  -2.635   9.258  1.00  0.00     0.010 A 
ATOM     32  C   UNL     1       8.460  -4.902   8.472  1.00  0.00     0.010 A 
ATOM     33  C   UNL     1       8.335  -3.953   9.498  1.00  0.00    -0.014 A 
BRANCH  33  34
ATOM     34  C   UNL     1       7.805  -4.355  10.829  1.00  0.00     0.031 A 
ATOM     35  C   UNL     1       8.564  -5.338  11.681  1.00  0.00     0.074 A 
ATOM     36  C   UNL     1       6.626  -3.862  11.254  1.00  0.00     0.049 A 
ATOM     37  N   UNL     1       8.249  -5.843  12.847  1.00  0.00    -0.248 NA
ATOM     38  C   UNL     1       9.833  -5.841  11.133  1.00  0.00     0.031 C 
ATOM     39  C   UNL     1       5.780  -2.932  10.502  1.00  0.00     0.029 A 
ATOM     40  N   UNL     1       5.931  -4.074  12.418  1.00  0.00    -0.354 N 
ATOM     41  C   UNL     1       9.271  -6.732  13.166  1.00  0.00     0.074 A 
ATOM     42  C   UNL     1      10.182  -6.740  12.040  1.00  0.00     0.031 C 
ATOM     43  C   UNL     1       4.694  -2.636  11.234  1.00  0.00     0.029 A 
ATOM     44  C   UNL     1       4.745  -3.380  12.489  1.00  0.00     0.049 A 
ATOM     45  H   UNL     1       6.252  -4.666  13.136  1.00  0.00     0.167 HD
ATOM     46  C   UNL     1       9.447  -7.456  14.301  1.00  0.00     0.034 A 
ATOM     47  C   UNL     1       3.805  -3.350  13.454  1.00  0.00     0.034 A 
ATOM     48  C   UNL     1       8.536  -7.424  15.421  1.00  0.00     0.049 A 
ATOM     49  C   UNL     1       4.021  -4.159  14.707  1.00  0.00     0.074 A 
ATOM     50  C   UNL     1       8.636  -8.081  16.635  1.00  0.00     0.029 A 
ATOM     51  N   UNL     1       7.352  -6.697  15.463  1.00  0.00    -0.354 N 
ATOM     52  N   UNL     1       5.016  -4.961  15.011  1.00  0.00    -0.248 NA
ATOM     53  C   UNL     1       2.997  -4.044  15.752  1.00  0.00     0.031 C 
ATOM     54  C   UNL     1       7.488  -7.799  17.385  1.00  0.00     0.029 A 
ATOM     55  C   UNL     1       6.704  -6.907  16.671  1.00  0.00     0.049 A 
ATOM     56  H   UNL     1       7.022  -6.117  14.739  1.00  0.00     0.167 HD
ATOM     57  C   UNL     1       4.750  -5.420  16.299  1.00  0.00     0.074 A 
ATOM     58  C   UNL     1       3.513  -4.791  16.716  1.00  0.00     0.031 C 
ATOM     59  C   UNL     1       5.465  -6.281  17.069  1.00  0.00     0.034 A 
BRANCH  46  60
ATOM     60  C   UNL     1      10.657  -8.359  14.367  1.00  0.00     0.023 A 
ATOM     61  C   UNL     1      11.966  -7.846  14.311  1.00  0.00     0.031 A 
ATOM     62  C   UNL     1      10.504  -9.754  14.451  1.00  0.00     0.131 A 
ATOM     63  C   UNL     1      13.061  -8.721  14.252  1.00  0.00     0.055 A 
ATOM     64  C   UNL     1      11.603 -10.617  14.480  1.00  0.00     0.041 A 
ATOM     65  F   UNL     1       9.281 -10.307  14.489  1.00  0.00    -0.206 F 
ATOM     66  C   UNL     1      12.891 -10.102  14.363  1.00  0.00     0.022 A 
BRANCH  63  67
ATOM     67  S   UNL     1      14.698  -8.034  13.876  1.00  0.00     0.124 S 
ATOM     68  O   UNL     1      14.462  -7.408  12.577  1.00  0.00    -0.237 OA
ATOM     69  O   UNL     1      14.923  -7.125  14.993  1.00  0.00    -0.237 OA
ATOM     70  O   UNL     1      15.564  -9.211  13.843  1.00  0.00    -0.744 OA
ENDBRANCH  63  67
ENDBRANCH  46  60
BRANCH  47  71
ATOM     71  C   UNL     1       2.575  -2.525  13.282  1.00  0.00     0.023 A 
ATOM     72  C   UNL     1       2.322  -1.423  14.114  1.00  0.00     0.031 A 
ATOM     73  C   UNL     1       1.616  -2.850  12.307  1.00  0.00     0.131 A 
ATOM     74  C   UNL     1       1.118  -0.713  13.987  1.00  0.00     0.055 A 
ATOM     75  C   UNL     1       0.443  -2.110  12.152  1.00  0.00     0.041 A 
ATOM     76  F   UNL     1       1.814  -3.889  11.479  1.00  0.00    -0.206 F 
ATOM     77  C   UNL     1       0.182  -1.042  13.004  1.00  0.00     0.022 A 
BRANCH  74  78
ATOM     78  S   UNL     1       0.757   0.604  15.181  1.00  0.00     0.124 S 
ATOM     79  O   UNL     1       0.820  -0.117  16.447  1.00  0.00    -0.237 OA
ATOM     80  O   UNL     1       1.840   1.548  14.925  1.00  0.00    -0.237 OA
ATOM     81  O   UNL     1      -0.573   1.064  14.788  1.00  0.00    -0.744 OA
ENDBRANCH  74  78
ENDBRANCH  47  71
BRANCH  59  82
ATOM     82  C   UNL     1       4.939  -6.548  18.458  1.00  0.00     0.023 A 
ATOM     83  C   UNL     1       3.723  -7.221  18.673  1.00  0.00     0.031 A 
ATOM     84  C   UNL     1       5.652  -6.095  19.582  1.00  0.00     0.131 A 
ATOM     85  C   UNL     1       3.224  -7.362  19.977  1.00  0.00     0.055 A 
ATOM     86  C   UNL     1       5.181  -6.293  20.881  1.00  0.00     0.041 A 
ATOM     87  F   UNL     1       6.818  -5.445  19.436  1.00  0.00    -0.206 F 
ATOM     88  C   UNL     1       3.952  -6.916  21.083  1.00  0.00     0.022 A 
BRANCH  85  89
ATOM     89  S   UNL     1       1.556  -8.040  20.201  1.00  0.00     0.124 S 
ATOM     90  O   UNL     1       0.748  -7.132  19.393  1.00  0.00    -0.237 OA
ATOM     91  O   UNL     1       1.700  -9.397  19.683  1.00  0.00    -0.237 OA
ATOM     92  O   UNL     1       1.339  -7.947  21.643  1.00  0.00    -0.744 OA
ENDBRANCH  85  89
ENDBRANCH  59  82
ENDBRANCH  33  34
ENDBRANCH  25  28
ENDBRANCH   1  24
TORSDOF 15
