REMARK SMILES O=C(Cc1cccn(C(F)F)c1=O)NCCCNC(=O)c1ccc(-c2c3nc(c(-c4cc(S(=O)(=O)[O-])ccc4F)c4ccc([nH]4)c(-c4cc(S(=O)(=O)[O-])ccc4F)c4nc(c(-c5cc(S(=O)(=O)[O-])ccc5F)c5ccc2[nH]5)C=C4)C=C3)cc1
REMARK SMILES IDX 16 1 15 2 14 3 1 4 2 5 3 7 4 8 5 9 12 10 6 11 8 12 13 13
REMARK SMILES IDX 7 14 9 15 10 16 11 17 17 18 18 19 19 20 20 22 21 23 22 24
REMARK SMILES IDX 83 25 23 26 82 27 24 28 25 29 26 30 76 31 27 32 81 33 75 34
REMARK SMILES IDX 77 35 28 36 80 37 74 38 73 39 29 41 61 42 41 43 60 44 42 45
REMARK SMILES IDX 45 46 59 47 78 48 43 49 44 50 58 52 79 53 46 54 30 55 31 56
REMARK SMILES IDX 39 57 32 58 38 59 40 60 37 61 33 62 34 63 35 64 36 65 62 66
REMARK SMILES IDX 63 67 71 68 64 69 70 70 72 71 69 72 65 73 66 74 67 75 68 76
REMARK SMILES IDX 47 77 48 78 56 79 49 80 55 81 57 82 54 83 50 84 51 85 52 86
REMARK SMILES IDX 53 87
REMARK H PARENT 14 6 18 21 77 40 45 51
REMARK Flexibility Score: inf
ROOT
ATOM      1  C   UNL     1       2.308   3.388   1.276  1.00  0.00     0.042 C 
ENDROOT
BRANCH   1   2
ATOM      2  C   UNL     1       2.045   2.460   0.102  1.00  0.00     0.117 C 
BRANCH   2   3
ATOM      3  N   UNL     1       2.654   1.153   0.254  1.00  0.00    -0.356 N 
ATOM      4  O   UNL     1       1.111   0.070  -1.062  1.00  0.00    -0.275 OA
ATOM      5  C   UNL     1       2.153   0.052  -0.414  1.00  0.00     0.224 C 
ATOM      6  H   UNL     1       3.436   1.049   0.842  1.00  0.00     0.163 HD
BRANCH   5   7
ATOM      7  C   UNL     1       3.064  -1.165  -0.367  1.00  0.00     0.141 C 
BRANCH   7   8
ATOM      8  C   UNL     1       4.019  -1.186  -1.534  1.00  0.00     0.027 A 
ATOM      9  C   UNL     1       4.498  -0.106  -2.180  1.00  0.00     0.011 A 
ATOM     10  C   UNL     1       4.447  -2.547  -2.012  1.00  0.00     0.258 A 
ATOM     11  C   UNL     1       5.393  -0.225  -3.300  1.00  0.00     0.019 A 
ATOM     12  N   UNL     1       5.286  -2.576  -3.114  1.00  0.00    -0.258 N 
ATOM     13  O   UNL     1       4.059  -3.556  -1.428  1.00  0.00    -0.269 OA
ATOM     14  C   UNL     1       5.751  -1.435  -3.736  1.00  0.00     0.095 A 
BRANCH  12  15
ATOM     15  C   UNL     1       5.680  -3.865  -3.620  1.00  0.00     0.451 C 
ATOM     16  F   UNL     1       5.286  -3.982  -4.918  1.00  0.00    -0.185 F 
ATOM     17  F   UNL     1       7.038  -3.956  -3.632  1.00  0.00    -0.185 F 
ENDBRANCH  12  15
ENDBRANCH   7   8
ENDBRANCH   5   7
ENDBRANCH   2   3
ENDBRANCH   1   2
BRANCH   1  18
ATOM     18  C   UNL     1       3.772   3.738   1.514  1.00  0.00     0.118 C 
BRANCH  18  19
ATOM     19  N   UNL     1       4.375   4.544   0.462  1.00  0.00    -0.352 N 
ATOM     20  C   UNL     1       5.186   5.654   0.581  1.00  0.00     0.251 C 
ATOM     21  H   UNL     1       4.176   4.259  -0.459  1.00  0.00     0.163 HD
ATOM     22  O   UNL     1       5.541   6.258  -0.428  1.00  0.00    -0.269 OA
BRANCH  20  23
ATOM     23  C   UNL     1       5.582   6.139   1.924  1.00  0.00     0.039 A 
ATOM     24  C   UNL     1       6.016   5.248   2.907  1.00  0.00     0.014 A 
ATOM     25  C   UNL     1       5.463   7.500   2.220  1.00  0.00     0.014 A 
ATOM     26  C   UNL     1       6.135   5.681   4.223  1.00  0.00     0.010 A 
ATOM     27  C   UNL     1       5.676   7.950   3.529  1.00  0.00     0.010 A 
ATOM     28  C   UNL     1       5.952   7.035   4.556  1.00  0.00    -0.014 A 
BRANCH  28  29
ATOM     29  C   UNL     1       6.049   7.453   5.983  1.00  0.00     0.031 A 
ATOM     30  C   UNL     1       4.853   8.005   6.715  1.00  0.00     0.074 A 
ATOM     31  C   UNL     1       7.208   7.263   6.644  1.00  0.00     0.049 A 
ATOM     32  N   UNL     1       4.742   8.333   7.977  1.00  0.00    -0.248 NA
ATOM     33  C   UNL     1       3.623   8.221   5.935  1.00  0.00     0.031 C 
ATOM     34  C   UNL     1       8.434   6.742   6.039  1.00  0.00     0.029 A 
ATOM     35  N   UNL     1       7.540   7.450   7.963  1.00  0.00    -0.354 N 
ATOM     36  C   UNL     1       3.443   8.804   8.140  1.00  0.00     0.074 A 
ATOM     37  C   UNL     1       2.814   8.755   6.840  1.00  0.00     0.031 C 
ATOM     38  C   UNL     1       9.361   6.588   6.993  1.00  0.00     0.029 A 
ATOM     39  C   UNL     1       8.825   7.061   8.267  1.00  0.00     0.049 A 
ATOM     40  H   UNL     1       6.920   7.827   8.627  1.00  0.00     0.167 HD
ATOM     41  C   UNL     1       2.828   9.220   9.274  1.00  0.00     0.034 A 
ATOM     42  C   UNL     1       9.501   7.079   9.434  1.00  0.00     0.034 A 
ATOM     43  C   UNL     1       3.458   9.246  10.570  1.00  0.00     0.049 A 
ATOM     44  C   UNL     1       8.798   7.558  10.677  1.00  0.00     0.074 A 
ATOM     45  C   UNL     1       2.904   9.626  11.780  1.00  0.00     0.029 A 
ATOM     46  N   UNL     1       4.769   8.874  10.831  1.00  0.00    -0.354 N 
ATOM     47  N   UNL     1       7.553   7.949  10.820  1.00  0.00    -0.248 NA
ATOM     48  C   UNL     1       9.583   7.598  11.919  1.00  0.00     0.031 C 
ATOM     49  C   UNL     1       3.893   9.538  12.761  1.00  0.00     0.029 A 
ATOM     50  C   UNL     1       5.047   9.038  12.179  1.00  0.00     0.049 A 
ATOM     51  H   UNL     1       5.407   8.543  10.159  1.00  0.00     0.167 HD
ATOM     52  C   UNL     1       7.402   8.266  12.167  1.00  0.00     0.074 A 
ATOM     53  C   UNL     1       8.674   7.991  12.802  1.00  0.00     0.031 C 
ATOM     54  C   UNL     1       6.311   8.749  12.812  1.00  0.00     0.034 A 
BRANCH  41  55
ATOM     55  C   UNL     1       1.389   9.672   9.193  1.00  0.00     0.023 A 
ATOM     56  C   UNL     1       1.048  11.002   9.501  1.00  0.00     0.031 A 
ATOM     57  C   UNL     1       0.349   8.759   8.944  1.00  0.00     0.131 A 
ATOM     58  C   UNL     1      -0.300  11.374   9.585  1.00  0.00     0.055 A 
ATOM     59  C   UNL     1      -0.992   9.144   8.991  1.00  0.00     0.041 A 
ATOM     60  F   UNL     1       0.623   7.478   8.645  1.00  0.00    -0.206 F 
ATOM     61  C   UNL     1      -1.321  10.454   9.325  1.00  0.00     0.022 A 
BRANCH  58  62
ATOM     62  S   UNL     1      -0.784  13.047  10.094  1.00  0.00     0.124 S 
ATOM     63  O   UNL     1      -1.546  13.503   8.933  1.00  0.00    -0.237 OA
ATOM     64  O   UNL     1      -1.573  12.784  11.294  1.00  0.00    -0.237 OA
ATOM     65  O   UNL     1       0.486  13.729  10.311  1.00  0.00    -0.744 OA
ENDBRANCH  58  62
ENDBRANCH  41  55
BRANCH  42  66
ATOM     66  C   UNL     1      10.903   6.569   9.466  1.00  0.00     0.023 A 
ATOM     67  C   UNL     1      11.908   7.171   8.686  1.00  0.00     0.031 A 
ATOM     68  C   UNL     1      11.229   5.403  10.178  1.00  0.00     0.131 A 
ATOM     69  C   UNL     1      13.162   6.559   8.572  1.00  0.00     0.055 A 
ATOM     70  C   UNL     1      12.505   4.839  10.123  1.00  0.00     0.041 A 
ATOM     71  F   UNL     1      10.302   4.785  10.925  1.00  0.00    -0.206 F 
ATOM     72  C   UNL     1      13.473   5.406   9.299  1.00  0.00     0.022 A 
BRANCH  69  73
ATOM     73  S   UNL     1      14.373   7.149   7.356  1.00  0.00     0.124 S 
ATOM     74  O   UNL     1      15.491   7.542   8.208  1.00  0.00    -0.237 OA
ATOM     75  O   UNL     1      14.588   5.953   6.544  1.00  0.00    -0.237 OA
ATOM     76  O   UNL     1      13.678   8.239   6.679  1.00  0.00    -0.744 OA
ENDBRANCH  69  73
ENDBRANCH  42  66
BRANCH  54  77
ATOM     77  C   UNL     1       6.410   9.024  14.294  1.00  0.00     0.023 A 
ATOM     78  C   UNL     1       5.599   8.312  15.199  1.00  0.00     0.031 A 
ATOM     79  C   UNL     1       7.185  10.087  14.789  1.00  0.00     0.131 A 
ATOM     80  C   UNL     1       5.552   8.698  16.544  1.00  0.00     0.055 A 
ATOM     81  C   UNL     1       7.168  10.439  16.139  1.00  0.00     0.041 A 
ATOM     82  F   UNL     1       7.966  10.803  13.963  1.00  0.00    -0.206 F 
ATOM     83  C   UNL     1       6.337   9.753  17.020  1.00  0.00     0.022 A 
BRANCH  80  84
ATOM     84  S   UNL     1       4.404   7.907  17.706  1.00  0.00     0.124 S 
ATOM     85  O   UNL     1       5.320   7.331  18.688  1.00  0.00    -0.237 OA
ATOM     86  O   UNL     1       3.614   9.041  18.179  1.00  0.00    -0.237 OA
ATOM     87  O   UNL     1       3.683   6.939  16.886  1.00  0.00    -0.744 OA
ENDBRANCH  80  84
ENDBRANCH  54  77
ENDBRANCH  28  29
ENDBRANCH  20  23
ENDBRANCH  18  19
ENDBRANCH   1  18
TORSDOF 15
