REMARK SMILES C[C@@H](C(=O)NCCCNC(=O)c1ccc(-c2c3nc(c(-c4cc(S(=O)(=O)[O-])ccc4F)c4ccc([nH]4)c(-c4cc(S(=O)(=O)[O-])ccc4F)c4nc(c(-c5cc(S(=O)(=O)[O-])ccc5F)c5ccc2[nH]5)C=C4)C=C3)cc1)c1ccc(-c2cccc(OC(=O)NCCC3CCCCC3)c2)c(F)c1
REMARK SMILES IDX 3 1 4 2 5 3 2 5 1 6 75 7 76 8 99 9 77 10 97 11 78 12 98 13
REMARK SMILES IDX 79 14 80 15 96 16 81 17 83 18 82 19 84 20 85 21 86 22 87 23
REMARK SMILES IDX 88 25 89 26 90 27 91 28 95 29 92 30 94 31 93 32 6 33 7 34
REMARK SMILES IDX 8 35 9 36 10 37 11 39 12 40 13 41 74 42 14 43 73 44 15 45
REMARK SMILES IDX 16 46 17 47 67 48 18 49 72 50 66 51 68 52 19 53 71 54 65 55
REMARK SMILES IDX 64 56 20 58 52 59 32 60 51 61 33 62 36 63 50 64 69 65 34 66
REMARK SMILES IDX 35 67 49 69 70 70 37 71 21 72 22 73 30 74 23 75 29 76 31 77
REMARK SMILES IDX 28 78 24 79 25 80 26 81 27 82 53 83 54 84 62 85 55 86 61 87
REMARK SMILES IDX 63 88 60 89 56 90 57 91 58 92 59 93 38 94 39 95 47 96 40 97
REMARK SMILES IDX 46 98 48 99 45 100 41 101 42 102 43 103 44 104
REMARK H PARENT 5 4 87 24 9 38 68 57 36 68
REMARK Flexibility Score: inf
ROOT
ATOM      1  C   UNL     1       1.124  -1.232  -2.294  1.00  0.00     0.227 C 
ATOM      2  O   UNL     1       0.508  -2.114  -2.895  1.00  0.00    -0.274 OA
ATOM      3  N   UNL     1       2.474  -1.235  -2.469  1.00  0.00    -0.356 N 
ATOM      4  H   UNL     1       2.810  -1.956  -3.049  1.00  0.00     0.163 HD
ENDROOT
BRANCH   1   5
ATOM      5  C   UNL     1       0.451  -0.142  -1.436  1.00  0.00     0.105 C 
ATOM      6  C   UNL     1       0.813  -0.234   0.049  1.00  0.00     0.023 C 
BRANCH   5   7
ATOM      7  C   UNL     1      -1.073  -0.129  -1.536  1.00  0.00    -0.033 A 
ATOM      8  C   UNL     1      -1.763   1.090  -1.625  1.00  0.00     0.005 A 
ATOM      9  C   UNL     1      -1.820  -1.309  -1.435  1.00  0.00     0.044 A 
ATOM     10  C   UNL     1      -3.164   1.124  -1.606  1.00  0.00     0.012 A 
ATOM     11  C   UNL     1      -3.207  -1.270  -1.445  1.00  0.00     0.131 A 
ATOM     12  C   UNL     1      -3.911  -0.060  -1.503  1.00  0.00     0.018 A 
ATOM     13  F   UNL     1      -3.868  -2.436  -1.357  1.00  0.00    -0.206 F 
BRANCH  12  14
ATOM     14  C   UNL     1      -5.372  -0.036  -1.347  1.00  0.00    -0.012 A 
ATOM     15  C   UNL     1      -6.219   0.634  -2.238  1.00  0.00     0.009 A 
ATOM     16  C   UNL     1      -5.948  -0.702  -0.251  1.00  0.00     0.056 A 
ATOM     17  C   UNL     1      -7.604   0.628  -2.042  1.00  0.00     0.004 A 
ATOM     18  C   UNL     1      -7.322  -0.694  -0.042  1.00  0.00     0.133 A 
ATOM     19  C   UNL     1      -8.157  -0.037  -0.944  1.00  0.00     0.047 A 
BRANCH  18  20
ATOM     20  O   UNL     1      -7.958  -1.328   1.055  1.00  0.00    -0.410 OA
BRANCH  20  21
ATOM     21  C   UNL     1      -7.293  -1.835   2.171  1.00  0.00     0.412 C 
ATOM     22  O   UNL     1      -6.081  -1.859   2.360  1.00  0.00    -0.224 OA
ATOM     23  N   UNL     1      -8.121  -2.317   3.139  1.00  0.00    -0.321 N 
ATOM     24  H   UNL     1      -7.680  -2.663   3.949  1.00  0.00     0.167 HD
BRANCH  23  25
ATOM     25  C   UNL     1      -9.563  -2.384   3.127  1.00  0.00     0.119 C 
BRANCH  25  26
ATOM     26  C   UNL     1     -10.053  -3.832   3.155  1.00  0.00     0.025 C 
BRANCH  26  27
ATOM     27  C   UNL     1      -9.617  -4.635   4.401  1.00  0.00    -0.009 C 
ATOM     28  C   UNL     1     -10.261  -4.095   5.689  1.00  0.00     0.003 C 
ATOM     29  C   UNL     1      -9.954  -6.123   4.207  1.00  0.00     0.003 C 
ATOM     30  C   UNL     1      -9.907  -4.945   6.909  1.00  0.00     0.000 C 
ATOM     31  C   UNL     1      -9.579  -6.954   5.431  1.00  0.00     0.000 C 
ATOM     32  C   UNL     1     -10.243  -6.415   6.692  1.00  0.00     0.000 C 
ENDBRANCH  26  27
ENDBRANCH  25  26
ENDBRANCH  23  25
ENDBRANCH  20  21
ENDBRANCH  18  20
ENDBRANCH  12  14
ENDBRANCH   5   7
ENDBRANCH   1   5
BRANCH   3  33
ATOM     33  C   UNL     1       3.499  -0.357  -1.946  1.00  0.00     0.117 C 
BRANCH  33  34
ATOM     34  C   UNL     1       4.325  -1.037  -0.858  1.00  0.00     0.042 C 
BRANCH  34  35
ATOM     35  C   UNL     1       5.044  -2.305  -1.311  1.00  0.00     0.118 C 
BRANCH  35  36
ATOM     36  N   UNL     1       5.957  -2.062  -2.414  1.00  0.00    -0.352 N 
ATOM     37  C   UNL     1       7.312  -2.256  -2.508  1.00  0.00     0.251 C 
ATOM     38  H   UNL     1       5.536  -1.698  -3.227  1.00  0.00     0.163 HD
ATOM     39  O   UNL     1       7.912  -1.763  -3.460  1.00  0.00    -0.269 OA
BRANCH  37  40
ATOM     40  C   UNL     1       8.049  -3.024  -1.478  1.00  0.00     0.039 A 
ATOM     41  C   UNL     1       9.337  -2.605  -1.136  1.00  0.00     0.014 A 
ATOM     42  C   UNL     1       7.513  -4.171  -0.885  1.00  0.00     0.014 A 
ATOM     43  C   UNL     1      10.062  -3.304  -0.169  1.00  0.00     0.010 A 
ATOM     44  C   UNL     1       8.202  -4.816   0.143  1.00  0.00     0.010 A 
ATOM     45  C   UNL     1       9.489  -4.395   0.507  1.00  0.00    -0.014 A 
BRANCH  45  46
ATOM     46  C   UNL     1      10.237  -5.081   1.595  1.00  0.00     0.031 A 
ATOM     47  C   UNL     1      10.639  -6.525   1.464  1.00  0.00     0.074 A 
ATOM     48  C   UNL     1      10.547  -4.392   2.712  1.00  0.00     0.049 A 
ATOM     49  N   UNL     1      11.326  -7.270   2.293  1.00  0.00    -0.248 NA
ATOM     50  C   UNL     1      10.191  -7.234   0.256  1.00  0.00     0.031 C 
ATOM     51  C   UNL     1      10.166  -3.002   2.976  1.00  0.00     0.029 A 
ATOM     52  N   UNL     1      11.261  -4.755   3.826  1.00  0.00    -0.354 N 
ATOM     53  C   UNL     1      11.396  -8.530   1.708  1.00  0.00     0.074 A 
ATOM     54  C   UNL     1      10.618  -8.466   0.489  1.00  0.00     0.031 C 
ATOM     55  C   UNL     1      10.691  -2.616   4.149  1.00  0.00     0.029 A 
ATOM     56  C   UNL     1      11.404  -3.741   4.745  1.00  0.00     0.049 A 
ATOM     57  H   UNL     1      11.636  -5.656   3.955  1.00  0.00     0.167 HD
ATOM     58  C   UNL     1      12.068  -9.630   2.134  1.00  0.00     0.034 A 
ATOM     59  C   UNL     1      12.035  -3.717   5.936  1.00  0.00     0.034 A 
ATOM     60  C   UNL     1      12.836  -9.676   3.356  1.00  0.00     0.049 A 
ATOM     61  C   UNL     1      12.752  -4.960   6.399  1.00  0.00     0.074 A 
ATOM     62  C   UNL     1      13.592 -10.722   3.860  1.00  0.00     0.029 A 
ATOM     63  N   UNL     1      12.939  -8.639   4.275  1.00  0.00    -0.354 N 
ATOM     64  N   UNL     1      12.861  -6.124   5.801  1.00  0.00    -0.248 NA
ATOM     65  C   UNL     1      13.444  -4.877   7.690  1.00  0.00     0.031 C 
ATOM     66  C   UNL     1      14.082 -10.346   5.115  1.00  0.00     0.029 A 
ATOM     67  C   UNL     1      13.712  -9.033   5.358  1.00  0.00     0.049 A 
ATOM     68  H   UNL     1      12.523  -7.752   4.172  1.00  0.00     0.167 HD
ATOM     69  C   UNL     1      13.659  -6.904   6.634  1.00  0.00     0.074 A 
ATOM     70  C   UNL     1      14.026  -6.065   7.756  1.00  0.00     0.031 C 
ATOM     71  C   UNL     1      14.053  -8.196   6.486  1.00  0.00     0.034 A 
BRANCH  58  72
ATOM     72  C   UNL     1      11.978 -10.876   1.281  1.00  0.00     0.023 A 
ATOM     73  C   UNL     1      12.452 -10.902  -0.043  1.00  0.00     0.031 A 
ATOM     74  C   UNL     1      11.396 -12.050   1.790  1.00  0.00     0.131 A 
ATOM     75  C   UNL     1      12.268 -12.047  -0.834  1.00  0.00     0.055 A 
ATOM     76  C   UNL     1      11.294 -13.215   1.026  1.00  0.00     0.041 A 
ATOM     77  F   UNL     1      10.904 -12.084   3.039  1.00  0.00    -0.206 F 
ATOM     78  C   UNL     1      11.718 -13.213  -0.300  1.00  0.00     0.022 A 
BRANCH  75  79
ATOM     79  S   UNL     1      12.620 -11.939  -2.610  1.00  0.00     0.124 S 
ATOM     80  O   UNL     1      11.737 -10.850  -3.020  1.00  0.00    -0.237 OA
ATOM     81  O   UNL     1      14.049 -11.647  -2.631  1.00  0.00    -0.237 OA
ATOM     82  O   UNL     1      12.245 -13.259  -3.114  1.00  0.00    -0.744 OA
ENDBRANCH  75  79
ENDBRANCH  58  72
BRANCH  59  83
ATOM     83  C   UNL     1      12.017  -2.485   6.778  1.00  0.00     0.023 A 
ATOM     84  C   UNL     1      13.203  -1.806   7.099  1.00  0.00     0.031 A 
ATOM     85  C   UNL     1      10.812  -1.994   7.314  1.00  0.00     0.131 A 
ATOM     86  C   UNL     1      13.166  -0.708   7.973  1.00  0.00     0.055 A 
ATOM     87  C   UNL     1      10.774  -0.864   8.131  1.00  0.00     0.041 A 
ATOM     88  F   UNL     1       9.648  -2.603   7.037  1.00  0.00    -0.206 F 
ATOM     89  C   UNL     1      11.958  -0.223   8.478  1.00  0.00     0.022 A 
BRANCH  86  90
ATOM     90  S   UNL     1      14.735   0.021   8.521  1.00  0.00     0.124 S 
ATOM     91  O   UNL     1      15.401  -1.129   9.123  1.00  0.00    -0.237 OA
ATOM     92  O   UNL     1      15.299   0.505   7.265  1.00  0.00    -0.237 OA
ATOM     93  O   UNL     1      14.317   1.062   9.457  1.00  0.00    -0.744 OA
ENDBRANCH  86  90
ENDBRANCH  59  83
BRANCH  71  94
ATOM     94  C   UNL     1      14.955  -8.760   7.560  1.00  0.00     0.023 A 
ATOM     95  C   UNL     1      14.527  -8.886   8.894  1.00  0.00     0.031 A 
ATOM     96  C   UNL     1      16.276  -9.135   7.255  1.00  0.00     0.131 A 
ATOM     97  C   UNL     1      15.433  -9.290   9.885  1.00  0.00     0.055 A 
ATOM     98  C   UNL     1      17.149  -9.613   8.233  1.00  0.00     0.041 A 
ATOM     99  F   UNL     1      16.744  -9.034   6.001  1.00  0.00    -0.206 F 
ATOM    100  C   UNL     1      16.736  -9.673   9.560  1.00  0.00     0.022 A 
BRANCH  97 101
ATOM    101  S   UNL     1      14.928  -9.170  11.624  1.00  0.00     0.124 S 
ATOM    102  O   UNL     1      14.556  -7.763  11.734  1.00  0.00    -0.237 OA
ATOM    103  O   UNL     1      13.830 -10.128  11.695  1.00  0.00    -0.237 OA
ATOM    104  O   UNL     1      16.133  -9.552  12.358  1.00  0.00    -0.744 OA
ENDBRANCH  97 101
ENDBRANCH  71  94
ENDBRANCH  45  46
ENDBRANCH  37  40
ENDBRANCH  35  36
ENDBRANCH  34  35
ENDBRANCH  33  34
ENDBRANCH   3  33
TORSDOF 20
