REMARK SMILES O=C(CCCc1nc2cc(Cl)ccc2[nH]1)NCCCNC(=O)c1ccc(-c2c3nc(c(-c4cc(S(=O)(=O)[O-])ccc4F)c4ccc([nH]4)c(-c4cc(S(=O)(=O)[O-])ccc4F)c4nc(c(-c5cc(S(=O)(=O)[O-])ccc5F)c5ccc2[nH]5)C=C4)C=C3)cc1
REMARK SMILES IDX 18 1 17 2 16 3 1 4 2 5 3 7 4 8 5 9 6 10 7 11 15 12 8 13
REMARK SMILES IDX 14 14 9 16 13 17 10 18 12 19 11 20 19 21 20 22 21 23 22 25
REMARK SMILES IDX 23 26 24 27 85 28 25 29 84 30 26 31 27 32 28 33 78 34 29 35
REMARK SMILES IDX 83 36 77 37 79 38 30 39 82 40 76 41 75 42 31 44 63 45 43 46
REMARK SMILES IDX 62 47 44 48 47 49 61 50 80 51 45 52 46 53 60 55 81 56 48 57
REMARK SMILES IDX 32 58 33 59 41 60 34 61 40 62 42 63 39 64 35 65 36 66 37 67
REMARK SMILES IDX 38 68 64 69 65 70 73 71 66 72 72 73 74 74 71 75 67 76 68 77
REMARK SMILES IDX 69 78 70 79 49 80 50 81 58 82 51 83 57 84 59 85 56 86 52 87
REMARK SMILES IDX 53 88 54 89 55 90
REMARK H PARENT 16 6 15 15 20 24 79 43 47 54
REMARK Flexibility Score: inf
ROOT
ATOM      1  C   UNL     1       2.435   0.951   3.518  1.00  0.00     0.042 C 
ENDROOT
BRANCH   1   2
ATOM      2  C   UNL     1       2.097   1.375   2.095  1.00  0.00     0.117 C 
BRANCH   2   3
ATOM      3  N   UNL     1       2.650   0.488   1.093  1.00  0.00    -0.356 N 
ATOM      4  O   UNL     1       1.008   0.878  -0.468  1.00  0.00    -0.275 OA
ATOM      5  C   UNL     1       2.064   0.343  -0.143  1.00  0.00     0.220 C 
ATOM      6  H   UNL     1       3.465  -0.023   1.300  1.00  0.00     0.163 HD
BRANCH   5   7
ATOM      7  C   UNL     1       2.864  -0.506  -1.103  1.00  0.00     0.100 C 
BRANCH   7   8
ATOM      8  C   UNL     1       3.943   0.306  -1.830  1.00  0.00     0.018 C 
BRANCH   8   9
ATOM      9  C   UNL     1       5.113   0.822  -0.978  1.00  0.00     0.076 C 
BRANCH   9  10
ATOM     10  C   UNL     1       5.889  -0.259  -0.300  1.00  0.00     0.107 A 
ATOM     11  N   UNL     1       5.679  -1.556  -0.391  1.00  0.00    -0.233 NA
ATOM     12  N   UNL     1       6.941   0.002   0.548  1.00  0.00    -0.342 N 
ATOM     13  C   UNL     1       6.594  -2.149   0.438  1.00  0.00     0.090 A 
ATOM     14  C   UNL     1       7.397  -1.193   1.048  1.00  0.00     0.066 A 
ATOM     15  H   UNL     1       7.305   0.893   0.759  1.00  0.00     0.168 HD
ATOM     16  C   UNL     1       6.784  -3.506   0.722  1.00  0.00     0.051 A 
ATOM     17  C   UNL     1       8.411  -1.515   1.953  1.00  0.00     0.030 A 
ATOM     18  C   UNL     1       7.791  -3.851   1.626  1.00  0.00     0.043 A 
ATOM     19  C   UNL     1       8.589  -2.877   2.232  1.00  0.00     0.023 A 
ATOM     20  Cl  UNL     1       8.047  -5.514   1.999  1.00  0.00    -0.084 Cl
ENDBRANCH   9  10
ENDBRANCH   8   9
ENDBRANCH   7   8
ENDBRANCH   5   7
ENDBRANCH   2   3
ENDBRANCH   1   2
BRANCH   1  21
ATOM     21  C   UNL     1       3.919   1.002   3.871  1.00  0.00     0.118 C 
BRANCH  21  22
ATOM     22  N   UNL     1       4.474   2.345   3.844  1.00  0.00    -0.352 N 
ATOM     23  C   UNL     1       5.226   3.010   4.782  1.00  0.00     0.251 C 
ATOM     24  H   UNL     1       4.282   2.858   3.026  1.00  0.00     0.163 HD
ATOM     25  O   UNL     1       5.487   4.200   4.595  1.00  0.00    -0.269 OA
BRANCH  23  26
ATOM     26  C   UNL     1       5.697   2.334   6.015  1.00  0.00     0.039 A 
ATOM     27  C   UNL     1       5.668   3.047   7.218  1.00  0.00     0.014 A 
ATOM     28  C   UNL     1       6.189   1.026   6.001  1.00  0.00     0.014 A 
ATOM     29  C   UNL     1       6.074   2.431   8.406  1.00  0.00     0.010 A 
ATOM     30  C   UNL     1       6.519   0.388   7.199  1.00  0.00     0.010 A 
ATOM     31  C   UNL     1       6.470   1.083   8.416  1.00  0.00    -0.014 A 
BRANCH  31  32
ATOM     32  C   UNL     1       6.824   0.407   9.695  1.00  0.00     0.031 A 
ATOM     33  C   UNL     1       8.218  -0.116   9.930  1.00  0.00     0.074 A 
ATOM     34  C   UNL     1       5.878   0.240  10.642  1.00  0.00     0.049 A 
ATOM     35  N   UNL     1       8.711  -0.715  10.985  1.00  0.00    -0.248 NA
ATOM     36  C   UNL     1       9.175   0.030   8.825  1.00  0.00     0.031 C 
ATOM     37  C   UNL     1       4.478   0.650  10.514  1.00  0.00     0.029 A 
ATOM     38  N   UNL     1       5.947  -0.310  11.898  1.00  0.00    -0.354 N 
ATOM     39  C   UNL     1      10.031  -1.020  10.671  1.00  0.00     0.074 A 
ATOM     40  C   UNL     1      10.238  -0.602   9.300  1.00  0.00     0.031 C 
ATOM     41  C   UNL     1       3.833   0.376  11.659  1.00  0.00     0.029 A 
ATOM     42  C   UNL     1       4.757  -0.266  12.588  1.00  0.00     0.049 A 
ATOM     43  H   UNL     1       6.771  -0.700  12.270  1.00  0.00     0.167 HD
ATOM     44  C   UNL     1      10.990  -1.571  11.458  1.00  0.00     0.034 A 
ATOM     45  C   UNL     1       4.443  -0.692  13.828  1.00  0.00     0.034 A 
ATOM     46  C   UNL     1      10.771  -1.982  12.825  1.00  0.00     0.049 A 
ATOM     47  C   UNL     1       5.523  -1.310  14.680  1.00  0.00     0.074 A 
ATOM     48  C   UNL     1      11.683  -2.506  13.726  1.00  0.00     0.029 A 
ATOM     49  N   UNL     1       9.551  -1.925  13.490  1.00  0.00    -0.354 N 
ATOM     50  N   UNL     1       6.784  -1.530  14.388  1.00  0.00    -0.248 NA
ATOM     51  C   UNL     1       5.138  -1.716  16.037  1.00  0.00     0.031 C 
ATOM     52  C   UNL     1      11.003  -2.832  14.905  1.00  0.00     0.029 A 
ATOM     53  C   UNL     1       9.682  -2.432  14.776  1.00  0.00     0.049 A 
ATOM     54  H   UNL     1       8.716  -1.576  13.105  1.00  0.00     0.167 HD
ATOM     55  C   UNL     1       7.350  -2.072  15.540  1.00  0.00     0.074 A 
ATOM     56  C   UNL     1       6.298  -2.118  16.535  1.00  0.00     0.031 C 
ATOM     57  C   UNL     1       8.623  -2.493  15.757  1.00  0.00     0.034 A 
BRANCH  44  58
ATOM     58  C   UNL     1      12.357  -1.781  10.845  1.00  0.00     0.023 A 
ATOM     59  C   UNL     1      13.132  -0.703  10.379  1.00  0.00     0.031 A 
ATOM     60  C   UNL     1      12.887  -3.076  10.704  1.00  0.00     0.131 A 
ATOM     61  C   UNL     1      14.349  -0.944   9.724  1.00  0.00     0.055 A 
ATOM     62  C   UNL     1      14.141  -3.302  10.131  1.00  0.00     0.041 A 
ATOM     63  F   UNL     1      12.189  -4.149  11.108  1.00  0.00    -0.206 F 
ATOM     64  C   UNL     1      14.873  -2.234   9.622  1.00  0.00     0.022 A 
BRANCH  61  65
ATOM     65  S   UNL     1      15.161   0.437   8.872  1.00  0.00     0.124 S 
ATOM     66  O   UNL     1      14.122   0.854   7.932  1.00  0.00    -0.237 OA
ATOM     67  O   UNL     1      15.443   1.361   9.964  1.00  0.00    -0.237 OA
ATOM     68  O   UNL     1      16.334  -0.182   8.257  1.00  0.00    -0.744 OA
ENDBRANCH  61  65
ENDBRANCH  44  58
BRANCH  45  69
ATOM     69  C   UNL     1       3.052  -0.550  14.348  1.00  0.00     0.023 A 
ATOM     70  C   UNL     1       2.773   0.262  15.460  1.00  0.00     0.031 A 
ATOM     71  C   UNL     1       1.987  -1.263  13.771  1.00  0.00     0.131 A 
ATOM     72  C   UNL     1       1.474   0.300  15.991  1.00  0.00     0.055 A 
ATOM     73  C   UNL     1       0.685  -1.177  14.267  1.00  0.00     0.041 A 
ATOM     74  F   UNL     1       2.196  -2.050  12.703  1.00  0.00    -0.206 F 
ATOM     75  C   UNL     1       0.426  -0.403  15.394  1.00  0.00     0.022 A 
BRANCH  72  76
ATOM     76  S   UNL     1       1.194   1.210  17.535  1.00  0.00     0.124 S 
ATOM     77  O   UNL     1       2.126   0.551  18.442  1.00  0.00    -0.237 OA
ATOM     78  O   UNL     1       1.532   2.575  17.147  1.00  0.00    -0.237 OA
ATOM     79  O   UNL     1      -0.222   0.977  17.814  1.00  0.00    -0.744 OA
ENDBRANCH  72  76
ENDBRANCH  45  69
BRANCH  57  80
ATOM     80  C   UNL     1       8.947  -3.000  17.144  1.00  0.00     0.023 A 
ATOM     81  C   UNL     1       8.329  -4.144  17.678  1.00  0.00     0.031 A 
ATOM     82  C   UNL     1       9.853  -2.299  17.962  1.00  0.00     0.131 A 
ATOM     83  C   UNL     1       8.557  -4.504  19.015  1.00  0.00     0.055 A 
ATOM     84  C   UNL     1      10.134  -2.707  19.267  1.00  0.00     0.041 A 
ATOM     85  F   UNL     1      10.473  -1.198  17.509  1.00  0.00    -0.206 F 
ATOM     86  C   UNL     1       9.469  -3.803  19.808  1.00  0.00     0.022 A 
BRANCH  83  87
ATOM     87  S   UNL     1       7.540  -5.817  19.747  1.00  0.00     0.124 S 
ATOM     88  O   UNL     1       6.188  -5.327  19.500  1.00  0.00    -0.237 OA
ATOM     89  O   UNL     1       7.944  -6.989  18.977  1.00  0.00    -0.237 OA
ATOM     90  O   UNL     1       7.950  -5.826  21.150  1.00  0.00    -0.744 OA
ENDBRANCH  83  87
ENDBRANCH  57  80
ENDBRANCH  31  32
ENDBRANCH  23  26
ENDBRANCH  21  22
ENDBRANCH   1  21
TORSDOF 16
