REMARK SMILES NC(=O)CC[C@@H](C(=O)NCCCNC(=O)c1ccc(-c2c3nc(c(-c4cc(S(=O)(=O)[O-])ccc4F)c4ccc([nH]4)c(-c4cc(S(=O)(=O)[O-])ccc4F)c4nc(c(-c5cc(S(=O)(=O)[O-])ccc5F)c5ccc2[nH]5)C=C4)C=C3)cc1)N1C(=O)/C(=C\c2ccc(-c3ccc(Br)cc3)o2)SC1=S
REMARK SMILES IDX 11 1 10 2 9 3 7 4 8 5 6 7 5 8 4 9 2 10 1 11 3 14 79 15 80 16
REMARK SMILES IDX 97 17 81 18 82 19 96 20 98 21 83 22 84 23 85 24 95 25 86 26
REMARK SMILES IDX 87 27 88 28 89 29 94 30 90 31 93 32 91 33 92 34 12 35 13 36
REMARK SMILES IDX 14 37 15 39 16 40 17 41 78 42 18 43 77 44 19 45 20 46 21 47
REMARK SMILES IDX 71 48 22 49 76 50 70 51 72 52 23 53 75 54 69 55 68 56 24 58
REMARK SMILES IDX 56 59 36 60 55 61 37 62 40 63 54 64 73 65 38 66 39 67 53 69
REMARK SMILES IDX 74 70 41 71 25 72 26 73 34 74 27 75 33 76 35 77 32 78 28 79
REMARK SMILES IDX 29 80 30 81 31 82 57 83 58 84 66 85 59 86 65 87 67 88 64 89
REMARK SMILES IDX 60 90 61 91 62 92 63 93 42 94 43 95 51 96 44 97 50 98 52 99
REMARK SMILES IDX 49 100 45 101 46 102 47 103 48 104
REMARK H PARENT 9 6 1 12 1 13 13 38 72 57 40 68
REMARK Flexibility Score: inf
ROOT
ATOM      1  C   UNL     1       1.584   1.166  -3.367  1.00  0.00     0.042 C 
ENDROOT
BRANCH   1   2
ATOM      2  C   UNL     1       2.353   0.453  -2.260  1.00  0.00     0.117 C 
BRANCH   2   3
ATOM      3  N   UNL     1       3.551   1.181  -1.903  1.00  0.00    -0.354 N 
ATOM      4  C   UNL     1       3.881   1.893  -0.792  1.00  0.00     0.243 C 
ATOM      5  O   UNL     1       5.035   2.335  -0.769  1.00  0.00    -0.273 OA
ATOM      6  H   UNL     1       4.256   1.158  -2.590  1.00  0.00     0.163 HD
BRANCH   4   7
ATOM      7  C   UNL     1       2.921   2.031   0.427  1.00  0.00     0.181 C 
BRANCH   7   8
ATOM      8  C   UNL     1       1.657   2.914   0.285  1.00  0.00     0.045 C 
BRANCH   8   9
ATOM      9  C   UNL     1       0.360   2.429  -0.351  1.00  0.00     0.102 C 
BRANCH   9  10
ATOM     10  C   UNL     1      -0.481   1.352   0.300  1.00  0.00     0.217 C 
ATOM     11  N   UNL     1       0.099   0.193   0.694  1.00  0.00    -0.370 N 
ATOM     12  H   UNL     1      -0.444  -0.510   1.117  1.00  0.00     0.159 HD
ATOM     13  H   UNL     1       1.064   0.054   0.556  1.00  0.00     0.159 HD
ATOM     14  O   UNL     1      -1.702   1.455   0.392  1.00  0.00    -0.275 OA
ENDBRANCH   9  10
ENDBRANCH   8   9
ENDBRANCH   7   8
BRANCH   7  15
ATOM     15  N   UNL     1       3.784   2.573   1.529  1.00  0.00    -0.280 N 
ATOM     16  C   UNL     1       4.048   3.933   1.565  1.00  0.00     0.267 C 
ATOM     17  C   UNL     1       4.507   1.812   2.423  1.00  0.00     0.149 C 
ATOM     18  O   UNL     1       3.751   4.746   0.700  1.00  0.00    -0.268 OA
ATOM     19  C   UNL     1       4.784   4.288   2.804  1.00  0.00     0.084 C 
ATOM     20  S   UNL     1       5.463   2.861   3.480  1.00  0.00    -0.054 SA
ATOM     21  S   UNL     1       4.509   0.151   2.593  1.00  0.00    -0.052 S 
ATOM     22  C   UNL     1       4.827   5.502   3.370  1.00  0.00     0.068 C 
BRANCH  22  23
ATOM     23  C   UNL     1       4.012   6.568   2.898  1.00  0.00     0.128 A 
ATOM     24  C   UNL     1       2.624   6.665   2.933  1.00  0.00     0.051 A 
ATOM     25  O   UNL     1       4.498   7.708   2.298  1.00  0.00    -0.457 OA
ATOM     26  C   UNL     1       2.258   7.873   2.305  1.00  0.00     0.051 A 
ATOM     27  C   UNL     1       3.434   8.471   1.918  1.00  0.00     0.134 A 
BRANCH  27  28
ATOM     28  C   UNL     1       3.720   9.702   1.204  1.00  0.00     0.017 A 
ATOM     29  C   UNL     1       3.110  10.900   1.603  1.00  0.00     0.013 A 
ATOM     30  C   UNL     1       4.533   9.698   0.063  1.00  0.00     0.013 A 
ATOM     31  C   UNL     1       3.303  12.074   0.871  1.00  0.00     0.016 A 
ATOM     32  C   UNL     1       4.717  10.869  -0.679  1.00  0.00     0.016 A 
ATOM     33  C   UNL     1       4.100  12.051  -0.271  1.00  0.00     0.018 A 
ATOM     34  Br  UNL     1       4.331  13.632  -1.281  1.00  0.00    -0.051 Br
ENDBRANCH  27  28
ENDBRANCH  22  23
ENDBRANCH   7  15
ENDBRANCH   4   7
ENDBRANCH   2   3
ENDBRANCH   1   2
BRANCH   1  35
ATOM     35  C   UNL     1       2.110   0.863  -4.761  1.00  0.00     0.118 C 
BRANCH  35  36
ATOM     36  N   UNL     1       1.758  -0.483  -5.191  1.00  0.00    -0.352 N 
ATOM     37  C   UNL     1       0.898  -0.901  -6.181  1.00  0.00     0.251 C 
ATOM     38  H   UNL     1       2.204  -1.208  -4.696  1.00  0.00     0.163 HD
ATOM     39  O   UNL     1       0.568  -2.083  -6.222  1.00  0.00    -0.269 OA
BRANCH  37  40
ATOM     40  C   UNL     1       0.354   0.064  -7.164  1.00  0.00     0.039 A 
ATOM     41  C   UNL     1      -0.986  -0.041  -7.548  1.00  0.00     0.014 A 
ATOM     42  C   UNL     1       1.154   1.070  -7.710  1.00  0.00     0.014 A 
ATOM     43  C   UNL     1      -1.543   0.919  -8.397  1.00  0.00     0.010 A 
ATOM     44  C   UNL     1       0.577   2.077  -8.479  1.00  0.00     0.010 A 
ATOM     45  C   UNL     1      -0.782   2.021  -8.821  1.00  0.00    -0.014 A 
BRANCH  45  46
ATOM     46  C   UNL     1      -1.391   3.142  -9.584  1.00  0.00     0.031 A 
ATOM     47  C   UNL     1      -0.896   3.479 -10.964  1.00  0.00     0.074 A 
ATOM     48  C   UNL     1      -2.333   3.908  -8.995  1.00  0.00     0.049 A 
ATOM     49  N   UNL     1      -1.219   4.485 -11.736  1.00  0.00    -0.248 NA
ATOM     50  C   UNL     1       0.114   2.579 -11.542  1.00  0.00     0.031 C 
ATOM     51  C   UNL     1      -2.869   3.699  -7.648  1.00  0.00     0.029 A 
ATOM     52  N   UNL     1      -2.997   5.024  -9.443  1.00  0.00    -0.354 N 
ATOM     53  C   UNL     1      -0.447   4.347 -12.884  1.00  0.00     0.074 A 
ATOM     54  C   UNL     1       0.401   3.191 -12.681  1.00  0.00     0.031 C 
ATOM     55  C   UNL     1      -3.793   4.637  -7.390  1.00  0.00     0.029 A 
ATOM     56  C   UNL     1      -3.872   5.554  -8.522  1.00  0.00     0.049 A 
ATOM     57  H   UNL     1      -2.860   5.408 -10.339  1.00  0.00     0.167 HD
ATOM     58  C   UNL     1      -0.461   5.102 -14.011  1.00  0.00     0.034 A 
ATOM     59  C   UNL     1      -4.631   6.668  -8.569  1.00  0.00     0.034 A 
ATOM     60  C   UNL     1      -1.318   6.248 -14.196  1.00  0.00     0.049 A 
ATOM     61  C   UNL     1      -4.577   7.528  -9.807  1.00  0.00     0.074 A 
ATOM     62  C   UNL     1      -1.456   7.046 -15.318  1.00  0.00     0.029 A 
ATOM     63  N   UNL     1      -2.170   6.770 -13.231  1.00  0.00    -0.354 N 
ATOM     64  N   UNL     1      -3.884   7.347 -10.908  1.00  0.00    -0.248 NA
ATOM     65  C   UNL     1      -5.405   8.741  -9.809  1.00  0.00     0.031 C 
ATOM     66  C   UNL     1      -2.326   8.095 -15.005  1.00  0.00     0.029 A 
ATOM     67  C   UNL     1      -2.798   7.908 -13.716  1.00  0.00     0.049 A 
ATOM     68  H   UNL     1      -2.309   6.388 -12.334  1.00  0.00     0.167 HD
ATOM     69  C   UNL     1      -4.210   8.415 -11.740  1.00  0.00     0.074 A 
ATOM     70  C   UNL     1      -5.180   9.218 -11.024  1.00  0.00     0.031 C 
ATOM     71  C   UNL     1      -3.748   8.709 -12.982  1.00  0.00     0.034 A 
BRANCH  58  72
ATOM     72  C   UNL     1       0.495   4.727 -15.118  1.00  0.00     0.023 A 
ATOM     73  C   UNL     1       0.406   3.493 -15.784  1.00  0.00     0.031 A 
ATOM     74  C   UNL     1       1.512   5.615 -15.512  1.00  0.00     0.131 A 
ATOM     75  C   UNL     1       1.356   3.152 -16.760  1.00  0.00     0.055 A 
ATOM     76  C   UNL     1       2.404   5.304 -16.540  1.00  0.00     0.041 A 
ATOM     77  F   UNL     1       1.662   6.799 -14.898  1.00  0.00    -0.206 F 
ATOM     78  C   UNL     1       2.338   4.061 -17.162  1.00  0.00     0.022 A 
BRANCH  75  79
ATOM     79  S   UNL     1       1.371   1.455 -17.397  1.00  0.00     0.124 S 
ATOM     80  O   UNL     1       1.567   0.682 -16.173  1.00  0.00    -0.237 OA
ATOM     81  O   UNL     1       0.059   1.340 -18.022  1.00  0.00    -0.237 OA
ATOM     82  O   UNL     1       2.506   1.445 -18.319  1.00  0.00    -0.744 OA
ENDBRANCH  75  79
ENDBRANCH  58  72
BRANCH  59  83
ATOM     83  C   UNL     1      -5.477   7.063  -7.405  1.00  0.00     0.023 A 
ATOM     84  C   UNL     1      -6.872   7.157  -7.526  1.00  0.00     0.031 A 
ATOM     85  C   UNL     1      -4.901   7.406  -6.168  1.00  0.00     0.131 A 
ATOM     86  C   UNL     1      -7.638   7.635  -6.451  1.00  0.00     0.055 A 
ATOM     87  C   UNL     1      -5.673   7.819  -5.081  1.00  0.00     0.041 A 
ATOM     88  F   UNL     1      -3.571   7.338  -5.996  1.00  0.00    -0.206 F 
ATOM     89  C   UNL     1      -7.050   7.950  -5.224  1.00  0.00     0.022 A 
BRANCH  86  90
ATOM     90  S   UNL     1      -9.406   7.942  -6.715  1.00  0.00     0.124 S 
ATOM     91  O   UNL     1      -9.380   8.880  -7.832  1.00  0.00    -0.237 OA
ATOM     92  O   UNL     1      -9.905   6.604  -7.014  1.00  0.00    -0.237 OA
ATOM     93  O   UNL     1      -9.849   8.501  -5.440  1.00  0.00    -0.744 OA
ENDBRANCH  86  90
ENDBRANCH  59  83
BRANCH  71  94
ATOM     94  C   UNL     1      -4.306   9.944 -13.647  1.00  0.00     0.023 A 
ATOM     95  C   UNL     1      -4.036  11.231 -13.149  1.00  0.00     0.031 A 
ATOM     96  C   UNL     1      -5.115   9.832 -14.791  1.00  0.00     0.131 A 
ATOM     97  C   UNL     1      -4.611  12.352 -13.765  1.00  0.00     0.055 A 
ATOM     98  C   UNL     1      -5.631  10.956 -15.438  1.00  0.00     0.041 A 
ATOM     99  F   UNL     1      -5.409   8.628 -15.307  1.00  0.00    -0.206 F 
ATOM    100  C   UNL     1      -5.389  12.225 -14.918  1.00  0.00     0.022 A 
BRANCH  97 101
ATOM    101  S   UNL     1      -4.396  13.977 -12.989  1.00  0.00     0.124 S 
ATOM    102  O   UNL     1      -5.013  13.772 -11.682  1.00  0.00    -0.237 OA
ATOM    103  O   UNL     1      -2.945  14.136 -12.991  1.00  0.00    -0.237 OA
ATOM    104  O   UNL     1      -5.118  14.882 -13.881  1.00  0.00    -0.744 OA
ENDBRANCH  97 101
ENDBRANCH  71  94
ENDBRANCH  45  46
ENDBRANCH  37  40
ENDBRANCH  35  36
ENDBRANCH   1  35
TORSDOF 19
