REMARK SMILES CC(C)C[C@H](NC(=O)[C@@H](NC(=O)N1CC(NCCCNC(=O)c2ccc(-c3c4nc(c(-c5cc(S(=O)(=O)[O-])ccc5F)c5ccc([nH]5)c(-c5cc(S(=O)(=O)[O-])ccc5F)c5nc(c(-c6cc(S(=O)(=O)[O-])ccc6F)c6ccc3[nH]6)C=C5)C=C4)cc2)=[NH+]c2ccccc21)C(C)C)C(=O)[O-]
REMARK SMILES IDX 17 1 16 2 13 3 14 4 92 5 15 6 87 7 91 8 86 9 88 10 90 11
REMARK SMILES IDX 89 14 11 15 10 16 12 18 9 19 7 20 6 21 8 23 5 24 4 25 2 26
REMARK SMILES IDX 1 27 3 28 96 29 97 30 98 31 93 32 94 33 95 34 18 35 19 36
REMARK SMILES IDX 20 37 21 38 22 40 23 41 24 42 85 43 25 44 84 45 26 46 27 47
REMARK SMILES IDX 28 48 78 49 29 50 83 51 77 52 79 53 30 54 82 55 76 56 75 57
REMARK SMILES IDX 31 59 63 60 43 61 62 62 44 63 47 64 61 65 80 66 45 67 46 68
REMARK SMILES IDX 60 70 81 71 48 72 32 73 33 74 41 75 34 76 40 77 42 78 39 79
REMARK SMILES IDX 35 80 36 81 37 82 38 83 64 84 65 85 73 86 66 87 72 88 74 89
REMARK SMILES IDX 71 90 67 91 68 92 69 93 70 94 49 95 50 96 58 97 51 98 57 99
REMARK SMILES IDX 59 100 56 101 52 102 53 103 54 104 55 105
REMARK H PARENT 16 12 86 13 10 17 6 22 20 39 79 58 47 69
REMARK Flexibility Score: inf
ROOT
ATOM      1  C   UNL     1      -2.211   3.596   3.044  1.00  0.00     0.235 C 
ENDROOT
BRANCH   1   2
ATOM      2  N   UNL     1      -0.951   2.895   2.919  1.00  0.00    -0.277 N 
ATOM      3  N   UNL     1       1.110   3.829   0.052  1.00  0.00    -0.278 N 
ATOM      4  C   UNL     1       0.076   4.220   1.006  1.00  0.00     0.255 C 
ATOM      5  C   UNL     1       2.403   3.785   0.638  1.00  0.00     0.093 A 
ATOM      6  C   UNL     1       0.169   3.291   2.225  1.00  0.00     0.268 C 
ATOM      7  C   UNL     1       2.478   3.254   1.941  1.00  0.00     0.148 A 
ATOM      8  C   UNL     1       3.560   4.169  -0.047  1.00  0.00     0.031 A 
ATOM      9  N   UNL     1       1.325   2.855   2.657  1.00  0.00    -0.241 N 
ATOM     10  C   UNL     1       3.735   3.005   2.491  1.00  0.00     0.054 A 
ATOM     11  C   UNL     1       4.808   3.948   0.535  1.00  0.00     0.002 A 
ATOM     12  H   UNL     1      -0.887   2.031   3.388  1.00  0.00     0.304 HD
ATOM     13  H   UNL     1       1.389   2.273   3.448  1.00  0.00     0.312 HD
ATOM     14  C   UNL     1       4.896   3.340   1.788  1.00  0.00     0.005 A 
BRANCH   3  15
ATOM     15  C   UNL     1       0.910   3.962  -1.285  1.00  0.00     0.323 C 
ATOM     16  N   UNL     1       0.907   2.853  -2.079  1.00  0.00    -0.326 N 
ATOM     17  H   UNL     1       0.768   3.098  -3.022  1.00  0.00     0.166 HD
ATOM     18  O   UNL     1       0.615   5.042  -1.799  1.00  0.00    -0.248 OA
BRANCH  16  19
ATOM     19  C   UNL     1       1.055   1.377  -1.929  1.00  0.00     0.175 C 
BRANCH  19  20
ATOM     20  C   UNL     1      -0.135   0.403  -2.196  1.00  0.00     0.243 C 
ATOM     21  N   UNL     1      -1.414   0.515  -1.786  1.00  0.00    -0.346 N 
ATOM     22  H   UNL     1      -1.930  -0.302  -1.973  1.00  0.00     0.164 HD
ATOM     23  O   UNL     1       0.116  -0.677  -2.758  1.00  0.00    -0.273 OA
BRANCH  21  24
ATOM     24  C   UNL     1      -2.236   1.543  -1.133  1.00  0.00     0.128 C 
BRANCH  24  25
ATOM     25  C   UNL     1      -2.186   2.869  -1.881  1.00  0.00     0.034 C 
BRANCH  25  26
ATOM     26  C   UNL     1      -3.317   3.908  -1.885  1.00  0.00    -0.015 C 
ATOM     27  C   UNL     1      -3.964   4.177  -0.533  1.00  0.00     0.007 C 
ATOM     28  C   UNL     1      -2.722   5.227  -2.411  1.00  0.00     0.007 C 
ENDBRANCH  25  26
ENDBRANCH  24  25
BRANCH  24  29
ATOM     29  C   UNL     1      -3.634   0.927  -0.954  1.00  0.00     0.064 C 
ATOM     30  O   UNL     1      -3.971   0.216  -0.032  1.00  0.00    -0.548 OA
ATOM     31  O   UNL     1      -4.439   1.087  -2.026  1.00  0.00    -0.548 OA
ENDBRANCH  24  29
ENDBRANCH  21  24
ENDBRANCH  19  20
BRANCH  19  32
ATOM     32  C   UNL     1       1.998   0.890  -0.801  1.00  0.00     0.015 C 
ATOM     33  C   UNL     1       1.854  -0.566  -0.347  1.00  0.00     0.010 C 
ATOM     34  C   UNL     1       3.458   1.106  -1.230  1.00  0.00     0.010 C 
ENDBRANCH  19  32
ENDBRANCH  16  19
ENDBRANCH   3  15
ENDBRANCH   1   2
BRANCH   1  35
ATOM     35  C   UNL     1      -3.379   2.757   2.538  1.00  0.00     0.067 C 
BRANCH  35  36
ATOM     36  C   UNL     1      -3.739   1.538   3.381  1.00  0.00     0.120 C 
BRANCH  36  37
ATOM     37  N   UNL     1      -4.392   1.901   4.629  1.00  0.00    -0.352 N 
ATOM     38  C   UNL     1      -5.645   1.602   5.110  1.00  0.00     0.251 C 
ATOM     39  H   UNL     1      -3.844   2.454   5.232  1.00  0.00     0.163 HD
ATOM     40  O   UNL     1      -6.039   2.204   6.108  1.00  0.00    -0.269 OA
BRANCH  38  41
ATOM     41  C   UNL     1      -6.532   0.603   4.457  1.00  0.00     0.039 A 
ATOM     42  C   UNL     1      -7.915   0.823   4.486  1.00  0.00     0.014 A 
ATOM     43  C   UNL     1      -6.045  -0.575   3.886  1.00  0.00     0.014 A 
ATOM     44  C   UNL     1      -8.793  -0.101   3.906  1.00  0.00     0.010 A 
ATOM     45  C   UNL     1      -6.915  -1.460   3.241  1.00  0.00     0.010 A 
ATOM     46  C   UNL     1      -8.301  -1.239   3.250  1.00  0.00    -0.014 A 
BRANCH  46  47
ATOM     47  C   UNL     1      -9.220  -2.202   2.579  1.00  0.00     0.031 A 
ATOM     48  C   UNL     1      -9.319  -3.627   3.056  1.00  0.00     0.074 A 
ATOM     49  C   UNL     1      -9.922  -1.813   1.497  1.00  0.00     0.049 A 
ATOM     50  N   UNL     1     -10.009  -4.624   2.559  1.00  0.00    -0.248 NA
ATOM     51  C   UNL     1      -8.511  -3.982   4.229  1.00  0.00     0.031 C 
ATOM     52  C   UNL     1      -9.886  -0.474   0.906  1.00  0.00     0.029 A 
ATOM     53  N   UNL     1     -10.792  -2.507   0.691  1.00  0.00    -0.354 N 
ATOM     54  C   UNL     1      -9.705  -5.729   3.348  1.00  0.00     0.074 A 
ATOM     55  C   UNL     1      -8.721  -5.287   4.315  1.00  0.00     0.031 C 
ATOM     56  C   UNL     1     -10.702  -0.441  -0.159  1.00  0.00     0.029 A 
ATOM     57  C   UNL     1     -11.285  -1.765  -0.357  1.00  0.00     0.049 A 
ATOM     58  H   UNL     1     -11.038  -3.447   0.848  1.00  0.00     0.167 HD
ATOM     59  C   UNL     1     -10.211  -6.989   3.286  1.00  0.00     0.034 A 
ATOM     60  C   UNL     1     -12.098  -2.110  -1.376  1.00  0.00     0.034 A 
ATOM     61  C   UNL     1     -11.193  -7.413   2.315  1.00  0.00     0.049 A 
ATOM     62  C   UNL     1     -12.634  -3.516  -1.446  1.00  0.00     0.074 A 
ATOM     63  C   UNL     1     -11.827  -8.640   2.207  1.00  0.00     0.029 A 
ATOM     64  N   UNL     1     -11.672  -6.632   1.269  1.00  0.00    -0.354 N 
ATOM     65  N   UNL     1     -12.390  -4.533  -0.652  1.00  0.00    -0.248 NA
ATOM     66  C   UNL     1     -13.565  -3.815  -2.541  1.00  0.00     0.031 C 
ATOM     67  C   UNL     1     -12.621  -8.627   1.054  1.00  0.00     0.029 A 
ATOM     68  C   UNL     1     -12.556  -7.364   0.487  1.00  0.00     0.049 A 
ATOM     69  H   UNL     1     -11.420  -5.694   1.105  1.00  0.00     0.167 HD
ATOM     70  C   UNL     1     -13.155  -5.589  -1.141  1.00  0.00     0.074 A 
ATOM     71  C   UNL     1     -13.879  -5.079  -2.288  1.00  0.00     0.031 C 
ATOM     72  C   UNL     1     -13.255  -6.861  -0.675  1.00  0.00     0.034 A 
BRANCH  59  73
ATOM     73  C   UNL     1      -9.671  -8.001   4.274  1.00  0.00     0.023 A 
ATOM     74  C   UNL     1      -9.790  -7.817   5.663  1.00  0.00     0.031 A 
ATOM     75  C   UNL     1      -8.979  -9.140   3.824  1.00  0.00     0.131 A 
ATOM     76  C   UNL     1      -9.137  -8.691   6.547  1.00  0.00     0.055 A 
ATOM     77  C   UNL     1      -8.415 -10.060   4.710  1.00  0.00     0.041 A 
ATOM     78  F   UNL     1      -8.816  -9.368   2.511  1.00  0.00    -0.206 F 
ATOM     79  C   UNL     1      -8.471  -9.826   6.081  1.00  0.00     0.022 A 
BRANCH  76  80
ATOM     80  S   UNL     1      -9.006  -8.214   8.293  1.00  0.00     0.124 S 
ATOM     81  O   UNL     1      -8.391  -6.892   8.193  1.00  0.00    -0.237 OA
ATOM     82  O   UNL     1     -10.396  -8.241   8.731  1.00  0.00    -0.237 OA
ATOM     83  O   UNL     1      -8.148  -9.248   8.867  1.00  0.00    -0.744 OA
ENDBRANCH  76  80
ENDBRANCH  59  73
BRANCH  60  84
ATOM     84  C   UNL     1     -12.431  -1.106  -2.426  1.00  0.00     0.023 A 
ATOM     85  C   UNL     1     -13.731  -0.596  -2.563  1.00  0.00     0.031 A 
ATOM     86  C   UNL     1     -11.438  -0.635  -3.305  1.00  0.00     0.131 A 
ATOM     87  C   UNL     1     -14.010   0.339  -3.572  1.00  0.00     0.055 A 
ATOM     88  C   UNL     1     -11.712   0.327  -4.279  1.00  0.00     0.041 A 
ATOM     89  F   UNL     1     -10.176  -1.083  -3.208  1.00  0.00    -0.206 F 
ATOM     90  C   UNL     1     -13.007   0.814  -4.421  1.00  0.00     0.022 A 
BRANCH  87  91
ATOM     91  S   UNL     1     -15.721   0.902  -3.790  1.00  0.00     0.124 S 
ATOM     92  O   UNL     1     -16.405  -0.344  -4.117  1.00  0.00    -0.237 OA
ATOM     93  O   UNL     1     -16.020   1.476  -2.482  1.00  0.00    -0.237 OA
ATOM     94  O   UNL     1     -15.624   1.868  -4.882  1.00  0.00    -0.744 OA
ENDBRANCH  87  91
ENDBRANCH  60  84
BRANCH  72  95
ATOM     95  C   UNL     1     -14.210  -7.785  -1.394  1.00  0.00     0.023 A 
ATOM     96  C   UNL     1     -13.989  -8.197  -2.720  1.00  0.00     0.031 A 
ATOM     97  C   UNL     1     -15.366  -8.254  -0.743  1.00  0.00     0.131 A 
ATOM     98  C   UNL     1     -14.934  -9.008  -3.369  1.00  0.00     0.055 A 
ATOM     99  C   UNL     1     -16.270  -9.110  -1.373  1.00  0.00     0.041 A 
ATOM    100  F   UNL     1     -15.633  -7.889   0.521  1.00  0.00    -0.206 F 
ATOM    101  C   UNL     1     -16.064  -9.482  -2.698  1.00  0.00     0.022 A 
BRANCH  98 102
ATOM    102  S   UNL     1     -14.719  -9.358  -5.136  1.00  0.00     0.124 S 
ATOM    103  O   UNL     1     -14.697  -8.016  -5.710  1.00  0.00    -0.237 OA
ATOM    104  O   UNL     1     -13.453 -10.083  -5.160  1.00  0.00    -0.237 OA
ATOM    105  O   UNL     1     -15.896 -10.157  -5.474  1.00  0.00    -0.744 OA
ENDBRANCH  98 102
ENDBRANCH  72  95
ENDBRANCH  46  47
ENDBRANCH  38  41
ENDBRANCH  36  37
ENDBRANCH  35  36
ENDBRANCH   1  35
TORSDOF 20
