REMARK SMILES Cc1cc2c(c(C)c1Cl)C=C(C(=O)NCCCNC(=O)c1ccc(-c3c4nc(c(-c5cc(S(=O)(=O)[O-])ccc5F)c5ccc([nH]5)c(-c5cc(S(=O)(=O)[O-])ccc5F)c5nc(c(-c6cc(S(=O)(=O)[O-])ccc6F)c6ccc3[nH]6)C=C5)C=C4)cc1)[C@@H](C(F)(F)F)O2
REMARK SMILES IDX 17 1 16 2 15 3 14 4 12 5 13 6 11 8 1 9 2 10 3 11 8 12 4 13
REMARK SMILES IDX 6 14 9 15 5 16 89 17 7 18 10 19 84 20 85 21 86 22 87 23
REMARK SMILES IDX 88 24 18 25 19 26 20 28 21 29 22 30 83 31 23 32 82 33 24 34
REMARK SMILES IDX 25 35 26 36 76 37 27 38 81 39 75 40 77 41 28 42 80 43 74 44
REMARK SMILES IDX 73 45 29 47 61 48 41 49 60 50 42 51 45 52 59 53 78 54 43 55
REMARK SMILES IDX 44 56 58 58 79 59 46 60 30 61 31 62 39 63 32 64 38 65 40 66
REMARK SMILES IDX 37 67 33 68 34 69 35 70 36 71 62 72 63 73 71 74 64 75 70 76
REMARK SMILES IDX 72 77 69 78 65 79 66 80 67 81 68 82 47 83 48 84 56 85 49 86
REMARK SMILES IDX 55 87 57 88 54 89 50 90 51 91 52 92 53 93
REMARK H PARENT 14 7 18 27 77 46 45 57
REMARK Flexibility Score: inf
ROOT
ATOM      1  C   UNL     1      -0.426  -5.900   9.436  1.00  0.00     0.118 C 
ENDROOT
BRANCH   1   2
ATOM      2  C   UNL     1      -0.178  -5.548   7.975  1.00  0.00     0.042 C 
BRANCH   2   3
ATOM      3  C   UNL     1      -1.387  -4.886   7.330  1.00  0.00     0.118 C 
BRANCH   3   4
ATOM      4  N   UNL     1      -1.516  -3.489   7.721  1.00  0.00    -0.352 N 
ATOM      5  C   UNL     1      -1.363  -2.277   7.141  1.00  0.00     0.251 C 
ATOM      6  O   UNL     1      -1.601  -1.310   7.872  1.00  0.00    -0.270 OA
ATOM      7  H   UNL     1      -1.790  -3.405   8.662  1.00  0.00     0.163 HD
BRANCH   5   8
ATOM      8  C   UNL     1      -0.949  -2.048   5.726  1.00  0.00     0.067 C 
ATOM      9  C   UNL     1       0.972   0.159  -0.082  1.00  0.00     0.046 C 
ATOM     10  C   UNL     1       0.469   0.003   1.328  1.00  0.00    -0.028 A 
ATOM     11  C   UNL     1       0.445  -1.287   1.865  1.00  0.00     0.052 A 
ATOM     12  C   UNL     1       0.092   1.086   2.147  1.00  0.00     0.047 A 
ATOM     13  C   UNL     1       0.020  -1.502   3.170  1.00  0.00     0.128 A 
ATOM     14  C   UNL     1      -0.348   0.880   3.480  1.00  0.00    -0.021 A 
ATOM     15  Cl  UNL     1       0.199   2.695   1.495  1.00  0.00    -0.084 Cl
ATOM     16  C   UNL     1      -0.374  -0.441   3.990  1.00  0.00     0.022 A 
ATOM     17  O   UNL     1       0.065  -2.800   3.589  1.00  0.00    -0.475 OA
ATOM     18  C   UNL     1      -0.773   2.026   4.368  1.00  0.00     0.047 C 
ATOM     19  C   UNL     1      -0.754  -0.764   5.370  1.00  0.00     0.026 C 
ATOM     20  C   UNL     1      -0.776  -3.142   4.718  1.00  0.00     0.314 C 
BRANCH  20  21
ATOM     21  C   UNL     1      -2.120  -3.693   4.204  1.00  0.00     0.429 C 
ATOM     22  F   UNL     1      -1.943  -4.897   3.606  1.00  0.00    -0.167 F 
ATOM     23  F   UNL     1      -3.020  -3.887   5.197  1.00  0.00    -0.167 F 
ATOM     24  F   UNL     1      -2.708  -2.876   3.301  1.00  0.00    -0.167 F 
ENDBRANCH  20  21
ENDBRANCH   5   8
ENDBRANCH   3   4
ENDBRANCH   2   3
ENDBRANCH   1   2
BRANCH   1  25
ATOM     25  N   UNL     1      -1.490  -6.889   9.580  1.00  0.00    -0.352 N 
ATOM     26  C   UNL     1      -1.417  -8.229   9.868  1.00  0.00     0.251 C 
ATOM     27  H   UNL     1      -2.402  -6.542   9.450  1.00  0.00     0.163 HD
ATOM     28  O   UNL     1      -2.389  -8.949   9.647  1.00  0.00    -0.269 OA
BRANCH  26  29
ATOM     29  C   UNL     1      -0.177  -8.795  10.433  1.00  0.00     0.039 A 
ATOM     30  C   UNL     1       0.269 -10.046  10.002  1.00  0.00     0.014 A 
ATOM     31  C   UNL     1       0.536  -8.091  11.406  1.00  0.00     0.014 A 
ATOM     32  C   UNL     1       1.469 -10.556  10.500  1.00  0.00     0.010 A 
ATOM     33  C   UNL     1       1.776  -8.551  11.824  1.00  0.00     0.010 A 
ATOM     34  C   UNL     1       2.250  -9.795  11.386  1.00  0.00    -0.014 A 
BRANCH  34  35
ATOM     35  C   UNL     1       3.550 -10.292  11.896  1.00  0.00     0.031 A 
ATOM     36  C   UNL     1       3.727 -10.536  13.370  1.00  0.00     0.074 A 
ATOM     37  C   UNL     1       4.576 -10.475  11.042  1.00  0.00     0.049 A 
ATOM     38  N   UNL     1       4.802 -10.892  14.023  1.00  0.00    -0.248 NA
ATOM     39  C   UNL     1       2.549 -10.320  14.226  1.00  0.00     0.031 C 
ATOM     40  C   UNL     1       4.525 -10.240   9.596  1.00  0.00     0.029 A 
ATOM     41  N   UNL     1       5.859 -10.905  11.261  1.00  0.00    -0.354 N 
ATOM     42  C   UNL     1       4.430 -10.938  15.362  1.00  0.00     0.074 A 
ATOM     43  C   UNL     1       3.054 -10.504  15.437  1.00  0.00     0.031 C 
ATOM     44  C   UNL     1       5.707 -10.576   9.055  1.00  0.00     0.029 A 
ATOM     45  C   UNL     1       6.614 -11.001  10.115  1.00  0.00     0.049 A 
ATOM     46  H   UNL     1       6.208 -11.124  12.155  1.00  0.00     0.167 HD
ATOM     47  C   UNL     1       5.162 -11.341  16.428  1.00  0.00     0.034 A 
ATOM     48  C   UNL     1       7.893 -11.388   9.941  1.00  0.00     0.034 A 
ATOM     49  C   UNL     1       6.523 -11.798  16.334  1.00  0.00     0.049 A 
ATOM     50  C   UNL     1       8.697 -11.796  11.146  1.00  0.00     0.074 A 
ATOM     51  C   UNL     1       7.344 -12.265  17.345  1.00  0.00     0.029 A 
ATOM     52  N   UNL     1       7.261 -11.853  15.160  1.00  0.00    -0.354 N 
ATOM     53  N   UNL     1       8.328 -11.842  12.405  1.00  0.00    -0.248 NA
ATOM     54  C   UNL     1      10.089 -12.203  10.911  1.00  0.00     0.031 C 
ATOM     55  C   UNL     1       8.596 -12.548  16.792  1.00  0.00     0.029 A 
ATOM     56  C   UNL     1       8.536 -12.322  15.426  1.00  0.00     0.049 A 
ATOM     57  H   UNL     1       6.928 -11.596  14.270  1.00  0.00     0.167 HD
ATOM     58  C   UNL     1       9.435 -12.303  13.109  1.00  0.00     0.074 A 
ATOM     59  C   UNL     1      10.484 -12.527  12.135  1.00  0.00     0.031 C 
ATOM     60  C   UNL     1       9.570 -12.527  14.440  1.00  0.00     0.034 A 
BRANCH  47  61
ATOM     61  C   UNL     1       4.502 -11.305  17.781  1.00  0.00     0.023 A 
ATOM     62  C   UNL     1       3.427 -12.155  18.093  1.00  0.00     0.031 A 
ATOM     63  C   UNL     1       4.957 -10.421  18.775  1.00  0.00     0.131 A 
ATOM     64  C   UNL     1       2.810 -12.070  19.349  1.00  0.00     0.055 A 
ATOM     65  C   UNL     1       4.382 -10.389  20.047  1.00  0.00     0.041 A 
ATOM     66  F   UNL     1       5.966  -9.573  18.524  1.00  0.00    -0.206 F 
ATOM     67  C   UNL     1       3.297 -11.212  20.337  1.00  0.00     0.022 A 
BRANCH  64  68
ATOM     68  S   UNL     1       1.306 -13.039  19.644  1.00  0.00     0.124 S 
ATOM     69  O   UNL     1       0.378 -12.435  18.691  1.00  0.00    -0.237 OA
ATOM     70  O   UNL     1       1.739 -14.398  19.340  1.00  0.00    -0.237 OA
ATOM     71  O   UNL     1       1.003 -12.780  21.050  1.00  0.00    -0.744 OA
ENDBRANCH  64  68
ENDBRANCH  47  61
BRANCH  48  72
ATOM     72  C   UNL     1       8.484 -11.417   8.575  1.00  0.00     0.023 A 
ATOM     73  C   UNL     1       8.809 -12.636   7.959  1.00  0.00     0.031 A 
ATOM     74  C   UNL     1       8.724 -10.230   7.861  1.00  0.00     0.131 A 
ATOM     75  C   UNL     1       9.377 -12.641   6.676  1.00  0.00     0.055 A 
ATOM     76  C   UNL     1       9.254 -10.242   6.569  1.00  0.00     0.041 A 
ATOM     77  F   UNL     1       8.420  -9.040   8.402  1.00  0.00    -0.206 F 
ATOM     78  C   UNL     1       9.589 -11.453   5.972  1.00  0.00     0.022 A 
BRANCH  75  79
ATOM     79  S   UNL     1       9.863 -14.228   5.945  1.00  0.00     0.124 S 
ATOM     80  O   UNL     1      10.901 -14.673   6.867  1.00  0.00    -0.237 OA
ATOM     81  O   UNL     1       8.610 -14.975   5.978  1.00  0.00    -0.237 OA
ATOM     82  O   UNL     1      10.329 -13.858   4.610  1.00  0.00    -0.744 OA
ENDBRANCH  75  79
ENDBRANCH  48  72
BRANCH  60  83
ATOM     83  C   UNL     1      10.890 -13.061  14.924  1.00  0.00     0.023 A 
ATOM     84  C   UNL     1      12.037 -12.253  14.958  1.00  0.00     0.031 A 
ATOM     85  C   UNL     1      10.983 -14.376  15.414  1.00  0.00     0.131 A 
ATOM     86  C   UNL     1      13.240 -12.776  15.453  1.00  0.00     0.055 A 
ATOM     87  C   UNL     1      12.170 -14.875  15.948  1.00  0.00     0.041 A 
ATOM     88  F   UNL     1       9.911 -15.185  15.405  1.00  0.00    -0.206 F 
ATOM     89  C   UNL     1      13.309 -14.075  15.966  1.00  0.00     0.022 A 
BRANCH  86  90
ATOM     90  S   UNL     1      14.728 -11.742  15.395  1.00  0.00     0.124 S 
ATOM     91  O   UNL     1      14.927 -11.581  13.958  1.00  0.00    -0.237 OA
ATOM     92  O   UNL     1      14.310 -10.545  16.118  1.00  0.00    -0.237 OA
ATOM     93  O   UNL     1      15.737 -12.553  16.073  1.00  0.00    -0.744 OA
ENDBRANCH  86  90
ENDBRANCH  60  83
ENDBRANCH  34  35
ENDBRANCH  26  29
ENDBRANCH   1  25
TORSDOF 14
