REMARK SMILES C[C@H](C[C@@H]1CCCC[NH2+]1)Nc1cc(C(=O)NCCCNC(=O)c2ccc(-c3c4nc(c(-c5cc(S(=O)(=O)[O-])ccc5F)c5ccc([nH]5)c(-c5cc(S(=O)(=O)[O-])ccc5F)c5nc(c(-c6cc(S(=O)(=O)[O-])ccc6F)c6ccc3[nH]6)C=C5)C=C4)cc2)ccc1F
REMARK SMILES IDX 17 1 16 2 14 3 15 4 13 6 11 7 12 8 88 9 87 10 89 11 86 12
REMARK SMILES IDX 10 13 2 15 1 16 3 17 4 18 5 19 9 20 6 21 8 22 7 25 18 26
REMARK SMILES IDX 19 27 20 28 21 29 22 31 23 32 24 33 85 34 25 35 84 36 26 37
REMARK SMILES IDX 27 38 28 39 78 40 29 41 83 42 77 43 79 44 30 45 82 46 76 47
REMARK SMILES IDX 75 48 31 50 63 51 43 52 62 53 44 54 47 55 61 56 80 57 45 58
REMARK SMILES IDX 46 59 60 61 81 62 48 63 32 64 33 65 41 66 34 67 40 68 42 69
REMARK SMILES IDX 39 70 35 71 36 72 37 73 38 74 64 75 65 76 73 77 66 78 72 79
REMARK SMILES IDX 74 80 71 81 67 82 68 83 69 84 70 85 49 86 50 87 58 88 51 89
REMARK SMILES IDX 57 90 59 91 56 92 52 93 53 94 54 95 55 96
REMARK H PARENT 16 5 10 14 9 23 9 24 20 30 79 49 47 60
REMARK Flexibility Score: inf
ROOT
ATOM      1  C   UNL     1      -4.766   1.225   6.075  1.00  0.00     0.118 C 
ENDROOT
BRANCH   1   2
ATOM      2  N   UNL     1      -5.107   0.557   4.835  1.00  0.00    -0.352 N 
ATOM      3  C   UNL     1      -4.625   0.689   3.560  1.00  0.00     0.251 C 
ATOM      4  O   UNL     1      -5.115  -0.032   2.690  1.00  0.00    -0.269 OA
ATOM      5  H   UNL     1      -5.818  -0.118   4.926  1.00  0.00     0.163 HD
BRANCH   3   6
ATOM      6  C   UNL     1      -3.494   1.591   3.205  1.00  0.00     0.042 A 
ATOM      7  C   UNL     1      -1.553   1.883   1.725  1.00  0.00     0.071 A 
ATOM      8  C   UNL     1      -2.709   1.190   2.114  1.00  0.00     0.042 A 
ATOM      9  C   UNL     1      -1.177   2.984   2.501  1.00  0.00     0.146 A 
ATOM     10  C   UNL     1      -1.990   3.455   3.529  1.00  0.00     0.042 A 
ATOM     11  F   UNL     1      -0.042   3.654   2.257  1.00  0.00    -0.205 F 
ATOM     12  C   UNL     1      -3.161   2.775   3.862  1.00  0.00     0.017 A 
BRANCH   7  13
ATOM     13  N   UNL     1      -0.851   1.364   0.659  1.00  0.00    -0.380 N 
ATOM     14  H   UNL     1      -1.354   0.778   0.048  1.00  0.00     0.160 HD
BRANCH  13  15
ATOM     15  C   UNL     1       0.554   1.585   0.333  1.00  0.00     0.082 C 
ATOM     16  C   UNL     1       0.673   2.852  -0.515  1.00  0.00     0.031 C 
BRANCH  15  17
ATOM     17  C   UNL     1       1.059   0.237  -0.280  1.00  0.00     0.089 C 
BRANCH  17  18
ATOM     18  C   UNL     1       1.951   0.237  -1.532  1.00  0.00     0.184 C 
ATOM     19  C   UNL     1       3.362   0.753  -1.211  1.00  0.00     0.065 C 
ATOM     20  N   UNL     1       1.261   0.933  -2.617  1.00  0.00    -0.344 N 
ATOM     21  C   UNL     1       4.176   1.011  -2.472  1.00  0.00     0.012 C 
ATOM     22  C   UNL     1       2.067   1.196  -3.797  1.00  0.00     0.260 C 
ATOM     23  H   UNL     1       0.927   1.827  -2.257  1.00  0.00     0.346 HD
ATOM     24  H   UNL     1       0.512   0.310  -2.920  1.00  0.00     0.346 HD
ATOM     25  C   UNL     1       3.380   1.879  -3.437  1.00  0.00     0.062 C 
ENDBRANCH  17  18
ENDBRANCH  15  17
ENDBRANCH  13  15
ENDBRANCH   7  13
ENDBRANCH   3   6
ENDBRANCH   1   2
BRANCH   1  26
ATOM     26  C   UNL     1      -5.710   2.399   6.330  1.00  0.00     0.042 C 
BRANCH  26  27
ATOM     27  C   UNL     1      -7.094   1.956   6.792  1.00  0.00     0.118 C 
BRANCH  27  28
ATOM     28  N   UNL     1      -7.054   1.407   8.139  1.00  0.00    -0.352 N 
ATOM     29  C   UNL     1      -7.683   1.839   9.280  1.00  0.00     0.251 C 
ATOM     30  H   UNL     1      -6.492   0.606   8.248  1.00  0.00     0.163 HD
ATOM     31  O   UNL     1      -7.307   1.410  10.366  1.00  0.00    -0.269 OA
BRANCH  29  32
ATOM     32  C   UNL     1      -8.794   2.813   9.204  1.00  0.00     0.039 A 
ATOM     33  C   UNL     1      -8.883   3.809  10.180  1.00  0.00     0.014 A 
ATOM     34  C   UNL     1      -9.771   2.720   8.208  1.00  0.00     0.014 A 
ATOM     35  C   UNL     1      -9.924   4.739  10.129  1.00  0.00     0.010 A 
ATOM     36  C   UNL     1     -10.768   3.689   8.118  1.00  0.00     0.010 A 
ATOM     37  C   UNL     1     -10.859   4.703   9.082  1.00  0.00    -0.014 A 
BRANCH  37  38
ATOM     38  C   UNL     1     -11.945   5.712   8.984  1.00  0.00     0.031 A 
ATOM     39  C   UNL     1     -13.382   5.287   9.117  1.00  0.00     0.074 A 
ATOM     40  C   UNL     1     -11.637   6.999   8.732  1.00  0.00     0.049 A 
ATOM     41  N   UNL     1     -14.469   6.000   8.971  1.00  0.00    -0.248 NA
ATOM     42  C   UNL     1     -13.630   3.872   9.433  1.00  0.00     0.031 C 
ATOM     43  C   UNL     1     -10.280   7.525   8.567  1.00  0.00     0.029 A 
ATOM     44  N   UNL     1     -12.440   8.099   8.572  1.00  0.00    -0.354 N 
ATOM     45  C   UNL     1     -15.528   5.120   9.165  1.00  0.00     0.074 A 
ATOM     46  C   UNL     1     -14.953   3.811   9.391  1.00  0.00     0.031 C 
ATOM     47  C   UNL     1     -10.344   8.851   8.363  1.00  0.00     0.029 A 
ATOM     48  C   UNL     1     -11.744   9.262   8.334  1.00  0.00     0.049 A 
ATOM     49  H   UNL     1     -13.422   8.061   8.622  1.00  0.00     0.167 HD
ATOM     50  C   UNL     1     -16.857   5.385   9.174  1.00  0.00     0.034 A 
ATOM     51  C   UNL     1     -12.183  10.515   8.107  1.00  0.00     0.034 A 
ATOM     52  C   UNL     1     -17.416   6.697   8.972  1.00  0.00     0.049 A 
ATOM     53  C   UNL     1     -13.664  10.779   8.093  1.00  0.00     0.074 A 
ATOM     54  C   UNL     1     -18.747   7.078   9.001  1.00  0.00     0.029 A 
ATOM     55  N   UNL     1     -16.679   7.843   8.709  1.00  0.00    -0.354 N 
ATOM     56  N   UNL     1     -14.652   9.933   8.270  1.00  0.00    -0.248 NA
ATOM     57  C   UNL     1     -14.091  12.163   7.847  1.00  0.00     0.031 C 
ATOM     58  C   UNL     1     -18.817   8.442   8.702  1.00  0.00     0.029 A 
ATOM     59  C   UNL     1     -17.527   8.927   8.552  1.00  0.00     0.049 A 
ATOM     60  H   UNL     1     -15.697   7.880   8.644  1.00  0.00     0.167 HD
ATOM     61  C   UNL     1     -15.817  10.686   8.177  1.00  0.00     0.074 A 
ATOM     62  C   UNL     1     -15.411  12.055   7.931  1.00  0.00     0.031 C 
ATOM     63  C   UNL     1     -17.106  10.282   8.293  1.00  0.00     0.034 A 
BRANCH  50  64
ATOM     64  C   UNL     1     -17.799   4.230   9.399  1.00  0.00     0.023 A 
ATOM     65  C   UNL     1     -17.865   3.567  10.636  1.00  0.00     0.031 A 
ATOM     66  C   UNL     1     -18.656   3.802   8.370  1.00  0.00     0.131 A 
ATOM     67  C   UNL     1     -18.737   2.481  10.800  1.00  0.00     0.055 A 
ATOM     68  C   UNL     1     -19.567   2.761   8.560  1.00  0.00     0.041 A 
ATOM     69  F   UNL     1     -18.622   4.389   7.164  1.00  0.00    -0.206 F 
ATOM     70  C   UNL     1     -19.606   2.089   9.778  1.00  0.00     0.022 A 
BRANCH  67  71
ATOM     71  S   UNL     1     -18.666   1.533  12.344  1.00  0.00     0.124 S 
ATOM     72  O   UNL     1     -17.328   0.950  12.268  1.00  0.00    -0.237 OA
ATOM     73  O   UNL     1     -18.857   2.563  13.358  1.00  0.00    -0.237 OA
ATOM     74  O   UNL     1     -19.764   0.579  12.211  1.00  0.00    -0.744 OA
ENDBRANCH  67  71
ENDBRANCH  50  64
BRANCH  51  75
ATOM     75  C   UNL     1     -11.205  11.612   7.871  1.00  0.00     0.023 A 
ATOM     76  C   UNL     1     -11.012  12.621   8.827  1.00  0.00     0.031 A 
ATOM     77  C   UNL     1     -10.441  11.658   6.692  1.00  0.00     0.131 A 
ATOM     78  C   UNL     1     -10.088  13.648   8.579  1.00  0.00     0.055 A 
ATOM     79  C   UNL     1      -9.497  12.661   6.466  1.00  0.00     0.041 A 
ATOM     80  F   UNL     1     -10.582  10.707   5.755  1.00  0.00    -0.206 F 
ATOM     81  C   UNL     1      -9.320  13.667   7.411  1.00  0.00     0.022 A 
BRANCH  78  82
ATOM     82  S   UNL     1      -9.914  14.977   9.800  1.00  0.00     0.124 S 
ATOM     83  O   UNL     1     -11.229  15.604   9.745  1.00  0.00    -0.237 OA
ATOM     84  O   UNL     1      -9.607  14.234  11.018  1.00  0.00    -0.237 OA
ATOM     85  O   UNL     1      -8.813  15.781   9.273  1.00  0.00    -0.744 OA
ENDBRANCH  78  82
ENDBRANCH  51  75
BRANCH  63  86
ATOM     86  C   UNL     1     -18.175  11.335   8.186  1.00  0.00     0.023 A 
ATOM     87  C   UNL     1     -18.503  11.927   6.955  1.00  0.00     0.031 A 
ATOM     88  C   UNL     1     -18.907  11.713   9.325  1.00  0.00     0.131 A 
ATOM     89  C   UNL     1     -19.523  12.887   6.896  1.00  0.00     0.055 A 
ATOM     90  C   UNL     1     -19.951  12.636   9.252  1.00  0.00     0.041 A 
ATOM     91  F   UNL     1     -18.632  11.172  10.523  1.00  0.00    -0.206 F 
ATOM     92  C   UNL     1     -20.261  13.232   8.033  1.00  0.00     0.022 A 
BRANCH  89  93
ATOM     93  S   UNL     1     -19.862  13.704   5.313  1.00  0.00     0.124 S 
ATOM     94  O   UNL     1     -18.628  14.450   5.088  1.00  0.00    -0.237 OA
ATOM     95  O   UNL     1     -20.097  12.576   4.418  1.00  0.00    -0.237 OA
ATOM     96  O   UNL     1     -21.040  14.523   5.595  1.00  0.00    -0.744 OA
ENDBRANCH  89  93
ENDBRANCH  63  86
ENDBRANCH  37  38
ENDBRANCH  29  32
ENDBRANCH  27  28
ENDBRANCH  26  27
ENDBRANCH   1  26
TORSDOF 17
