REMARK SMILES C[C@@H](C(=O)NCCCNC(=O)c1ccc(-c2c3nc(c(-c4cc(S(=O)(=O)[O-])ccc4F)c4ccc([nH]4)c(-c4cc(S(=O)(=O)[O-])ccc4F)c4nc(c(-c5cc(S(=O)(=O)[O-])ccc5F)c5ccc2[nH]5)C=C4)C=C3)cc1)c1ccc(C[C@@H]2CCC[C@@H]2O)cc1Br
REMARK SMILES IDX 6 1 5 2 3 3 4 4 2 6 1 7 75 8 76 9 87 10 77 11 86 12 88 13
REMARK SMILES IDX 78 14 79 15 80 16 81 17 84 18 82 19 83 20 85 21 7 23 8 24
REMARK SMILES IDX 9 25 10 26 11 28 12 29 13 30 74 31 14 32 73 33 15 34 16 35
REMARK SMILES IDX 17 36 67 37 18 38 72 39 66 40 68 41 19 42 71 43 65 44 64 45
REMARK SMILES IDX 20 47 52 48 32 49 51 50 33 51 36 52 50 53 69 54 34 55 35 56
REMARK SMILES IDX 49 58 70 59 37 60 21 61 22 62 30 63 23 64 29 65 31 66 28 67
REMARK SMILES IDX 24 68 25 69 26 70 27 71 53 72 54 73 62 74 55 75 61 76 63 77
REMARK SMILES IDX 60 78 56 79 57 80 58 81 59 82 38 83 39 84 47 85 40 86 46 87
REMARK SMILES IDX 48 88 45 89 41 90 42 91 43 92 44 93
REMARK H PARENT 5 5 85 22 9 27 68 46 36 57
REMARK Flexibility Score: inf
ROOT
ATOM      1  C   UNL     1     -11.415   4.359   7.413  1.00  0.00     0.117 C 
ENDROOT
BRANCH   1   2
ATOM      2  N   UNL     1     -11.943   3.848   6.163  1.00  0.00    -0.356 N 
ATOM      3  C   UNL     1     -11.314   3.482   5.010  1.00  0.00     0.227 C 
ATOM      4  O   UNL     1     -12.033   3.017   4.123  1.00  0.00    -0.274 OA
ATOM      5  H   UNL     1     -12.922   3.748   6.144  1.00  0.00     0.163 HD
BRANCH   3   6
ATOM      6  C   UNL     1      -9.784   3.564   4.898  1.00  0.00     0.106 C 
ATOM      7  C   UNL     1      -9.196   4.972   5.045  1.00  0.00     0.023 C 
BRANCH   6   8
ATOM      8  C   UNL     1      -9.247   2.872   3.643  1.00  0.00    -0.022 A 
ATOM      9  C   UNL     1      -8.535   1.669   3.826  1.00  0.00     0.006 A 
ATOM     10  C   UNL     1      -9.393   3.350   2.329  1.00  0.00     0.022 A 
ATOM     11  C   UNL     1      -7.932   1.007   2.755  1.00  0.00     0.004 A 
ATOM     12  C   UNL     1      -8.767   2.692   1.262  1.00  0.00     0.019 A 
ATOM     13  Br  UNL     1     -10.401   4.893   1.860  1.00  0.00    -0.051 Br
ATOM     14  C   UNL     1      -7.998   1.540   1.468  1.00  0.00    -0.047 A 
BRANCH  14  15
ATOM     15  C   UNL     1      -7.239   0.927   0.319  1.00  0.00     0.041 C 
BRANCH  15  16
ATOM     16  C   UNL     1      -5.724   1.224   0.226  1.00  0.00     0.022 C 
ATOM     17  C   UNL     1      -4.880   0.610   1.349  1.00  0.00     0.007 C 
ATOM     18  C   UNL     1      -5.288   2.693   0.241  1.00  0.00     0.117 C 
ATOM     19  C   UNL     1      -4.584   1.733   2.347  1.00  0.00     0.003 C 
ATOM     20  C   UNL     1      -5.081   3.027   1.714  1.00  0.00     0.032 C 
BRANCH  18  21
ATOM     21  O   UNL     1      -6.208   3.551  -0.402  1.00  0.00    -0.393 OA
ATOM     22  H   UNL     1      -7.069   3.490   0.039  1.00  0.00     0.210 HD
ENDBRANCH  18  21
ENDBRANCH  15  16
ENDBRANCH  14  15
ENDBRANCH   6   8
ENDBRANCH   3   6
ENDBRANCH   1   2
BRANCH   1  23
ATOM     23  C   UNL     1     -11.666   5.856   7.570  1.00  0.00     0.042 C 
BRANCH  23  24
ATOM     24  C   UNL     1     -13.143   6.250   7.585  1.00  0.00     0.118 C 
BRANCH  24  25
ATOM     25  N   UNL     1     -13.877   5.630   8.675  1.00  0.00    -0.352 N 
ATOM     26  C   UNL     1     -14.637   6.187   9.671  1.00  0.00     0.251 C 
ATOM     27  H   UNL     1     -13.820   4.647   8.704  1.00  0.00     0.163 HD
ATOM     28  O   UNL     1     -15.006   5.467  10.601  1.00  0.00    -0.269 OA
BRANCH  26  29
ATOM     29  C   UNL     1     -14.998   7.623   9.659  1.00  0.00     0.039 A 
ATOM     30  C   UNL     1     -15.018   8.312  10.876  1.00  0.00     0.014 A 
ATOM     31  C   UNL     1     -15.367   8.284   8.483  1.00  0.00     0.014 A 
ATOM     32  C   UNL     1     -15.349   9.668  10.906  1.00  0.00     0.010 A 
ATOM     33  C   UNL     1     -15.633   9.655   8.505  1.00  0.00     0.010 A 
ATOM     34  C   UNL     1     -15.627  10.362   9.717  1.00  0.00    -0.014 A 
BRANCH  34  35
ATOM     35  C   UNL     1     -15.895  11.824   9.741  1.00  0.00     0.031 A 
ATOM     36  C   UNL     1     -17.246  12.366   9.358  1.00  0.00     0.074 A 
ATOM     37  C   UNL     1     -14.901  12.669  10.081  1.00  0.00     0.049 A 
ATOM     38  N   UNL     1     -17.656  13.608   9.311  1.00  0.00    -0.248 NA
ATOM     39  C   UNL     1     -18.261  11.383   8.953  1.00  0.00     0.031 C 
ATOM     40  C   UNL     1     -13.534  12.267  10.422  1.00  0.00     0.029 A 
ATOM     41  N   UNL     1     -14.882  14.036  10.196  1.00  0.00    -0.354 N 
ATOM     42  C   UNL     1     -18.975  13.558   8.873  1.00  0.00     0.074 A 
ATOM     43  C   UNL     1     -19.273  12.166   8.608  1.00  0.00     0.031 C 
ATOM     44  C   UNL     1     -12.818  13.360  10.730  1.00  0.00     0.029 A 
ATOM     45  C   UNL     1     -13.660  14.541  10.575  1.00  0.00     0.049 A 
ATOM     46  H   UNL     1     -15.669  14.602  10.023  1.00  0.00     0.167 HD
ATOM     47  C   UNL     1     -19.863  14.575   8.728  1.00  0.00     0.034 A 
ATOM     48  C   UNL     1     -13.259  15.813  10.770  1.00  0.00     0.034 A 
ATOM     49  C   UNL     1     -19.551  15.960   8.994  1.00  0.00     0.049 A 
ATOM     50  C   UNL     1     -14.260  16.925  10.597  1.00  0.00     0.074 A 
ATOM     51  C   UNL     1     -20.384  17.064   8.917  1.00  0.00     0.029 A 
ATOM     52  N   UNL     1     -18.304  16.435   9.382  1.00  0.00    -0.354 N 
ATOM     53  N   UNL     1     -15.519  16.854  10.233  1.00  0.00    -0.248 NA
ATOM     54  C   UNL     1     -13.789  18.286  10.880  1.00  0.00     0.031 C 
ATOM     55  C   UNL     1     -19.628  18.208   9.198  1.00  0.00     0.029 A 
ATOM     56  C   UNL     1     -18.339  17.816   9.522  1.00  0.00     0.049 A 
ATOM     57  H   UNL     1     -17.510  15.874   9.535  1.00  0.00     0.167 HD
ATOM     58  C   UNL     1     -15.995  18.162  10.260  1.00  0.00     0.074 A 
ATOM     59  C   UNL     1     -14.895  18.993  10.707  1.00  0.00     0.031 C 
ATOM     60  C   UNL     1     -17.227  18.636   9.942  1.00  0.00     0.034 A 
BRANCH  47  61
ATOM     61  C   UNL     1     -21.249  14.221   8.241  1.00  0.00     0.023 A 
ATOM     62  C   UNL     1     -22.105  13.398   8.994  1.00  0.00     0.031 A 
ATOM     63  C   UNL     1     -21.715  14.694   7.002  1.00  0.00     0.131 A 
ATOM     64  C   UNL     1     -23.350  13.015   8.472  1.00  0.00     0.055 A 
ATOM     65  C   UNL     1     -22.987  14.372   6.522  1.00  0.00     0.041 A 
ATOM     66  F   UNL     1     -20.937  15.468   6.228  1.00  0.00    -0.206 F 
ATOM     67  C   UNL     1     -23.807  13.516   7.251  1.00  0.00     0.022 A 
BRANCH  64  68
ATOM     68  S   UNL     1     -24.305  11.746   9.348  1.00  0.00     0.124 S 
ATOM     69  O   UNL     1     -23.378  10.617   9.332  1.00  0.00    -0.237 OA
ATOM     70  O   UNL     1     -24.534  12.366  10.648  1.00  0.00    -0.237 OA
ATOM     71  O   UNL     1     -25.496  11.579   8.518  1.00  0.00    -0.744 OA
ENDBRANCH  64  68
ENDBRANCH  47  61
BRANCH  48  72
ATOM     72  C   UNL     1     -11.846  16.109  11.140  1.00  0.00     0.023 A 
ATOM     73  C   UNL     1     -11.522  16.671  12.385  1.00  0.00     0.031 A 
ATOM     74  C   UNL     1     -10.799  15.867  10.233  1.00  0.00     0.131 A 
ATOM     75  C   UNL     1     -10.193  17.018  12.671  1.00  0.00     0.055 A 
ATOM     76  C   UNL     1      -9.471  16.166  10.542  1.00  0.00     0.041 A 
ATOM     77  F   UNL     1     -11.053  15.323   9.032  1.00  0.00    -0.206 F 
ATOM     78  C   UNL     1      -9.164  16.758  11.763  1.00  0.00     0.022 A 
BRANCH  75  79
ATOM     79  S   UNL     1      -9.837  17.891  14.221  1.00  0.00     0.124 S 
ATOM     80  O   UNL     1     -10.693  19.066  14.104  1.00  0.00    -0.237 OA
ATOM     81  O   UNL     1     -10.233  16.905  15.221  1.00  0.00    -0.237 OA
ATOM     82  O   UNL     1      -8.402  18.153  14.142  1.00  0.00    -0.744 OA
ENDBRANCH  75  79
ENDBRANCH  48  72
BRANCH  60  83
ATOM     83  C   UNL     1     -17.439  20.123  10.092  1.00  0.00     0.023 A 
ATOM     84  C   UNL     1     -16.753  21.049   9.287  1.00  0.00     0.031 A 
ATOM     85  C   UNL     1     -18.305  20.622  11.081  1.00  0.00     0.131 A 
ATOM     86  C   UNL     1     -16.886  22.424   9.532  1.00  0.00     0.055 A 
ATOM     87  C   UNL     1     -18.483  21.992  11.278  1.00  0.00     0.041 A 
ATOM     88  F   UNL     1     -18.985  19.785  11.881  1.00  0.00    -0.206 F 
ATOM     89  C   UNL     1     -17.759  22.902  10.513  1.00  0.00     0.022 A 
BRANCH  86  90
ATOM     90  S   UNL     1     -15.814  23.576   8.629  1.00  0.00     0.124 S 
ATOM     91  O   UNL     1     -14.483  23.080   8.967  1.00  0.00    -0.237 OA
ATOM     92  O   UNL     1     -16.236  23.377   7.247  1.00  0.00    -0.237 OA
ATOM     93  O   UNL     1     -16.153  24.878   9.200  1.00  0.00    -0.744 OA
ENDBRANCH  86  90
ENDBRANCH  60  83
ENDBRANCH  34  35
ENDBRANCH  26  29
ENDBRANCH  24  25
ENDBRANCH  23  24
ENDBRANCH   1  23
TORSDOF 17
