REMARK SMILES CNC(=O)c1ccc(-n2nc(C)c(C(=O)NCCCNC(=O)c3ccc(-c4c5nc(c(-c6cc(S(=O)(=O)[O-])ccc6F)c6ccc([nH]6)c(-c6cc(S(=O)(=O)[O-])ccc6F)c6nc(c(-c7cc(S(=O)(=O)[O-])ccc7F)c7ccc4[nH]7)C=C6)C=C5)cc3)c2C)nn1
REMARK SMILES IDX 18 1 17 2 16 3 14 4 15 5 13 7 9 8 10 9 86 10 11 11 87 12
REMARK SMILES IDX 12 13 8 14 5 15 6 16 89 17 7 18 88 19 3 20 1 21 2 22 4 24
REMARK SMILES IDX 19 25 20 26 21 27 22 29 23 30 24 31 85 32 25 33 84 34 26 35
REMARK SMILES IDX 27 36 28 37 78 38 29 39 83 40 77 41 79 42 30 43 82 44 76 45
REMARK SMILES IDX 75 46 31 48 63 49 43 50 62 51 44 52 47 53 61 54 80 55 45 56
REMARK SMILES IDX 46 57 60 59 81 60 48 61 32 62 33 63 41 64 34 65 40 66 42 67
REMARK SMILES IDX 39 68 35 69 36 70 37 71 38 72 64 73 65 74 73 75 66 76 72 77
REMARK SMILES IDX 74 78 71 79 67 80 68 81 69 82 70 83 49 84 50 85 58 86 51 87
REMARK SMILES IDX 57 88 59 89 56 90 52 91 53 92 54 93 55 94
REMARK H PARENT 16 6 2 23 20 28 79 47 47 58
REMARK Flexibility Score: inf
ROOT
ATOM      1  C   UNL     1      -5.904  -3.937   4.797  1.00  0.00     0.042 C 
ENDROOT
BRANCH   1   2
ATOM      2  C   UNL     1      -5.208  -3.150   5.913  1.00  0.00     0.118 C 
BRANCH   2   3
ATOM      3  N   UNL     1      -4.544  -4.032   6.849  1.00  0.00    -0.352 N 
ATOM      4  C   UNL     1      -3.286  -4.569   6.934  1.00  0.00     0.255 C 
ATOM      5  O   UNL     1      -3.095  -5.252   7.942  1.00  0.00    -0.269 OA
ATOM      6  H   UNL     1      -5.127  -4.308   7.593  1.00  0.00     0.163 HD
BRANCH   4   7
ATOM      7  C   UNL     1      -2.200  -4.342   5.969  1.00  0.00     0.084 A 
ATOM      8  N   UNL     1      -0.835  -3.836   4.278  1.00  0.00    -0.217 N 
ATOM      9  N   UNL     1      -0.012  -4.368   5.187  1.00  0.00    -0.171 NA
ATOM     10  C   UNL     1      -2.171  -3.950   4.631  1.00  0.00     0.056 A 
ATOM     11  C   UNL     1      -0.809  -4.644   6.229  1.00  0.00     0.073 A 
ATOM     12  C   UNL     1      -3.189  -3.771   3.564  1.00  0.00     0.068 C 
ATOM     13  C   UNL     1      -0.168  -5.232   7.440  1.00  0.00     0.069 C 
BRANCH   8  14
ATOM     14  C   UNL     1      -0.367  -3.247   3.077  1.00  0.00     0.175 A 
ATOM     15  C   UNL     1      -0.211  -2.395   0.524  1.00  0.00     0.150 A 
ATOM     16  C   UNL     1      -0.790  -1.546   1.455  1.00  0.00     0.040 A 
ATOM     17  N   UNL     1       0.294  -3.608   0.849  1.00  0.00    -0.143 NA
ATOM     18  C   UNL     1      -0.853  -1.976   2.769  1.00  0.00     0.053 A 
ATOM     19  N   UNL     1       0.218  -4.042   2.149  1.00  0.00    -0.130 NA
BRANCH  15  20
ATOM     20  C   UNL     1      -0.112  -1.978  -0.892  1.00  0.00     0.271 C 
ATOM     21  C   UNL     1       1.310   0.049  -0.319  1.00  0.00     0.143 C 
ATOM     22  N   UNL     1       0.536  -0.802  -1.196  1.00  0.00    -0.354 N 
ATOM     23  H   UNL     1       0.463  -0.501  -2.131  1.00  0.00     0.163 HD
ATOM     24  O   UNL     1      -0.631  -2.643  -1.784  1.00  0.00    -0.267 OA
ENDBRANCH  15  20
ENDBRANCH   8  14
ENDBRANCH   4   7
ENDBRANCH   2   3
ENDBRANCH   1   2
BRANCH   1  25
ATOM     25  C   UNL     1      -7.385  -4.140   4.997  1.00  0.00     0.118 C 
BRANCH  25  26
ATOM     26  N   UNL     1      -8.124  -2.893   4.821  1.00  0.00    -0.352 N 
ATOM     27  C   UNL     1      -9.465  -2.672   5.077  1.00  0.00     0.251 C 
ATOM     28  H   UNL     1      -7.611  -2.124   4.482  1.00  0.00     0.163 HD
ATOM     29  O   UNL     1     -10.058  -1.758   4.532  1.00  0.00    -0.269 OA
BRANCH  27  30
ATOM     30  C   UNL     1     -10.137  -3.588   6.015  1.00  0.00     0.039 A 
ATOM     31  C   UNL     1     -11.389  -4.128   5.725  1.00  0.00     0.014 A 
ATOM     32  C   UNL     1      -9.425  -3.986   7.146  1.00  0.00     0.014 A 
ATOM     33  C   UNL     1     -11.868  -5.151   6.538  1.00  0.00     0.010 A 
ATOM     34  C   UNL     1      -9.814  -5.111   7.829  1.00  0.00     0.010 A 
ATOM     35  C   UNL     1     -11.055  -5.673   7.565  1.00  0.00    -0.014 A 
BRANCH  35  36
ATOM     36  C   UNL     1     -11.393  -6.938   8.222  1.00  0.00     0.031 A 
ATOM     37  C   UNL     1     -11.727  -8.003   7.242  1.00  0.00     0.074 A 
ATOM     38  C   UNL     1     -11.232  -7.192   9.542  1.00  0.00     0.049 A 
ATOM     39  N   UNL     1     -12.911  -8.359   6.869  1.00  0.00    -0.248 NA
ATOM     40  C   UNL     1     -10.658  -8.545   6.383  1.00  0.00     0.031 C 
ATOM     41  C   UNL     1     -10.652  -6.311  10.562  1.00  0.00     0.029 A 
ATOM     42  N   UNL     1     -11.481  -8.331  10.254  1.00  0.00    -0.354 N 
ATOM     43  C   UNL     1     -12.713  -9.426   6.004  1.00  0.00     0.074 A 
ATOM     44  C   UNL     1     -11.369  -9.279   5.522  1.00  0.00     0.031 C 
ATOM     45  C   UNL     1     -10.391  -7.012  11.688  1.00  0.00     0.029 A 
ATOM     46  C   UNL     1     -10.938  -8.350  11.545  1.00  0.00     0.049 A 
ATOM     47  H   UNL     1     -12.002  -9.081   9.888  1.00  0.00     0.167 HD
ATOM     48  C   UNL     1     -13.527 -10.516   6.085  1.00  0.00     0.034 A 
ATOM     49  C   UNL     1     -10.954  -9.372  12.449  1.00  0.00     0.034 A 
ATOM     50  C   UNL     1     -14.725 -10.191   6.846  1.00  0.00     0.049 A 
ATOM     51  C   UNL     1     -12.104 -10.227  12.080  1.00  0.00     0.074 A 
ATOM     52  C   UNL     1     -15.716  -9.232   6.758  1.00  0.00     0.029 A 
ATOM     53  N   UNL     1     -14.788 -10.669   8.137  1.00  0.00    -0.354 N 
ATOM     54  N   UNL     1     -13.342  -9.821  12.144  1.00  0.00    -0.248 NA
ATOM     55  C   UNL     1     -11.864 -11.346  11.185  1.00  0.00     0.031 C 
ATOM     56  C   UNL     1     -16.005  -8.866   8.109  1.00  0.00     0.029 A 
ATOM     57  C   UNL     1     -15.264  -9.686   8.963  1.00  0.00     0.049 A 
ATOM     58  H   UNL     1     -14.531 -11.576   8.421  1.00  0.00     0.167 HD
ATOM     59  C   UNL     1     -13.929 -10.294  10.982  1.00  0.00     0.074 A 
ATOM     60  C   UNL     1     -13.010 -11.326  10.498  1.00  0.00     0.031 C 
ATOM     61  C   UNL     1     -14.940  -9.599  10.378  1.00  0.00     0.034 A 
BRANCH  48  62
ATOM     62  C   UNL     1     -13.045 -11.956   5.952  1.00  0.00     0.023 A 
ATOM     63  C   UNL     1     -14.002 -12.958   6.199  1.00  0.00     0.031 A 
ATOM     64  C   UNL     1     -11.701 -12.397   5.929  1.00  0.00     0.131 A 
ATOM     65  C   UNL     1     -13.614 -14.256   6.573  1.00  0.00     0.055 A 
ATOM     66  C   UNL     1     -11.323 -13.707   6.239  1.00  0.00     0.041 A 
ATOM     67  F   UNL     1     -10.665 -11.590   5.682  1.00  0.00    -0.206 F 
ATOM     68  C   UNL     1     -12.278 -14.636   6.606  1.00  0.00     0.022 A 
BRANCH  65  69
ATOM     69  S   UNL     1     -14.887 -15.371   7.210  1.00  0.00     0.124 S 
ATOM     70  O   UNL     1     -15.403 -14.596   8.333  1.00  0.00    -0.237 OA
ATOM     71  O   UNL     1     -15.770 -15.506   6.057  1.00  0.00    -0.237 OA
ATOM     72  O   UNL     1     -14.135 -16.572   7.566  1.00  0.00    -0.744 OA
ENDBRANCH  65  69
ENDBRANCH  48  62
BRANCH  49  73
ATOM     73  C   UNL     1      -9.874  -9.820  13.386  1.00  0.00     0.023 A 
ATOM     74  C   UNL     1     -10.088 -10.734  14.449  1.00  0.00     0.031 A 
ATOM     75  C   UNL     1      -8.527  -9.550  13.059  1.00  0.00     0.131 A 
ATOM     76  C   UNL     1      -8.988 -11.338  15.116  1.00  0.00     0.055 A 
ATOM     77  C   UNL     1      -7.448 -10.154  13.713  1.00  0.00     0.041 A 
ATOM     78  F   UNL     1      -8.209  -8.753  12.027  1.00  0.00    -0.206 F 
ATOM     79  C   UNL     1      -7.675 -11.060  14.736  1.00  0.00     0.022 A 
BRANCH  76  80
ATOM     80  S   UNL     1      -9.239 -12.569  16.446  1.00  0.00     0.124 S 
ATOM     81  O   UNL     1      -9.808 -11.760  17.517  1.00  0.00    -0.237 OA
ATOM     82  O   UNL     1     -10.129 -13.538  15.819  1.00  0.00    -0.237 OA
ATOM     83  O   UNL     1      -7.887 -13.067  16.711  1.00  0.00    -0.744 OA
ENDBRANCH  76  80
ENDBRANCH  49  73
BRANCH  61  84
ATOM     84  C   UNL     1     -15.688  -8.564  11.202  1.00  0.00     0.023 A 
ATOM     85  C   UNL     1     -15.116  -7.448  11.858  1.00  0.00     0.031 A 
ATOM     86  C   UNL     1     -17.087  -8.704  11.262  1.00  0.00     0.131 A 
ATOM     87  C   UNL     1     -15.944  -6.539  12.552  1.00  0.00     0.055 A 
ATOM     88  C   UNL     1     -17.902  -7.791  11.927  1.00  0.00     0.041 A 
ATOM     89  F   UNL     1     -17.695  -9.733  10.647  1.00  0.00    -0.206 F 
ATOM     90  C   UNL     1     -17.332  -6.708  12.582  1.00  0.00     0.022 A 
BRANCH  87  91
ATOM     91  S   UNL     1     -15.233  -5.130  13.469  1.00  0.00     0.124 S 
ATOM     92  O   UNL     1     -14.129  -5.724  14.212  1.00  0.00    -0.237 OA
ATOM     93  O   UNL     1     -14.860  -4.211  12.397  1.00  0.00    -0.237 OA
ATOM     94  O   UNL     1     -16.347  -4.668  14.300  1.00  0.00    -0.744 OA
ENDBRANCH  87  91
ENDBRANCH  61  84
ENDBRANCH  35  36
ENDBRANCH  27  30
ENDBRANCH  25  26
ENDBRANCH   1  25
TORSDOF 15
