REMARK SMILES O=C(NCCCNC(=O)c1cc(S(=O)(=O)NCc2ccncc2)c(Cl)cc1Cl)c1ccc(-c2c3nc(c(-c4cc(S(=O)(=O)[O-])ccc4F)c4ccc([nH]4)c(-c4cc(S(=O)(=O)[O-])ccc4F)c4nc(c(-c5cc(S(=O)(=O)[O-])ccc5F)c5ccc2[nH]5)C=C4)C=C3)cc1
REMARK SMILES IDX 5 1 4 2 3 3 1 4 2 5 29 7 30 8 91 9 31 10 90 11 32 12 33 13
REMARK SMILES IDX 34 14 84 15 35 16 89 17 83 18 85 19 36 20 88 21 82 22 81 23
REMARK SMILES IDX 37 25 69 26 49 27 68 28 50 29 53 30 67 31 86 32 51 33 52 34
REMARK SMILES IDX 66 36 87 37 54 38 38 39 39 40 47 41 40 42 46 43 48 44 45 45
REMARK SMILES IDX 41 46 42 47 43 48 44 49 70 50 71 51 79 52 72 53 78 54 80 55
REMARK SMILES IDX 77 56 73 57 74 58 75 59 76 60 55 61 56 62 64 63 57 64 63 65
REMARK SMILES IDX 65 66 62 67 58 68 59 69 60 70 61 71 6 72 7 73 8 74 9 76
REMARK SMILES IDX 10 77 11 78 27 79 12 80 26 81 28 82 24 83 25 84 13 85 14 86
REMARK SMILES IDX 15 87 16 88 17 90 18 91 19 92 23 93 20 94 22 95 21 96
REMARK H PARENT 3 6 85 24 53 35 7 75 16 89
REMARK Flexibility Score: inf
ROOT
ATOM      1  C   UNL     1       4.769   0.857  -2.479  1.00  0.00     0.042 C 
ENDROOT
BRANCH   1   2
ATOM      2  C   UNL     1       4.424   1.092  -1.016  1.00  0.00     0.118 C 
BRANCH   2   3
ATOM      3  N   UNL     1       3.000   0.950  -0.731  1.00  0.00    -0.352 N 
ATOM      4  O   UNL     1       1.105  -0.013   0.009  1.00  0.00    -0.269 OA
ATOM      5  C   UNL     1       2.333   0.011   0.023  1.00  0.00     0.251 C 
ATOM      6  H   UNL     1       2.425   1.634  -1.143  1.00  0.00     0.163 HD
BRANCH   5   7
ATOM      7  C   UNL     1       3.086  -0.976   0.829  1.00  0.00     0.039 A 
ATOM      8  C   UNL     1       4.221  -0.591   1.538  1.00  0.00     0.014 A 
ATOM      9  C   UNL     1       2.649  -2.304   0.885  1.00  0.00     0.014 A 
ATOM     10  C   UNL     1       5.024  -1.555   2.131  1.00  0.00     0.010 A 
ATOM     11  C   UNL     1       3.394  -3.256   1.595  1.00  0.00     0.010 A 
ATOM     12  C   UNL     1       4.610  -2.896   2.194  1.00  0.00    -0.014 A 
BRANCH  12  13
ATOM     13  C   UNL     1       5.450  -3.857   2.959  1.00  0.00     0.031 A 
ATOM     14  C   UNL     1       6.109  -5.033   2.292  1.00  0.00     0.074 A 
ATOM     15  C   UNL     1       5.681  -3.597   4.262  1.00  0.00     0.049 A 
ATOM     16  N   UNL     1       6.937  -5.909   2.804  1.00  0.00    -0.248 NA
ATOM     17  C   UNL     1       5.795  -5.266   0.874  1.00  0.00     0.031 C 
ATOM     18  C   UNL     1       5.078  -2.491   5.016  1.00  0.00     0.029 A 
ATOM     19  N   UNL     1       6.507  -4.201   5.174  1.00  0.00    -0.354 N 
ATOM     20  C   UNL     1       7.239  -6.800   1.778  1.00  0.00     0.074 A 
ATOM     21  C   UNL     1       6.473  -6.378   0.624  1.00  0.00     0.031 C 
ATOM     22  C   UNL     1       5.611  -2.451   6.244  1.00  0.00     0.029 A 
ATOM     23  C   UNL     1       6.527  -3.572   6.399  1.00  0.00     0.049 A 
ATOM     24  H   UNL     1       7.035  -5.007   4.973  1.00  0.00     0.167 HD
ATOM     25  C   UNL     1       8.084  -7.862   1.799  1.00  0.00     0.034 A 
ATOM     26  C   UNL     1       7.193  -3.871   7.530  1.00  0.00     0.034 A 
ATOM     27  C   UNL     1       8.836  -8.270   2.963  1.00  0.00     0.049 A 
ATOM     28  C   UNL     1       8.111  -5.063   7.525  1.00  0.00     0.074 A 
ATOM     29  C   UNL     1       9.716  -9.331   3.095  1.00  0.00     0.029 A 
ATOM     30  N   UNL     1       8.799  -7.636   4.200  1.00  0.00    -0.354 N 
ATOM     31  N   UNL     1       8.382  -5.890   6.541  1.00  0.00    -0.248 NA
ATOM     32  C   UNL     1       8.814  -5.358   8.777  1.00  0.00     0.031 C 
ATOM     33  C   UNL     1      10.164  -9.373   4.421  1.00  0.00     0.029 A 
ATOM     34  C   UNL     1       9.622  -8.296   5.102  1.00  0.00     0.049 A 
ATOM     35  H   UNL     1       8.265  -6.835   4.407  1.00  0.00     0.167 HD
ATOM     36  C   UNL     1       9.292  -6.804   7.060  1.00  0.00     0.074 A 
ATOM     37  C   UNL     1       9.557  -6.395   8.425  1.00  0.00     0.031 C 
ATOM     38  C   UNL     1       9.851  -7.891   6.469  1.00  0.00     0.034 A 
BRANCH  25  39
ATOM     39  C   UNL     1       8.210  -8.679   0.534  1.00  0.00     0.023 A 
ATOM     40  C   UNL     1       8.777  -8.147  -0.637  1.00  0.00     0.031 A 
ATOM     41  C   UNL     1       7.762 -10.012   0.501  1.00  0.00     0.131 A 
ATOM     42  C   UNL     1       8.837  -8.925  -1.805  1.00  0.00     0.055 A 
ATOM     43  C   UNL     1       7.884 -10.803  -0.644  1.00  0.00     0.041 A 
ATOM     44  F   UNL     1       7.195 -10.569   1.582  1.00  0.00    -0.206 F 
ATOM     45  C   UNL     1       8.415 -10.257  -1.809  1.00  0.00     0.022 A 
BRANCH  42  46
ATOM     46  S   UNL     1       9.377  -8.139  -3.348  1.00  0.00     0.124 S 
ATOM     47  O   UNL     1       8.389  -7.074  -3.502  1.00  0.00    -0.237 OA
ATOM     48  O   UNL     1      10.732  -7.708  -3.028  1.00  0.00    -0.237 OA
ATOM     49  O   UNL     1       9.281  -9.214  -4.334  1.00  0.00    -0.744 OA
ENDBRANCH  42  46
ENDBRANCH  25  39
BRANCH  26  50
ATOM     50  C   UNL     1       6.983  -3.062   8.764  1.00  0.00     0.023 A 
ATOM     51  C   UNL     1       8.038  -2.362   9.369  1.00  0.00     0.031 A 
ATOM     52  C   UNL     1       5.719  -3.011   9.382  1.00  0.00     0.131 A 
ATOM     53  C   UNL     1       7.822  -1.682  10.578  1.00  0.00     0.055 A 
ATOM     54  C   UNL     1       5.495  -2.281  10.549  1.00  0.00     0.041 A 
ATOM     55  F   UNL     1       4.674  -3.660   8.845  1.00  0.00    -0.206 F 
ATOM     56  C   UNL     1       6.555  -1.624  11.163  1.00  0.00     0.022 A 
BRANCH  53  57
ATOM     57  S   UNL     1       9.249  -0.960  11.435  1.00  0.00     0.124 S 
ATOM     58  O   UNL     1      10.143  -2.107  11.546  1.00  0.00    -0.237 OA
ATOM     59  O   UNL     1       9.660   0.086  10.505  1.00  0.00    -0.237 OA
ATOM     60  O   UNL     1       8.683  -0.485  12.696  1.00  0.00    -0.744 OA
ENDBRANCH  53  57
ENDBRANCH  26  50
BRANCH  38  61
ATOM     61  C   UNL     1      10.811  -8.692   7.314  1.00  0.00     0.023 A 
ATOM     62  C   UNL     1      10.376  -9.384   8.458  1.00  0.00     0.031 A 
ATOM     63  C   UNL     1      12.182  -8.715   7.006  1.00  0.00     0.131 A 
ATOM     64  C   UNL     1      11.313 -10.003   9.298  1.00  0.00     0.055 A 
ATOM     65  C   UNL     1      13.102  -9.390   7.810  1.00  0.00     0.041 A 
ATOM     66  F   UNL     1      12.652  -8.069   5.927  1.00  0.00    -0.206 F 
ATOM     67  C   UNL     1      12.672 -10.023   8.973  1.00  0.00     0.022 A 
BRANCH  64  68
ATOM     68  S   UNL     1      10.746 -10.675  10.885  1.00  0.00     0.124 S 
ATOM     69  O   UNL     1      10.136  -9.505  11.508  1.00  0.00    -0.237 OA
ATOM     70  O   UNL     1       9.826 -11.727  10.466  1.00  0.00    -0.237 OA
ATOM     71  O   UNL     1      11.977 -11.144  11.518  1.00  0.00    -0.744 OA
ENDBRANCH  64  68
ENDBRANCH  38  61
ENDBRANCH  12  13
ENDBRANCH   5   7
ENDBRANCH   2   3
ENDBRANCH   1   2
BRANCH   1  72
ATOM     72  C   UNL     1       4.196   1.901  -3.423  1.00  0.00     0.118 C 
BRANCH  72  73
ATOM     73  N   UNL     1       4.688   3.242  -3.133  1.00  0.00    -0.352 N 
ATOM     74  C   UNL     1       5.593   4.034  -3.792  1.00  0.00     0.252 C 
ATOM     75  H   UNL     1       4.304   3.650  -2.324  1.00  0.00     0.163 HD
ATOM     76  O   UNL     1       5.924   5.111  -3.307  1.00  0.00    -0.269 OA
BRANCH  74  77
ATOM     77  C   UNL     1       6.107   3.646  -5.122  1.00  0.00     0.059 A 
ATOM     78  C   UNL     1       5.184   3.312  -6.118  1.00  0.00     0.038 A 
ATOM     79  C   UNL     1       7.466   3.700  -5.442  1.00  0.00     0.055 A 
ATOM     80  C   UNL     1       5.609   2.969  -7.411  1.00  0.00     0.101 A 
ATOM     81  C   UNL     1       7.880   3.441  -6.757  1.00  0.00     0.043 A 
ATOM     82  Cl  UNL     1       8.692   4.039  -4.275  1.00  0.00    -0.083 Cl
ATOM     83  C   UNL     1       6.953   3.091  -7.750  1.00  0.00     0.062 A 
ATOM     84  Cl  UNL     1       7.564   2.853  -9.344  1.00  0.00    -0.083 Cl
BRANCH  80  85
ATOM     85  S   UNL     1       4.376   2.295  -8.490  1.00  0.00     0.242 S 
ATOM     86  O   UNL     1       3.306   1.814  -7.636  1.00  0.00    -0.207 OA
ATOM     87  O   UNL     1       4.118   3.278  -9.512  1.00  0.00    -0.207 OA
BRANCH  85  88
ATOM     88  N   UNL     1       5.024   0.958  -9.241  1.00  0.00    -0.207 NA
ATOM     89  H   UNL     1       5.595   1.318 -10.005  1.00  0.00     0.141 HD
BRANCH  88  90
ATOM     90  C   UNL     1       5.850  -0.034  -8.562  1.00  0.00     0.134 C 
BRANCH  90  91
ATOM     91  C   UNL     1       5.161  -1.305  -8.164  1.00  0.00    -0.030 A 
ATOM     92  C   UNL     1       4.214  -1.315  -7.137  1.00  0.00     0.025 A 
ATOM     93  C   UNL     1       5.538  -2.531  -8.725  1.00  0.00     0.025 A 
ATOM     94  C   UNL     1       3.687  -2.528  -6.724  1.00  0.00     0.111 A 
ATOM     95  C   UNL     1       4.960  -3.694  -8.238  1.00  0.00     0.111 A 
ATOM     96  N   UNL     1       4.033  -3.715  -7.260  1.00  0.00    -0.265 NA
ENDBRANCH  90  91
ENDBRANCH  88  90
ENDBRANCH  85  88
ENDBRANCH  80  85
ENDBRANCH  74  77
ENDBRANCH  72  73
ENDBRANCH   1  72
TORSDOF 17
