REMARK SMILES CC(C)=C1[C@H]2CC[C@@H]1[C@@H](C(=O)Nc1cc(C)cc(C)c1)[C@@H]2C(=O)NCCCNC(=O)c1ccc(-c2c3nc(c(-c4cc(S(=O)(=O)[O-])ccc4F)c4ccc([nH]4)c(-c4cc(S(=O)(=O)[O-])ccc4F)c4nc(c(-c5cc(S(=O)(=O)[O-])ccc5F)c5ccc2[nH]5)C=C4)C=C3)cc1
REMARK SMILES IDX 26 1 25 2 24 3 22 4 23 5 21 7 1 8 2 9 3 10 4 11 5 12 8 13
REMARK SMILES IDX 6 14 7 15 9 16 10 17 11 18 12 19 13 21 14 22 20 23 15 24
REMARK SMILES IDX 18 25 16 26 17 27 19 28 27 29 28 30 29 31 30 33 31 34 32 35
REMARK SMILES IDX 93 36 33 37 92 38 34 39 35 40 36 41 86 42 37 43 91 44 85 45
REMARK SMILES IDX 87 46 38 47 90 48 84 49 83 50 39 52 71 53 51 54 70 55 52 56
REMARK SMILES IDX 55 57 69 58 88 59 53 60 54 61 68 63 89 64 56 65 40 66 41 67
REMARK SMILES IDX 49 68 42 69 48 70 50 71 47 72 43 73 44 74 45 75 46 76 72 77
REMARK SMILES IDX 73 78 81 79 74 80 80 81 82 82 79 83 75 84 76 85 77 86 78 87
REMARK SMILES IDX 57 88 58 89 66 90 59 91 65 92 67 93 64 94 60 95 61 96 62 97
REMARK SMILES IDX 63 98
REMARK H PARENT 24 6 12 20 28 32 87 51 55 62
REMARK Flexibility Score: inf
ROOT
ATOM      1  C   UNL     1       1.310   0.276   7.418  1.00  0.00     0.042 C 
ENDROOT
BRANCH   1   2
ATOM      2  C   UNL     1       0.721   1.283   6.470  1.00  0.00     0.117 C 
BRANCH   2   3
ATOM      3  N   UNL     1       1.402   2.511   6.241  1.00  0.00    -0.356 N 
ATOM      4  C   UNL     1       1.495   3.138   5.035  1.00  0.00     0.224 C 
ATOM      5  O   UNL     1       1.849   4.324   5.068  1.00  0.00    -0.275 OA
ATOM      6  H   UNL     1       1.838   2.940   7.012  1.00  0.00     0.163 HD
BRANCH   4   7
ATOM      7  C   UNL     1       1.297   2.445   3.662  1.00  0.00     0.098 C 
ATOM      8  C   UNL     1       0.649  -0.411  -0.120  1.00  0.00     0.039 C 
ATOM      9  C   UNL     1       0.008   0.665   0.719  1.00  0.00    -0.077 C 
ATOM     10  C   UNL     1      -1.342   1.141   0.273  1.00  0.00     0.039 C 
ATOM     11  C   UNL     1       0.524   1.015   1.911  1.00  0.00    -0.064 C 
ATOM     12  C   UNL     1      -0.018   1.849   3.068  1.00  0.00     0.028 C 
ATOM     13  C   UNL     1       1.581   0.263   2.659  1.00  0.00     0.028 C 
ATOM     14  C   UNL     1      -0.591   0.610   3.753  1.00  0.00     0.009 C 
ATOM     15  C   UNL     1       0.552  -0.444   3.581  1.00  0.00     0.009 C 
ATOM     16  C   UNL     1       2.367   1.406   3.330  1.00  0.00     0.099 C 
BRANCH  16  17
ATOM     17  C   UNL     1       3.570   1.866   2.463  1.00  0.00     0.228 C 
ATOM     18  O   UNL     1       4.705   1.546   2.855  1.00  0.00    -0.274 OA
ATOM     19  N   UNL     1       3.533   2.443   1.222  1.00  0.00    -0.326 N 
ATOM     20  H   UNL     1       4.407   2.438   0.769  1.00  0.00     0.169 HD
BRANCH  19  21
ATOM     21  C   UNL     1       2.521   3.039   0.454  1.00  0.00     0.041 A 
ATOM     22  C   UNL     1       1.739   4.094   0.917  1.00  0.00     0.029 A 
ATOM     23  C   UNL     1       2.306   2.560  -0.841  1.00  0.00     0.029 A 
ATOM     24  C   UNL     1       0.582   4.485   0.233  1.00  0.00    -0.049 A 
ATOM     25  C   UNL     1       1.194   2.990  -1.582  1.00  0.00    -0.049 A 
ATOM     26  C   UNL     1      -0.459   5.320   0.923  1.00  0.00     0.044 C 
ATOM     27  C   UNL     1       0.325   3.939  -1.027  1.00  0.00     0.007 A 
ATOM     28  C   UNL     1       0.817   2.308  -2.865  1.00  0.00     0.044 C 
ENDBRANCH  19  21
ENDBRANCH  16  17
ENDBRANCH   4   7
ENDBRANCH   2   3
ENDBRANCH   1   2
BRANCH   1  29
ATOM     29  C   UNL     1       0.889   0.496   8.850  1.00  0.00     0.118 C 
BRANCH  29  30
ATOM     30  N   UNL     1      -0.562   0.417   9.039  1.00  0.00    -0.352 N 
ATOM     31  C   UNL     1      -1.365  -0.564   9.575  1.00  0.00     0.251 C 
ATOM     32  H   UNL     1      -1.053   1.211   8.725  1.00  0.00     0.163 HD
ATOM     33  O   UNL     1      -2.586  -0.478   9.443  1.00  0.00    -0.269 OA
BRANCH  31  34
ATOM     34  C   UNL     1      -0.771  -1.725  10.269  1.00  0.00     0.039 A 
ATOM     35  C   UNL     1      -1.359  -2.987  10.155  1.00  0.00     0.014 A 
ATOM     36  C   UNL     1       0.390  -1.573  11.021  1.00  0.00     0.014 A 
ATOM     37  C   UNL     1      -0.715  -4.101  10.702  1.00  0.00     0.010 A 
ATOM     38  C   UNL     1       1.111  -2.690  11.408  1.00  0.00     0.010 A 
ATOM     39  C   UNL     1       0.559  -3.969  11.277  1.00  0.00    -0.014 A 
BRANCH  39  40
ATOM     40  C   UNL     1       1.332  -5.133  11.786  1.00  0.00     0.031 A 
ATOM     41  C   UNL     1       1.814  -5.134  13.216  1.00  0.00     0.074 A 
ATOM     42  C   UNL     1       1.684  -6.125  10.943  1.00  0.00     0.049 A 
ATOM     43  N   UNL     1       2.619  -5.970  13.818  1.00  0.00    -0.248 NA
ATOM     44  C   UNL     1       1.375  -4.015  14.068  1.00  0.00     0.031 C 
ATOM     45  C   UNL     1       1.333  -6.197   9.522  1.00  0.00     0.029 A 
ATOM     46  N   UNL     1       2.429  -7.259  11.153  1.00  0.00    -0.354 N 
ATOM     47  C   UNL     1       2.810  -5.457  15.097  1.00  0.00     0.074 A 
ATOM     48  C   UNL     1       2.100  -4.200  15.159  1.00  0.00     0.031 C 
ATOM     49  C   UNL     1       1.830  -7.329   9.000  1.00  0.00     0.029 A 
ATOM     50  C   UNL     1       2.588  -8.035  10.026  1.00  0.00     0.049 A 
ATOM     51  H   UNL     1       2.814  -7.495  12.027  1.00  0.00     0.167 HD
ATOM     52  C   UNL     1       3.491  -6.000  16.134  1.00  0.00     0.034 A 
ATOM     53  C   UNL     1       3.281  -9.176   9.839  1.00  0.00     0.034 A 
ATOM     54  C   UNL     1       4.151  -7.278  16.064  1.00  0.00     0.049 A 
ATOM     55  C   UNL     1       4.020  -9.768  11.014  1.00  0.00     0.074 A 
ATOM     56  C   UNL     1       4.787  -7.974  17.075  1.00  0.00     0.029 A 
ATOM     57  N   UNL     1       4.262  -8.051  14.915  1.00  0.00    -0.354 N 
ATOM     58  N   UNL     1       4.125  -9.308  12.241  1.00  0.00    -0.248 NA
ATOM     59  C   UNL     1       4.722 -11.037  10.786  1.00  0.00     0.031 C 
ATOM     60  C   UNL     1       5.352  -9.127  16.521  1.00  0.00     0.029 A 
ATOM     61  C   UNL     1       4.991  -9.198  15.185  1.00  0.00     0.049 A 
ATOM     62  H   UNL     1       3.878  -7.819  14.038  1.00  0.00     0.167 HD
ATOM     63  C   UNL     1       4.880 -10.248  12.935  1.00  0.00     0.074 A 
ATOM     64  C   UNL     1       5.185 -11.309  11.997  1.00  0.00     0.031 C 
ATOM     65  C   UNL     1       5.287 -10.240  14.231  1.00  0.00     0.034 A 
BRANCH  52  66
ATOM     66  C   UNL     1       3.570  -5.208  17.419  1.00  0.00     0.023 A 
ATOM     67  C   UNL     1       2.422  -4.874  18.160  1.00  0.00     0.031 A 
ATOM     68  C   UNL     1       4.815  -4.771  17.904  1.00  0.00     0.131 A 
ATOM     69  C   UNL     1       2.536  -4.067  19.303  1.00  0.00     0.055 A 
ATOM     70  C   UNL     1       4.929  -4.041  19.089  1.00  0.00     0.041 A 
ATOM     71  F   UNL     1       5.944  -5.037  17.229  1.00  0.00    -0.206 F 
ATOM     72  C   UNL     1       3.784  -3.673  19.789  1.00  0.00     0.022 A 
BRANCH  69  73
ATOM     73  S   UNL     1       1.020  -3.427  20.066  1.00  0.00     0.124 S 
ATOM     74  O   UNL     1       0.431  -2.672  18.962  1.00  0.00    -0.237 OA
ATOM     75  O   UNL     1       0.320  -4.647  20.449  1.00  0.00    -0.237 OA
ATOM     76  O   UNL     1       1.512  -2.613  21.175  1.00  0.00    -0.744 OA
ENDBRANCH  69  73
ENDBRANCH  52  66
BRANCH  53  77
ATOM     77  C   UNL     1       3.332  -9.826   8.496  1.00  0.00     0.023 A 
ATOM     78  C   UNL     1       2.816 -11.117   8.294  1.00  0.00     0.031 A 
ATOM     79  C   UNL     1       3.945  -9.188   7.403  1.00  0.00     0.131 A 
ATOM     80  C   UNL     1       2.974 -11.750   7.051  1.00  0.00     0.055 A 
ATOM     81  C   UNL     1       4.044  -9.796   6.150  1.00  0.00     0.041 A 
ATOM     82  F   UNL     1       4.453  -7.952   7.535  1.00  0.00    -0.206 F 
ATOM     83  C   UNL     1       3.571 -11.092   5.973  1.00  0.00     0.022 A 
BRANCH  80  84
ATOM     84  S   UNL     1       2.486 -13.490   6.894  1.00  0.00     0.124 S 
ATOM     85  O   UNL     1       3.272 -14.115   7.952  1.00  0.00    -0.237 OA
ATOM     86  O   UNL     1       1.046 -13.421   7.118  1.00  0.00    -0.237 OA
ATOM     87  O   UNL     1       2.888 -13.834   5.532  1.00  0.00    -0.744 OA
ENDBRANCH  80  84
ENDBRANCH  53  77
BRANCH  65  88
ATOM     88  C   UNL     1       6.064 -11.439  14.715  1.00  0.00     0.023 A 
ATOM     89  C   UNL     1       7.346 -11.737  14.225  1.00  0.00     0.031 A 
ATOM     90  C   UNL     1       5.510 -12.292  15.686  1.00  0.00     0.131 A 
ATOM     91  C   UNL     1       8.009 -12.891  14.665  1.00  0.00     0.055 A 
ATOM     92  C   UNL     1       6.204 -13.400  16.172  1.00  0.00     0.041 A 
ATOM     93  F   UNL     1       4.286 -12.056  16.187  1.00  0.00    -0.206 F 
ATOM     94  C   UNL     1       7.456 -13.713  15.651  1.00  0.00     0.022 A 
BRANCH  91  95
ATOM     95  S   UNL     1       9.566 -13.359  13.862  1.00  0.00     0.124 S 
ATOM     96  O   UNL     1       9.158 -13.495  12.468  1.00  0.00    -0.237 OA
ATOM     97  O   UNL     1      10.428 -12.221  14.165  1.00  0.00    -0.237 OA
ATOM     98  O   UNL     1       9.933 -14.608  14.527  1.00  0.00    -0.744 OA
ENDBRANCH  91  95
ENDBRANCH  65  88
ENDBRANCH  39  40
ENDBRANCH  31  34
ENDBRANCH  29  30
ENDBRANCH   1  29
TORSDOF 15
