REMARK SMILES COc1cc(Cl)cc(/C=C/C(=O)NCCCNC(=O)c2ccc(-c3c4nc(c(-c5cc(S(=O)(=O)[O-])ccc5F)c5ccc([nH]5)c(-c5cc(S(=O)(=O)[O-])ccc5F)c5nc(c(-c6cc(S(=O)(=O)[O-])ccc6F)c6ccc3[nH]6)C=C5)C=C4)cc2)c1OC
REMARK SMILES IDX 15 1 14 2 13 3 11 4 12 5 10 7 9 8 8 9 3 10 4 11 83 12 5 13
REMARK SMILES IDX 6 14 7 15 2 16 1 17 84 18 85 19 16 20 17 21 18 22 19 24
REMARK SMILES IDX 20 25 21 26 82 27 22 28 81 29 23 30 24 31 25 32 75 33 26 34
REMARK SMILES IDX 80 35 74 36 76 37 27 38 79 39 73 40 72 41 28 43 60 44 40 45
REMARK SMILES IDX 59 46 41 47 44 48 58 49 77 50 42 51 43 52 57 54 78 55 45 56
REMARK SMILES IDX 29 57 30 58 38 59 31 60 37 61 39 62 36 63 32 64 33 65 34 66
REMARK SMILES IDX 35 67 61 68 62 69 70 70 63 71 69 72 71 73 68 74 64 75 65 76
REMARK SMILES IDX 66 77 67 78 46 79 47 80 55 81 48 82 54 83 56 84 53 85 49 86
REMARK SMILES IDX 50 87 51 88 52 89
REMARK H PARENT 13 6 17 23 76 42 44 53
REMARK Flexibility Score: inf
ROOT
ATOM      1  C   UNL     1      -4.243   3.824  -4.539  1.00  0.00     0.042 C 
ENDROOT
BRANCH   1   2
ATOM      2  C   UNL     1      -3.230   3.643  -5.668  1.00  0.00     0.118 C 
BRANCH   2   3
ATOM      3  N   UNL     1      -2.643   4.910  -6.076  1.00  0.00    -0.352 N 
ATOM      4  C   UNL     1      -1.374   5.377  -5.936  1.00  0.00     0.244 C 
ATOM      5  O   UNL     1      -1.042   6.429  -6.477  1.00  0.00    -0.270 OA
ATOM      6  H   UNL     1      -3.264   5.528  -6.525  1.00  0.00     0.163 HD
BRANCH   4   7
ATOM      7  C   UNL     1      -0.354   4.585  -5.216  1.00  0.00     0.072 C 
ATOM      8  C   UNL     1      -0.532   4.077  -3.988  1.00  0.00     0.018 C 
BRANCH   8   9
ATOM      9  C   UNL     1       0.498   3.294  -3.278  1.00  0.00     0.022 A 
ATOM     10  C   UNL     1       1.170   1.378  -1.937  1.00  0.00     0.162 A 
ATOM     11  C   UNL     1       2.481   1.872  -1.909  1.00  0.00     0.071 A 
ATOM     12  C   UNL     1       0.165   2.074  -2.636  1.00  0.00     0.168 A 
ATOM     13  C   UNL     1       2.789   3.077  -2.531  1.00  0.00     0.045 A 
ATOM     14  Cl  UNL     1       4.401   3.679  -2.475  1.00  0.00    -0.084 Cl
ATOM     15  C   UNL     1       1.807   3.794  -3.203  1.00  0.00     0.032 A 
BRANCH  10  16
ATOM     16  O   UNL     1       0.913   0.160  -1.359  1.00  0.00    -0.493 OA
ATOM     17  C   UNL     1       1.238   0.128   0.032  1.00  0.00     0.278 C 
ENDBRANCH  10  16
BRANCH  12  18
ATOM     18  O   UNL     1      -1.144   1.690  -2.799  1.00  0.00    -0.492 OA
ATOM     19  C   UNL     1      -1.657   0.612  -2.031  1.00  0.00     0.278 C 
ENDBRANCH  12  18
ENDBRANCH   8   9
ENDBRANCH   4   7
ENDBRANCH   2   3
ENDBRANCH   1   2
BRANCH   1  20
ATOM     20  C   UNL     1      -5.552   4.478  -4.982  1.00  0.00     0.118 C 
BRANCH  20  21
ATOM     21  N   UNL     1      -6.316   3.622  -5.878  1.00  0.00    -0.352 N 
ATOM     22  C   UNL     1      -7.589   3.122  -5.765  1.00  0.00     0.251 C 
ATOM     23  H   UNL     1      -5.841   3.359  -6.699  1.00  0.00     0.163 HD
ATOM     24  O   UNL     1      -7.940   2.230  -6.534  1.00  0.00    -0.269 OA
BRANCH  22  25
ATOM     25  C   UNL     1      -8.530   3.627  -4.738  1.00  0.00     0.039 A 
ATOM     26  C   UNL     1      -9.400   2.717  -4.128  1.00  0.00     0.014 A 
ATOM     27  C   UNL     1      -8.618   4.986  -4.420  1.00  0.00     0.014 A 
ATOM     28  C   UNL     1     -10.320   3.160  -3.173  1.00  0.00     0.010 A 
ATOM     29  C   UNL     1      -9.493   5.417  -3.421  1.00  0.00     0.010 A 
ATOM     30  C   UNL     1     -10.358   4.510  -2.790  1.00  0.00    -0.014 A 
BRANCH  30  31
ATOM     31  C   UNL     1     -11.304   4.980  -1.743  1.00  0.00     0.031 A 
ATOM     32  C   UNL     1     -12.418   5.932  -2.096  1.00  0.00     0.074 A 
ATOM     33  C   UNL     1     -11.143   4.572  -0.469  1.00  0.00     0.049 A 
ATOM     34  N   UNL     1     -13.309   6.488  -1.316  1.00  0.00    -0.248 NA
ATOM     35  C   UNL     1     -12.529   6.324  -3.509  1.00  0.00     0.031 C 
ATOM     36  C   UNL     1     -10.087   3.671   0.001  1.00  0.00     0.029 A 
ATOM     37  N   UNL     1     -11.861   4.857   0.666  1.00  0.00    -0.354 N 
ATOM     38  C   UNL     1     -14.087   7.296  -2.140  1.00  0.00     0.074 A 
ATOM     39  C   UNL     1     -13.520   7.202  -3.469  1.00  0.00     0.031 C 
ATOM     40  C   UNL     1     -10.244   3.458   1.318  1.00  0.00     0.029 A 
ATOM     41  C   UNL     1     -11.380   4.238   1.797  1.00  0.00     0.049 A 
ATOM     42  H   UNL     1     -12.647   5.450   0.670  1.00  0.00     0.167 HD
ATOM     43  C   UNL     1     -15.185   8.027  -1.824  1.00  0.00     0.034 A 
ATOM     44  C   UNL     1     -11.803   4.298   3.076  1.00  0.00     0.034 A 
ATOM     45  C   UNL     1     -15.744   8.109  -0.496  1.00  0.00     0.049 A 
ATOM     46  C   UNL     1     -13.007   5.146   3.405  1.00  0.00     0.074 A 
ATOM     47  C   UNL     1     -16.862   8.807  -0.071  1.00  0.00     0.029 A 
ATOM     48  N   UNL     1     -15.229   7.469   0.624  1.00  0.00    -0.354 N 
ATOM     49  N   UNL     1     -13.745   5.880   2.604  1.00  0.00    -0.248 NA
ATOM     50  C   UNL     1     -13.443   5.160   4.807  1.00  0.00     0.031 C 
ATOM     51  C   UNL     1     -16.992   8.632   1.312  1.00  0.00     0.029 A 
ATOM     52  C   UNL     1     -15.995   7.770   1.740  1.00  0.00     0.049 A 
ATOM     53  H   UNL     1     -14.435   6.886   0.625  1.00  0.00     0.167 HD
ATOM     54  C   UNL     1     -14.754   6.412   3.404  1.00  0.00     0.074 A 
ATOM     55  C   UNL     1     -14.539   5.898   4.740  1.00  0.00     0.031 C 
ATOM     56  C   UNL     1     -15.767   7.250   3.066  1.00  0.00     0.034 A 
BRANCH  43  57
ATOM     57  C   UNL     1     -15.843   8.809  -2.937  1.00  0.00     0.023 A 
ATOM     58  C   UNL     1     -16.446   8.162  -4.030  1.00  0.00     0.031 A 
ATOM     59  C   UNL     1     -15.863  10.214  -2.911  1.00  0.00     0.131 A 
ATOM     60  C   UNL     1     -16.985   8.918  -5.081  1.00  0.00     0.055 A 
ATOM     61  C   UNL     1     -16.469  10.960  -3.924  1.00  0.00     0.041 A 
ATOM     62  F   UNL     1     -15.287  10.888  -1.902  1.00  0.00    -0.206 F 
ATOM     63  C   UNL     1     -17.024  10.313  -5.024  1.00  0.00     0.022 A 
BRANCH  60  64
ATOM     64  S   UNL     1     -17.531   8.054  -6.580  1.00  0.00     0.124 S 
ATOM     65  O   UNL     1     -16.285   7.441  -7.035  1.00  0.00    -0.237 OA
ATOM     66  O   UNL     1     -18.544   7.139  -6.067  1.00  0.00    -0.237 OA
ATOM     67  O   UNL     1     -18.036   9.130  -7.431  1.00  0.00    -0.744 OA
ENDBRANCH  60  64
ENDBRANCH  43  57
BRANCH  44  68
ATOM     68  C   UNL     1     -11.092   3.547   4.152  1.00  0.00     0.023 A 
ATOM     69  C   UNL     1     -11.747   2.542   4.881  1.00  0.00     0.031 A 
ATOM     70  C   UNL     1      -9.775   3.874   4.518  1.00  0.00     0.131 A 
ATOM     71  C   UNL     1     -11.109   1.946   5.980  1.00  0.00     0.055 A 
ATOM     72  C   UNL     1      -9.122   3.235   5.574  1.00  0.00     0.041 A 
ATOM     73  F   UNL     1      -9.100   4.824   3.852  1.00  0.00    -0.206 F 
ATOM     74  C   UNL     1      -9.797   2.277   6.324  1.00  0.00     0.022 A 
BRANCH  71  75
ATOM     75  S   UNL     1     -12.065   0.814   7.027  1.00  0.00     0.124 S 
ATOM     76  O   UNL     1     -13.216   1.637   7.382  1.00  0.00    -0.237 OA
ATOM     77  O   UNL     1     -12.325  -0.294   6.113  1.00  0.00    -0.237 OA
ATOM     78  O   UNL     1     -11.149   0.512   8.125  1.00  0.00    -0.744 OA
ENDBRANCH  71  75
ENDBRANCH  44  68
BRANCH  56  79
ATOM     79  C   UNL     1     -16.744   7.611   4.158  1.00  0.00     0.023 A 
ATOM     80  C   UNL     1     -16.360   8.384   5.268  1.00  0.00     0.031 A 
ATOM     81  C   UNL     1     -18.069   7.145   4.102  1.00  0.00     0.131 A 
ATOM     82  C   UNL     1     -17.271   8.612   6.309  1.00  0.00     0.055 A 
ATOM     83  C   UNL     1     -18.990   7.427   5.112  1.00  0.00     0.041 A 
ATOM     84  F   UNL     1     -18.490   6.402   3.066  1.00  0.00    -0.206 F 
ATOM     85  C   UNL     1     -18.588   8.151   6.231  1.00  0.00     0.022 A 
BRANCH  82  86
ATOM     86  S   UNL     1     -16.683   9.433   7.816  1.00  0.00     0.124 S 
ATOM     87  O   UNL     1     -15.599   8.553   8.238  1.00  0.00    -0.237 OA
ATOM     88  O   UNL     1     -16.281  10.745   7.319  1.00  0.00    -0.237 OA
ATOM     89  O   UNL     1     -17.857   9.435   8.687  1.00  0.00    -0.744 OA
ENDBRANCH  82  86
ENDBRANCH  56  79
ENDBRANCH  30  31
ENDBRANCH  22  25
ENDBRANCH  20  21
ENDBRANCH   1  20
TORSDOF 16
