REMARK SMILES C[C@H](C(=O)NCCCNC(=O)c1ccc(-c2c3nc(c(-c4cc(S(=O)(=O)[O-])ccc4F)c4ccc([nH]4)c(-c4cc(S(=O)(=O)[O-])ccc4F)c4nc(c(-c5cc(S(=O)(=O)[O-])ccc5F)c5ccc2[nH]5)C=C4)C=C3)cc1)c1ccc(C[C@@H]2CCC[C@H]2O)cc1
REMARK SMILES IDX 6 1 5 2 3 3 4 4 2 6 1 7 75 8 76 9 87 10 77 11 86 12 78 13
REMARK SMILES IDX 79 14 80 15 81 16 84 17 82 18 83 19 85 20 7 22 8 23 9 24
REMARK SMILES IDX 10 25 11 27 12 28 13 29 74 30 14 31 73 32 15 33 16 34 17 35
REMARK SMILES IDX 67 36 18 37 72 38 66 39 68 40 19 41 71 42 65 43 64 44 20 46
REMARK SMILES IDX 52 47 32 48 51 49 33 50 36 51 50 52 69 53 34 54 35 55 49 57
REMARK SMILES IDX 70 58 37 59 21 60 22 61 30 62 23 63 29 64 31 65 28 66 24 67
REMARK SMILES IDX 25 68 26 69 27 70 53 71 54 72 62 73 55 74 61 75 63 76 60 77
REMARK SMILES IDX 56 78 57 79 58 80 59 81 38 82 39 83 47 84 40 85 46 86 48 87
REMARK SMILES IDX 45 88 41 89 42 90 43 91 44 92
REMARK H PARENT 5 5 85 21 9 26 68 45 36 56
REMARK Flexibility Score: inf
ROOT
ATOM      1  C   UNL     1     -11.819   5.340   7.788  1.00  0.00     0.117 C 
ENDROOT
BRANCH   1   2
ATOM      2  N   UNL     1     -11.321   5.928   6.560  1.00  0.00    -0.356 N 
ATOM      3  C   UNL     1     -10.549   5.393   5.572  1.00  0.00     0.227 C 
ATOM      4  O   UNL     1     -10.187   6.185   4.700  1.00  0.00    -0.274 OA
ATOM      5  H   UNL     1     -11.583   6.865   6.417  1.00  0.00     0.163 HD
BRANCH   3   6
ATOM      6  C   UNL     1     -10.128   3.913   5.631  1.00  0.00     0.105 C 
ATOM      7  C   UNL     1     -11.309   2.957   5.876  1.00  0.00     0.023 C 
BRANCH   6   8
ATOM      8  C   UNL     1      -9.353   3.386   4.425  1.00  0.00    -0.036 A 
ATOM      9  C   UNL     1      -8.522   2.268   4.606  1.00  0.00     0.005 A 
ATOM     10  C   UNL     1      -9.513   3.881   3.124  1.00  0.00     0.005 A 
ATOM     11  C   UNL     1      -7.867   1.679   3.526  1.00  0.00     0.004 A 
ATOM     12  C   UNL     1      -8.811   3.326   2.052  1.00  0.00     0.004 A 
ATOM     13  C   UNL     1      -7.970   2.226   2.244  1.00  0.00    -0.048 A 
BRANCH  13  14
ATOM     14  C   UNL     1      -7.193   1.655   1.087  1.00  0.00     0.041 C 
BRANCH  14  15
ATOM     15  C   UNL     1      -5.680   1.951   1.026  1.00  0.00     0.022 C 
ATOM     16  C   UNL     1      -4.854   1.299   2.142  1.00  0.00     0.007 C 
ATOM     17  C   UNL     1      -5.302   3.433   1.116  1.00  0.00     0.117 C 
ATOM     18  C   UNL     1      -4.568   2.383   3.181  1.00  0.00     0.003 C 
ATOM     19  C   UNL     1      -5.057   3.707   2.596  1.00  0.00     0.032 C 
BRANCH  17  20
ATOM     20  O   UNL     1      -4.088   3.651   0.390  1.00  0.00    -0.393 OA
ATOM     21  H   UNL     1      -3.391   3.079   0.748  1.00  0.00     0.210 HD
ENDBRANCH  17  20
ENDBRANCH  14  15
ENDBRANCH  13  14
ENDBRANCH   6   8
ENDBRANCH   3   6
ENDBRANCH   1   2
BRANCH   1  22
ATOM     22  C   UNL     1     -11.694   6.282   8.975  1.00  0.00     0.042 C 
BRANCH  22  23
ATOM     23  C   UNL     1     -12.401   7.621   8.807  1.00  0.00     0.118 C 
BRANCH  23  24
ATOM     24  N   UNL     1     -13.841   7.495   8.630  1.00  0.00    -0.352 N 
ATOM     25  C   UNL     1     -14.868   7.929   9.435  1.00  0.00     0.251 C 
ATOM     26  H   UNL     1     -14.121   7.027   7.811  1.00  0.00     0.163 HD
ATOM     27  O   UNL     1     -16.020   7.578   9.186  1.00  0.00    -0.269 OA
BRANCH  25  28
ATOM     28  C   UNL     1     -14.582   8.775  10.614  1.00  0.00     0.039 A 
ATOM     29  C   UNL     1     -15.206   8.477  11.828  1.00  0.00     0.014 A 
ATOM     30  C   UNL     1     -13.684   9.841  10.535  1.00  0.00     0.014 A 
ATOM     31  C   UNL     1     -14.852   9.185  12.980  1.00  0.00     0.010 A 
ATOM     32  C   UNL     1     -13.263  10.480  11.697  1.00  0.00     0.010 A 
ATOM     33  C   UNL     1     -13.837  10.154  12.935  1.00  0.00    -0.014 A 
BRANCH  33  34
ATOM     34  C   UNL     1     -13.349  10.824  14.171  1.00  0.00     0.031 A 
ATOM     35  C   UNL     1     -13.465  12.318  14.317  1.00  0.00     0.074 A 
ATOM     36  C   UNL     1     -12.732  10.096  15.124  1.00  0.00     0.049 A 
ATOM     37  N   UNL     1     -13.015  13.093  15.270  1.00  0.00    -0.248 NA
ATOM     38  C   UNL     1     -14.150  13.039  13.232  1.00  0.00     0.031 C 
ATOM     39  C   UNL     1     -12.514   8.647  15.075  1.00  0.00     0.029 A 
ATOM     40  N   UNL     1     -12.163  10.471  16.317  1.00  0.00    -0.354 N 
ATOM     41  C   UNL     1     -13.344  14.391  14.892  1.00  0.00     0.074 A 
ATOM     42  C   UNL     1     -13.982  14.301  13.596  1.00  0.00     0.031 C 
ATOM     43  C   UNL     1     -11.886   8.256  16.195  1.00  0.00     0.029 A 
ATOM     44  C   UNL     1     -11.607   9.426  17.020  1.00  0.00     0.049 A 
ATOM     45  H   UNL     1     -12.154  11.401  16.639  1.00  0.00     0.167 HD
ATOM     46  C   UNL     1     -13.151  15.547  15.573  1.00  0.00     0.034 A 
ATOM     47  C   UNL     1     -10.934   9.413  18.189  1.00  0.00     0.034 A 
ATOM     48  C   UNL     1     -12.538  15.618  16.876  1.00  0.00     0.049 A 
ATOM     49  C   UNL     1     -10.724  10.716  18.919  1.00  0.00     0.074 A 
ATOM     50  C   UNL     1     -12.360  16.728  17.684  1.00  0.00     0.029 A 
ATOM     51  N   UNL     1     -11.996  14.539  17.561  1.00  0.00    -0.354 N 
ATOM     52  N   UNL     1     -11.098  11.926  18.574  1.00  0.00    -0.248 NA
ATOM     53  C   UNL     1     -10.011  10.649  20.202  1.00  0.00     0.031 C 
ATOM     54  C   UNL     1     -11.654  16.332  18.825  1.00  0.00     0.029 A 
ATOM     55  C   UNL     1     -11.456  14.962  18.766  1.00  0.00     0.049 A 
ATOM     56  H   UNL     1     -11.996  13.608  17.238  1.00  0.00     0.167 HD
ATOM     57  C   UNL     1     -10.692  12.759  19.613  1.00  0.00     0.074 A 
ATOM     58  C   UNL     1     -10.064  11.910  20.604  1.00  0.00     0.031 C 
ATOM     59  C   UNL     1     -10.826  14.103  19.740  1.00  0.00     0.034 A 
BRANCH  46  60
ATOM     60  C   UNL     1     -13.592  16.831  14.912  1.00  0.00     0.023 A 
ATOM     61  C   UNL     1     -14.944  17.093  14.632  1.00  0.00     0.031 A 
ATOM     62  C   UNL     1     -12.645  17.809  14.559  1.00  0.00     0.131 A 
ATOM     63  C   UNL     1     -15.305  18.273  13.963  1.00  0.00     0.055 A 
ATOM     64  C   UNL     1     -13.018  19.014  13.962  1.00  0.00     0.041 A 
ATOM     65  F   UNL     1     -11.337  17.606  14.784  1.00  0.00    -0.206 F 
ATOM     66  C   UNL     1     -14.354  19.247  13.650  1.00  0.00     0.022 A 
BRANCH  63  67
ATOM     67  S   UNL     1     -17.020  18.463  13.405  1.00  0.00     0.124 S 
ATOM     68  O   UNL     1     -17.162  17.327  12.498  1.00  0.00    -0.237 OA
ATOM     69  O   UNL     1     -17.769  18.382  14.654  1.00  0.00    -0.237 OA
ATOM     70  O   UNL     1     -17.026  19.774  12.758  1.00  0.00    -0.744 OA
ENDBRANCH  63  67
ENDBRANCH  46  60
BRANCH  47  71
ATOM     71  C   UNL     1     -10.390   8.138  18.743  1.00  0.00     0.023 A 
ATOM     72  C   UNL     1     -10.840   7.637  19.975  1.00  0.00     0.031 A 
ATOM     73  C   UNL     1      -9.366   7.436  18.082  1.00  0.00     0.131 A 
ATOM     74  C   UNL     1     -10.227   6.506  20.538  1.00  0.00     0.055 A 
ATOM     75  C   UNL     1      -8.800   6.278  18.618  1.00  0.00     0.041 A 
ATOM     76  F   UNL     1      -8.900   7.867  16.899  1.00  0.00    -0.206 F 
ATOM     77  C   UNL     1      -9.219   5.816  19.862  1.00  0.00     0.022 A 
BRANCH  74  78
ATOM     78  S   UNL     1     -10.693   6.015  22.221  1.00  0.00     0.124 S 
ATOM     79  O   UNL     1     -10.434   7.239  22.970  1.00  0.00    -0.237 OA
ATOM     80  O   UNL     1     -12.095   5.650  22.051  1.00  0.00    -0.237 OA
ATOM     81  O   UNL     1      -9.791   4.902  22.512  1.00  0.00    -0.744 OA
ENDBRANCH  74  78
ENDBRANCH  47  71
BRANCH  59  82
ATOM     82  C   UNL     1     -10.322  14.723  21.019  1.00  0.00     0.023 A 
ATOM     83  C   UNL     1      -8.953  14.750  21.337  1.00  0.00     0.031 A 
ATOM     84  C   UNL     1     -11.227  15.281  21.940  1.00  0.00     0.131 A 
ATOM     85  C   UNL     1      -8.533  15.270  22.571  1.00  0.00     0.055 A 
ATOM     86  C   UNL     1     -10.797  15.853  23.138  1.00  0.00     0.041 A 
ATOM     87  F   UNL     1     -12.546  15.280  21.687  1.00  0.00    -0.206 F 
ATOM     88  C   UNL     1      -9.445  15.837  23.465  1.00  0.00     0.022 A 
BRANCH  85  89
ATOM     89  S   UNL     1      -6.786  15.111  23.033  1.00  0.00     0.124 S 
ATOM     90  O   UNL     1      -6.592  13.665  22.992  1.00  0.00    -0.237 OA
ATOM     91  O   UNL     1      -6.115  15.874  21.985  1.00  0.00    -0.237 OA
ATOM     92  O   UNL     1      -6.728  15.707  24.366  1.00  0.00    -0.744 OA
ENDBRANCH  85  89
ENDBRANCH  59  82
ENDBRANCH  33  34
ENDBRANCH  25  28
ENDBRANCH  23  24
ENDBRANCH  22  23
ENDBRANCH   1  22
TORSDOF 17
