REMARK SMILES CCc1ccc(C(=O)N2CC[C@H](C(=O)NCCCNC(=O)c3ccc(-c4c5nc(c(-c6cc(S(=O)(=O)[O-])ccc6F)c6ccc([nH]6)c(-c6cc(S(=O)(=O)[O-])ccc6F)c6nc(c(-c7cc(S(=O)(=O)[O-])ccc7F)c7ccc4[nH]7)C=C6)C=C5)cc3)[C@@H]2C)s1
REMARK SMILES IDX 17 1 16 2 15 3 13 4 14 5 12 7 9 8 10 9 85 10 11 11 86 12
REMARK SMILES IDX 7 13 8 14 6 15 3 16 4 17 87 18 5 19 2 20 1 21 18 22 19 23
REMARK SMILES IDX 20 24 21 26 22 27 23 28 84 29 24 30 83 31 25 32 26 33 27 34
REMARK SMILES IDX 77 35 28 36 82 37 76 38 78 39 29 40 81 41 75 42 74 43 30 45
REMARK SMILES IDX 62 46 42 47 61 48 43 49 46 50 60 51 79 52 44 53 45 54 59 56
REMARK SMILES IDX 80 57 47 58 31 59 32 60 40 61 33 62 39 63 41 64 38 65 34 66
REMARK SMILES IDX 35 67 36 68 37 69 63 70 64 71 72 72 65 73 71 74 73 75 70 76
REMARK SMILES IDX 66 77 67 78 68 79 69 80 48 81 49 82 57 83 50 84 56 85 58 86
REMARK SMILES IDX 55 87 51 88 52 89 53 90 54 91
REMARK H PARENT 15 6 19 25 78 44 46 55
REMARK Flexibility Score: inf
ROOT
ATOM      1  C   UNL     1       6.531  -4.474  -4.955  1.00  0.00     0.042 C 
ENDROOT
BRANCH   1   2
ATOM      2  C   UNL     1       6.244  -4.264  -6.442  1.00  0.00     0.117 C 
BRANCH   2   3
ATOM      3  N   UNL     1       5.602  -5.407  -7.066  1.00  0.00    -0.356 N 
ATOM      4  C   UNL     1       4.300  -5.635  -7.395  1.00  0.00     0.225 C 
ATOM      5  O   UNL     1       4.024  -6.712  -7.924  1.00  0.00    -0.275 OA
ATOM      6  H   UNL     1       6.213  -6.145  -7.290  1.00  0.00     0.163 HD
BRANCH   4   7
ATOM      7  C   UNL     1       3.247  -4.578  -7.113  1.00  0.00     0.102 C 
ATOM      8  N   UNL     1       1.332  -4.224  -5.789  1.00  0.00    -0.334 N 
ATOM      9  C   UNL     1       0.828  -4.915  -6.951  1.00  0.00     0.121 C 
ATOM     10  C   UNL     1       2.767  -4.492  -5.649  1.00  0.00     0.094 C 
ATOM     11  C   UNL     1       1.961  -4.786  -7.952  1.00  0.00     0.037 C 
ATOM     12  C   UNL     1       2.959  -5.773  -4.825  1.00  0.00     0.032 C 
BRANCH   8  13
ATOM     13  C   UNL     1       0.454  -3.681  -4.864  1.00  0.00     0.264 C 
ATOM     14  O   UNL     1      -0.713  -4.087  -4.828  1.00  0.00    -0.268 OA
BRANCH  13  15
ATOM     15  C   UNL     1       0.910  -2.547  -4.068  1.00  0.00     0.092 A 
ATOM     16  C   UNL     1       0.935  -0.698  -2.412  1.00  0.00     0.005 A 
ATOM     17  C   UNL     1       1.862  -0.512  -3.416  1.00  0.00     0.016 A 
ATOM     18  S   UNL     1       0.109  -2.186  -2.593  1.00  0.00    -0.135 S 
ATOM     19  C   UNL     1       1.839  -1.568  -4.374  1.00  0.00     0.026 A 
BRANCH  16  20
ATOM     20  C   UNL     1       0.581   0.237  -1.293  1.00  0.00     0.043 C 
ATOM     21  C   UNL     1       1.310  -0.096  -0.002  1.00  0.00     0.010 C 
ENDBRANCH  16  20
ENDBRANCH  13  15
ENDBRANCH   8  13
ENDBRANCH   4   7
ENDBRANCH   2   3
ENDBRANCH   1   2
BRANCH   1  22
ATOM     22  C   UNL     1       7.364  -5.715  -4.629  1.00  0.00     0.118 C 
BRANCH  22  23
ATOM     23  N   UNL     1       8.749  -5.564  -5.032  1.00  0.00    -0.352 N 
ATOM     24  C   UNL     1       9.897  -5.808  -4.320  1.00  0.00     0.251 C 
ATOM     25  H   UNL     1       8.887  -5.239  -5.951  1.00  0.00     0.163 HD
ATOM     26  O   UNL     1      10.967  -5.404  -4.777  1.00  0.00    -0.269 OA
BRANCH  24  27
ATOM     27  C   UNL     1       9.873  -6.531  -3.024  1.00  0.00     0.039 A 
ATOM     28  C   UNL     1      10.746  -6.112  -2.014  1.00  0.00     0.014 A 
ATOM     29  C   UNL     1       9.084  -7.670  -2.825  1.00  0.00     0.014 A 
ATOM     30  C   UNL     1      10.823  -6.819  -0.810  1.00  0.00     0.010 A 
ATOM     31  C   UNL     1       9.133  -8.354  -1.605  1.00  0.00     0.010 A 
ATOM     32  C   UNL     1      10.021  -7.950  -0.596  1.00  0.00    -0.014 A 
BRANCH  32  33
ATOM     33  C   UNL     1      10.171  -8.755   0.646  1.00  0.00     0.031 A 
ATOM     34  C   UNL     1      10.818 -10.115   0.587  1.00  0.00     0.074 A 
ATOM     35  C   UNL     1       9.717  -8.281   1.822  1.00  0.00     0.049 A 
ATOM     36  N   UNL     1      11.034 -10.974   1.551  1.00  0.00    -0.248 NA
ATOM     37  C   UNL     1      11.254 -10.577  -0.739  1.00  0.00     0.031 C 
ATOM     38  C   UNL     1       9.030  -7.002   2.011  1.00  0.00     0.029 A 
ATOM     39  N   UNL     1       9.760  -8.825   3.082  1.00  0.00    -0.354 N 
ATOM     40  C   UNL     1      11.608 -12.088   0.947  1.00  0.00     0.074 A 
ATOM     41  C   UNL     1      11.674 -11.805  -0.472  1.00  0.00     0.031 C 
ATOM     42  C   UNL     1       8.720  -6.860   3.311  1.00  0.00     0.029 A 
ATOM     43  C   UNL     1       9.176  -8.037   4.045  1.00  0.00     0.049 A 
ATOM     44  H   UNL     1      10.171  -9.698   3.277  1.00  0.00     0.167 HD
ATOM     45  C   UNL     1      12.051 -13.236   1.519  1.00  0.00     0.034 A 
ATOM     46  C   UNL     1       9.030  -8.238   5.370  1.00  0.00     0.034 A 
ATOM     47  C   UNL     1      12.011 -13.503   2.935  1.00  0.00     0.049 A 
ATOM     48  C   UNL     1       9.605  -9.482   5.996  1.00  0.00     0.074 A 
ATOM     49  C   UNL     1      12.470 -14.617   3.620  1.00  0.00     0.029 A 
ATOM     50  N   UNL     1      11.486 -12.642   3.889  1.00  0.00    -0.354 N 
ATOM     51  N   UNL     1      10.187 -10.505   5.415  1.00  0.00    -0.248 NA
ATOM     52  C   UNL     1       9.527  -9.583   7.459  1.00  0.00     0.031 C 
ATOM     53  C   UNL     1      12.192 -14.442   4.982  1.00  0.00     0.029 A 
ATOM     54  C   UNL     1      11.604 -13.200   5.152  1.00  0.00     0.049 A 
ATOM     55  H   UNL     1      11.086 -11.763   3.696  1.00  0.00     0.167 HD
ATOM     56  C   UNL     1      10.566 -11.359   6.447  1.00  0.00     0.074 A 
ATOM     57  C   UNL     1      10.159 -10.726   7.684  1.00  0.00     0.031 C 
ATOM     58  C   UNL     1      11.196 -12.558   6.377  1.00  0.00     0.034 A 
BRANCH  45  59
ATOM     59  C   UNL     1      12.587 -14.300   0.595  1.00  0.00     0.023 A 
ATOM     60  C   UNL     1      13.772 -14.113  -0.136  1.00  0.00     0.031 A 
ATOM     61  C   UNL     1      11.880 -15.502   0.413  1.00  0.00     0.131 A 
ATOM     62  C   UNL     1      14.177 -15.080  -1.069  1.00  0.00     0.055 A 
ATOM     63  C   UNL     1      12.326 -16.492  -0.464  1.00  0.00     0.041 A 
ATOM     64  F   UNL     1      10.732 -15.725   1.073  1.00  0.00    -0.206 F 
ATOM     65  C   UNL     1      13.474 -16.277  -1.222  1.00  0.00     0.022 A 
BRANCH  62  66
ATOM     66  S   UNL     1      15.566 -14.696  -2.170  1.00  0.00     0.124 S 
ATOM     67  O   UNL     1      15.039 -13.559  -2.921  1.00  0.00    -0.237 OA
ATOM     68  O   UNL     1      16.642 -14.398  -1.231  1.00  0.00    -0.237 OA
ATOM     69  O   UNL     1      15.738 -15.922  -2.946  1.00  0.00    -0.744 OA
ENDBRANCH  62  66
ENDBRANCH  45  59
BRANCH  46  70
ATOM     70  C   UNL     1       8.314  -7.239   6.206  1.00  0.00     0.023 A 
ATOM     71  C   UNL     1       9.005  -6.441   7.132  1.00  0.00     0.031 A 
ATOM     72  C   UNL     1       6.919  -7.102   6.120  1.00  0.00     0.131 A 
ATOM     73  C   UNL     1       8.291  -5.572   7.970  1.00  0.00     0.055 A 
ATOM     74  C   UNL     1       6.217  -6.210   6.932  1.00  0.00     0.041 A 
ATOM     75  F   UNL     1       6.219  -7.835   5.240  1.00  0.00    -0.206 F 
ATOM     76  C   UNL     1       6.903  -5.447   7.873  1.00  0.00     0.022 A 
BRANCH  73  77
ATOM     77  S   UNL     1       9.200  -4.655   9.244  1.00  0.00     0.124 S 
ATOM     78  O   UNL     1       9.869  -5.729   9.969  1.00  0.00    -0.237 OA
ATOM     79  O   UNL     1      10.059  -3.793   8.438  1.00  0.00    -0.237 OA
ATOM     80  O   UNL     1       8.146  -3.964   9.984  1.00  0.00    -0.744 OA
ENDBRANCH  73  77
ENDBRANCH  46  70
BRANCH  58  81
ATOM     81  C   UNL     1      11.526 -13.229   7.684  1.00  0.00     0.023 A 
ATOM     82  C   UNL     1      10.527 -13.785   8.501  1.00  0.00     0.031 A 
ATOM     83  C   UNL     1      12.858 -13.285   8.129  1.00  0.00     0.131 A 
ATOM     84  C   UNL     1      10.869 -14.331   9.747  1.00  0.00     0.055 A 
ATOM     85  C   UNL     1      13.198 -13.866   9.351  1.00  0.00     0.041 A 
ATOM     86  F   UNL     1      13.848 -12.767   7.385  1.00  0.00    -0.206 F 
ATOM     87  C   UNL     1      12.199 -14.382  10.173  1.00  0.00     0.022 A 
BRANCH  84  88
ATOM     88  S   UNL     1       9.541 -14.896  10.847  1.00  0.00     0.124 S 
ATOM     89  O   UNL     1       8.691 -13.714  10.935  1.00  0.00    -0.237 OA
ATOM     90  O   UNL     1       8.988 -16.026  10.108  1.00  0.00    -0.237 OA
ATOM     91  O   UNL     1      10.244 -15.246  12.080  1.00  0.00    -0.744 OA
ENDBRANCH  84  88
ENDBRANCH  58  81
ENDBRANCH  32  33
ENDBRANCH  24  27
ENDBRANCH  22  23
ENDBRANCH   1  22
TORSDOF 16
