REMARK SMILES COc1cc(/C=C2/S/C(=[NH+]\C(C)=O)NC2=O)cc(Br)c1OCC(=O)NCCCNC(=O)c1ccc(-c2c3nc(c(-c4cc(S(=O)(=O)[O-])ccc4F)c4ccc([nH]4)c(-c4cc(S(=O)(=O)[O-])ccc4F)c4nc(c(-c5cc(S(=O)(=O)[O-])ccc5F)c5ccc2[nH]5)C=C4)C=C3)cc1
REMARK SMILES IDX 27 1 26 2 25 3 23 4 24 5 22 7 21 8 20 9 3 10 4 11 5 12 18 13
REMARK SMILES IDX 17 14 19 15 2 16 1 17 6 18 7 19 8 20 15 21 9 22 14 23 16 24
REMARK SMILES IDX 10 25 11 27 12 29 13 30 28 31 29 32 30 33 31 35 32 36 33 37
REMARK SMILES IDX 94 38 34 39 93 40 35 41 36 42 37 43 87 44 38 45 92 46 86 47
REMARK SMILES IDX 88 48 39 49 91 50 85 51 84 52 40 54 72 55 52 56 71 57 53 58
REMARK SMILES IDX 56 59 70 60 89 61 54 62 55 63 69 65 90 66 57 67 41 68 42 69
REMARK SMILES IDX 50 70 43 71 49 72 51 73 48 74 44 75 45 76 46 77 47 78 73 79
REMARK SMILES IDX 74 80 82 81 75 82 81 83 83 84 80 85 76 86 77 87 78 88 79 89
REMARK SMILES IDX 58 90 59 91 67 92 60 93 66 94 68 95 65 96 61 97 62 98 63 99
REMARK SMILES IDX 64 100
REMARK H PARENT 25 6 14 26 10 28 29 34 88 53 56 64
REMARK Flexibility Score: inf
ROOT
ATOM      1  C   UNL     1      -2.459  -2.504  -0.815  1.00  0.00     0.042 C 
ENDROOT
BRANCH   1   2
ATOM      2  C   UNL     1      -3.443  -2.498   0.346  1.00  0.00     0.117 C 
BRANCH   2   3
ATOM      3  N   UNL     1      -3.344  -3.691   1.163  1.00  0.00    -0.353 N 
ATOM      4  C   UNL     1      -3.003  -3.802   2.478  1.00  0.00     0.257 C 
ATOM      5  O   UNL     1      -3.083  -4.915   3.003  1.00  0.00    -0.271 OA
ATOM      6  H   UNL     1      -3.552  -4.537   0.705  1.00  0.00     0.163 HD
BRANCH   4   7
ATOM      7  C   UNL     1      -2.624  -2.548   3.282  1.00  0.00     0.329 C 
BRANCH   7   8
ATOM      8  O   UNL     1      -1.464  -1.793   2.993  1.00  0.00    -0.479 OA
BRANCH   8   9
ATOM      9  C   UNL     1      -0.257  -2.406   2.780  1.00  0.00     0.176 A 
ATOM     10  C   UNL     1       0.554  -1.764   1.807  1.00  0.00     0.162 A 
ATOM     11  C   UNL     1       1.825  -2.264   1.489  1.00  0.00     0.058 A 
ATOM     12  C   UNL     1       2.306  -3.410   2.119  1.00  0.00    -0.019 A 
ATOM     13  C   UNL     1       0.275  -3.507   3.467  1.00  0.00     0.064 A 
ATOM     14  C   UNL     1       1.535  -4.016   3.114  1.00  0.00     0.028 A 
ATOM     15  Br  UNL     1      -0.487  -4.315   5.010  1.00  0.00    -0.047 Br
BRANCH  10  16
ATOM     16  O   UNL     1       0.023  -0.627   1.236  1.00  0.00    -0.493 OA
ATOM     17  C   UNL     1       0.714  -0.063   0.126  1.00  0.00     0.278 C 
ENDBRANCH  10  16
BRANCH  12  18
ATOM     18  C   UNL     1       3.627  -3.946   1.774  1.00  0.00     0.032 C 
ATOM     19  C   UNL     1       3.831  -5.107   1.136  1.00  0.00     0.110 C 
ATOM     20  S   UNL     1       5.400  -5.806   0.892  1.00  0.00     0.007 SA
ATOM     21  C   UNL     1       2.796  -6.045   0.613  1.00  0.00     0.346 C 
ATOM     22  C   UNL     1       4.741  -7.352   0.459  1.00  0.00     0.324 C 
ATOM     23  N   UNL     1       3.397  -7.230   0.295  1.00  0.00    -0.199 N 
ATOM     24  O   UNL     1       1.607  -5.824   0.502  1.00  0.00    -0.240 OA
ATOM     25  N   UNL     1       5.246  -8.516   0.294  1.00  0.00    -0.204 N 
ATOM     26  H   UNL     1       2.865  -7.984  -0.047  1.00  0.00     0.316 HD
ATOM     27  C   UNL     1       6.538  -8.953   0.390  1.00  0.00     0.304 C 
ATOM     28  H   UNL     1       4.594  -9.215   0.058  1.00  0.00     0.316 HD
ATOM     29  C   UNL     1       7.634  -8.177   1.065  1.00  0.00     0.144 C 
ATOM     30  O   UNL     1       6.833 -10.066  -0.052  1.00  0.00    -0.247 OA
ENDBRANCH  12  18
ENDBRANCH   8   9
ENDBRANCH   7   8
ENDBRANCH   4   7
ENDBRANCH   2   3
ENDBRANCH   1   2
BRANCH   1  31
ATOM     31  C   UNL     1      -2.599  -3.688  -1.769  1.00  0.00     0.118 C 
BRANCH  31  32
ATOM     32  N   UNL     1      -3.909  -3.768  -2.399  1.00  0.00    -0.352 N 
ATOM     33  C   UNL     1      -4.265  -3.732  -3.726  1.00  0.00     0.251 C 
ATOM     34  H   UNL     1      -4.663  -3.863  -1.773  1.00  0.00     0.163 HD
ATOM     35  O   UNL     1      -5.454  -3.652  -4.025  1.00  0.00    -0.269 OA
BRANCH  33  36
ATOM     36  C   UNL     1      -3.233  -3.756  -4.788  1.00  0.00     0.039 A 
ATOM     37  C   UNL     1      -3.386  -2.914  -5.894  1.00  0.00     0.014 A 
ATOM     38  C   UNL     1      -2.129  -4.609  -4.713  1.00  0.00     0.014 A 
ATOM     39  C   UNL     1      -2.395  -2.870  -6.878  1.00  0.00     0.010 A 
ATOM     40  C   UNL     1      -1.103  -4.504  -5.652  1.00  0.00     0.010 A 
ATOM     41  C   UNL     1      -1.222  -3.631  -6.744  1.00  0.00    -0.014 A 
BRANCH  41  42
ATOM     42  C   UNL     1      -0.110  -3.518  -7.727  1.00  0.00     0.031 A 
ATOM     43  C   UNL     1       0.310  -4.714  -8.539  1.00  0.00     0.074 A 
ATOM     44  C   UNL     1       0.564  -2.354  -7.841  1.00  0.00     0.049 A 
ATOM     45  N   UNL     1       1.300  -4.832  -9.387  1.00  0.00    -0.248 NA
ATOM     46  C   UNL     1      -0.468  -5.948  -8.352  1.00  0.00     0.031 C 
ATOM     47  C   UNL     1       0.274  -1.133  -7.084  1.00  0.00     0.029 A 
ATOM     48  N   UNL     1       1.634  -2.005  -8.628  1.00  0.00    -0.354 N 
ATOM     49  C   UNL     1       1.275  -6.154  -9.820  1.00  0.00     0.074 A 
ATOM     50  C   UNL     1       0.205  -6.810  -9.100  1.00  0.00     0.031 C 
ATOM     51  C   UNL     1       1.123  -0.166  -7.465  1.00  0.00     0.029 A 
ATOM     52  C   UNL     1       2.056  -0.707  -8.448  1.00  0.00     0.049 A 
ATOM     53  H   UNL     1       2.060  -2.626  -9.262  1.00  0.00     0.167 HD
ATOM     54  C   UNL     1       2.062  -6.759 -10.744  1.00  0.00     0.034 A 
ATOM     55  C   UNL     1       3.087  -0.032  -8.998  1.00  0.00     0.034 A 
ATOM     56  C   UNL     1       3.114  -6.085 -11.467  1.00  0.00     0.049 A 
ATOM     57  C   UNL     1       3.966  -0.740 -10.001  1.00  0.00     0.074 A 
ATOM     58  C   UNL     1       3.920  -6.585 -12.476  1.00  0.00     0.029 A 
ATOM     59  N   UNL     1       3.518  -4.774 -11.252  1.00  0.00    -0.354 N 
ATOM     60  N   UNL     1       3.886  -1.973 -10.446  1.00  0.00    -0.248 NA
ATOM     61  C   UNL     1       5.069   0.037 -10.582  1.00  0.00     0.031 C 
ATOM     62  C   UNL     1       4.864  -5.608 -12.809  1.00  0.00     0.029 A 
ATOM     63  C   UNL     1       4.589  -4.464 -12.077  1.00  0.00     0.049 A 
ATOM     64  H   UNL     1       3.104  -4.154 -10.609  1.00  0.00     0.167 HD
ATOM     65  C   UNL     1       4.904  -2.103 -11.388  1.00  0.00     0.074 A 
ATOM     66  C   UNL     1       5.571  -0.820 -11.457  1.00  0.00     0.031 C 
ATOM     67  C   UNL     1       5.252  -3.183 -12.133  1.00  0.00     0.034 A 
BRANCH  54  68
ATOM     68  C   UNL     1       1.841  -8.231 -11.003  1.00  0.00     0.023 A 
ATOM     69  C   UNL     1       0.633  -8.722 -11.529  1.00  0.00     0.031 A 
ATOM     70  C   UNL     1       2.859  -9.160 -10.719  1.00  0.00     0.131 A 
ATOM     71  C   UNL     1       0.450 -10.104 -11.692  1.00  0.00     0.055 A 
ATOM     72  C   UNL     1       2.700 -10.525 -10.961  1.00  0.00     0.041 A 
ATOM     73  F   UNL     1       4.026  -8.755 -10.195  1.00  0.00    -0.206 F 
ATOM     74  C   UNL     1       1.485 -11.007 -11.439  1.00  0.00     0.022 A 
BRANCH  71  75
ATOM     75  S   UNL     1      -1.204 -10.716 -12.114  1.00  0.00     0.124 S 
ATOM     76  O   UNL     1      -2.001 -10.202 -11.001  1.00  0.00    -0.237 OA
ATOM     77  O   UNL     1      -1.448 -10.098 -13.412  1.00  0.00    -0.237 OA
ATOM     78  O   UNL     1      -1.039 -12.168 -12.134  1.00  0.00    -0.744 OA
ENDBRANCH  71  75
ENDBRANCH  54  68
BRANCH  55  79
ATOM     79  C   UNL     1       3.368   1.382  -8.612  1.00  0.00     0.023 A 
ATOM     80  C   UNL     1       3.328   2.413  -9.564  1.00  0.00     0.031 A 
ATOM     81  C   UNL     1       3.752   1.716  -7.300  1.00  0.00     0.131 A 
ATOM     82  C   UNL     1       3.727   3.711  -9.210  1.00  0.00     0.055 A 
ATOM     83  C   UNL     1       4.084   3.023  -6.937  1.00  0.00     0.041 A 
ATOM     84  F   UNL     1       3.809   0.772  -6.346  1.00  0.00    -0.206 F 
ATOM     85  C   UNL     1       4.090   4.027  -7.900  1.00  0.00     0.022 A 
BRANCH  82  86
ATOM     86  S   UNL     1       3.884   4.957 -10.520  1.00  0.00     0.124 S 
ATOM     87  O   UNL     1       4.818   4.309 -11.434  1.00  0.00    -0.237 OA
ATOM     88  O   UNL     1       2.508   5.079 -10.987  1.00  0.00    -0.237 OA
ATOM     89  O   UNL     1       4.409   6.125  -9.815  1.00  0.00    -0.744 OA
ENDBRANCH  82  86
ENDBRANCH  55  79
BRANCH  67  90
ATOM     90  C   UNL     1       6.375  -3.002 -13.128  1.00  0.00     0.023 A 
ATOM     91  C   UNL     1       7.693  -2.734 -12.721  1.00  0.00     0.031 A 
ATOM     92  C   UNL     1       6.115  -3.089 -14.508  1.00  0.00     0.131 A 
ATOM     93  C   UNL     1       8.689  -2.503 -13.683  1.00  0.00     0.055 A 
ATOM     94  C   UNL     1       7.123  -2.928 -15.459  1.00  0.00     0.041 A 
ATOM     95  F   UNL     1       4.873  -3.338 -14.956  1.00  0.00    -0.206 F 
ATOM     96  C   UNL     1       8.416  -2.619 -15.049  1.00  0.00     0.022 A 
BRANCH  93  97
ATOM     97  S   UNL     1      10.324  -1.947 -13.129  1.00  0.00     0.124 S 
ATOM     98  O   UNL     1       9.998  -0.724 -12.402  1.00  0.00    -0.237 OA
ATOM     99  O   UNL     1      10.776  -3.070 -12.314  1.00  0.00    -0.237 OA
ATOM    100  O   UNL     1      11.061  -1.750 -14.376  1.00  0.00    -0.744 OA
ENDBRANCH  93  97
ENDBRANCH  67  90
ENDBRANCH  41  42
ENDBRANCH  33  36
ENDBRANCH  31  32
ENDBRANCH   1  31
TORSDOF 17
