REMARK SMILES Cc1oc2cc3c(cc2c1C)[C@H](C)[C@@H](CC(=O)N[C@H](CC1=c2ccccc2=NC1)C(=O)NCCCNC(=O)c1ccc(-c2c4nc(c(-c5cc(S(=O)(=O)[O-])ccc5F)c5ccc([nH]5)c(-c5cc(S(=O)(=O)[O-])ccc5F)c5nc(c(-c6cc(S(=O)(=O)[O-])ccc6F)c6ccc2[nH]6)C=C5)C=C4)cc1)C(=O)O3
REMARK SMILES IDX 34 1 33 2 32 3 30 4 31 5 19 7 18 8 16 9 17 10 15 12 14 13
REMARK SMILES IDX 1 14 2 15 3 16 10 17 4 18 9 19 11 20 5 21 8 22 6 23 7 24
REMARK SMILES IDX 104 25 12 26 102 27 13 28 103 29 20 30 21 31 22 32 29 33
REMARK SMILES IDX 23 34 27 35 28 36 24 37 26 38 25 39 35 40 36 41 37 42 38 44
REMARK SMILES IDX 39 45 40 46 101 47 41 48 100 49 42 50 43 51 44 52 94 53
REMARK SMILES IDX 45 54 99 55 93 56 95 57 46 58 98 59 92 60 91 61 47 63 79 64
REMARK SMILES IDX 59 65 78 66 60 67 63 68 77 69 96 70 61 71 62 72 76 74 97 75
REMARK SMILES IDX 64 76 48 77 49 78 57 79 50 80 56 81 58 82 55 83 51 84 52 85
REMARK SMILES IDX 53 86 54 87 80 88 81 89 89 90 82 91 88 92 90 93 87 94 83 95
REMARK SMILES IDX 84 96 85 97 86 98 65 99 66 100 74 101 67 102 73 103 75 104
REMARK SMILES IDX 72 105 68 106 69 107 70 108 71 109
REMARK H PARENT 32 6 18 11 36 43 95 62 63 73
REMARK Flexibility Score: inf
ROOT
ATOM      1  C   UNL     1      -4.257  -8.166 -10.472  1.00  0.00     0.042 C 
ENDROOT
BRANCH   1   2
ATOM      2  C   UNL     1      -3.986  -6.055  -9.834  1.00  0.00     0.117 C 
BRANCH   2   3
ATOM      3  N   UNL     1      -4.284  -5.625  -8.020  1.00  0.00    -0.354 N 
ATOM      4  C   UNL     1      -3.988  -6.544  -6.857  1.00  0.00     0.242 C 
ATOM      5  O   UNL     1      -4.936  -7.216  -6.438  1.00  0.00    -0.273 OA
ATOM      6  H   UNL     1      -4.660  -4.738  -7.816  1.00  0.00     0.163 HD
BRANCH   4   7
ATOM      7  C   UNL     1      -2.416  -7.026  -6.355  1.00  0.00     0.175 C 
BRANCH   7   8
ATOM      8  N   UNL     1      -1.887  -5.667  -6.066  1.00  0.00    -0.344 N 
ATOM      9  C   UNL     1      -2.422  -4.729  -5.215  1.00  0.00     0.221 C 
ATOM     10  O   UNL     1      -2.420  -3.548  -5.581  1.00  0.00    -0.275 OA
ATOM     11  H   UNL     1      -1.061  -5.410  -6.536  1.00  0.00     0.164 HD
BRANCH   9  12
ATOM     12  C   UNL     1      -2.987  -5.063  -3.829  1.00  0.00     0.116 C 
BRANCH  12  13
ATOM     13  C   UNL     1      -4.459  -5.524  -3.779  1.00  0.00     0.116 C 
ATOM     14  C   UNL     1     -10.779  -9.928  -0.201  1.00  0.00     0.088 C 
ATOM     15  C   UNL     1      -9.748  -8.978  -0.661  1.00  0.00     0.105 A 
ATOM     16  O   UNL     1      -9.321  -9.175  -1.931  1.00  0.00    -0.461 OA
ATOM     17  C   UNL     1      -9.083  -7.906  -0.086  1.00  0.00    -0.002 A 
ATOM     18  C   UNL     1      -8.371  -8.246  -2.175  1.00  0.00     0.138 A 
ATOM     19  C   UNL     1      -8.191  -7.404  -1.085  1.00  0.00     0.024 A 
ATOM     20  C   UNL     1      -9.219  -7.389   1.292  1.00  0.00     0.049 C 
ATOM     21  C   UNL     1      -7.636  -8.186  -3.331  1.00  0.00     0.095 A 
ATOM     22  C   UNL     1      -7.229  -6.362  -1.167  1.00  0.00     0.020 A 
ATOM     23  C   UNL     1      -6.618  -7.239  -3.305  1.00  0.00     0.138 A 
ATOM     24  C   UNL     1      -6.422  -6.267  -2.311  1.00  0.00    -0.001 A 
ATOM     25  O   UNL     1      -5.689  -7.460  -4.294  1.00  0.00    -0.426 OA
ATOM     26  C   UNL     1      -5.258  -5.262  -2.459  1.00  0.00     0.035 C 
ATOM     27  C   UNL     1      -4.481  -7.028  -3.829  1.00  0.00     0.315 C 
ATOM     28  C   UNL     1      -5.777  -3.823  -2.376  1.00  0.00     0.014 C 
ATOM     29  O   UNL     1      -3.599  -7.781  -3.442  1.00  0.00    -0.251 OA
ENDBRANCH  12  13
ENDBRANCH   9  12
ENDBRANCH   7   8
BRANCH   7  30
ATOM     30  C   UNL     1      -1.427  -8.154  -7.409  1.00  0.00     0.068 C 
BRANCH  30  31
ATOM     31  C   UNL     1      -1.192  -7.803  -9.169  1.00  0.00    -0.037 C 
ATOM     32  C   UNL     1      -2.195  -7.809 -10.123  1.00  0.00     0.001 A 
ATOM     33  C   UNL     1      -0.952  -6.403  -9.014  1.00  0.00     0.174 C 
ATOM     34  C   UNL     1      -2.822  -6.911 -11.590  1.00  0.00     0.010 A 
ATOM     35  C   UNL     1      -3.204  -7.458  -8.832  1.00  0.00     0.065 A 
ATOM     36  N   UNL     1      -2.310  -6.327  -8.465  1.00  0.00    -0.280 NA
ATOM     37  C   UNL     1      -4.351  -6.540 -11.852  1.00  0.00     0.001 A 
ATOM     38  C   UNL     1      -5.237  -7.312  -9.065  1.00  0.00     0.028 A 
ATOM     39  C   UNL     1      -5.717  -6.771 -10.548  1.00  0.00     0.002 A 
ENDBRANCH  30  31
ENDBRANCH   7  30
ENDBRANCH   4   7
ENDBRANCH   2   3
ENDBRANCH   1   2
BRANCH   1  40
ATOM     40  C   UNL     1      -5.700  -9.256 -10.428  1.00  0.00     0.118 C 
BRANCH  40  41
ATOM     41  N   UNL     1      -6.811  -9.047 -11.366  1.00  0.00    -0.352 N 
ATOM     42  C   UNL     1      -6.867  -9.350 -12.704  1.00  0.00     0.251 C 
ATOM     43  H   UNL     1      -7.620  -8.636 -10.985  1.00  0.00     0.163 HD
ATOM     44  O   UNL     1      -7.803  -9.010 -13.412  1.00  0.00    -0.269 OA
BRANCH  42  45
ATOM     45  C   UNL     1      -5.740 -10.131 -13.212  1.00  0.00     0.039 A 
ATOM     46  C   UNL     1      -5.569 -11.400 -12.652  1.00  0.00     0.014 A 
ATOM     47  C   UNL     1      -4.733  -9.481 -13.924  1.00  0.00     0.014 A 
ATOM     48  C   UNL     1      -4.306 -11.947 -12.643  1.00  0.00     0.010 A 
ATOM     49  C   UNL     1      -3.476 -10.066 -13.964  1.00  0.00     0.010 A 
ATOM     50  C   UNL     1      -3.259 -11.267 -13.275  1.00  0.00    -0.014 A 
BRANCH  50  51
ATOM     51  C   UNL     1      -2.006 -12.014 -13.330  1.00  0.00     0.031 A 
ATOM     52  C   UNL     1      -1.816 -12.604 -14.682  1.00  0.00     0.074 A 
ATOM     53  C   UNL     1      -0.955 -11.765 -12.528  1.00  0.00     0.049 A 
ATOM     54  N   UNL     1      -1.383 -11.889 -15.677  1.00  0.00    -0.248 NA
ATOM     55  C   UNL     1      -2.457 -13.857 -15.076  1.00  0.00     0.031 C 
ATOM     56  C   UNL     1      -0.544 -10.430 -12.084  1.00  0.00     0.029 A 
ATOM     57  N   UNL     1       0.084 -12.586 -12.167  1.00  0.00    -0.354 N 
ATOM     58  C   UNL     1      -1.734 -12.556 -16.833  1.00  0.00     0.074 A 
ATOM     59  C   UNL     1      -2.394 -13.773 -16.413  1.00  0.00     0.031 C 
ATOM     60  C   UNL     1       0.748 -10.488 -11.697  1.00  0.00     0.029 A 
ATOM     61  C   UNL     1       1.204 -11.876 -11.738  1.00  0.00     0.049 A 
ATOM     62  H   UNL     1       0.043 -13.569 -12.206  1.00  0.00     0.167 HD
ATOM     63  C   UNL     1      -1.475 -12.062 -18.072  1.00  0.00     0.034 A 
ATOM     64  C   UNL     1       2.475 -12.292 -12.002  1.00  0.00     0.034 A 
ATOM     65  C   UNL     1      -0.776 -10.810 -18.101  1.00  0.00     0.049 A 
ATOM     66  C   UNL     1       2.572 -11.936 -13.476  1.00  0.00     0.074 A 
ATOM     67  C   UNL     1      -1.086  -9.481 -18.282  1.00  0.00     0.029 A 
ATOM     68  N   UNL     1       0.565 -10.817 -17.788  1.00  0.00    -0.354 N 
ATOM     69  N   UNL     1       2.749 -10.736 -13.975  1.00  0.00    -0.248 NA
ATOM     70  C   UNL     1       2.090 -12.922 -14.445  1.00  0.00     0.031 C 
ATOM     71  C   UNL     1      -0.033  -8.751 -17.642  1.00  0.00     0.029 A 
ATOM     72  C   UNL     1       0.826  -9.683 -17.056  1.00  0.00     0.049 A 
ATOM     73  H   UNL     1       1.218 -11.508 -18.044  1.00  0.00     0.167 HD
ATOM     74  C   UNL     1       2.140 -10.758 -15.238  1.00  0.00     0.074 A 
ATOM     75  C   UNL     1       1.796 -12.143 -15.475  1.00  0.00     0.031 C 
ATOM     76  C   UNL     1       1.767  -9.648 -15.945  1.00  0.00     0.034 A 
BRANCH  63  77
ATOM     77  C   UNL     1      -1.669 -12.854 -19.302  1.00  0.00     0.023 A 
ATOM     78  C   UNL     1      -2.869 -12.896 -20.025  1.00  0.00     0.031 A 
ATOM     79  C   UNL     1      -0.538 -13.511 -19.818  1.00  0.00     0.131 A 
ATOM     80  C   UNL     1      -2.895 -13.576 -21.254  1.00  0.00     0.055 A 
ATOM     81  C   UNL     1      -0.568 -14.175 -21.038  1.00  0.00     0.041 A 
ATOM     82  F   UNL     1       0.624 -13.484 -19.141  1.00  0.00    -0.206 F 
ATOM     83  C   UNL     1      -1.750 -14.204 -21.766  1.00  0.00     0.022 A 
BRANCH  80  84
ATOM     84  S   UNL     1      -4.398 -13.657 -22.269  1.00  0.00     0.124 S 
ATOM     85  O   UNL     1      -3.949 -13.076 -23.532  1.00  0.00    -0.237 OA
ATOM     86  O   UNL     1      -4.662 -15.093 -22.302  1.00  0.00    -0.237 OA
ATOM     87  O   UNL     1      -5.367 -12.861 -21.524  1.00  0.00    -0.744 OA
ENDBRANCH  80  84
ENDBRANCH  63  77
BRANCH  64  88
ATOM     88  C   UNL     1       2.762 -13.654 -11.423  1.00  0.00     0.023 A 
ATOM     89  C   UNL     1       3.078 -14.799 -12.165  1.00  0.00     0.031 A 
ATOM     90  C   UNL     1       2.578 -13.836 -10.032  1.00  0.00     0.131 A 
ATOM     91  C   UNL     1       2.980 -16.071 -11.578  1.00  0.00     0.055 A 
ATOM     92  C   UNL     1       2.559 -15.099  -9.432  1.00  0.00     0.041 A 
ATOM     93  F   UNL     1       2.368 -12.777  -9.231  1.00  0.00    -0.206 F 
ATOM     94  C   UNL     1       2.718 -16.232 -10.217  1.00  0.00     0.022 A 
BRANCH  91  95
ATOM     95  S   UNL     1       3.057 -17.564 -12.609  1.00  0.00     0.124 S 
ATOM     96  O   UNL     1       4.026 -18.386 -11.891  1.00  0.00    -0.237 OA
ATOM     97  O   UNL     1       1.671 -18.021 -12.553  1.00  0.00    -0.237 OA
ATOM     98  O   UNL     1       3.497 -17.055 -13.903  1.00  0.00    -0.744 OA
ENDBRANCH  91  95
ENDBRANCH  64  88
BRANCH  76  99
ATOM     99  C   UNL     1       2.188  -8.319 -15.393  1.00  0.00     0.023 A 
ATOM    100  C   UNL     1       1.228  -7.351 -15.034  1.00  0.00     0.031 A 
ATOM    101  C   UNL     1       3.542  -7.958 -15.341  1.00  0.00     0.131 A 
ATOM    102  C   UNL     1       1.629  -6.045 -14.730  1.00  0.00     0.055 A 
ATOM    103  C   UNL     1       3.941  -6.671 -14.974  1.00  0.00     0.041 A 
ATOM    104  F   UNL     1       4.498  -8.830 -15.703  1.00  0.00    -0.206 F 
ATOM    105  C   UNL     1       2.983  -5.702 -14.686  1.00  0.00     0.022 A 
BRANCH 102 106
ATOM    106  S   UNL     1       0.403  -4.737 -14.457  1.00  0.00     0.124 S 
ATOM    107  O   UNL     1       0.905  -4.077 -13.255  1.00  0.00    -0.237 OA
ATOM    108  O   UNL     1       0.512  -3.959 -15.689  1.00  0.00    -0.237 OA
ATOM    109  O   UNL     1      -0.854  -5.460 -14.280  1.00  0.00    -0.744 OA
ENDBRANCH 102 106
ENDBRANCH  76  99
ENDBRANCH  50  51
ENDBRANCH  42  45
ENDBRANCH  40  41
ENDBRANCH   1  40
TORSDOF 18
