REMARK SMILES CCCCCCNC(=O)Oc1cccc(-c2ccc([C@@H](C)C(=O)NCCCNC(=O)c3ccc(-c4c5nc(c(-c6cc(S(=O)(=O)[O-])ccc6F)c6ccc([nH]6)c(-c6cc(S(=O)(=O)[O-])ccc6F)c6nc(c(-c7cc(S(=O)(=O)[O-])ccc7F)c7ccc4[nH]7)C=C6)C=C5)cc3)cc2[N+](=O)[O-])c1
REMARK SMILES IDX 20 1 21 2 19 3 16 4 17 5 95 6 18 7 94 8 15 9 11 10 12 11
REMARK SMILES IDX 99 12 13 13 14 14 10 15 8 16 7 17 9 19 6 20 5 21 4 22 3 23
REMARK SMILES IDX 2 24 1 25 96 26 97 27 98 28 22 29 23 30 24 31 25 33 26 34
REMARK SMILES IDX 27 35 28 36 29 37 30 39 31 40 32 41 93 42 33 43 92 44 34 45
REMARK SMILES IDX 35 46 36 47 86 48 37 49 91 50 85 51 87 52 38 53 90 54 84 55
REMARK SMILES IDX 83 56 39 58 71 59 51 60 70 61 52 62 55 63 69 64 88 65 53 66
REMARK SMILES IDX 54 67 68 69 89 70 56 71 40 72 41 73 49 74 42 75 48 76 50 77
REMARK SMILES IDX 47 78 43 79 44 80 45 81 46 82 72 83 73 84 81 85 74 86 80 87
REMARK SMILES IDX 82 88 79 89 75 90 76 91 77 92 78 93 57 94 58 95 66 96 59 97
REMARK SMILES IDX 65 98 67 99 64 100 60 101 61 102 62 103 63 104
REMARK H PARENT 7 18 24 32 28 38 87 57 55 68
REMARK Flexibility Score: inf
ROOT
ATOM      1  C   UNL     1      -4.918  12.806   4.735  1.00  0.00     0.105 C 
ATOM      2  C   UNL     1      -6.178  13.632   4.984  1.00  0.00     0.023 C 
ENDROOT
BRANCH   1   3
ATOM      3  C   UNL     1      -5.112  11.298   4.792  1.00  0.00    -0.029 A 
ATOM      4  C   UNL     1      -5.270   8.428   4.941  1.00  0.00     0.060 A 
ATOM      5  C   UNL     1      -5.734   9.262   5.975  1.00  0.00     0.016 A 
ATOM      6  C   UNL     1      -4.796   9.086   3.790  1.00  0.00     0.277 A 
ATOM      7  C   UNL     1      -5.705  10.658   5.879  1.00  0.00     0.005 A 
ATOM      8  C   UNL     1      -4.676  10.493   3.730  1.00  0.00     0.090 A 
BRANCH   4   9
ATOM      9  C   UNL     1      -5.289   6.963   5.159  1.00  0.00    -0.008 A 
ATOM     10  C   UNL     1      -4.231   4.778   5.085  1.00  0.00     0.133 A 
ATOM     11  C   UNL     1      -5.357   4.176   5.638  1.00  0.00     0.047 A 
ATOM     12  C   UNL     1      -4.179   6.155   4.859  1.00  0.00     0.056 A 
ATOM     13  C   UNL     1      -6.453   4.962   5.969  1.00  0.00     0.004 A 
ATOM     14  C   UNL     1      -6.423   6.336   5.717  1.00  0.00     0.009 A 
BRANCH  10  15
ATOM     15  O   UNL     1      -3.229   3.906   4.623  1.00  0.00    -0.410 OA
BRANCH  15  16
ATOM     16  C   UNL     1      -1.885   4.201   4.794  1.00  0.00     0.412 C 
ATOM     17  N   UNL     1      -1.069   3.342   4.109  1.00  0.00    -0.321 N 
ATOM     18  H   UNL     1      -0.100   3.445   4.248  1.00  0.00     0.167 HD
ATOM     19  O   UNL     1      -1.429   5.118   5.463  1.00  0.00    -0.224 OA
BRANCH  17  20
ATOM     20  C   UNL     1      -1.492   2.294   3.200  1.00  0.00     0.119 C 
BRANCH  20  21
ATOM     21  C   UNL     1      -0.925   2.503   1.795  1.00  0.00     0.021 C 
BRANCH  21  22
ATOM     22  C   UNL     1       0.603   2.410   1.701  1.00  0.00     0.002 C 
BRANCH  22  23
ATOM     23  C   UNL     1       1.208   1.080   2.161  1.00  0.00    -0.000 C 
BRANCH  23  24
ATOM     24  C   UNL     1       0.720  -0.158   1.404  1.00  0.00    -0.003 C 
ATOM     25  C   UNL     1       1.083  -0.140  -0.073  1.00  0.00     0.004 C 
ENDBRANCH  23  24
ENDBRANCH  22  23
ENDBRANCH  21  22
ENDBRANCH  20  21
ENDBRANCH  17  20
ENDBRANCH  15  16
ENDBRANCH  10  15
ENDBRANCH   4   9
BRANCH   6  26
ATOM     26  N   UNL     1      -4.492   8.353   2.561  1.00  0.00     0.063 N 
ATOM     27  O   UNL     1      -3.500   8.719   1.913  1.00  0.00    -0.258 OA
ATOM     28  O   UNL     1      -5.281   7.469   2.203  1.00  0.00    -0.258 OA
ENDBRANCH   6  26
ENDBRANCH   1   3
BRANCH   1  29
ATOM     29  C   UNL     1      -3.665  13.304   5.474  1.00  0.00     0.227 C 
ATOM     30  O   UNL     1      -2.662  13.624   4.824  1.00  0.00    -0.274 OA
ATOM     31  N   UNL     1      -3.570  13.437   6.824  1.00  0.00    -0.356 N 
ATOM     32  H   UNL     1      -2.713  13.816   7.126  1.00  0.00     0.163 HD
BRANCH  31  33
ATOM     33  C   UNL     1      -4.486  13.129   7.906  1.00  0.00     0.117 C 
BRANCH  33  34
ATOM     34  C   UNL     1      -4.159  11.799   8.584  1.00  0.00     0.042 C 
BRANCH  34  35
ATOM     35  C   UNL     1      -3.054  11.883   9.630  1.00  0.00     0.118 C 
BRANCH  35  36
ATOM     36  N   UNL     1      -3.459  12.661  10.791  1.00  0.00    -0.352 N 
ATOM     37  C   UNL     1      -3.620  12.302  12.106  1.00  0.00     0.251 C 
ATOM     38  H   UNL     1      -3.651  13.607  10.600  1.00  0.00     0.163 HD
ATOM     39  O   UNL     1      -4.207  13.084  12.851  1.00  0.00    -0.269 OA
BRANCH  37  40
ATOM     40  C   UNL     1      -3.122  11.008  12.633  1.00  0.00     0.039 A 
ATOM     41  C   UNL     1      -3.839  10.392  13.665  1.00  0.00     0.014 A 
ATOM     42  C   UNL     1      -1.935  10.425  12.182  1.00  0.00     0.014 A 
ATOM     43  C   UNL     1      -3.396   9.181  14.202  1.00  0.00     0.010 A 
ATOM     44  C   UNL     1      -1.541   9.172  12.656  1.00  0.00     0.010 A 
ATOM     45  C   UNL     1      -2.260   8.540  13.679  1.00  0.00    -0.014 A 
BRANCH  45  46
ATOM     46  C   UNL     1      -1.833   7.213  14.198  1.00  0.00     0.031 A 
ATOM     47  C   UNL     1      -0.503   7.046  14.885  1.00  0.00     0.074 A 
ATOM     48  C   UNL     1      -2.639   6.147  14.019  1.00  0.00     0.049 A 
ATOM     49  N   UNL     1       0.030   5.970  15.406  1.00  0.00    -0.248 NA
ATOM     50  C   UNL     1       0.351   8.239  14.974  1.00  0.00     0.031 C 
ATOM     51  C   UNL     1      -3.924   6.173  13.315  1.00  0.00     0.029 A 
ATOM     52  N   UNL     1      -2.505   4.840  14.413  1.00  0.00    -0.354 N 
ATOM     53  C   UNL     1       1.283   6.352  15.876  1.00  0.00     0.074 A 
ATOM     54  C   UNL     1       1.453   7.745  15.519  1.00  0.00     0.031 C 
ATOM     55  C   UNL     1      -4.476   4.951  13.361  1.00  0.00     0.029 A 
ATOM     56  C   UNL     1      -3.570   4.044  14.058  1.00  0.00     0.049 A 
ATOM     57  H   UNL     1      -1.721   4.503  14.903  1.00  0.00     0.167 HD
ATOM     58  C   UNL     1       2.196   5.617  16.561  1.00  0.00     0.034 A 
ATOM     59  C   UNL     1      -3.793   2.732  14.267  1.00  0.00     0.034 A 
ATOM     60  C   UNL     1       2.006   4.229  16.912  1.00  0.00     0.049 A 
ATOM     61  C   UNL     1      -2.767   1.937  15.033  1.00  0.00     0.074 A 
ATOM     62  C   UNL     1       2.836   3.403  17.651  1.00  0.00     0.029 A 
ATOM     63  N   UNL     1       0.913   3.454  16.538  1.00  0.00    -0.354 N 
ATOM     64  N   UNL     1      -1.617   2.332  15.530  1.00  0.00    -0.248 NA
ATOM     65  C   UNL     1      -3.080   0.526  15.281  1.00  0.00     0.031 C 
ATOM     66  C   UNL     1       2.283   2.117  17.662  1.00  0.00     0.029 A 
ATOM     67  C   UNL     1       1.065   2.155  17.003  1.00  0.00     0.049 A 
ATOM     68  H   UNL     1       0.144   3.780  16.018  1.00  0.00     0.167 HD
ATOM     69  C   UNL     1      -1.081   1.219  16.172  1.00  0.00     0.074 A 
ATOM     70  C   UNL     1      -2.049   0.151  16.023  1.00  0.00     0.031 C 
ATOM     71  C   UNL     1       0.104   1.090  16.824  1.00  0.00     0.034 A 
BRANCH  58  72
ATOM     72  C   UNL     1       3.490   6.299  16.949  1.00  0.00     0.023 A 
ATOM     73  C   UNL     1       3.513   7.414  17.806  1.00  0.00     0.031 A 
ATOM     74  C   UNL     1       4.718   5.844  16.436  1.00  0.00     0.131 A 
ATOM     75  C   UNL     1       4.721   8.082  18.060  1.00  0.00     0.055 A 
ATOM     76  C   UNL     1       5.928   6.461  16.761  1.00  0.00     0.041 A 
ATOM     77  F   UNL     1       4.763   4.796  15.598  1.00  0.00    -0.206 F 
ATOM     78  C   UNL     1       5.933   7.598  17.564  1.00  0.00     0.022 A 
BRANCH  75  79
ATOM     79  S   UNL     1       4.666   9.677  18.924  1.00  0.00     0.124 S 
ATOM     80  O   UNL     1       3.795  10.457  18.048  1.00  0.00    -0.237 OA
ATOM     81  O   UNL     1       4.109   9.313  20.221  1.00  0.00    -0.237 OA
ATOM     82  O   UNL     1       6.063  10.105  18.942  1.00  0.00    -0.744 OA
ENDBRANCH  75  79
ENDBRANCH  58  72
BRANCH  59  83
ATOM     83  C   UNL     1      -5.033   2.085  13.750  1.00  0.00     0.023 A 
ATOM     84  C   UNL     1      -5.993   1.552  14.624  1.00  0.00     0.031 A 
ATOM     85  C   UNL     1      -5.261   1.964  12.367  1.00  0.00     0.131 A 
ATOM     86  C   UNL     1      -7.114   0.881  14.108  1.00  0.00     0.055 A 
ATOM     87  C   UNL     1      -6.404   1.344  11.859  1.00  0.00     0.041 A 
ATOM     88  F   UNL     1      -4.379   2.463  11.487  1.00  0.00    -0.206 F 
ATOM     89  C   UNL     1      -7.332   0.786  12.732  1.00  0.00     0.022 A 
BRANCH  86  90
ATOM     90  S   UNL     1      -8.246   0.062  15.265  1.00  0.00     0.124 S 
ATOM     91  O   UNL     1      -7.351  -0.858  15.957  1.00  0.00    -0.237 OA
ATOM     92  O   UNL     1      -8.743   1.188  16.050  1.00  0.00    -0.237 OA
ATOM     93  O   UNL     1      -9.232  -0.566  14.388  1.00  0.00    -0.744 OA
ENDBRANCH  86  90
ENDBRANCH  59  83
BRANCH  71  94
ATOM     94  C   UNL     1       0.390  -0.256  17.448  1.00  0.00     0.023 A 
ATOM     95  C   UNL     1       0.534  -1.417  16.666  1.00  0.00     0.031 A 
ATOM     96  C   UNL     1       0.469  -0.390  18.846  1.00  0.00     0.131 A 
ATOM     97  C   UNL     1       0.664  -2.668  17.287  1.00  0.00     0.055 A 
ATOM     98  C   UNL     1       0.673  -1.629  19.456  1.00  0.00     0.041 A 
ATOM     99  F   UNL     1       0.336   0.681  19.644  1.00  0.00    -0.206 F 
ATOM    100  C   UNL     1       0.752  -2.779  18.677  1.00  0.00     0.022 A 
BRANCH  97 101
ATOM    101  S   UNL     1       0.576  -4.160  16.259  1.00  0.00     0.124 S 
ATOM    102  O   UNL     1      -0.703  -3.984  15.578  1.00  0.00    -0.237 OA
ATOM    103  O   UNL     1       1.766  -4.034  15.424  1.00  0.00    -0.237 OA
ATOM    104  O   UNL     1       0.614  -5.250  17.233  1.00  0.00    -0.744 OA
ENDBRANCH  97 101
ENDBRANCH  71  94
ENDBRANCH  45  46
ENDBRANCH  37  40
ENDBRANCH  35  36
ENDBRANCH  34  35
ENDBRANCH  33  34
ENDBRANCH  31  33
ENDBRANCH   1  29
TORSDOF 23
