REMARK SMILES CC(=O)N/N=C/c1ccc(O[C@H](C)C(=O)NCCCNC(=O)c2ccc(-c3c4nc(c(-c5cc(S(=O)(=O)[O-])ccc5F)c5ccc([nH]5)c(-c5cc(S(=O)(=O)[O-])ccc5F)c5nc(c(-c6cc(S(=O)(=O)[O-])ccc6F)c6ccc3[nH]6)C=C5)C=C4)cc2)cc1
REMARK SMILES IDX 17 1 16 2 14 3 15 4 12 6 13 7 11 8 10 9 7 10 8 11 87 12 9 13
REMARK SMILES IDX 86 14 6 15 5 16 4 17 1 18 2 19 3 20 18 22 19 23 20 24 21 25
REMARK SMILES IDX 22 27 23 28 24 29 85 30 25 31 84 32 26 33 27 34 28 35 78 36
REMARK SMILES IDX 29 37 83 38 77 39 79 40 30 41 82 42 76 43 75 44 31 46 63 47
REMARK SMILES IDX 43 48 62 49 44 50 47 51 61 52 80 53 45 54 46 55 60 57 81 58
REMARK SMILES IDX 48 59 32 60 33 61 41 62 34 63 40 64 42 65 39 66 35 67 36 68
REMARK SMILES IDX 37 69 38 70 64 71 65 72 73 73 66 74 72 75 74 76 71 77 67 78
REMARK SMILES IDX 68 79 69 80 70 81 49 82 50 83 58 84 51 85 57 86 59 87 56 88
REMARK SMILES IDX 52 89 53 90 54 91 55 92
REMARK H PARENT 16 5 4 21 20 26 79 45 47 56
REMARK Flexibility Score: inf
ROOT
ATOM      1  C   UNL     1       2.277   1.324  -6.422  1.00  0.00     0.118 C 
ENDROOT
BRANCH   1   2
ATOM      2  N   UNL     1       2.234   2.485  -7.284  1.00  0.00    -0.353 N 
ATOM      3  C   UNL     1       3.241   3.182  -7.879  1.00  0.00     0.260 C 
ATOM      4  O   UNL     1       2.906   4.074  -8.669  1.00  0.00    -0.271 OA
ATOM      5  H   UNL     1       1.330   2.825  -7.471  1.00  0.00     0.163 HD
BRANCH   3   6
ATOM      6  C   UNL     1       4.734   2.976  -7.525  1.00  0.00     0.258 C 
ATOM      7  C   UNL     1       5.056   3.762  -6.260  1.00  0.00     0.064 C 
BRANCH   6   8
ATOM      8  O   UNL     1       5.277   1.676  -7.742  1.00  0.00    -0.481 OA
BRANCH   8   9
ATOM      9  C   UNL     1       5.602   0.733  -6.821  1.00  0.00     0.120 A 
ATOM     10  C   UNL     1       6.141  -1.465  -5.145  1.00  0.00    -0.005 A 
ATOM     11  C   UNL     1       6.103  -0.172  -4.628  1.00  0.00     0.013 A 
ATOM     12  C   UNL     1       5.925  -1.673  -6.505  1.00  0.00     0.013 A 
ATOM     13  C   UNL     1       5.846   0.918  -5.466  1.00  0.00     0.047 A 
ATOM     14  C   UNL     1       5.664  -0.573  -7.335  1.00  0.00     0.047 A 
BRANCH  10  15
ATOM     15  C   UNL     1       6.459  -2.556  -4.206  1.00  0.00     0.141 C 
ATOM     16  N   UNL     1       6.442  -3.805  -4.540  1.00  0.00    -0.181 NA
BRANCH  16  17
ATOM     17  N   UNL     1       6.785  -4.715  -3.578  1.00  0.00    -0.247 N 
ATOM     18  C   UNL     1       5.386  -3.855  -1.697  1.00  0.00     0.116 C 
ATOM     19  C   UNL     1       6.406  -4.809  -2.260  1.00  0.00     0.236 C 
ATOM     20  O   UNL     1       6.906  -5.688  -1.553  1.00  0.00    -0.274 OA
ATOM     21  H   UNL     1       7.404  -5.418  -3.878  1.00  0.00     0.193 HD
ENDBRANCH  16  17
ENDBRANCH  10  15
ENDBRANCH   8   9
ENDBRANCH   6   8
ENDBRANCH   3   6
ENDBRANCH   1   2
BRANCH   1  22
ATOM     22  C   UNL     1       1.825   1.612  -4.999  1.00  0.00     0.042 C 
BRANCH  22  23
ATOM     23  C   UNL     1       0.331   1.883  -4.880  1.00  0.00     0.118 C 
BRANCH  23  24
ATOM     24  N   UNL     1      -0.476   0.727  -5.254  1.00  0.00    -0.352 N 
ATOM     25  C   UNL     1      -1.345  -0.028  -4.500  1.00  0.00     0.251 C 
ATOM     26  H   UNL     1      -0.385   0.443  -6.192  1.00  0.00     0.163 HD
ATOM     27  O   UNL     1      -1.766  -1.088  -4.946  1.00  0.00    -0.269 OA
BRANCH  25  28
ATOM     28  C   UNL     1      -1.744   0.432  -3.153  1.00  0.00     0.039 A 
ATOM     29  C   UNL     1      -1.804  -0.491  -2.104  1.00  0.00     0.014 A 
ATOM     30  C   UNL     1      -2.058   1.772  -2.925  1.00  0.00     0.014 A 
ATOM     31  C   UNL     1      -2.099  -0.051  -0.811  1.00  0.00     0.010 A 
ATOM     32  C   UNL     1      -2.262   2.222  -1.626  1.00  0.00     0.010 A 
ATOM     33  C   UNL     1      -2.287   1.316  -0.554  1.00  0.00    -0.014 A 
BRANCH  33  34
ATOM     34  C   UNL     1      -2.535   1.840   0.814  1.00  0.00     0.031 A 
ATOM     35  C   UNL     1      -3.821   2.566   1.103  1.00  0.00     0.074 A 
ATOM     36  C   UNL     1      -1.576   1.756   1.756  1.00  0.00     0.049 A 
ATOM     37  N   UNL     1      -4.162   3.263   2.155  1.00  0.00    -0.248 NA
ATOM     38  C   UNL     1      -4.842   2.532   0.045  1.00  0.00     0.031 C 
ATOM     39  C   UNL     1      -0.282   1.089   1.591  1.00  0.00     0.029 A 
ATOM     40  N   UNL     1      -1.529   2.254   3.035  1.00  0.00    -0.354 N 
ATOM     41  C   UNL     1      -5.427   3.772   1.877  1.00  0.00     0.074 A 
ATOM     42  C   UNL     1      -5.760   3.353   0.532  1.00  0.00     0.031 C 
ATOM     43  C   UNL     1       0.422   1.208   2.729  1.00  0.00     0.029 A 
ATOM     44  C   UNL     1      -0.339   2.010   3.682  1.00  0.00     0.049 A 
ATOM     45  H   UNL     1      -2.277   2.740   3.451  1.00  0.00     0.167 HD
ATOM     46  C   UNL     1      -6.242   4.503   2.677  1.00  0.00     0.034 A 
ATOM     47  C   UNL     1       0.100   2.411   4.892  1.00  0.00     0.034 A 
ATOM     48  C   UNL     1      -5.896   4.896   4.020  1.00  0.00     0.049 A 
ATOM     49  C   UNL     1      -0.803   3.265   5.749  1.00  0.00     0.074 A 
ATOM     50  C   UNL     1      -6.659   5.599   4.935  1.00  0.00     0.029 A 
ATOM     51  N   UNL     1      -4.683   4.624   4.641  1.00  0.00    -0.354 N 
ATOM     52  N   UNL     1      -2.004   3.723   5.480  1.00  0.00    -0.248 NA
ATOM     53  C   UNL     1      -0.294   3.655   7.071  1.00  0.00     0.031 C 
ATOM     54  C   UNL     1      -5.884   5.816   6.079  1.00  0.00     0.029 A 
ATOM     55  C   UNL     1      -4.668   5.171   5.914  1.00  0.00     0.049 A 
ATOM     56  H   UNL     1      -3.943   4.117   4.236  1.00  0.00     0.167 HD
ATOM     57  C   UNL     1      -2.411   4.413   6.619  1.00  0.00     0.074 A 
ATOM     58  C   UNL     1      -1.327   4.316   7.574  1.00  0.00     0.031 C 
ATOM     59  C   UNL     1      -3.581   5.058   6.858  1.00  0.00     0.034 A 
BRANCH  46  60
ATOM     60  C   UNL     1      -7.568   4.943   2.103  1.00  0.00     0.023 A 
ATOM     61  C   UNL     1      -8.537   4.014   1.687  1.00  0.00     0.031 A 
ATOM     62  C   UNL     1      -7.854   6.309   1.936  1.00  0.00     0.131 A 
ATOM     63  C   UNL     1      -9.705   4.457   1.049  1.00  0.00     0.055 A 
ATOM     64  C   UNL     1      -9.060   6.747   1.384  1.00  0.00     0.041 A 
ATOM     65  F   UNL     1      -6.960   7.245   2.293  1.00  0.00    -0.206 F 
ATOM     66  C   UNL     1      -9.986   5.819   0.919  1.00  0.00     0.022 A 
BRANCH  63  67
ATOM     67  S   UNL     1     -10.768   3.228   0.245  1.00  0.00     0.124 S 
ATOM     68  O   UNL     1      -9.840   2.609  -0.699  1.00  0.00    -0.237 OA
ATOM     69  O   UNL     1     -11.190   2.394   1.365  1.00  0.00    -0.237 OA
ATOM     70  O   UNL     1     -11.823   4.034  -0.366  1.00  0.00    -0.744 OA
ENDBRANCH  63  67
ENDBRANCH  46  60
BRANCH  47  71
ATOM     71  C   UNL     1       1.462   2.030   5.368  1.00  0.00     0.023 A 
ATOM     72  C   UNL     1       1.627   1.217   6.500  1.00  0.00     0.031 A 
ATOM     73  C   UNL     1       2.619   2.505   4.725  1.00  0.00     0.131 A 
ATOM     74  C   UNL     1       2.916   0.945   6.985  1.00  0.00     0.055 A 
ATOM     75  C   UNL     1       3.900   2.184   5.177  1.00  0.00     0.041 A 
ATOM     76  F   UNL     1       2.520   3.283   3.635  1.00  0.00    -0.206 F 
ATOM     77  C   UNL     1       4.054   1.411   6.323  1.00  0.00     0.022 A 
BRANCH  74  78
ATOM     78  S   UNL     1       3.080   0.051   8.554  1.00  0.00     0.124 S 
ATOM     79  O   UNL     1       2.339   0.915   9.465  1.00  0.00    -0.237 OA
ATOM     80  O   UNL     1       2.461  -1.232   8.237  1.00  0.00    -0.237 OA
ATOM     81  O   UNL     1       4.525   0.008   8.770  1.00  0.00    -0.744 OA
ENDBRANCH  74  78
ENDBRANCH  47  71
BRANCH  59  82
ATOM     82  C   UNL     1      -3.785   5.644   8.233  1.00  0.00     0.023 A 
ATOM     83  C   UNL     1      -3.054   6.753   8.691  1.00  0.00     0.031 A 
ATOM     84  C   UNL     1      -4.760   5.094   9.086  1.00  0.00     0.131 A 
ATOM     85  C   UNL     1      -3.287   7.257   9.980  1.00  0.00     0.055 A 
ATOM     86  C   UNL     1      -5.026   5.634  10.345  1.00  0.00     0.041 A 
ATOM     87  F   UNL     1      -5.485   4.032   8.699  1.00  0.00    -0.206 F 
ATOM     88  C   UNL     1      -4.281   6.717  10.801  1.00  0.00     0.022 A 
BRANCH  85  89
ATOM     89  S   UNL     1      -2.230   8.595  10.600  1.00  0.00     0.124 S 
ATOM     90  O   UNL     1      -0.907   7.981  10.560  1.00  0.00    -0.237 OA
ATOM     91  O   UNL     1      -2.469   9.658   9.628  1.00  0.00    -0.237 OA
ATOM     92  O   UNL     1      -2.754   8.854  11.940  1.00  0.00    -0.744 OA
ENDBRANCH  85  89
ENDBRANCH  59  82
ENDBRANCH  33  34
ENDBRANCH  25  28
ENDBRANCH  23  24
ENDBRANCH  22  23
ENDBRANCH   1  22
TORSDOF 17
