REMARK SMILES C[C@@H]1CCCN(C(=O)c2ccc(=O)n([C@H](C)C(=O)NCCCNC(=O)c3ccc(-c4c5nc(c(-c6cc(S(=O)(=O)[O-])ccc6F)c6ccc([nH]6)c(-c6cc(S(=O)(=O)[O-])ccc6F)c6nc(c(-c7cc(S(=O)(=O)[O-])ccc7F)c7ccc4[nH]7)C=C6)C=C5)cc3)n2)C1
REMARK SMILES IDX 21 1 20 2 19 3 17 4 18 5 15 7 16 8 14 9 9 10 10 11 89 12
REMARK SMILES IDX 11 13 12 14 13 15 7 16 8 17 6 18 1 19 2 20 3 21 90 22 4 23
REMARK SMILES IDX 5 24 22 25 23 26 24 27 25 29 26 30 27 31 88 32 28 33 87 34
REMARK SMILES IDX 29 35 30 36 31 37 81 38 32 39 86 40 80 41 82 42 33 43 85 44
REMARK SMILES IDX 79 45 78 46 34 48 66 49 46 50 65 51 47 52 50 53 64 54 83 55
REMARK SMILES IDX 48 56 49 57 63 59 84 60 51 61 35 62 36 63 44 64 37 65 43 66
REMARK SMILES IDX 45 67 42 68 38 69 39 70 40 71 41 72 67 73 68 74 76 75 69 76
REMARK SMILES IDX 75 77 77 78 74 79 70 80 71 81 72 82 73 83 52 84 53 85 61 86
REMARK SMILES IDX 54 87 60 88 62 89 59 90 55 91 56 92 57 93 58 94
REMARK H PARENT 19 6 23 28 82 47 50 58
REMARK Flexibility Score: inf
ROOT
ATOM      1  C   UNL     1       8.215   0.954  -0.777  1.00  0.00     0.042 C 
ENDROOT
BRANCH   1   2
ATOM      2  C   UNL     1       7.995   0.708  -2.260  1.00  0.00     0.117 C 
BRANCH   2   3
ATOM      3  N   UNL     1       7.394  -0.580  -2.525  1.00  0.00    -0.354 N 
ATOM      4  C   UNL     1       6.207  -0.875  -3.125  1.00  0.00     0.244 C 
ATOM      5  O   UNL     1       5.877  -2.066  -3.138  1.00  0.00    -0.273 OA
ATOM      6  H   UNL     1       7.920  -1.357  -2.229  1.00  0.00     0.163 HD
BRANCH   4   7
ATOM      7  C   UNL     1       5.269   0.218  -3.680  1.00  0.00     0.197 C 
ATOM      8  C   UNL     1       4.676   1.069  -2.552  1.00  0.00     0.044 C 
BRANCH   7   9
ATOM      9  N   UNL     1       5.884   0.960  -4.800  1.00  0.00    -0.217 N 
ATOM     10  C   UNL     1       6.880   2.884  -5.579  1.00  0.00     0.149 A 
ATOM     11  C   UNL     1       7.012   2.353  -6.944  1.00  0.00     0.042 A 
ATOM     12  N   UNL     1       6.349   2.253  -4.577  1.00  0.00    -0.164 NA
ATOM     13  C   UNL     1       6.554   1.118  -7.143  1.00  0.00     0.076 A 
ATOM     14  C   UNL     1       5.947   0.335  -6.044  1.00  0.00     0.267 A 
ATOM     15  O   UNL     1       5.543  -0.797  -6.291  1.00  0.00    -0.268 OA
BRANCH  10  16
ATOM     16  C   UNL     1       7.403   4.298  -5.378  1.00  0.00     0.274 C 
ATOM     17  O   UNL     1       6.703   5.210  -5.805  1.00  0.00    -0.267 OA
BRANCH  16  18
ATOM     18  N   UNL     1       8.653   4.459  -4.788  1.00  0.00    -0.337 N 
ATOM     19  C   UNL     1      10.121   7.358  -2.776  1.00  0.00     0.009 C 
ATOM     20  C   UNL     1       9.498   5.990  -3.040  1.00  0.00     0.005 C 
ATOM     21  C   UNL     1      10.433   4.874  -2.550  1.00  0.00     0.007 C 
ATOM     22  C   UNL     1       9.165   5.805  -4.530  1.00  0.00     0.123 C 
ATOM     23  C   UNL     1       9.850   3.505  -2.881  1.00  0.00     0.022 C 
ATOM     24  C   UNL     1       9.530   3.373  -4.365  1.00  0.00     0.120 C 
ENDBRANCH  16  18
ENDBRANCH  10  16
ENDBRANCH   7   9
ENDBRANCH   4   7
ENDBRANCH   2   3
ENDBRANCH   1   2
BRANCH   1  25
ATOM     25  C   UNL     1       9.335   0.112  -0.188  1.00  0.00     0.118 C 
BRANCH  25  26
ATOM     26  N   UNL     1      10.651   0.436  -0.739  1.00  0.00    -0.352 N 
ATOM     27  C   UNL     1      11.689   1.202  -0.258  1.00  0.00     0.251 C 
ATOM     28  H   UNL     1      10.827   0.031  -1.619  1.00  0.00     0.163 HD
ATOM     29  O   UNL     1      12.616   1.484  -1.017  1.00  0.00    -0.269 OA
BRANCH  27  30
ATOM     30  C   UNL     1      11.685   1.722   1.129  1.00  0.00     0.039 A 
ATOM     31  C   UNL     1      11.150   0.971   2.169  1.00  0.00     0.014 A 
ATOM     32  C   UNL     1      12.237   2.978   1.407  1.00  0.00     0.014 A 
ATOM     33  C   UNL     1      10.929   1.561   3.405  1.00  0.00     0.010 A 
ATOM     34  C   UNL     1      12.149   3.514   2.700  1.00  0.00     0.010 A 
ATOM     35  C   UNL     1      11.432   2.840   3.698  1.00  0.00    -0.014 A 
BRANCH  35  36
ATOM     36  C   UNL     1      11.187   3.404   5.057  1.00  0.00     0.031 A 
ATOM     37  C   UNL     1      10.402   4.676   5.246  1.00  0.00     0.074 A 
ATOM     38  C   UNL     1      11.572   2.685   6.134  1.00  0.00     0.049 A 
ATOM     39  N   UNL     1       9.975   5.217   6.359  1.00  0.00    -0.248 NA
ATOM     40  C   UNL     1      10.053   5.447   4.042  1.00  0.00     0.031 C 
ATOM     41  C   UNL     1      12.342   1.441   6.072  1.00  0.00     0.029 A 
ATOM     42  N   UNL     1      11.318   2.846   7.474  1.00  0.00    -0.354 N 
ATOM     43  C   UNL     1       9.320   6.389   5.993  1.00  0.00     0.074 A 
ATOM     44  C   UNL     1       9.443   6.506   4.558  1.00  0.00     0.031 C 
ATOM     45  C   UNL     1      12.394   0.893   7.293  1.00  0.00     0.029 A 
ATOM     46  C   UNL     1      11.744   1.787   8.246  1.00  0.00     0.049 A 
ATOM     47  H   UNL     1      10.874   3.642   7.848  1.00  0.00     0.167 HD
ATOM     48  C   UNL     1       8.660   7.273   6.779  1.00  0.00     0.034 A 
ATOM     49  C   UNL     1      11.621   1.550   9.568  1.00  0.00     0.034 A 
ATOM     50  C   UNL     1       8.524   7.133   8.208  1.00  0.00     0.049 A 
ATOM     51  C   UNL     1      10.899   2.562  10.418  1.00  0.00     0.074 A 
ATOM     52  C   UNL     1       7.871   7.977   9.090  1.00  0.00     0.029 A 
ATOM     53  N   UNL     1       9.029   6.083   8.962  1.00  0.00    -0.354 N 
ATOM     54  N   UNL     1      10.266   3.649  10.046  1.00  0.00    -0.248 NA
ATOM     55  C   UNL     1      10.879   2.321  11.867  1.00  0.00     0.031 C 
ATOM     56  C   UNL     1       8.029   7.469  10.380  1.00  0.00     0.029 A 
ATOM     57  C   UNL     1       8.719   6.270  10.299  1.00  0.00     0.049 A 
ATOM     58  H   UNL     1       9.533   5.319   8.600  1.00  0.00     0.167 HD
ATOM     59  C   UNL     1       9.761   4.215  11.213  1.00  0.00     0.074 A 
ATOM     60  C   UNL     1      10.127   3.326  12.296  1.00  0.00     0.031 C 
ATOM     61  C   UNL     1       9.073   5.373  11.373  1.00  0.00     0.034 A 
BRANCH  48  62
ATOM     62  C   UNL     1       8.003   8.470   6.135  1.00  0.00     0.023 A 
ATOM     63  C   UNL     1       8.428   9.772   6.465  1.00  0.00     0.031 A 
ATOM     64  C   UNL     1       6.869   8.330   5.316  1.00  0.00     0.131 A 
ATOM     65  C   UNL     1       7.696  10.879   6.017  1.00  0.00     0.055 A 
ATOM     66  C   UNL     1       6.168   9.438   4.836  1.00  0.00     0.041 A 
ATOM     67  F   UNL     1       6.425   7.111   4.970  1.00  0.00    -0.206 F 
ATOM     68  C   UNL     1       6.573  10.719   5.199  1.00  0.00     0.022 A 
BRANCH  65  69
ATOM     69  S   UNL     1       8.132  12.563   6.529  1.00  0.00     0.124 S 
ATOM     70  O   UNL     1       8.318  13.230   5.242  1.00  0.00    -0.237 OA
ATOM     71  O   UNL     1       6.947  12.970   7.278  1.00  0.00    -0.237 OA
ATOM     72  O   UNL     1       9.348  12.386   7.316  1.00  0.00    -0.744 OA
ENDBRANCH  65  69
ENDBRANCH  48  62
BRANCH  49  73
ATOM     73  C   UNL     1      12.152   0.277  10.144  1.00  0.00     0.023 A 
ATOM     74  C   UNL     1      13.512  -0.063  10.029  1.00  0.00     0.031 A 
ATOM     75  C   UNL     1      11.289  -0.660  10.738  1.00  0.00     0.131 A 
ATOM     76  C   UNL     1      13.953  -1.331  10.428  1.00  0.00     0.055 A 
ATOM     77  C   UNL     1      11.748  -1.892  11.209  1.00  0.00     0.041 A 
ATOM     78  F   UNL     1       9.980  -0.392  10.861  1.00  0.00    -0.206 F 
ATOM     79  C   UNL     1      13.084  -2.241  11.036  1.00  0.00     0.022 A 
BRANCH  76  80
ATOM     80  S   UNL     1      15.632  -1.894  10.030  1.00  0.00     0.124 S 
ATOM     81  O   UNL     1      16.216  -2.069  11.355  1.00  0.00    -0.237 OA
ATOM     82  O   UNL     1      15.367  -3.125   9.288  1.00  0.00    -0.237 OA
ATOM     83  O   UNL     1      16.181  -0.801   9.234  1.00  0.00    -0.744 OA
ENDBRANCH  76  80
ENDBRANCH  49  73
BRANCH  61  84
ATOM     84  C   UNL     1       8.656   5.772  12.768  1.00  0.00     0.023 A 
ATOM     85  C   UNL     1       7.292   5.904  13.088  1.00  0.00     0.031 A 
ATOM     86  C   UNL     1       9.605   6.150  13.735  1.00  0.00     0.131 A 
ATOM     87  C   UNL     1       6.914   6.433  14.328  1.00  0.00     0.055 A 
ATOM     88  C   UNL     1       9.223   6.629  14.988  1.00  0.00     0.041 A 
ATOM     89  F   UNL     1      10.919   6.056  13.473  1.00  0.00    -0.206 F 
ATOM     90  C   UNL     1       7.872   6.785  15.284  1.00  0.00     0.022 A 
BRANCH  87  91
ATOM     91  S   UNL     1       5.173   6.767  14.714  1.00  0.00     0.124 S 
ATOM     92  O   UNL     1       4.938   5.870  15.843  1.00  0.00    -0.237 OA
ATOM     93  O   UNL     1       5.199   8.190  15.044  1.00  0.00    -0.237 OA
ATOM     94  O   UNL     1       4.467   6.421  13.485  1.00  0.00    -0.744 OA
ENDBRANCH  87  91
ENDBRANCH  61  84
ENDBRANCH  35  36
ENDBRANCH  27  30
ENDBRANCH  25  26
ENDBRANCH   1  25
TORSDOF 16
