REMARK SMILES CC1=C[C@@H](C)[C@H]2C(=O)N([C@H](Cc3ccccc3)C(=O)NCCCNC(=O)c3ccc(-c4c5nc(c(-c6cc(S(=O)(=O)[O-])ccc6F)c6ccc([nH]6)c(-c6cc(S(=O)(=O)[O-])ccc6F)c6nc(c(-c7cc(S(=O)(=O)[O-])ccc7F)c7ccc4[nH]7)C=C6)C=C5)cc3)C(=O)[C@H]2C1
REMARK SMILES IDX 22 1 21 2 20 3 18 4 19 5 10 7 9 8 1 9 2 10 3 11 93 12 4 13
REMARK SMILES IDX 92 14 6 15 5 16 90 17 7 18 91 19 8 20 11 21 12 22 13 23
REMARK SMILES IDX 17 24 14 25 16 26 15 27 23 28 24 29 25 30 26 32 27 33 28 34
REMARK SMILES IDX 89 35 29 36 88 37 30 38 31 39 32 40 82 41 33 42 87 43 81 44
REMARK SMILES IDX 83 45 34 46 86 47 80 48 79 49 35 51 67 52 47 53 66 54 48 55
REMARK SMILES IDX 51 56 65 57 84 58 49 59 50 60 64 62 85 63 52 64 36 65 37 66
REMARK SMILES IDX 45 67 38 68 44 69 46 70 43 71 39 72 40 73 41 74 42 75 68 76
REMARK SMILES IDX 69 77 77 78 70 79 76 80 78 81 75 82 71 83 72 84 73 85 74 86
REMARK SMILES IDX 53 87 54 88 62 89 55 90 61 91 63 92 60 93 56 94 57 95 58 96
REMARK SMILES IDX 59 97
REMARK H PARENT 20 6 24 31 83 50 51 61
REMARK Flexibility Score: inf
ROOT
ATOM      1  C   UNL     1       0.332   5.239   5.821  1.00  0.00     0.042 C 
ENDROOT
BRANCH   1   2
ATOM      2  C   UNL     1       1.076   6.383   5.176  1.00  0.00     0.117 C 
BRANCH   2   3
ATOM      3  N   UNL     1       2.311   6.089   4.500  1.00  0.00    -0.354 N 
ATOM      4  C   UNL     1       2.617   6.286   3.181  1.00  0.00     0.243 C 
ATOM      5  O   UNL     1       3.795   6.098   2.848  1.00  0.00    -0.273 OA
ATOM      6  H   UNL     1       3.023   5.697   5.055  1.00  0.00     0.163 HD
BRANCH   4   7
ATOM      7  C   UNL     1       1.538   6.497   2.080  1.00  0.00     0.186 C 
BRANCH   7   8
ATOM      8  N   UNL     1       0.499   7.551   2.292  1.00  0.00    -0.269 N 
ATOM      9  C   UNL     1      -4.871   9.596   2.374  1.00  0.00     0.039 C 
ATOM     10  C   UNL     1      -3.381   9.620   2.569  1.00  0.00    -0.076 C 
ATOM     11  C   UNL     1      -2.861   9.826   3.784  1.00  0.00    -0.024 C 
ATOM     12  C   UNL     1      -2.544   9.337   1.357  1.00  0.00     0.044 C 
ATOM     13  C   UNL     1      -1.421   9.610   4.136  1.00  0.00     0.022 C 
ATOM     14  C   UNL     1      -1.044   9.192   1.587  1.00  0.00     0.096 C 
ATOM     15  C   UNL     1      -0.466   9.625   2.922  1.00  0.00     0.098 C 
ATOM     16  C   UNL     1      -1.440   8.348   4.990  1.00  0.00     0.013 C 
ATOM     17  C   UNL     1      -0.511   7.790   1.393  1.00  0.00     0.234 C 
ATOM     18  C   UNL     1       0.746   8.713   2.998  1.00  0.00     0.234 C 
ATOM     19  O   UNL     1      -0.823   7.100   0.432  1.00  0.00    -0.274 OA
ATOM     20  O   UNL     1       1.768   9.012   3.579  1.00  0.00    -0.274 OA
ENDBRANCH   7   8
BRANCH   7  21
ATOM     21  C   UNL     1       1.043   5.084   1.573  1.00  0.00     0.071 C 
BRANCH  21  22
ATOM     22  C   UNL     1       0.877   3.906   2.520  1.00  0.00    -0.045 A 
ATOM     23  C   UNL     1      -0.390   3.353   2.765  1.00  0.00     0.004 A 
ATOM     24  C   UNL     1       1.990   3.289   3.121  1.00  0.00     0.004 A 
ATOM     25  C   UNL     1      -0.542   2.271   3.645  1.00  0.00     0.000 A 
ATOM     26  C   UNL     1       1.834   2.236   4.028  1.00  0.00     0.000 A 
ATOM     27  C   UNL     1       0.566   1.731   4.297  1.00  0.00     0.000 A 
ENDBRANCH  21  22
ENDBRANCH   7  21
ENDBRANCH   4   7
ENDBRANCH   2   3
ENDBRANCH   1   2
BRANCH   1  28
ATOM     28  C   UNL     1       0.971   4.725   7.086  1.00  0.00     0.118 C 
BRANCH  28  29
ATOM     29  N   UNL     1       0.519   5.489   8.239  1.00  0.00    -0.352 N 
ATOM     30  C   UNL     1      -0.342   5.120   9.246  1.00  0.00     0.251 C 
ATOM     31  H   UNL     1       0.883   6.401   8.309  1.00  0.00     0.163 HD
ATOM     32  O   UNL     1      -0.848   5.998   9.943  1.00  0.00    -0.269 OA
BRANCH  30  33
ATOM     33  C   UNL     1      -0.671   3.692   9.486  1.00  0.00     0.039 A 
ATOM     34  C   UNL     1      -1.931   3.359   9.993  1.00  0.00     0.014 A 
ATOM     35  C   UNL     1       0.268   2.680   9.271  1.00  0.00     0.014 A 
ATOM     36  C   UNL     1      -2.247   2.021  10.255  1.00  0.00     0.010 A 
ATOM     37  C   UNL     1      -0.089   1.343   9.414  1.00  0.00     0.010 A 
ATOM     38  C   UNL     1      -1.335   0.998   9.952  1.00  0.00    -0.014 A 
BRANCH  38  39
ATOM     39  C   UNL     1      -1.625  -0.424  10.278  1.00  0.00     0.031 A 
ATOM     40  C   UNL     1      -0.744  -1.161  11.258  1.00  0.00     0.074 A 
ATOM     41  C   UNL     1      -2.651  -1.061   9.681  1.00  0.00     0.049 A 
ATOM     42  N   UNL     1      -0.797  -2.409  11.648  1.00  0.00    -0.248 NA
ATOM     43  C   UNL     1       0.368  -0.401  11.850  1.00  0.00     0.031 C 
ATOM     44  C   UNL     1      -3.549  -0.471   8.685  1.00  0.00     0.029 A 
ATOM     45  N   UNL     1      -3.115  -2.345   9.825  1.00  0.00    -0.354 N 
ATOM     46  C   UNL     1       0.279  -2.584  12.513  1.00  0.00     0.074 A 
ATOM     47  C   UNL     1       1.013  -1.339  12.525  1.00  0.00     0.031 C 
ATOM     48  C   UNL     1      -4.477  -1.378   8.338  1.00  0.00     0.029 A 
ATOM     49  C   UNL     1      -4.217  -2.626   9.050  1.00  0.00     0.049 A 
ATOM     50  H   UNL     1      -2.698  -3.003  10.426  1.00  0.00     0.167 HD
ATOM     51  C   UNL     1       0.608  -3.669  13.258  1.00  0.00     0.034 A 
ATOM     52  C   UNL     1      -4.935  -3.760   8.928  1.00  0.00     0.034 A 
ATOM     53  C   UNL     1      -0.148  -4.897  13.254  1.00  0.00     0.049 A 
ATOM     54  C   UNL     1      -4.546  -4.959   9.758  1.00  0.00     0.074 A 
ATOM     55  C   UNL     1       0.063  -6.043  14.001  1.00  0.00     0.029 A 
ATOM     56  N   UNL     1      -1.261  -5.142  12.459  1.00  0.00    -0.354 N 
ATOM     57  N   UNL     1      -3.555  -5.090  10.611  1.00  0.00    -0.248 NA
ATOM     58  C   UNL     1      -5.386  -6.155   9.623  1.00  0.00     0.031 C 
ATOM     59  C   UNL     1      -0.878  -7.001  13.610  1.00  0.00     0.029 A 
ATOM     60  C   UNL     1      -1.730  -6.428  12.679  1.00  0.00     0.049 A 
ATOM     61  H   UNL     1      -1.659  -4.497  11.831  1.00  0.00     0.167 HD
ATOM     62  C   UNL     1      -3.676  -6.374  11.138  1.00  0.00     0.074 A 
ATOM     63  C   UNL     1      -4.847  -6.964  10.521  1.00  0.00     0.031 C 
ATOM     64  C   UNL     1      -2.895  -7.008  12.050  1.00  0.00     0.034 A 
BRANCH  51  65
ATOM     65  C   UNL     1       1.848  -3.573  14.117  1.00  0.00     0.023 A 
ATOM     66  C   UNL     1       1.962  -2.624  15.150  1.00  0.00     0.031 A 
ATOM     67  C   UNL     1       2.949  -4.415  13.879  1.00  0.00     0.131 A 
ATOM     68  C   UNL     1       3.172  -2.482  15.845  1.00  0.00     0.055 A 
ATOM     69  C   UNL     1       4.120  -4.330  14.635  1.00  0.00     0.041 A 
ATOM     70  F   UNL     1       2.912  -5.326  12.894  1.00  0.00    -0.206 F 
ATOM     71  C   UNL     1       4.244  -3.347  15.614  1.00  0.00     0.022 A 
BRANCH  68  72
ATOM     72  S   UNL     1       3.380  -1.051  16.939  1.00  0.00     0.124 S 
ATOM     73  O   UNL     1       3.171   0.060  16.014  1.00  0.00    -0.237 OA
ATOM     74  O   UNL     1       2.335  -1.260  17.934  1.00  0.00    -0.237 OA
ATOM     75  O   UNL     1       4.749  -1.192  17.432  1.00  0.00    -0.744 OA
ENDBRANCH  68  72
ENDBRANCH  51  65
BRANCH  52  76
ATOM     76  C   UNL     1      -6.094  -3.827   7.991  1.00  0.00     0.023 A 
ATOM     77  C   UNL     1      -7.399  -4.038   8.466  1.00  0.00     0.031 A 
ATOM     78  C   UNL     1      -5.908  -3.728   6.601  1.00  0.00     0.131 A 
ATOM     79  C   UNL     1      -8.457  -4.199   7.558  1.00  0.00     0.055 A 
ATOM     80  C   UNL     1      -6.973  -3.832   5.704  1.00  0.00     0.041 A 
ATOM     81  F   UNL     1      -4.683  -3.520   6.093  1.00  0.00    -0.206 F 
ATOM     82  C   UNL     1      -8.255  -4.084   6.181  1.00  0.00     0.022 A 
BRANCH  79  83
ATOM     83  S   UNL     1     -10.092  -4.655   8.200  1.00  0.00     0.124 S 
ATOM     84  O   UNL     1      -9.798  -5.897   8.906  1.00  0.00    -0.237 OA
ATOM     85  O   UNL     1     -10.420  -3.504   9.035  1.00  0.00    -0.237 OA
ATOM     86  O   UNL     1     -10.903  -4.798   6.993  1.00  0.00    -0.744 OA
ENDBRANCH  79  83
ENDBRANCH  52  76
BRANCH  64  87
ATOM     87  C   UNL     1      -3.318  -8.395  12.470  1.00  0.00     0.023 A 
ATOM     88  C   UNL     1      -3.332  -9.472  11.566  1.00  0.00     0.031 A 
ATOM     89  C   UNL     1      -3.740  -8.636  13.790  1.00  0.00     0.131 A 
ATOM     90  C   UNL     1      -3.826 -10.721  11.974  1.00  0.00     0.055 A 
ATOM     91  C   UNL     1      -4.163  -9.899  14.209  1.00  0.00     0.041 A 
ATOM     92  F   UNL     1      -3.750  -7.646  14.696  1.00  0.00    -0.206 F 
ATOM     93  C   UNL     1      -4.224 -10.945  13.294  1.00  0.00     0.022 A 
BRANCH  90  94
ATOM     94  S   UNL     1      -4.054 -12.015  10.724  1.00  0.00     0.124 S 
ATOM     95  O   UNL     1      -4.925 -11.354   9.758  1.00  0.00    -0.237 OA
ATOM     96  O   UNL     1      -2.686 -12.266  10.282  1.00  0.00    -0.237 OA
ATOM     97  O   UNL     1      -4.674 -13.108  11.471  1.00  0.00    -0.744 OA
ENDBRANCH  90  94
ENDBRANCH  64  87
ENDBRANCH  38  39
ENDBRANCH  30  33
ENDBRANCH  28  29
ENDBRANCH   1  28
TORSDOF 16
