REMARK SMILES C[NH+]1CCC([NH+]2CCC(Oc3ccc4ccccc4c3)(C(=O)NCCCNC(=O)c3ccc(-c4c5nc(c(-c6cc(S(=O)(=O)[O-])ccc6F)c6ccc([nH]6)c(-c6cc(S(=O)(=O)[O-])ccc6F)c6nc(c(-c7cc(S(=O)(=O)[O-])ccc7F)c7ccc4[nH]7)C=C6)C=C5)cc3)CC2)CC1
REMARK SMILES IDX 25 1 24 2 23 3 21 4 22 5 9 7 6 8 7 9 94 10 8 12 93 13 5 14
REMARK SMILES IDX 1 15 2 16 3 17 96 18 4 20 95 21 10 22 11 23 12 24 20 25
REMARK SMILES IDX 13 26 19 27 14 28 18 29 15 30 17 31 16 32 26 33 27 34 28 35
REMARK SMILES IDX 29 37 30 38 31 39 92 40 32 41 91 42 33 43 34 44 35 45 85 46
REMARK SMILES IDX 36 47 90 48 84 49 86 50 37 51 89 52 83 53 82 54 38 56 70 57
REMARK SMILES IDX 50 58 69 59 51 60 54 61 68 62 87 63 52 64 53 65 67 67 88 68
REMARK SMILES IDX 55 69 39 70 40 71 48 72 41 73 47 74 49 75 46 76 42 77 43 78
REMARK SMILES IDX 44 79 45 80 71 81 72 82 80 83 73 84 79 85 81 86 78 87 74 88
REMARK SMILES IDX 75 89 76 90 77 91 56 92 57 93 65 94 58 95 64 96 66 97 63 98
REMARK SMILES IDX 59 99 60 100 61 101 62 102
REMARK H PARENT 23 6 6 11 2 19 27 36 86 55 54 66
REMARK Flexibility Score: inf
ROOT
ATOM      1  C   UNL     1       4.712  -1.151   5.533  1.00  0.00     0.042 C 
ENDROOT
BRANCH   1   2
ATOM      2  C   UNL     1       5.821  -1.647   4.610  1.00  0.00     0.118 C 
BRANCH   2   3
ATOM      3  N   UNL     1       5.317  -2.513   3.558  1.00  0.00    -0.353 N 
ATOM      4  C   UNL     1       5.244  -2.326   2.205  1.00  0.00     0.264 C 
ATOM      5  O   UNL     1       4.883  -3.308   1.546  1.00  0.00    -0.270 OA
ATOM      6  H   UNL     1       4.970  -3.380   3.871  1.00  0.00     0.163 HD
BRANCH   4   7
ATOM      7  C   UNL     1       5.592  -0.958   1.544  1.00  0.00     0.197 C 
ATOM      8  N   UNL     1       3.100  -0.113   0.213  1.00  0.00    -0.332 N 
ATOM      9  C   UNL     1       3.216  -0.124   1.676  1.00  0.00     0.267 C 
ATOM     10  C   UNL     1       3.928  -1.169  -0.395  1.00  0.00     0.267 C 
ATOM     11  H   UNL     1       3.470   0.785  -0.098  1.00  0.00     0.348 HD
ATOM     12  C   UNL     1       4.664   0.146   2.059  1.00  0.00     0.120 C 
ATOM     13  C   UNL     1       5.409  -1.063   0.014  1.00  0.00     0.120 C 
BRANCH   8  14
ATOM     14  C   UNL     1       1.697  -0.133  -0.274  1.00  0.00     0.195 C 
ATOM     15  C   UNL     1      -2.614   0.071  -0.232  1.00  0.00     0.332 C 
ATOM     16  N   UNL     1      -1.198   0.018   0.122  1.00  0.00    -0.337 N 
ATOM     17  C   UNL     1      -0.477   1.176  -0.418  1.00  0.00     0.268 C 
ATOM     18  C   UNL     1      -0.585  -1.235  -0.327  1.00  0.00     0.268 C 
ATOM     19  H   UNL     1      -1.131   0.052   1.139  1.00  0.00     0.347 HD
ATOM     20  C   UNL     1       0.969   1.182   0.075  1.00  0.00     0.126 C 
ATOM     21  C   UNL     1       0.856  -1.340   0.178  1.00  0.00     0.126 C 
ENDBRANCH   8  14
BRANCH   7  22
ATOM     22  O   UNL     1       6.988  -0.826   1.915  1.00  0.00    -0.477 OA
BRANCH  22  23
ATOM     23  C   UNL     1       7.697   0.259   1.497  1.00  0.00     0.121 A 
ATOM     24  C   UNL     1       7.468   1.539   1.986  1.00  0.00     0.047 A 
ATOM     25  C   UNL     1       8.800   0.018   0.678  1.00  0.00     0.055 A 
ATOM     26  C   UNL     1       8.262   2.605   1.562  1.00  0.00     0.012 A 
ATOM     27  C   UNL     1       9.636   1.071   0.274  1.00  0.00    -0.015 A 
ATOM     28  C   UNL     1       9.345   2.387   0.701  1.00  0.00    -0.018 A 
ATOM     29  C   UNL     1      10.762   0.848  -0.535  1.00  0.00     0.009 A 
ATOM     30  C   UNL     1      10.161   3.447   0.278  1.00  0.00     0.009 A 
ATOM     31  C   UNL     1      11.574   1.911  -0.934  1.00  0.00     0.001 A 
ATOM     32  C   UNL     1      11.269   3.210  -0.537  1.00  0.00     0.001 A 
ENDBRANCH  22  23
ENDBRANCH   7  22
ENDBRANCH   4   7
ENDBRANCH   2   3
ENDBRANCH   1   2
BRANCH   1  33
ATOM     33  C   UNL     1       4.025  -2.248   6.338  1.00  0.00     0.118 C 
BRANCH  33  34
ATOM     34  N   UNL     1       4.930  -2.908   7.267  1.00  0.00    -0.352 N 
ATOM     35  C   UNL     1       4.906  -2.973   8.636  1.00  0.00     0.251 C 
ATOM     36  H   UNL     1       5.680  -3.385   6.843  1.00  0.00     0.163 HD
ATOM     37  O   UNL     1       5.897  -3.410   9.226  1.00  0.00    -0.269 OA
BRANCH  35  38
ATOM     38  C   UNL     1       3.731  -2.511   9.408  1.00  0.00     0.039 A 
ATOM     39  C   UNL     1       3.943  -1.833  10.612  1.00  0.00     0.014 A 
ATOM     40  C   UNL     1       2.425  -2.774   8.983  1.00  0.00     0.014 A 
ATOM     41  C   UNL     1       2.854  -1.369  11.354  1.00  0.00     0.010 A 
ATOM     42  C   UNL     1       1.342  -2.243   9.683  1.00  0.00     0.010 A 
ATOM     43  C   UNL     1       1.544  -1.538  10.879  1.00  0.00    -0.014 A 
BRANCH  43  44
ATOM     44  C   UNL     1       0.380  -0.984  11.622  1.00  0.00     0.031 A 
ATOM     45  C   UNL     1      -0.666  -1.902  12.194  1.00  0.00     0.074 A 
ATOM     46  C   UNL     1       0.238   0.352  11.732  1.00  0.00     0.049 A 
ATOM     47  N   UNL     1      -1.777  -1.606  12.819  1.00  0.00    -0.248 NA
ATOM     48  C   UNL     1      -0.447  -3.345  12.013  1.00  0.00     0.031 C 
ATOM     49  C   UNL     1       1.161   1.347  11.180  1.00  0.00     0.029 A 
ATOM     50  N   UNL     1      -0.738   1.107  12.334  1.00  0.00    -0.354 N 
ATOM     51  C   UNL     1      -2.397  -2.821  13.094  1.00  0.00     0.074 A 
ATOM     52  C   UNL     1      -1.563  -3.853  12.513  1.00  0.00     0.031 C 
ATOM     53  C   UNL     1       0.720   2.576  11.489  1.00  0.00     0.029 A 
ATOM     54  C   UNL     1      -0.538   2.463  12.219  1.00  0.00     0.049 A 
ATOM     55  H   UNL     1      -1.508   0.714  12.805  1.00  0.00     0.167 HD
ATOM     56  C   UNL     1      -3.541  -3.055  13.784  1.00  0.00     0.034 A 
ATOM     57  C   UNL     1      -1.290   3.500  12.641  1.00  0.00     0.034 A 
ATOM     58  C   UNL     1      -4.354  -2.013  14.367  1.00  0.00     0.049 A 
ATOM     59  C   UNL     1      -2.564   3.216  13.393  1.00  0.00     0.074 A 
ATOM     60  C   UNL     1      -5.496  -2.141  15.139  1.00  0.00     0.029 A 
ATOM     61  N   UNL     1      -4.119  -0.650  14.233  1.00  0.00    -0.354 N 
ATOM     62  N   UNL     1      -3.105   2.059  13.697  1.00  0.00    -0.248 NA
ATOM     63  C   UNL     1      -3.322   4.379  13.870  1.00  0.00     0.031 C 
ATOM     64  C   UNL     1      -5.989  -0.860  15.412  1.00  0.00     0.029 A 
ATOM     65  C   UNL     1      -5.113   0.072  14.879  1.00  0.00     0.049 A 
ATOM     66  H   UNL     1      -3.358  -0.254  13.751  1.00  0.00     0.167 HD
ATOM     67  C   UNL     1      -4.253   2.356  14.425  1.00  0.00     0.074 A 
ATOM     68  C   UNL     1      -4.314   3.800  14.530  1.00  0.00     0.031 C 
ATOM     69  C   UNL     1      -5.173   1.513  14.961  1.00  0.00     0.034 A 
BRANCH  56  70
ATOM     70  C   UNL     1      -3.991  -4.492  13.919  1.00  0.00     0.023 A 
ATOM     71  C   UNL     1      -3.213  -5.452  14.589  1.00  0.00     0.031 A 
ATOM     72  C   UNL     1      -5.204  -4.915  13.346  1.00  0.00     0.131 A 
ATOM     73  C   UNL     1      -3.613  -6.797  14.601  1.00  0.00     0.055 A 
ATOM     74  C   UNL     1      -5.639  -6.240  13.434  1.00  0.00     0.041 A 
ATOM     75  F   UNL     1      -5.982  -4.051  12.676  1.00  0.00    -0.206 F 
ATOM     76  C   UNL     1      -4.834  -7.194  14.050  1.00  0.00     0.022 A 
BRANCH  73  77
ATOM     77  S   UNL     1      -2.446  -8.044  15.212  1.00  0.00     0.124 S 
ATOM     78  O   UNL     1      -1.300  -7.831  14.331  1.00  0.00    -0.237 OA
ATOM     79  O   UNL     1      -2.264  -7.649  16.604  1.00  0.00    -0.237 OA
ATOM     80  O   UNL     1      -3.153  -9.306  15.008  1.00  0.00    -0.744 OA
ENDBRANCH  73  77
ENDBRANCH  56  70
BRANCH  57  81
ATOM     81  C   UNL     1      -0.869   4.901  12.354  1.00  0.00     0.023 A 
ATOM     82  C   UNL     1      -0.527   5.783  13.392  1.00  0.00     0.031 A 
ATOM     83  C   UNL     1      -0.838   5.391  11.036  1.00  0.00     0.131 A 
ATOM     84  C   UNL     1      -0.214   7.120  13.099  1.00  0.00     0.055 A 
ATOM     85  C   UNL     1      -0.475   6.707  10.746  1.00  0.00     0.041 A 
ATOM     86  F   UNL     1      -1.150   4.588  10.005  1.00  0.00    -0.206 F 
ATOM     87  C   UNL     1      -0.173   7.584  11.783  1.00  0.00     0.022 A 
BRANCH  84  88
ATOM     88  S   UNL     1       0.060   8.268  14.476  1.00  0.00     0.124 S 
ATOM     89  O   UNL     1      -1.200   8.167  15.203  1.00  0.00    -0.237 OA
ATOM     90  O   UNL     1       1.227   7.685  15.129  1.00  0.00    -0.237 OA
ATOM     91  O   UNL     1       0.295   9.547  13.809  1.00  0.00    -0.744 OA
ENDBRANCH  84  88
ENDBRANCH  57  81
BRANCH  69  92
ATOM     92  C   UNL     1      -6.302   2.142  15.742  1.00  0.00     0.023 A 
ATOM     93  C   UNL     1      -7.268   2.956  15.123  1.00  0.00     0.031 A 
ATOM     94  C   UNL     1      -6.399   1.944  17.131  1.00  0.00     0.131 A 
ATOM     95  C   UNL     1      -8.249   3.591  15.899  1.00  0.00     0.055 A 
ATOM     96  C   UNL     1      -7.415   2.526  17.889  1.00  0.00     0.041 A 
ATOM     97  F   UNL     1      -5.503   1.179  17.776  1.00  0.00    -0.206 F 
ATOM     98  C   UNL     1      -8.339   3.368  17.276  1.00  0.00     0.022 A 
BRANCH  95  99
ATOM     99  S   UNL     1      -9.344   4.798  15.102  1.00  0.00     0.124 S 
ATOM    100  O   UNL     1      -8.390   5.759  14.556  1.00  0.00    -0.237 OA
ATOM    101  O   UNL     1     -10.053   3.978  14.125  1.00  0.00    -0.237 OA
ATOM    102  O   UNL     1     -10.164   5.297  16.204  1.00  0.00    -0.744 OA
ENDBRANCH  95  99
ENDBRANCH  69  92
ENDBRANCH  43  44
ENDBRANCH  35  38
ENDBRANCH  33  34
ENDBRANCH   1  33
TORSDOF 16
