REMARK SMILES CC(C)[C@H](C(=O)NCCCNC(=O)c1ccc(-c2c3nc(c(-c4cc(S(=O)(=O)[O-])ccc4F)c4ccc([nH]4)c(-c4cc(S(=O)(=O)[O-])ccc4F)c4nc(c(-c5cc(S(=O)(=O)[O-])ccc5F)c5ccc2[nH]5)C=C4)C=C3)cc1)[C@H](C)[C@@H](C)O
REMARK SMILES IDX 9 1 8 2 7 3 5 4 6 5 4 7 2 8 1 9 3 10 77 11 78 12 79 13 80 14
REMARK SMILES IDX 81 15 10 17 11 18 12 19 13 21 14 22 15 23 76 24 16 25 75 26
REMARK SMILES IDX 17 27 18 28 19 29 69 30 20 31 74 32 68 33 70 34 21 35 73 36
REMARK SMILES IDX 67 37 66 38 22 40 54 41 34 42 53 43 35 44 38 45 52 46 71 47
REMARK SMILES IDX 36 48 37 49 51 51 72 52 39 53 23 54 24 55 32 56 25 57 31 58
REMARK SMILES IDX 33 59 30 60 26 61 27 62 28 63 29 64 55 65 56 66 64 67 57 68
REMARK SMILES IDX 63 69 65 70 62 71 58 72 59 73 60 74 61 75 40 76 41 77 49 78
REMARK SMILES IDX 42 79 48 80 50 81 47 82 43 83 44 84 45 85 46 86
REMARK H PARENT 7 6 81 16 11 20 70 39 38 50
REMARK Flexibility Score: inf
ROOT
ATOM      1  C   UNL     1      -5.305   3.342   0.114  1.00  0.00     0.042 C 
ENDROOT
BRANCH   1   2
ATOM      2  C   UNL     1      -4.112   3.820  -0.733  1.00  0.00     0.117 C 
BRANCH   2   3
ATOM      3  N   UNL     1      -3.259   4.785  -0.052  1.00  0.00    -0.356 N 
ATOM      4  C   UNL     1      -1.995   4.731   0.453  1.00  0.00     0.223 C 
ATOM      5  O   UNL     1      -1.632   5.710   1.113  1.00  0.00    -0.275 OA
ATOM      6  H   UNL     1      -3.688   5.663   0.067  1.00  0.00     0.163 HD
BRANCH   4   7
ATOM      7  C   UNL     1      -1.043   3.547   0.176  1.00  0.00     0.086 C 
BRANCH   7   8
ATOM      8  C   UNL     1       0.433   4.139   0.028  1.00  0.00    -0.005 C 
ATOM      9  C   UNL     1       1.550   3.512   0.875  1.00  0.00     0.008 C 
ATOM     10  C   UNL     1       0.867   4.161  -1.443  1.00  0.00     0.008 C 
ENDBRANCH   7   8
BRANCH   7  11
ATOM     11  C   UNL     1      -1.138   2.353   1.192  1.00  0.00     0.027 C 
ATOM     12  C   UNL     1      -0.639   1.067   0.500  1.00  0.00     0.011 C 
BRANCH  11  13
ATOM     13  C   UNL     1      -2.528   2.078   1.798  1.00  0.00     0.115 C 
ATOM     14  C   UNL     1      -2.599   0.912   2.777  1.00  0.00     0.038 C 
BRANCH  13  15
ATOM     15  O   UNL     1      -3.017   3.220   2.487  1.00  0.00    -0.393 OA
ATOM     16  H   UNL     1      -2.446   3.407   3.249  1.00  0.00     0.210 HD
ENDBRANCH  13  15
ENDBRANCH  11  13
ENDBRANCH   7  11
ENDBRANCH   4   7
ENDBRANCH   2   3
ENDBRANCH   1   2
BRANCH   1  17
ATOM     17  C   UNL     1      -6.195   4.443   0.689  1.00  0.00     0.118 C 
BRANCH  17  18
ATOM     18  N   UNL     1      -7.436   4.561  -0.055  1.00  0.00    -0.352 N 
ATOM     19  C   UNL     1      -8.693   4.085   0.232  1.00  0.00     0.251 C 
ATOM     20  H   UNL     1      -7.365   5.061  -0.900  1.00  0.00     0.163 HD
ATOM     21  O   UNL     1      -9.505   4.012  -0.688  1.00  0.00    -0.269 OA
BRANCH  19  22
ATOM     22  C   UNL     1      -9.093   3.660   1.601  1.00  0.00     0.039 A 
ATOM     23  C   UNL     1     -10.028   2.624   1.725  1.00  0.00     0.014 A 
ATOM     24  C   UNL     1      -8.669   4.329   2.753  1.00  0.00     0.014 A 
ATOM     25  C   UNL     1     -10.521   2.257   2.983  1.00  0.00     0.010 A 
ATOM     26  C   UNL     1      -9.108   3.914   4.016  1.00  0.00     0.010 A 
ATOM     27  C   UNL     1     -10.061   2.892   4.146  1.00  0.00    -0.014 A 
BRANCH  27  28
ATOM     28  C   UNL     1     -10.607   2.528   5.486  1.00  0.00     0.031 A 
ATOM     29  C   UNL     1     -11.393   3.533   6.291  1.00  0.00     0.074 A 
ATOM     30  C   UNL     1     -10.374   1.304   6.001  1.00  0.00     0.049 A 
ATOM     31  N   UNL     1     -11.917   3.416   7.486  1.00  0.00    -0.248 NA
ATOM     32  C   UNL     1     -11.587   4.855   5.681  1.00  0.00     0.031 C 
ATOM     33  C   UNL     1      -9.596   0.250   5.348  1.00  0.00     0.029 A 
ATOM     34  N   UNL     1     -10.760   0.742   7.194  1.00  0.00    -0.354 N 
ATOM     35  C   UNL     1     -12.485   4.653   7.779  1.00  0.00     0.074 A 
ATOM     36  C   UNL     1     -12.185   5.519   6.658  1.00  0.00     0.031 C 
ATOM     37  C   UNL     1      -9.573  -0.833   6.141  1.00  0.00     0.029 A 
ATOM     38  C   UNL     1     -10.300  -0.542   7.374  1.00  0.00     0.049 A 
ATOM     39  H   UNL     1     -11.313   1.214   7.857  1.00  0.00     0.167 HD
ATOM     40  C   UNL     1     -13.204   5.027   8.869  1.00  0.00     0.034 A 
ATOM     41  C   UNL     1     -10.433  -1.388   8.415  1.00  0.00     0.034 A 
ATOM     42  C   UNL     1     -13.509   4.148   9.974  1.00  0.00     0.049 A 
ATOM     43  C   UNL     1     -11.230  -0.956   9.618  1.00  0.00     0.074 A 
ATOM     44  C   UNL     1     -14.296   4.399  11.085  1.00  0.00     0.029 A 
ATOM     45  N   UNL     1     -13.028   2.852  10.119  1.00  0.00    -0.354 N 
ATOM     46  N   UNL     1     -11.818   0.195   9.850  1.00  0.00    -0.248 NA
ATOM     47  C   UNL     1     -11.393  -1.943  10.694  1.00  0.00     0.031 C 
ATOM     48  C   UNL     1     -14.230   3.288  11.934  1.00  0.00     0.029 A 
ATOM     49  C   UNL     1     -13.468   2.308  11.318  1.00  0.00     0.049 A 
ATOM     50  H   UNL     1     -12.458   2.387   9.465  1.00  0.00     0.167 HD
ATOM     51  C   UNL     1     -12.437   0.063  11.090  1.00  0.00     0.074 A 
ATOM     52  C   UNL     1     -12.165  -1.286  11.547  1.00  0.00     0.031 C 
ATOM     53  C   UNL     1     -13.169   0.973  11.784  1.00  0.00     0.034 A 
BRANCH  40  54
ATOM     54  C   UNL     1     -13.677   6.465   8.928  1.00  0.00     0.023 A 
ATOM     55  C   UNL     1     -14.542   7.003   7.958  1.00  0.00     0.031 A 
ATOM     56  C   UNL     1     -13.219   7.324   9.944  1.00  0.00     0.131 A 
ATOM     57  C   UNL     1     -14.841   8.375   7.967  1.00  0.00     0.055 A 
ATOM     58  C   UNL     1     -13.594   8.668   9.999  1.00  0.00     0.041 A 
ATOM     59  F   UNL     1     -12.380   6.877  10.891  1.00  0.00    -0.206 F 
ATOM     60  C   UNL     1     -14.393   9.207   8.995  1.00  0.00     0.022 A 
BRANCH  57  61
ATOM     61  S   UNL     1     -15.674   9.087   6.520  1.00  0.00     0.124 S 
ATOM     62  O   UNL     1     -14.775   8.692   5.438  1.00  0.00    -0.237 OA
ATOM     63  O   UNL     1     -16.972   8.428   6.548  1.00  0.00    -0.237 OA
ATOM     64  O   UNL     1     -15.693  10.521   6.808  1.00  0.00    -0.744 OA
ENDBRANCH  57  61
ENDBRANCH  40  54
BRANCH  41  65
ATOM     65  C   UNL     1      -9.777  -2.725   8.373  1.00  0.00     0.023 A 
ATOM     66  C   UNL     1     -10.530  -3.907   8.297  1.00  0.00     0.031 A 
ATOM     67  C   UNL     1      -8.374  -2.835   8.409  1.00  0.00     0.131 A 
ATOM     68  C   UNL     1      -9.878  -5.150   8.287  1.00  0.00     0.055 A 
ATOM     69  C   UNL     1      -7.730  -4.071   8.355  1.00  0.00     0.041 A 
ATOM     70  F   UNL     1      -7.609  -1.734   8.473  1.00  0.00    -0.206 F 
ATOM     71  C   UNL     1      -8.484  -5.240   8.302  1.00  0.00     0.022 A 
BRANCH  68  72
ATOM     72  S   UNL     1     -10.882  -6.661   8.299  1.00  0.00     0.124 S 
ATOM     73  O   UNL     1     -11.606  -6.528   9.557  1.00  0.00    -0.237 OA
ATOM     74  O   UNL     1     -11.673  -6.510   7.083  1.00  0.00    -0.237 OA
ATOM     75  O   UNL     1      -9.887  -7.731   8.261  1.00  0.00    -0.744 OA
ENDBRANCH  68  72
ENDBRANCH  41  65
BRANCH  53  76
ATOM     76  C   UNL     1     -13.751   0.523  13.104  1.00  0.00     0.023 A 
ATOM     77  C   UNL     1     -12.934   0.214  14.206  1.00  0.00     0.031 A 
ATOM     78  C   UNL     1     -15.142   0.386  13.255  1.00  0.00     0.131 A 
ATOM     79  C   UNL     1     -13.511  -0.269  15.392  1.00  0.00     0.055 A 
ATOM     80  C   UNL     1     -15.714  -0.037  14.456  1.00  0.00     0.041 A 
ATOM     81  F   UNL     1     -15.971   0.662  12.236  1.00  0.00    -0.206 F 
ATOM     82  C   UNL     1     -14.897  -0.381  15.529  1.00  0.00     0.022 A 
BRANCH  79  83
ATOM     83  S   UNL     1     -12.420  -0.844  16.723  1.00  0.00     0.124 S 
ATOM     84  O   UNL     1     -11.645  -1.883  16.052  1.00  0.00    -0.237 OA
ATOM     85  O   UNL     1     -11.690   0.369  17.075  1.00  0.00    -0.237 OA
ATOM     86  O   UNL     1     -13.348  -1.327  17.743  1.00  0.00    -0.744 OA
ENDBRANCH  79  83
ENDBRANCH  53  76
ENDBRANCH  27  28
ENDBRANCH  19  22
ENDBRANCH  17  18
ENDBRANCH   1  17
TORSDOF 17
