REMARK SMILES O=C(NCCCNC(=O)[C@@H]1CC=CC[C@H]1C(=O)N1CC[NH+](Cc2ccc3c(c2)OCO3)CC1)c1ccc(-c2c3nc(c(-c4cc(S(=O)(=O)[O-])ccc4F)c4ccc([nH]4)c(-c4cc(S(=O)(=O)[O-])ccc4F)c4nc(c(-c5cc(S(=O)(=O)[O-])ccc5F)c5ccc2[nH]5)C=C4)C=C3)cc1
REMARK SMILES IDX 5 1 4 2 3 3 1 4 2 5 34 7 35 8 96 9 36 10 95 11 37 12 38 13
REMARK SMILES IDX 39 14 89 15 40 16 94 17 88 18 90 19 41 20 93 21 87 22 86 23
REMARK SMILES IDX 42 25 74 26 54 27 73 28 55 29 58 30 72 31 91 32 56 33 57 34
REMARK SMILES IDX 71 36 92 37 59 38 43 39 44 40 52 41 45 42 51 43 53 44 50 45
REMARK SMILES IDX 46 46 47 47 48 48 49 49 75 50 76 51 84 52 77 53 83 54 85 55
REMARK SMILES IDX 82 56 78 57 79 58 80 59 81 60 60 61 61 62 69 63 62 64 68 65
REMARK SMILES IDX 70 66 67 67 63 68 64 69 65 70 66 71 6 72 7 73 8 74 9 76
REMARK SMILES IDX 10 77 11 78 15 79 12 80 14 81 13 82 16 83 17 84 18 85 19 86
REMARK SMILES IDX 33 87 20 88 32 89 21 90 22 92 23 93 24 94 28 95 25 96 27 97
REMARK SMILES IDX 26 98 29 99 31 100 30 101
REMARK H PARENT 3 6 90 24 58 35 7 75 21 91
REMARK Flexibility Score: inf
ROOT
ATOM      1  C   UNL     1       7.811   7.088  -1.231  1.00  0.00     0.042 C 
ENDROOT
BRANCH   1   2
ATOM      2  C   UNL     1       9.187   7.490  -0.728  1.00  0.00     0.118 C 
BRANCH   2   3
ATOM      3  N   UNL     1       9.331   8.930  -0.540  1.00  0.00    -0.352 N 
ATOM      4  O   UNL     1       9.688  10.875   0.536  1.00  0.00    -0.269 OA
ATOM      5  C   UNL     1       9.748   9.646   0.559  1.00  0.00     0.251 C 
ATOM      6  H   UNL     1       9.091   9.476  -1.323  1.00  0.00     0.163 HD
BRANCH   5   7
ATOM      7  C   UNL     1      10.262   8.949   1.761  1.00  0.00     0.039 A 
ATOM      8  C   UNL     1      11.081   7.827   1.634  1.00  0.00     0.014 A 
ATOM      9  C   UNL     1       9.952   9.438   3.035  1.00  0.00     0.014 A 
ATOM     10  C   UNL     1      11.462   7.112   2.760  1.00  0.00     0.010 A 
ATOM     11  C   UNL     1      10.433   8.780   4.175  1.00  0.00     0.010 A 
ATOM     12  C   UNL     1      11.179   7.599   4.047  1.00  0.00    -0.014 A 
BRANCH  12  13
ATOM     13  C   UNL     1      11.781   6.899   5.213  1.00  0.00     0.031 A 
ATOM     14  C   UNL     1      10.932   6.221   6.251  1.00  0.00     0.074 A 
ATOM     15  C   UNL     1      13.127   6.831   5.282  1.00  0.00     0.049 A 
ATOM     16  N   UNL     1      11.310   5.520   7.290  1.00  0.00    -0.248 NA
ATOM     17  C   UNL     1       9.474   6.348   6.112  1.00  0.00     0.031 C 
ATOM     18  C   UNL     1      14.047   7.463   4.330  1.00  0.00     0.029 A 
ATOM     19  N   UNL     1      13.958   6.183   6.158  1.00  0.00    -0.354 N 
ATOM     20  C   UNL     1      10.143   5.122   7.932  1.00  0.00     0.074 A 
ATOM     21  C   UNL     1       9.042   5.695   7.183  1.00  0.00     0.031 C 
ATOM     22  C   UNL     1      15.305   7.117   4.634  1.00  0.00     0.029 A 
ATOM     23  C   UNL     1      15.293   6.316   5.850  1.00  0.00     0.049 A 
ATOM     24  H   UNL     1      13.632   5.671   6.933  1.00  0.00     0.167 HD
ATOM     25  C   UNL     1      10.008   4.345   9.036  1.00  0.00     0.034 A 
ATOM     26  C   UNL     1      16.391   5.865   6.487  1.00  0.00     0.034 A 
ATOM     27  C   UNL     1      11.121   3.792   9.773  1.00  0.00     0.049 A 
ATOM     28  C   UNL     1      16.207   5.049   7.738  1.00  0.00     0.074 A 
ATOM     29  C   UNL     1      11.095   2.984  10.898  1.00  0.00     0.029 A 
ATOM     30  N   UNL     1      12.462   3.994   9.467  1.00  0.00    -0.354 N 
ATOM     31  N   UNL     1      15.091   4.669   8.318  1.00  0.00    -0.248 NA
ATOM     32  C   UNL     1      17.426   4.598   8.416  1.00  0.00     0.031 C 
ATOM     33  C   UNL     1      12.412   2.757  11.310  1.00  0.00     0.029 A 
ATOM     34  C   UNL     1      13.268   3.353  10.398  1.00  0.00     0.049 A 
ATOM     35  H   UNL     1      12.793   4.516   8.701  1.00  0.00     0.167 HD
ATOM     36  C   UNL     1      15.479   3.918   9.422  1.00  0.00     0.074 A 
ATOM     37  C   UNL     1      16.927   3.867   9.400  1.00  0.00     0.031 C 
ATOM     38  C   UNL     1      14.711   3.329  10.374  1.00  0.00     0.034 A 
BRANCH  25  39
ATOM     39  C   UNL     1       8.609   4.075   9.538  1.00  0.00     0.023 A 
ATOM     40  C   UNL     1       7.684   3.328   8.788  1.00  0.00     0.031 A 
ATOM     41  C   UNL     1       8.197   4.559  10.794  1.00  0.00     0.131 A 
ATOM     42  C   UNL     1       6.383   3.128   9.276  1.00  0.00     0.055 A 
ATOM     43  C   UNL     1       6.925   4.297  11.305  1.00  0.00     0.041 A 
ATOM     44  F   UNL     1       9.028   5.297  11.547  1.00  0.00    -0.206 F 
ATOM     45  C   UNL     1       6.005   3.586  10.541  1.00  0.00     0.022 A 
BRANCH  42  46
ATOM     46  S   UNL     1       5.154   2.359   8.185  1.00  0.00     0.124 S 
ATOM     47  O   UNL     1       5.139   3.287   7.056  1.00  0.00    -0.237 OA
ATOM     48  O   UNL     1       5.738   1.049   7.925  1.00  0.00    -0.237 OA
ATOM     49  O   UNL     1       3.936   2.351   8.992  1.00  0.00    -0.744 OA
ENDBRANCH  42  46
ENDBRANCH  25  39
BRANCH  26  50
ATOM     50  C   UNL     1      17.754   6.213   5.989  1.00  0.00     0.023 A 
ATOM     51  C   UNL     1      18.669   5.217   5.617  1.00  0.00     0.031 A 
ATOM     52  C   UNL     1      18.183   7.553   5.937  1.00  0.00     0.131 A 
ATOM     53  C   UNL     1      19.983   5.570   5.271  1.00  0.00     0.055 A 
ATOM     54  C   UNL     1      19.468   7.903   5.521  1.00  0.00     0.041 A 
ATOM     55  F   UNL     1      17.350   8.548   6.282  1.00  0.00    -0.206 F 
ATOM     56  C   UNL     1      20.383   6.906   5.204  1.00  0.00     0.022 A 
BRANCH  53  57
ATOM     57  S   UNL     1      21.199   4.246   5.029  1.00  0.00     0.124 S 
ATOM     58  O   UNL     1      21.090   3.511   6.284  1.00  0.00    -0.237 OA
ATOM     59  O   UNL     1      20.680   3.573   3.844  1.00  0.00    -0.237 OA
ATOM     60  O   UNL     1      22.454   4.970   4.836  1.00  0.00    -0.744 OA
ENDBRANCH  53  57
ENDBRANCH  26  50
BRANCH  38  61
ATOM     61  C   UNL     1      15.442   2.557  11.447  1.00  0.00     0.023 A 
ATOM     62  C   UNL     1      16.306   3.197  12.353  1.00  0.00     0.031 A 
ATOM     63  C   UNL     1      15.312   1.160  11.531  1.00  0.00     0.131 A 
ATOM     64  C   UNL     1      17.067   2.434  13.251  1.00  0.00     0.055 A 
ATOM     65  C   UNL     1      16.017   0.413  12.475  1.00  0.00     0.041 A 
ATOM     66  F   UNL     1      14.505   0.496  10.688  1.00  0.00    -0.206 F 
ATOM     67  C   UNL     1      16.915   1.047  13.330  1.00  0.00     0.022 A 
BRANCH  64  68
ATOM     68  S   UNL     1      18.350   3.265  14.226  1.00  0.00     0.124 S 
ATOM     69  O   UNL     1      19.180   3.865  13.187  1.00  0.00    -0.237 OA
ATOM     70  O   UNL     1      17.571   4.196  15.036  1.00  0.00    -0.237 OA
ATOM     71  O   UNL     1      18.978   2.174  14.969  1.00  0.00    -0.744 OA
ENDBRANCH  64  68
ENDBRANCH  38  61
ENDBRANCH  12  13
ENDBRANCH   5   7
ENDBRANCH   2   3
ENDBRANCH   1   2
BRANCH   1  72
ATOM     72  C   UNL     1       7.501   7.535  -2.652  1.00  0.00     0.117 C 
BRANCH  72  73
ATOM     73  N   UNL     1       8.133   6.742  -3.684  1.00  0.00    -0.356 N 
ATOM     74  C   UNL     1       7.712   5.636  -4.358  1.00  0.00     0.224 C 
ATOM     75  H   UNL     1       9.028   7.058  -3.946  1.00  0.00     0.163 HD
ATOM     76  O   UNL     1       8.316   5.386  -5.406  1.00  0.00    -0.275 OA
BRANCH  74  77
ATOM     77  C   UNL     1       6.596   4.718  -3.827  1.00  0.00     0.095 C 
ATOM     78  C   UNL     1       7.026   3.269  -4.202  1.00  0.00     0.041 C 
ATOM     79  C   UNL     1       5.212   5.067  -4.411  1.00  0.00     0.095 C 
ATOM     80  C   UNL     1       5.945   2.237  -4.211  1.00  0.00    -0.030 C 
ATOM     81  C   UNL     1       4.148   3.939  -4.372  1.00  0.00     0.041 C 
ATOM     82  C   UNL     1       4.651   2.542  -4.307  1.00  0.00    -0.030 C 
BRANCH  79  83
ATOM     83  C   UNL     1       4.501   6.311  -3.863  1.00  0.00     0.227 C 
ATOM     84  O   UNL     1       4.369   7.304  -4.585  1.00  0.00    -0.275 OA
ATOM     85  N   UNL     1       3.842   6.214  -2.635  1.00  0.00    -0.331 N 
ATOM     86  C   UNL     1       2.566   6.916  -2.538  1.00  0.00     0.181 C 
ATOM     87  C   UNL     1       4.583   6.129  -1.380  1.00  0.00     0.181 C 
ATOM     88  C   UNL     1       1.768   6.597  -1.255  1.00  0.00     0.284 C 
ATOM     89  C   UNL     1       3.746   5.779  -0.146  1.00  0.00     0.284 C 
ATOM     90  N   UNL     1       2.526   6.573  -0.002  1.00  0.00    -0.328 N 
ATOM     91  H   UNL     1       1.925   6.085   0.662  1.00  0.00     0.348 HD
BRANCH  90  92
ATOM     92  C   UNL     1       2.665   7.837   0.732  1.00  0.00     0.299 C 
BRANCH  92  93
ATOM     93  C   UNL     1       3.382   8.986   0.053  1.00  0.00     0.010 A 
ATOM     94  C   UNL     1       2.709   9.785  -0.901  1.00  0.00     0.013 A 
ATOM     95  C   UNL     1       4.720   9.281   0.362  1.00  0.00     0.060 A 
ATOM     96  C   UNL     1       3.372  10.791  -1.611  1.00  0.00     0.051 A 
ATOM     97  C   UNL     1       5.341  10.299  -0.335  1.00  0.00     0.166 A 
ATOM     98  C   UNL     1       4.692  11.023  -1.305  1.00  0.00     0.165 A 
ATOM     99  O   UNL     1       6.631  10.693  -0.177  1.00  0.00    -0.454 OA
ATOM    100  O   UNL     1       5.495  11.955  -1.885  1.00  0.00    -0.454 OA
ATOM    101  C   UNL     1       6.706  11.785  -1.116  1.00  0.00     0.468 C 
ENDBRANCH  92  93
ENDBRANCH  90  92
ENDBRANCH  79  83
ENDBRANCH  74  77
ENDBRANCH  72  73
ENDBRANCH   1  72
TORSDOF 16
