REMARK SMILES C[C@H](Nc1cccc(F)c1C(=O)NCCCNC(=O)c1ccc(-c2c3nc(c(-c4cc(S(=O)(=O)[O-])ccc4F)c4ccc([nH]4)c(-c4cc(S(=O)(=O)[O-])ccc4F)c4nc(c(-c5cc(S(=O)(=O)[O-])ccc5F)c5ccc2[nH]5)C=C4)C=C3)cc1)c1nccs1
REMARK SMILES IDX 15 1 14 2 13 3 11 4 12 5 10 7 4 8 5 9 6 10 8 11 7 12 9 13
REMARK SMILES IDX 3 14 2 16 1 17 83 18 84 19 87 20 85 21 86 22 16 23 17 24
REMARK SMILES IDX 18 25 19 27 20 28 21 29 82 30 22 31 81 32 23 33 24 34 25 35
REMARK SMILES IDX 75 36 26 37 80 38 74 39 76 40 27 41 79 42 73 43 72 44 28 46
REMARK SMILES IDX 60 47 40 48 59 49 41 50 44 51 58 52 77 53 42 54 43 55 57 57
REMARK SMILES IDX 78 58 45 59 29 60 30 61 38 62 31 63 37 64 39 65 36 66 32 67
REMARK SMILES IDX 33 68 34 69 35 70 61 71 62 72 70 73 63 74 69 75 71 76 68 77
REMARK SMILES IDX 64 78 65 79 66 80 67 81 46 82 47 83 55 84 48 85 54 86 56 87
REMARK SMILES IDX 53 88 49 89 50 90 51 91 52 92
REMARK H PARENT 13 6 3 15 17 26 76 45 44 56
REMARK Flexibility Score: inf
ROOT
ATOM      1  C   UNL     1       2.560  -2.250  -5.516  1.00  0.00     0.042 C 
ENDROOT
BRANCH   1   2
ATOM      2  C   UNL     1       1.990  -0.916  -5.024  1.00  0.00     0.118 C 
BRANCH   2   3
ATOM      3  N   UNL     1       1.120  -1.121  -3.882  1.00  0.00    -0.352 N 
ATOM      4  C   UNL     1       1.275  -1.049  -2.523  1.00  0.00     0.256 C 
ATOM      5  O   UNL     1       0.285  -1.413  -1.879  1.00  0.00    -0.269 OA
ATOM      6  H   UNL     1       0.204  -1.370  -4.145  1.00  0.00     0.163 HD
BRANCH   4   7
ATOM      7  C   UNL     1       2.472  -0.529  -1.785  1.00  0.00     0.098 A 
ATOM      8  C   UNL     1       2.270   0.036  -0.487  1.00  0.00     0.050 A 
ATOM      9  C   UNL     1       3.381   0.510   0.235  1.00  0.00     0.027 A 
ATOM     10  C   UNL     1       4.666   0.474  -0.298  1.00  0.00     0.005 A 
ATOM     11  C   UNL     1       3.780  -0.598  -2.271  1.00  0.00     0.138 A 
ATOM     12  C   UNL     1       4.861  -0.074  -1.557  1.00  0.00     0.040 A 
ATOM     13  F   UNL     1       4.087  -1.210  -3.418  1.00  0.00    -0.206 F 
BRANCH   8  14
ATOM     14  N   UNL     1       0.998   0.190   0.043  1.00  0.00    -0.375 N 
ATOM     15  H   UNL     1       0.387  -0.573  -0.075  1.00  0.00     0.161 HD
BRANCH  14  16
ATOM     16  C   UNL     1       0.449   1.349   0.760  1.00  0.00     0.135 C 
ATOM     17  C   UNL     1       0.908   2.646   0.072  1.00  0.00     0.039 C 
BRANCH  16  18
ATOM     18  C   UNL     1      -1.084   1.269   0.845  1.00  0.00     0.115 A 
ATOM     19  N   UNL     1      -1.769   0.165   0.600  1.00  0.00    -0.247 NA
ATOM     20  S   UNL     1      -2.058   2.622   1.295  1.00  0.00    -0.125 S 
ATOM     21  C   UNL     1      -3.122   0.404   0.697  1.00  0.00     0.123 A 
ATOM     22  C   UNL     1      -3.471   1.692   1.034  1.00  0.00     0.087 A 
ENDBRANCH  16  18
ENDBRANCH  14  16
ENDBRANCH   8  14
ENDBRANCH   4   7
ENDBRANCH   2   3
ENDBRANCH   1   2
BRANCH   1  23
ATOM     23  C   UNL     1       1.540  -3.123  -6.250  1.00  0.00     0.118 C 
BRANCH  23  24
ATOM     24  N   UNL     1       1.158  -2.552  -7.534  1.00  0.00    -0.352 N 
ATOM     25  C   UNL     1       1.336  -3.034  -8.808  1.00  0.00     0.251 C 
ATOM     26  H   UNL     1       0.699  -1.683  -7.480  1.00  0.00     0.163 HD
ATOM     27  O   UNL     1       1.176  -2.273  -9.758  1.00  0.00    -0.269 OA
BRANCH  25  28
ATOM     28  C   UNL     1       1.717  -4.445  -9.044  1.00  0.00     0.039 A 
ATOM     29  C   UNL     1       2.626  -4.735 -10.066  1.00  0.00     0.014 A 
ATOM     30  C   UNL     1       1.139  -5.487  -8.312  1.00  0.00     0.014 A 
ATOM     31  C   UNL     1       2.995  -6.060 -10.318  1.00  0.00     0.010 A 
ATOM     32  C   UNL     1       1.557  -6.801  -8.520  1.00  0.00     0.010 A 
ATOM     33  C   UNL     1       2.487  -7.102  -9.526  1.00  0.00    -0.014 A 
BRANCH  33  34
ATOM     34  C   UNL     1       2.918  -8.510  -9.736  1.00  0.00     0.031 A 
ATOM     35  C   UNL     1       1.924  -9.551 -10.175  1.00  0.00     0.074 A 
ATOM     36  C   UNL     1       4.195  -8.858  -9.479  1.00  0.00     0.049 A 
ATOM     37  N   UNL     1       2.090 -10.841 -10.322  1.00  0.00    -0.248 NA
ATOM     38  C   UNL     1       0.559  -9.086 -10.463  1.00  0.00     0.031 C 
ATOM     39  C   UNL     1       5.243  -7.943  -9.023  1.00  0.00     0.029 A 
ATOM     40  N   UNL     1       4.829 -10.073  -9.560  1.00  0.00    -0.354 N 
ATOM     41  C   UNL     1       0.851 -11.343 -10.702  1.00  0.00     0.074 A 
ATOM     42  C   UNL     1      -0.068 -10.225 -10.719  1.00  0.00     0.031 C 
ATOM     43  C   UNL     1       6.394  -8.621  -8.895  1.00  0.00     0.029 A 
ATOM     44  C   UNL     1       6.159 -10.026  -9.210  1.00  0.00     0.049 A 
ATOM     45  H   UNL     1       4.375 -10.900  -9.842  1.00  0.00     0.167 HD
ATOM     46  C   UNL     1       0.516 -12.617 -11.023  1.00  0.00     0.034 A 
ATOM     47  C   UNL     1       7.083 -11.004  -9.138  1.00  0.00     0.034 A 
ATOM     48  C   UNL     1       1.448 -13.716 -11.028  1.00  0.00     0.049 A 
ATOM     49  C   UNL     1       6.685 -12.414  -9.482  1.00  0.00     0.074 A 
ATOM     50  C   UNL     1       1.223 -15.032 -11.393  1.00  0.00     0.029 A 
ATOM     51  N   UNL     1       2.782 -13.630 -10.650  1.00  0.00    -0.354 N 
ATOM     52  N   UNL     1       5.509 -12.869  -9.847  1.00  0.00    -0.248 NA
ATOM     53  C   UNL     1       7.732 -13.440  -9.403  1.00  0.00     0.031 C 
ATOM     54  C   UNL     1       2.402 -15.753 -11.180  1.00  0.00     0.029 A 
ATOM     55  C   UNL     1       3.383 -14.875 -10.747  1.00  0.00     0.049 A 
ATOM     56  H   UNL     1       3.233 -12.806 -10.357  1.00  0.00     0.167 HD
ATOM     57  C   UNL     1       5.680 -14.233 -10.059  1.00  0.00     0.074 A 
ATOM     58  C   UNL     1       7.073 -14.526  -9.785  1.00  0.00     0.031 C 
ATOM     59  C   UNL     1       4.768 -15.155 -10.453  1.00  0.00     0.034 A 
BRANCH  46  60
ATOM     60  C   UNL     1      -0.922 -12.896 -11.380  1.00  0.00     0.023 A 
ATOM     61  C   UNL     1      -1.504 -12.381 -12.550  1.00  0.00     0.031 A 
ATOM     62  C   UNL     1      -1.715 -13.706 -10.547  1.00  0.00     0.131 A 
ATOM     63  C   UNL     1      -2.854 -12.642 -12.832  1.00  0.00     0.055 A 
ATOM     64  C   UNL     1      -3.038 -14.015 -10.867  1.00  0.00     0.041 A 
ATOM     65  F   UNL     1      -1.214 -14.210  -9.408  1.00  0.00    -0.206 F 
ATOM     66  C   UNL     1      -3.617 -13.476 -12.011  1.00  0.00     0.022 A 
BRANCH  63  67
ATOM     67  S   UNL     1      -3.624 -11.809 -14.247  1.00  0.00     0.124 S 
ATOM     68  O   UNL     1      -3.560 -10.410 -13.834  1.00  0.00    -0.237 OA
ATOM     69  O   UNL     1      -2.752 -12.190 -15.353  1.00  0.00    -0.237 OA
ATOM     70  O   UNL     1      -4.969 -12.380 -14.290  1.00  0.00    -0.744 OA
ENDBRANCH  63  67
ENDBRANCH  46  60
BRANCH  47  71
ATOM     71  C   UNL     1       8.472 -10.678  -8.712  1.00  0.00     0.023 A 
ATOM     72  C   UNL     1       9.534 -10.710  -9.628  1.00  0.00     0.031 A 
ATOM     73  C   UNL     1       8.749 -10.303  -7.385  1.00  0.00     0.131 A 
ATOM     74  C   UNL     1      10.832 -10.385  -9.202  1.00  0.00     0.055 A 
ATOM     75  C   UNL     1      10.035  -9.947  -6.975  1.00  0.00     0.041 A 
ATOM     76  F   UNL     1       7.763 -10.246  -6.476  1.00  0.00    -0.206 F 
ATOM     77  C   UNL     1      11.086  -9.990  -7.886  1.00  0.00     0.022 A 
BRANCH  74  78
ATOM     78  S   UNL     1      12.195 -10.494 -10.394  1.00  0.00     0.124 S 
ATOM     79  O   UNL     1      12.233 -11.925 -10.671  1.00  0.00    -0.237 OA
ATOM     80  O   UNL     1      11.722  -9.641 -11.479  1.00  0.00    -0.237 OA
ATOM     81  O   UNL     1      13.339  -9.970  -9.650  1.00  0.00    -0.744 OA
ENDBRANCH  74  78
ENDBRANCH  47  71
BRANCH  59  82
ATOM     82  C   UNL     1       5.247 -16.570 -10.640  1.00  0.00     0.023 A 
ATOM     83  C   UNL     1       5.564 -17.389  -9.544  1.00  0.00     0.031 A 
ATOM     84  C   UNL     1       5.333 -17.120 -11.931  1.00  0.00     0.131 A 
ATOM     85  C   UNL     1       5.977 -18.712  -9.762  1.00  0.00     0.055 A 
ATOM     86  C   UNL     1       5.699 -18.449 -12.139  1.00  0.00     0.041 A 
ATOM     87  F   UNL     1       5.037 -16.377 -13.010  1.00  0.00    -0.206 F 
ATOM     88  C   UNL     1       6.029 -19.252 -11.050  1.00  0.00     0.022 A 
BRANCH  85  89
ATOM     89  S   UNL     1       6.474 -19.718  -8.337  1.00  0.00     0.124 S 
ATOM     90  O   UNL     1       7.666 -19.014  -7.872  1.00  0.00    -0.237 OA
ATOM     91  O   UNL     1       5.305 -19.635  -7.467  1.00  0.00    -0.237 OA
ATOM     92  O   UNL     1       6.720 -21.037  -8.917  1.00  0.00    -0.744 OA
ENDBRANCH  85  89
ENDBRANCH  59  82
ENDBRANCH  33  34
ENDBRANCH  25  28
ENDBRANCH  23  24
ENDBRANCH   1  23
TORSDOF 16
