REMARK SMILES CCC[C@@H](C(=O)N1CC[C@@](C)(C(=O)NCCCNC(=O)c2ccc(-c3c4nc(c(-c5cc(S(=O)(=O)[O-])ccc5F)c5ccc([nH]5)c(-c5cc(S(=O)(=O)[O-])ccc5F)c5nc(c(-c6cc(S(=O)(=O)[O-])ccc6F)c6ccc3[nH]6)C=C5)C=C4)cc2)C1)c1ccccc1
REMARK SMILES IDX 15 1 14 2 12 3 13 4 10 6 7 7 8 8 84 9 9 10 11 11 5 12 6 13
REMARK SMILES IDX 4 14 3 15 2 16 1 17 85 18 86 19 90 20 87 21 89 22 88 23
REMARK SMILES IDX 16 24 17 25 18 26 19 27 20 29 21 30 22 31 83 32 23 33 82 34
REMARK SMILES IDX 24 35 25 36 26 37 76 38 27 39 81 40 75 41 77 42 28 43 80 44
REMARK SMILES IDX 74 45 73 46 29 48 61 49 41 50 60 51 42 52 45 53 59 54 78 55
REMARK SMILES IDX 43 56 44 57 58 59 79 60 46 61 30 62 31 63 39 64 32 65 38 66
REMARK SMILES IDX 40 67 37 68 33 69 34 70 35 71 36 72 62 73 63 74 71 75 64 76
REMARK SMILES IDX 70 77 72 78 69 79 65 80 66 81 67 82 68 83 47 84 48 85 56 86
REMARK SMILES IDX 49 87 55 88 57 89 54 90 50 91 51 92 52 93 53 94
REMARK H PARENT 14 5 18 28 77 47 45 58
REMARK Flexibility Score: inf
ROOT
ATOM      1  C   UNL     1      -3.949  -1.503   1.835  1.00  0.00     0.117 C 
ENDROOT
BRANCH   1   2
ATOM      2  N   UNL     1      -3.315  -0.222   2.071  1.00  0.00    -0.356 N 
ATOM      3  C   UNL     1      -3.005   0.850   1.316  1.00  0.00     0.227 C 
ATOM      4  O   UNL     1      -2.445   1.763   1.943  1.00  0.00    -0.274 OA
ATOM      5  H   UNL     1      -3.045  -0.107   3.011  1.00  0.00     0.163 HD
BRANCH   3   6
ATOM      6  C   UNL     1      -3.186   0.996  -0.205  1.00  0.00     0.066 C 
ATOM      7  N   UNL     1      -2.010  -0.401  -1.774  1.00  0.00    -0.341 N 
ATOM      8  C   UNL     1      -3.319  -0.995  -1.583  1.00  0.00     0.120 C 
ATOM      9  C   UNL     1      -1.820   0.703  -0.860  1.00  0.00     0.136 C 
ATOM     10  C   UNL     1      -4.167   0.118  -0.990  1.00  0.00     0.040 C 
ATOM     11  C   UNL     1      -3.591   2.472  -0.431  1.00  0.00     0.024 C 
BRANCH   7  12
ATOM     12  C   UNL     1      -1.245  -0.708  -2.883  1.00  0.00     0.230 C 
ATOM     13  O   UNL     1      -1.822  -1.160  -3.880  1.00  0.00    -0.274 OA
BRANCH  12  14
ATOM     14  C   UNL     1       0.325  -0.687  -2.799  1.00  0.00     0.108 C 
BRANCH  14  15
ATOM     15  C   UNL     1       1.058   0.638  -2.461  1.00  0.00     0.018 C 
BRANCH  15  16
ATOM     16  C   UNL     1       1.326   1.063  -1.007  1.00  0.00    -0.002 C 
ATOM     17  C   UNL     1       1.608  -0.047  -0.009  1.00  0.00     0.004 C 
ENDBRANCH  15  16
ENDBRANCH  14  15
BRANCH  14  18
ATOM     18  C   UNL     1       0.897  -1.276  -4.122  1.00  0.00    -0.036 A 
ATOM     19  C   UNL     1       0.860  -2.666  -4.331  1.00  0.00     0.004 A 
ATOM     20  C   UNL     1       1.400  -0.470  -5.160  1.00  0.00     0.004 A 
ATOM     21  C   UNL     1       1.329  -3.228  -5.523  1.00  0.00     0.000 A 
ATOM     22  C   UNL     1       1.895  -1.035  -6.340  1.00  0.00     0.000 A 
ATOM     23  C   UNL     1       1.858  -2.413  -6.522  1.00  0.00     0.000 A 
ENDBRANCH  14  18
ENDBRANCH  12  14
ENDBRANCH   7  12
ENDBRANCH   3   6
ENDBRANCH   1   2
BRANCH   1  24
ATOM     24  C   UNL     1      -2.971  -2.660   1.996  1.00  0.00     0.042 C 
BRANCH  24  25
ATOM     25  C   UNL     1      -2.606  -2.940   3.451  1.00  0.00     0.118 C 
BRANCH  25  26
ATOM     26  N   UNL     1      -3.763  -3.364   4.232  1.00  0.00    -0.352 N 
ATOM     27  C   UNL     1      -4.095  -4.603   4.725  1.00  0.00     0.251 C 
ATOM     28  H   UNL     1      -4.407  -2.649   4.439  1.00  0.00     0.163 HD
ATOM     29  O   UNL     1      -5.246  -4.809   5.098  1.00  0.00    -0.269 OA
BRANCH  27  30
ATOM     30  C   UNL     1      -3.080  -5.675   4.797  1.00  0.00     0.039 A 
ATOM     31  C   UNL     1      -3.448  -6.990   4.498  1.00  0.00     0.014 A 
ATOM     32  C   UNL     1      -1.772  -5.390   5.196  1.00  0.00     0.014 A 
ATOM     33  C   UNL     1      -2.487  -8.004   4.534  1.00  0.00     0.010 A 
ATOM     34  C   UNL     1      -0.799  -6.381   5.143  1.00  0.00     0.010 A 
ATOM     35  C   UNL     1      -1.146  -7.701   4.819  1.00  0.00    -0.014 A 
BRANCH  35  36
ATOM     36  C   UNL     1      -0.087  -8.744   4.809  1.00  0.00     0.031 A 
ATOM     37  C   UNL     1       0.679  -9.043   6.070  1.00  0.00     0.074 A 
ATOM     38  C   UNL     1       0.236  -9.358   3.654  1.00  0.00     0.049 A 
ATOM     39  N   UNL     1       1.720  -9.816   6.244  1.00  0.00    -0.248 NA
ATOM     40  C   UNL     1       0.234  -8.350   7.289  1.00  0.00     0.031 C 
ATOM     41  C   UNL     1      -0.415  -9.126   2.362  1.00  0.00     0.029 A 
ATOM     42  N   UNL     1       1.200 -10.293   3.374  1.00  0.00    -0.354 N 
ATOM     43  C   UNL     1       2.065  -9.688   7.586  1.00  0.00     0.074 A 
ATOM     44  C   UNL     1       1.164  -8.711   8.159  1.00  0.00     0.031 C 
ATOM     45  C   UNL     1       0.151  -9.916   1.436  1.00  0.00     0.029 A 
ATOM     46  C   UNL     1       1.239 -10.669   2.050  1.00  0.00     0.049 A 
ATOM     47  H   UNL     1       1.807 -10.661   4.056  1.00  0.00     0.167 HD
ATOM     48  C   UNL     1       3.026 -10.346   8.282  1.00  0.00     0.034 A 
ATOM     49  C   UNL     1       2.069 -11.512   1.404  1.00  0.00     0.034 A 
ATOM     50  C   UNL     1       3.904 -11.328   7.694  1.00  0.00     0.049 A 
ATOM     51  C   UNL     1       3.154 -12.205   2.190  1.00  0.00     0.074 A 
ATOM     52  C   UNL     1       4.883 -12.088   8.310  1.00  0.00     0.029 A 
ATOM     53  N   UNL     1       3.912 -11.685   6.351  1.00  0.00    -0.354 N 
ATOM     54  N   UNL     1       3.444 -12.102   3.468  1.00  0.00    -0.248 NA
ATOM     55  C   UNL     1       4.018 -13.133   1.450  1.00  0.00     0.031 C 
ATOM     56  C   UNL     1       5.525 -12.853   7.330  1.00  0.00     0.029 A 
ATOM     57  C   UNL     1       4.896 -12.633   6.116  1.00  0.00     0.049 A 
ATOM     58  H   UNL     1       3.306 -11.319   5.667  1.00  0.00     0.167 HD
ATOM     59  C   UNL     1       4.500 -12.982   3.689  1.00  0.00     0.074 A 
ATOM     60  C   UNL     1       4.786 -13.614   2.417  1.00  0.00     0.031 C 
ATOM     61  C   UNL     1       5.169 -13.250   4.839  1.00  0.00     0.034 A 
BRANCH  48  62
ATOM     62  C   UNL     1       3.183 -10.003   9.745  1.00  0.00     0.023 A 
ATOM     63  C   UNL     1       2.143 -10.215  10.667  1.00  0.00     0.031 A 
ATOM     64  C   UNL     1       4.375  -9.428  10.222  1.00  0.00     0.131 A 
ATOM     65  C   UNL     1       2.281  -9.779  11.993  1.00  0.00     0.055 A 
ATOM     66  C   UNL     1       4.538  -9.078  11.564  1.00  0.00     0.041 A 
ATOM     67  F   UNL     1       5.397  -9.181   9.387  1.00  0.00    -0.206 F 
ATOM     68  C   UNL     1       3.481  -9.237  12.456  1.00  0.00     0.022 A 
BRANCH  65  69
ATOM     69  S   UNL     1       0.816  -9.789  13.063  1.00  0.00     0.124 S 
ATOM     70  O   UNL     1      -0.097  -8.922  12.319  1.00  0.00    -0.237 OA
ATOM     71  O   UNL     1       0.463 -11.203  13.103  1.00  0.00    -0.237 OA
ATOM     72  O   UNL     1       1.306  -9.230  14.321  1.00  0.00    -0.744 OA
ENDBRANCH  65  69
ENDBRANCH  48  62
BRANCH  49  73
ATOM     73  C   UNL     1       1.921 -11.749  -0.061  1.00  0.00     0.023 A 
ATOM     74  C   UNL     1       1.596 -13.023  -0.554  1.00  0.00     0.031 A 
ATOM     75  C   UNL     1       2.148 -10.721  -0.993  1.00  0.00     0.131 A 
ATOM     76  C   UNL     1       1.560 -13.250  -1.938  1.00  0.00     0.055 A 
ATOM     77  C   UNL     1       2.054 -10.938  -2.369  1.00  0.00     0.041 A 
ATOM     78  F   UNL     1       2.458  -9.482  -0.577  1.00  0.00    -0.206 F 
ATOM     79  C   UNL     1       1.773 -12.214  -2.849  1.00  0.00     0.022 A 
BRANCH  76  80
ATOM     80  S   UNL     1       1.328 -14.949  -2.531  1.00  0.00     0.124 S 
ATOM     81  O   UNL     1       2.440 -15.641  -1.890  1.00  0.00    -0.237 OA
ATOM     82  O   UNL     1      -0.003 -15.266  -2.026  1.00  0.00    -0.237 OA
ATOM     83  O   UNL     1       1.427 -14.818  -3.983  1.00  0.00    -0.744 OA
ENDBRANCH  76  80
ENDBRANCH  49  73
BRANCH  61  84
ATOM     84  C   UNL     1       6.238 -14.313   4.780  1.00  0.00     0.023 A 
ATOM     85  C   UNL     1       7.426 -14.132   4.051  1.00  0.00     0.031 A 
ATOM     86  C   UNL     1       6.060 -15.528   5.465  1.00  0.00     0.131 A 
ATOM     87  C   UNL     1       8.367 -15.170   3.982  1.00  0.00     0.055 A 
ATOM     88  C   UNL     1       7.028 -16.533   5.443  1.00  0.00     0.041 A 
ATOM     89  F   UNL     1       4.943 -15.755   6.175  1.00  0.00    -0.206 F 
ATOM     90  C   UNL     1       8.184 -16.362   4.688  1.00  0.00     0.022 A 
BRANCH  87  91
ATOM     91  S   UNL     1       9.799 -14.976   2.885  1.00  0.00     0.124 S 
ATOM     92  O   UNL     1       9.162 -14.784   1.586  1.00  0.00    -0.237 OA
ATOM     93  O   UNL     1      10.467 -13.806   3.447  1.00  0.00    -0.237 OA
ATOM     94  O   UNL     1      10.524 -16.236   3.041  1.00  0.00    -0.744 OA
ENDBRANCH  87  91
ENDBRANCH  61  84
ENDBRANCH  35  36
ENDBRANCH  27  30
ENDBRANCH  25  26
ENDBRANCH  24  25
ENDBRANCH   1  24
TORSDOF 18
