REMARK SMILES CCCCCCCNC(=O)Oc1cccc(-c2ccc([C@@H](C)C(=O)NCCCNC(=O)c3ccc(-c4c5nc(c(-c6cc(S(=O)(=O)[O-])ccc6F)c6ccc([nH]6)c(-c6cc(S(=O)(=O)[O-])ccc6F)c6nc(c(-c7cc(S(=O)(=O)[O-])ccc7F)c7ccc4[nH]7)C=C6)C=C5)cc3)cc2F)c1
REMARK SMILES IDX 17 1 18 2 19 3 20 4 95 5 96 6 97 7 16 8 12 9 13 10 98 11
REMARK SMILES IDX 14 12 15 13 11 14 9 15 8 16 10 18 7 19 6 20 5 21 4 22 3 23
REMARK SMILES IDX 2 24 1 25 21 26 22 27 23 28 24 29 25 30 26 32 27 33 28 34
REMARK SMILES IDX 29 35 30 36 31 38 32 39 33 40 94 41 34 42 93 43 35 44 36 45
REMARK SMILES IDX 37 46 87 47 38 48 92 49 86 50 88 51 39 52 91 53 85 54 84 55
REMARK SMILES IDX 40 57 72 58 52 59 71 60 53 61 56 62 70 63 89 64 54 65 55 66
REMARK SMILES IDX 69 68 90 69 57 70 41 71 42 72 50 73 43 74 49 75 51 76 48 77
REMARK SMILES IDX 44 78 45 79 46 80 47 81 73 82 74 83 82 84 75 85 81 86 83 87
REMARK SMILES IDX 80 88 76 89 77 90 78 91 79 92 58 93 59 94 67 95 60 96 66 97
REMARK SMILES IDX 68 98 65 99 61 100 62 101 63 102 64 103
REMARK H PARENT 8 17 25 31 29 37 88 56 56 67
REMARK Flexibility Score: inf
ROOT
ATOM      1  C   UNL     1      -6.980  -7.986   5.310  1.00  0.00     0.018 A 
ATOM      2  C   UNL     1      -7.577  -8.777   6.305  1.00  0.00     0.012 A 
ATOM      3  C   UNL     1      -8.790  -8.420   6.903  1.00  0.00     0.005 A 
ATOM      4  C   UNL     1      -9.420  -7.213   6.595  1.00  0.00    -0.033 A 
ATOM      5  C   UNL     1      -8.848  -6.424   5.588  1.00  0.00     0.044 A 
ATOM      6  C   UNL     1      -7.668  -6.819   4.948  1.00  0.00     0.131 A 
ATOM      7  F   UNL     1      -7.213  -6.033   3.958  1.00  0.00    -0.206 F 
ENDROOT
BRANCH   1   8
ATOM      8  C   UNL     1      -5.682  -8.378   4.717  1.00  0.00    -0.012 A 
ATOM      9  C   UNL     1      -3.488  -7.807   3.837  1.00  0.00     0.133 A 
ATOM     10  C   UNL     1      -3.166  -9.148   3.660  1.00  0.00     0.047 A 
ATOM     11  C   UNL     1      -4.725  -7.417   4.353  1.00  0.00     0.056 A 
ATOM     12  C   UNL     1      -4.096 -10.116   4.013  1.00  0.00     0.004 A 
ATOM     13  C   UNL     1      -5.341  -9.733   4.524  1.00  0.00     0.009 A 
BRANCH   9  14
ATOM     14  O   UNL     1      -2.571  -6.866   3.346  1.00  0.00    -0.410 OA
BRANCH  14  15
ATOM     15  C   UNL     1      -2.205  -5.803   4.156  1.00  0.00     0.412 C 
ATOM     16  N   UNL     1      -1.427  -4.890   3.499  1.00  0.00    -0.321 N 
ATOM     17  H   UNL     1      -1.075  -4.141   4.033  1.00  0.00     0.167 HD
ATOM     18  O   UNL     1      -2.518  -5.641   5.328  1.00  0.00    -0.224 OA
BRANCH  16  19
ATOM     19  C   UNL     1      -1.070  -4.915   2.096  1.00  0.00     0.119 C 
BRANCH  19  20
ATOM     20  C   UNL     1      -1.601  -3.684   1.360  1.00  0.00     0.021 C 
BRANCH  20  21
ATOM     21  C   UNL     1      -1.026  -2.351   1.854  1.00  0.00     0.002 C 
BRANCH  21  22
ATOM     22  C   UNL     1       0.500  -2.239   1.788  1.00  0.00     0.000 C 
BRANCH  22  23
ATOM     23  C   UNL     1       1.099  -2.369   0.384  1.00  0.00    -0.000 C 
BRANCH  23  24
ATOM     24  C   UNL     1       0.639  -1.307  -0.619  1.00  0.00    -0.003 C 
ATOM     25  C   UNL     1       1.000   0.110  -0.200  1.00  0.00     0.004 C 
ENDBRANCH  23  24
ENDBRANCH  22  23
ENDBRANCH  21  22
ENDBRANCH  20  21
ENDBRANCH  19  20
ENDBRANCH  16  19
ENDBRANCH  14  15
ENDBRANCH   9  14
ENDBRANCH   1   8
BRANCH   4  26
ATOM     26  C   UNL     1     -10.659  -6.720   7.324  1.00  0.00     0.105 C 
ATOM     27  C   UNL     1     -11.777  -7.749   7.486  1.00  0.00     0.023 C 
BRANCH  26  28
ATOM     28  C   UNL     1     -10.351  -5.909   8.592  1.00  0.00     0.227 C 
ATOM     29  O   UNL     1     -10.490  -4.679   8.581  1.00  0.00    -0.274 OA
ATOM     30  N   UNL     1      -9.942  -6.457   9.769  1.00  0.00    -0.356 N 
ATOM     31  H   UNL     1      -9.833  -5.803  10.496  1.00  0.00     0.163 HD
BRANCH  30  32
ATOM     32  C   UNL     1      -9.637  -7.821  10.153  1.00  0.00     0.117 C 
BRANCH  32  33
ATOM     33  C   UNL     1      -8.138  -8.108  10.144  1.00  0.00     0.042 C 
BRANCH  33  34
ATOM     34  C   UNL     1      -7.418  -7.664  11.410  1.00  0.00     0.118 C 
BRANCH  34  35
ATOM     35  N   UNL     1      -7.805  -8.460  12.566  1.00  0.00    -0.352 N 
ATOM     36  C   UNL     1      -7.067  -9.306  13.358  1.00  0.00     0.251 C 
ATOM     37  H   UNL     1      -8.752  -8.379  12.823  1.00  0.00     0.163 HD
ATOM     38  O   UNL     1      -7.661 -10.061  14.125  1.00  0.00    -0.269 OA
BRANCH  36  39
ATOM     39  C   UNL     1      -5.587  -9.330  13.289  1.00  0.00     0.039 A 
ATOM     40  C   UNL     1      -4.924 -10.549  13.467  1.00  0.00     0.014 A 
ATOM     41  C   UNL     1      -4.843  -8.162  13.104  1.00  0.00     0.014 A 
ATOM     42  C   UNL     1      -3.529 -10.602  13.406  1.00  0.00     0.010 A 
ATOM     43  C   UNL     1      -3.460  -8.229  12.952  1.00  0.00     0.010 A 
ATOM     44  C   UNL     1      -2.785  -9.447  13.114  1.00  0.00    -0.014 A 
BRANCH  44  45
ATOM     45  C   UNL     1      -1.303  -9.490  13.000  1.00  0.00     0.031 A 
ATOM     46  C   UNL     1      -0.449  -8.694  13.951  1.00  0.00     0.074 A 
ATOM     47  C   UNL     1      -0.729 -10.197  12.007  1.00  0.00     0.049 A 
ATOM     48  N   UNL     1       0.850  -8.534  13.966  1.00  0.00    -0.248 NA
ATOM     49  C   UNL     1      -1.156  -7.955  15.007  1.00  0.00     0.031 C 
ATOM     50  C   UNL     1      -1.454 -10.972  10.997  1.00  0.00     0.029 A 
ATOM     51  N   UNL     1       0.591 -10.371  11.673  1.00  0.00    -0.354 N 
ATOM     52  C   UNL     1       1.114  -7.669  15.023  1.00  0.00     0.074 A 
ATOM     53  C   UNL     1      -0.168  -7.282  15.574  1.00  0.00     0.031 C 
ATOM     54  C   UNL     1      -0.570 -11.551  10.170  1.00  0.00     0.029 A 
ATOM     55  C   UNL     1       0.780 -11.152  10.557  1.00  0.00     0.049 A 
ATOM     56  H   UNL     1       1.332  -9.973  12.184  1.00  0.00     0.167 HD
ATOM     57  C   UNL     1       2.313  -7.258  15.507  1.00  0.00     0.034 A 
ATOM     58  C   UNL     1       1.909 -11.493   9.905  1.00  0.00     0.034 A 
ATOM     59  C   UNL     1       3.581  -7.654  14.941  1.00  0.00     0.049 A 
ATOM     60  C   UNL     1       3.231 -11.001  10.438  1.00  0.00     0.074 A 
ATOM     61  C   UNL     1       4.857  -7.332  15.370  1.00  0.00     0.029 A 
ATOM     62  N   UNL     1       3.734  -8.452  13.813  1.00  0.00    -0.354 N 
ATOM     63  N   UNL     1       3.468 -10.221  11.468  1.00  0.00    -0.248 NA
ATOM     64  C   UNL     1       4.436 -11.446   9.729  1.00  0.00     0.031 C 
ATOM     65  C   UNL     1       5.775  -7.874  14.464  1.00  0.00     0.029 A 
ATOM     66  C   UNL     1       5.080  -8.607  13.515  1.00  0.00     0.049 A 
ATOM     67  H   UNL     1       2.994  -8.849  13.300  1.00  0.00     0.167 HD
ATOM     68  C   UNL     1       4.853 -10.104  11.544  1.00  0.00     0.074 A 
ATOM     69  C   UNL     1       5.396 -10.908  10.468  1.00  0.00     0.031 C 
ATOM     70  C   UNL     1       5.607  -9.399  12.427  1.00  0.00     0.034 A 
BRANCH  57  71
ATOM     71  C   UNL     1       2.295  -6.315  16.691  1.00  0.00     0.023 A 
ATOM     72  C   UNL     1       1.713  -6.685  17.917  1.00  0.00     0.031 A 
ATOM     73  C   UNL     1       2.818  -5.015  16.582  1.00  0.00     0.131 A 
ATOM     74  C   UNL     1       1.581  -5.741  18.947  1.00  0.00     0.055 A 
ATOM     75  C   UNL     1       2.768  -4.109  17.645  1.00  0.00     0.041 A 
ATOM     76  F   UNL     1       3.369  -4.592  15.434  1.00  0.00    -0.206 F 
ATOM     77  C   UNL     1       2.129  -4.463  18.829  1.00  0.00     0.022 A 
BRANCH  74  78
ATOM     78  S   UNL     1       0.532  -6.154  20.368  1.00  0.00     0.124 S 
ATOM     79  O   UNL     1      -0.745  -6.442  19.718  1.00  0.00    -0.237 OA
ATOM     80  O   UNL     1       1.224  -7.297  20.950  1.00  0.00    -0.237 OA
ATOM     81  O   UNL     1       0.550  -4.935  21.174  1.00  0.00    -0.744 OA
ENDBRANCH  74  78
ENDBRANCH  57  71
BRANCH  58  82
ATOM     82  C   UNL     1       1.839 -12.326   8.671  1.00  0.00     0.023 A 
ATOM     83  C   UNL     1       2.385 -13.618   8.631  1.00  0.00     0.031 A 
ATOM     84  C   UNL     1       1.236 -11.829   7.501  1.00  0.00     0.131 A 
ATOM     85  C   UNL     1       2.351 -14.356   7.436  1.00  0.00     0.055 A 
ATOM     86  C   UNL     1       1.157 -12.587   6.331  1.00  0.00     0.041 A 
ATOM     87  F   UNL     1       0.694 -10.601   7.485  1.00  0.00    -0.206 F 
ATOM     88  C   UNL     1       1.727 -13.855   6.291  1.00  0.00     0.022 A 
BRANCH  85  89
ATOM     89  S   UNL     1       3.200 -15.958   7.378  1.00  0.00     0.124 S 
ATOM     90  O   UNL     1       4.568 -15.582   7.712  1.00  0.00    -0.237 OA
ATOM     91  O   UNL     1       2.477 -16.721   8.390  1.00  0.00    -0.237 OA
ATOM     92  O   UNL     1       2.992 -16.402   6.001  1.00  0.00    -0.744 OA
ENDBRANCH  85  89
ENDBRANCH  58  82
BRANCH  70  93
ATOM     93  C   UNL     1       7.107  -9.505  12.285  1.00  0.00     0.023 A 
ATOM     94  C   UNL     1       7.785  -8.996  11.163  1.00  0.00     0.031 A 
ATOM     95  C   UNL     1       7.868 -10.136  13.285  1.00  0.00     0.131 A 
ATOM     96  C   UNL     1       9.171  -9.177  11.041  1.00  0.00     0.055 A 
ATOM     97  C   UNL     1       9.255 -10.255  13.190  1.00  0.00     0.041 A 
ATOM     98  F   UNL     1       7.275 -10.645  14.377  1.00  0.00    -0.206 F 
ATOM     99  C   UNL     1       9.913  -9.786  12.057  1.00  0.00     0.022 A 
BRANCH  96 100
ATOM    100  S   UNL     1       9.981  -8.693   9.492  1.00  0.00     0.124 S 
ATOM    101  O   UNL     1       9.259  -9.496   8.509  1.00  0.00    -0.237 OA
ATOM    102  O   UNL     1       9.736  -7.256   9.446  1.00  0.00    -0.237 OA
ATOM    103  O   UNL     1      11.376  -9.077   9.700  1.00  0.00    -0.744 OA
ENDBRANCH  96 100
ENDBRANCH  70  93
ENDBRANCH  44  45
ENDBRANCH  36  39
ENDBRANCH  34  35
ENDBRANCH  33  34
ENDBRANCH  32  33
ENDBRANCH  30  32
ENDBRANCH  26  28
ENDBRANCH   4  26
TORSDOF 23
