REMARK SMILES C=C1C(=O)O[C@H]2[C@@H]1[C@H](OC(=O)[C@]1(C)O[C@@H]1C)[C@@H](OC(C)=O)/C(C(=O)NCCCNC(=O)c1ccc(-c3c4nc(c(-c5cc(S(=O)(=O)[O-])ccc5F)c5ccc([nH]5)c(-c5cc(S(=O)(=O)[O-])ccc5F)c5nc(c(-c6cc(S(=O)(=O)[O-])ccc6F)c6ccc3[nH]6)C=C5)C=C4)cc1)=C/[C@@H]1O[C@@H]1[C@]1(C)O[C@H]21
REMARK SMILES IDX 26 1 25 2 23 3 24 4 22 6 95 7 17 8 8 9 7 10 1 11 2 12 3 13
REMARK SMILES IDX 5 14 4 15 6 16 9 18 10 19 11 20 12 21 14 22 15 23 13 24
REMARK SMILES IDX 16 25 18 26 19 27 20 28 21 29 96 30 97 31 98 32 99 33 101 34
REMARK SMILES IDX 102 35 100 36 27 38 28 39 29 40 30 41 31 43 32 44 33 45
REMARK SMILES IDX 94 46 34 47 93 48 35 49 36 50 37 51 87 52 38 53 92 54 86 55
REMARK SMILES IDX 88 56 39 57 91 58 85 59 84 60 40 62 72 63 52 64 71 65 53 66
REMARK SMILES IDX 56 67 70 68 89 69 54 70 55 71 69 73 90 74 57 75 41 76 42 77
REMARK SMILES IDX 50 78 43 79 49 80 51 81 48 82 44 83 45 84 46 85 47 86 73 87
REMARK SMILES IDX 74 88 82 89 75 90 81 91 83 92 80 93 76 94 77 95 78 96 79 97
REMARK SMILES IDX 58 98 59 99 67 100 60 101 66 102 68 103 65 104 61 105 62 106
REMARK SMILES IDX 63 107 64 108
REMARK H PARENT 25 5 29 42 88 61 56 72
REMARK Flexibility Score: 90.00
ROOT
ATOM      1  C   UNL     1      -1.069  -8.959  -2.363  1.00  0.00     0.118 C 
ENDROOT
BRANCH   1   2
ATOM      2  N   UNL     1       0.030  -8.002  -2.386  1.00  0.00    -0.352 N 
ATOM      3  C   UNL     1       0.598  -7.163  -1.489  1.00  0.00     0.250 C 
ATOM      4  O   UNL     1       1.482  -6.419  -1.907  1.00  0.00    -0.270 OA
ATOM      5  H   UNL     1       0.464  -7.955  -3.268  1.00  0.00     0.163 HD
BRANCH   3   6
ATOM      6  C   UNL     1       0.203  -7.099  -0.058  1.00  0.00     0.060 C 
ATOM      7  C   UNL     1       0.185  -8.213   0.701  1.00  0.00     0.020 C 
BRANCH   6   8
ATOM      8  C   UNL     1       0.145  -5.714   0.604  1.00  0.00     0.253 C 
BRANCH   8   9
ATOM      9  C   UNL     1       1.528  -4.968   0.624  1.00  0.00     0.233 C 
BRANCH   9  10
ATOM     10  C   UNL     1       2.531  -5.477   1.688  1.00  0.00     0.115 C 
ATOM     11  C   UNL     1       4.487  -3.907   0.969  1.00  0.00     0.021 C 
ATOM     12  C   UNL     1       3.900  -4.850   1.715  1.00  0.00     0.041 C 
ATOM     13  C   UNL     1       4.696  -5.671   2.659  1.00  0.00     0.334 C 
ATOM     14  O   UNL     1       4.065  -6.877   2.736  1.00  0.00    -0.455 OA
ATOM     15  O   UNL     1       5.704  -5.336   3.252  1.00  0.00    -0.247 OA
ATOM     16  C   UNL     1       3.006  -6.937   1.740  1.00  0.00     0.220 CG0
ATOM     17  G   UNL     1       3.602  -7.470   0.459  1.00  0.00     0.000 G0
ENDBRANCH   9  10
BRANCH   9  18
ATOM     18  O   UNL     1       1.275  -3.561   0.994  1.00  0.00    -0.455 OA
BRANCH  18  19
ATOM     19  C   UNL     1       1.079  -2.444   0.226  1.00  0.00     0.341 C 
ATOM     20  O   UNL     1       0.941  -1.364   0.793  1.00  0.00    -0.249 OA
BRANCH  19  21
ATOM     21  C   UNL     1       1.056  -2.515  -1.287  1.00  0.00     0.188 C 
ATOM     22  O   UNL     1       0.711  -1.228  -1.883  1.00  0.00    -0.354 OA
ATOM     23  C   UNL     1      -0.256  -2.254  -2.054  1.00  0.00     0.160 C 
ATOM     24  C   UNL     1       2.241  -3.032  -2.066  1.00  0.00     0.058 C 
ATOM     25  C   UNL     1      -1.569  -1.851  -1.480  1.00  0.00     0.042 C 
ENDBRANCH  19  21
ENDBRANCH  18  19
ENDBRANCH   9  18
ENDBRANCH   8   9
BRANCH   8  26
ATOM     26  O   UNL     1      -0.765  -4.815  -0.074  1.00  0.00    -0.453 OA
BRANCH  26  27
ATOM     27  C   UNL     1      -2.094  -5.056   0.000  1.00  0.00     0.303 C 
ATOM     28  C   UNL     1      -2.521  -5.857  -1.178  1.00  0.00     0.139 C 
ATOM     29  O   UNL     1      -2.840  -4.610   0.855  1.00  0.00    -0.253 OA
ENDBRANCH  26  27
ENDBRANCH   8  26
ENDBRANCH   6   8
BRANCH   7  30
ATOM     30  C   UNL     1       0.695  -9.557   0.393  1.00  0.00     0.174 C 
ATOM     31  O   UNL     1       1.742 -10.086   1.226  1.00  0.00    -0.362 OA
ATOM     32  C   UNL     1       2.107  -9.793  -0.127  1.00  0.00     0.186 C 
BRANCH  32  33
ATOM     33  C   UNL     1       3.176  -8.709  -0.354  1.00  0.00     0.125 C 
ATOM     34  O   UNL     1       4.237  -8.745   0.617  1.00  0.00    -0.359 OA
ATOM     35  C   UNL     1       3.602  -7.470   0.459  1.00  0.00     0.195 CG0
ATOM     36  C   UNL     1       3.722  -8.719  -1.769  1.00  0.00     0.048 C 
ATOM     37  G   UNL     1       3.006  -6.937   1.740  1.00  0.00     0.000 G0
ENDBRANCH  32  33
ENDBRANCH   7  30
ENDBRANCH   3   6
ENDBRANCH   1   2
BRANCH   1  38
ATOM     38  C   UNL     1      -2.271  -8.562  -3.227  1.00  0.00     0.042 C 
BRANCH  38  39
ATOM     39  C   UNL     1      -1.961  -7.731  -4.466  1.00  0.00     0.118 C 
BRANCH  39  40
ATOM     40  N   UNL     1      -1.345  -8.521  -5.516  1.00  0.00    -0.352 N 
ATOM     41  C   UNL     1      -1.924  -9.079  -6.632  1.00  0.00     0.251 C 
ATOM     42  H   UNL     1      -0.379  -8.681  -5.415  1.00  0.00     0.163 HD
ATOM     43  O   UNL     1      -1.304  -9.927  -7.266  1.00  0.00    -0.269 OA
BRANCH  41  44
ATOM     44  C   UNL     1      -3.290  -8.681  -7.042  1.00  0.00     0.039 A 
ATOM     45  C   UNL     1      -4.205  -9.671  -7.408  1.00  0.00     0.014 A 
ATOM     46  C   UNL     1      -3.662  -7.335  -7.089  1.00  0.00     0.014 A 
ATOM     47  C   UNL     1      -5.509  -9.313  -7.766  1.00  0.00     0.010 A 
ATOM     48  C   UNL     1      -4.983  -6.987  -7.367  1.00  0.00     0.010 A 
ATOM     49  C   UNL     1      -5.918  -7.971  -7.721  1.00  0.00    -0.014 A 
BRANCH  49  50
ATOM     50  C   UNL     1      -7.305  -7.568  -8.080  1.00  0.00     0.031 A 
ATOM     51  C   UNL     1      -7.542  -6.673  -9.269  1.00  0.00     0.074 A 
ATOM     52  C   UNL     1      -8.342  -7.952  -7.311  1.00  0.00     0.049 A 
ATOM     53  N   UNL     1      -8.654  -6.129  -9.692  1.00  0.00    -0.248 NA
ATOM     54  C   UNL     1      -6.358  -6.316 -10.064  1.00  0.00     0.031 C 
ATOM     55  C   UNL     1      -8.244  -8.793  -6.116  1.00  0.00     0.029 A 
ATOM     56  N   UNL     1      -9.683  -7.679  -7.413  1.00  0.00    -0.354 N 
ATOM     57  C   UNL     1      -8.302  -5.353 -10.791  1.00  0.00     0.074 A 
ATOM     58  C   UNL     1      -6.863  -5.443 -10.921  1.00  0.00     0.031 C 
ATOM     59  C   UNL     1      -9.473  -8.986  -5.612  1.00  0.00     0.029 A 
ATOM     60  C   UNL     1     -10.443  -8.249  -6.417  1.00  0.00     0.049 A 
ATOM     61  H   UNL     1     -10.066  -7.126  -8.132  1.00  0.00     0.167 HD
ATOM     62  C   UNL     1      -9.105  -4.651 -11.632  1.00  0.00     0.034 A 
ATOM     63  C   UNL     1     -11.767  -8.178  -6.175  1.00  0.00     0.034 A 
ATOM     64  C   UNL     1     -10.540  -4.583 -11.499  1.00  0.00     0.049 A 
ATOM     65  C   UNL     1     -12.639  -7.372  -7.104  1.00  0.00     0.074 A 
ATOM     66  C   UNL     1     -11.454  -3.942 -12.318  1.00  0.00     0.029 A 
ATOM     67  N   UNL     1     -11.273  -5.175 -10.477  1.00  0.00    -0.354 N 
ATOM     68  N   UNL     1     -12.295  -6.671  -8.160  1.00  0.00    -0.248 NA
ATOM     69  C   UNL     1     -14.078  -7.356  -6.812  1.00  0.00     0.031 C 
ATOM     70  C   UNL     1     -12.728  -4.094 -11.759  1.00  0.00     0.029 A 
ATOM     71  C   UNL     1     -12.621  -4.892 -10.631  1.00  0.00     0.049 A 
ATOM     72  H   UNL     1     -10.889  -5.716  -9.750  1.00  0.00     0.167 HD
ATOM     73  C   UNL     1     -13.482  -6.158  -8.677  1.00  0.00     0.074 A 
ATOM     74  C   UNL     1     -14.548  -6.638  -7.821  1.00  0.00     0.031 C 
ATOM     75  C   UNL     1     -13.674  -5.369  -9.764  1.00  0.00     0.034 A 
BRANCH  62  76
ATOM     76  C   UNL     1      -8.432  -3.887 -12.749  1.00  0.00     0.023 A 
ATOM     77  C   UNL     1      -7.674  -4.542 -13.736  1.00  0.00     0.031 A 
ATOM     78  C   UNL     1      -8.501  -2.484 -12.801  1.00  0.00     0.131 A 
ATOM     79  C   UNL     1      -6.937  -3.795 -14.667  1.00  0.00     0.055 A 
ATOM     80  C   UNL     1      -7.841  -1.749 -13.789  1.00  0.00     0.041 A 
ATOM     81  F   UNL     1      -9.193  -1.798 -11.877  1.00  0.00    -0.206 F 
ATOM     82  C   UNL     1      -7.036  -2.403 -14.717  1.00  0.00     0.022 A 
BRANCH  79  83
ATOM     83  S   UNL     1      -5.713  -4.659 -15.690  1.00  0.00     0.124 S 
ATOM     84  O   UNL     1      -4.856  -5.265 -14.673  1.00  0.00    -0.237 OA
ATOM     85  O   UNL     1      -6.540  -5.580 -16.460  1.00  0.00    -0.237 OA
ATOM     86  O   UNL     1      -5.089  -3.584 -16.459  1.00  0.00    -0.744 OA
ENDBRANCH  79  83
ENDBRANCH  62  76
BRANCH  63  87
ATOM     87  C   UNL     1     -12.356  -8.887  -5.005  1.00  0.00     0.023 A 
ATOM     88  C   UNL     1     -13.241  -9.962  -5.186  1.00  0.00     0.031 A 
ATOM     89  C   UNL     1     -12.068  -8.483  -3.690  1.00  0.00     0.131 A 
ATOM     90  C   UNL     1     -13.839 -10.570  -4.072  1.00  0.00     0.055 A 
ATOM     91  C   UNL     1     -12.630  -9.121  -2.583  1.00  0.00     0.041 A 
ATOM     92  F   UNL     1     -11.220  -7.467  -3.462  1.00  0.00    -0.206 F 
ATOM     93  C   UNL     1     -13.531 -10.165  -2.772  1.00  0.00     0.022 A 
BRANCH  90  94
ATOM     94  S   UNL     1     -15.080 -11.864  -4.352  1.00  0.00     0.124 S 
ATOM     95  O   UNL     1     -16.085 -11.148  -5.129  1.00  0.00    -0.237 OA
ATOM     96  O   UNL     1     -14.308 -12.871  -5.071  1.00  0.00    -0.237 OA
ATOM     97  O   UNL     1     -15.486 -12.242  -3.000  1.00  0.00    -0.744 OA
ENDBRANCH  90  94
ENDBRANCH  63  87
BRANCH  75  98
ATOM     98  C   UNL     1     -15.100  -5.019 -10.114  1.00  0.00     0.023 A 
ATOM     99  C   UNL     1     -15.881  -4.184  -9.297  1.00  0.00     0.031 A 
ATOM    100  C   UNL     1     -15.686  -5.541 -11.281  1.00  0.00     0.131 A 
ATOM    101  C   UNL     1     -17.222  -3.938  -9.630  1.00  0.00     0.055 A 
ATOM    102  C   UNL     1     -17.003  -5.247 -11.637  1.00  0.00     0.041 A 
ATOM    103  F   UNL     1     -14.986  -6.346 -12.097  1.00  0.00    -0.206 F 
ATOM    104  C   UNL     1     -17.783  -4.451 -10.803  1.00  0.00     0.022 A 
BRANCH 101 105
ATOM    105  S   UNL     1     -18.253  -3.007  -8.464  1.00  0.00     0.124 S 
ATOM    106  O   UNL     1     -18.168  -3.829  -7.261  1.00  0.00    -0.237 OA
ATOM    107  O   UNL     1     -17.572  -1.718  -8.405  1.00  0.00    -0.237 OA
ATOM    108  O   UNL     1     -19.565  -2.985  -9.107  1.00  0.00    -0.744 OA
ENDBRANCH 101 105
ENDBRANCH  75  98
ENDBRANCH  49  50
ENDBRANCH  41  44
ENDBRANCH  39  40
ENDBRANCH  38  39
ENDBRANCH   1  38
TORSDOF 18
