REMARK SMILES O=C1C[N@@H+](Cc2ccc(C(=O)NCCCNC(=O)c3ccc(-c4c5nc(c(-c6cc(S(=O)(=O)[O-])ccc6F)c6ccc([nH]6)c(-c6cc(S(=O)(=O)[O-])ccc6F)c6nc(c(-c7cc(S(=O)(=O)[O-])ccc7F)c7ccc4[nH]7)C=C6)C=C5)cc3)cc2)CCN1
REMARK SMILES IDX 14 1 13 2 12 3 10 4 11 5 9 7 6 8 7 9 83 10 8 11 82 12 5 13
REMARK SMILES IDX 4 14 1 15 2 16 3 17 86 18 85 19 84 21 15 23 16 24 17 25
REMARK SMILES IDX 18 27 19 28 20 29 81 30 21 31 80 32 22 33 23 34 24 35 74 36
REMARK SMILES IDX 25 37 79 38 73 39 75 40 26 41 78 42 72 43 71 44 27 46 59 47
REMARK SMILES IDX 39 48 58 49 40 50 43 51 57 52 76 53 41 54 42 55 56 57 77 58
REMARK SMILES IDX 44 59 28 60 29 61 37 62 30 63 36 64 38 65 35 66 31 67 32 68
REMARK SMILES IDX 33 69 34 70 60 71 61 72 69 73 62 74 68 75 70 76 67 77 63 78
REMARK SMILES IDX 64 79 65 80 66 81 45 82 46 83 54 84 47 85 53 86 55 87 52 88
REMARK SMILES IDX 48 89 49 90 50 91 51 92
REMARK H PARENT 12 6 86 20 4 22 16 26 75 45 43 56
REMARK Flexibility Score: inf
ROOT
ATOM      1  C   UNL     1      -1.458   5.857   2.598  1.00  0.00     0.042 C 
ENDROOT
BRANCH   1   2
ATOM      2  C   UNL     1      -0.173   5.043   2.475  1.00  0.00     0.118 C 
BRANCH   2   3
ATOM      3  N   UNL     1       0.374   4.697   3.778  1.00  0.00    -0.352 N 
ATOM      4  C   UNL     1       0.426   3.491   4.434  1.00  0.00     0.251 C 
ATOM      5  O   UNL     1       1.055   3.399   5.484  1.00  0.00    -0.269 OA
ATOM      6  H   UNL     1       0.772   5.451   4.271  1.00  0.00     0.163 HD
BRANCH   4   7
ATOM      7  C   UNL     1      -0.198   2.284   3.850  1.00  0.00     0.039 A 
ATOM      8  C   UNL     1      -1.182   0.021   2.524  1.00  0.00     0.006 A 
ATOM      9  C   UNL     1       0.074  -0.013   3.145  1.00  0.00     0.010 A 
ATOM     10  C   UNL     1      -1.989   1.157   2.685  1.00  0.00     0.010 A 
ATOM     11  C   UNL     1       0.565   1.114   3.804  1.00  0.00     0.014 A 
ATOM     12  C   UNL     1      -1.502   2.281   3.351  1.00  0.00     0.014 A 
BRANCH   8  13
ATOM     13  C   UNL     1      -1.650  -1.127   1.665  1.00  0.00     0.299 C 
BRANCH  13  14
ATOM     14  N   UNL     1      -1.228  -1.119   0.261  1.00  0.00    -0.322 N 
ATOM     15  O   UNL     1       2.317  -0.242   0.196  1.00  0.00    -0.269 OA
ATOM     16  C   UNL     1       1.107  -0.167  -0.024  1.00  0.00     0.275 C 
ATOM     17  C   UNL     1       0.199  -1.397   0.028  1.00  0.00     0.363 C 
ATOM     18  N   UNL     1       0.569   1.016  -0.448  1.00  0.00    -0.346 N 
ATOM     19  C   UNL     1      -0.851   1.260  -0.551  1.00  0.00     0.177 C 
ATOM     20  H   UNL     1       1.185   1.742  -0.698  1.00  0.00     0.163 HD
ATOM     21  C   UNL     1      -1.712  -0.013  -0.568  1.00  0.00     0.284 C 
ATOM     22  H   UNL     1      -1.738  -1.935  -0.078  1.00  0.00     0.348 HD
ENDBRANCH  13  14
ENDBRANCH   8  13
ENDBRANCH   4   7
ENDBRANCH   2   3
ENDBRANCH   1   2
BRANCH   1  23
ATOM     23  C   UNL     1      -1.248   7.259   3.164  1.00  0.00     0.118 C 
BRANCH  23  24
ATOM     24  N   UNL     1      -0.541   8.129   2.237  1.00  0.00    -0.352 N 
ATOM     25  C   UNL     1      -0.914   9.334   1.693  1.00  0.00     0.251 C 
ATOM     26  H   UNL     1       0.344   7.803   1.956  1.00  0.00     0.163 HD
ATOM     27  O   UNL     1      -0.252   9.794   0.766  1.00  0.00    -0.269 OA
BRANCH  25  28
ATOM     28  C   UNL     1      -2.106  10.062   2.189  1.00  0.00     0.039 A 
ATOM     29  C   UNL     1      -2.917  10.726   1.263  1.00  0.00     0.014 A 
ATOM     30  C   UNL     1      -2.411  10.133   3.551  1.00  0.00     0.014 A 
ATOM     31  C   UNL     1      -4.060  11.405   1.695  1.00  0.00     0.010 A 
ATOM     32  C   UNL     1      -3.592  10.745   3.972  1.00  0.00     0.010 A 
ATOM     33  C   UNL     1      -4.428  11.391   3.050  1.00  0.00    -0.014 A 
BRANCH  33  34
ATOM     34  C   UNL     1      -5.687  12.040   3.508  1.00  0.00     0.031 A 
ATOM     35  C   UNL     1      -5.645  13.199   4.466  1.00  0.00     0.074 A 
ATOM     36  C   UNL     1      -6.873  11.540   3.108  1.00  0.00     0.049 A 
ATOM     37  N   UNL     1      -6.634  13.857   5.015  1.00  0.00    -0.248 NA
ATOM     38  C   UNL     1      -4.313  13.657   4.887  1.00  0.00     0.031 C 
ATOM     39  C   UNL     1      -7.044  10.383   2.226  1.00  0.00     0.029 A 
ATOM     40  N   UNL     1      -8.157  11.927   3.398  1.00  0.00    -0.354 N 
ATOM     41  C   UNL     1      -6.048  14.793   5.861  1.00  0.00     0.074 A 
ATOM     42  C   UNL     1      -4.618  14.574   5.793  1.00  0.00     0.031 C 
ATOM     43  C   UNL     1      -8.354  10.166   2.035  1.00  0.00     0.029 A 
ATOM     44  C   UNL     1      -9.118  11.136   2.813  1.00  0.00     0.049 A 
ATOM     45  H   UNL     1      -8.370  12.698   3.971  1.00  0.00     0.167 HD
ATOM     46  C   UNL     1      -6.645  15.757   6.608  1.00  0.00     0.034 A 
ATOM     47  C   UNL     1     -10.462  11.172   2.904  1.00  0.00     0.034 A 
ATOM     48  C   UNL     1      -8.074  15.963   6.653  1.00  0.00     0.049 A 
ATOM     49  C   UNL     1     -11.107  12.247   3.738  1.00  0.00     0.074 A 
ATOM     50  C   UNL     1      -8.780  16.959   7.306  1.00  0.00     0.029 A 
ATOM     51  N   UNL     1      -9.018  15.150   6.038  1.00  0.00    -0.354 N 
ATOM     52  N   UNL     1     -10.537  13.178   4.469  1.00  0.00    -0.248 NA
ATOM     53  C   UNL     1     -12.574  12.285   3.749  1.00  0.00     0.031 C 
ATOM     54  C   UNL     1     -10.148  16.701   7.154  1.00  0.00     0.029 A 
ATOM     55  C   UNL     1     -10.300  15.594   6.333  1.00  0.00     0.049 A 
ATOM     56  H   UNL     1      -8.808  14.370   5.474  1.00  0.00     0.167 HD
ATOM     57  C   UNL     1     -11.579  13.925   5.011  1.00  0.00     0.074 A 
ATOM     58  C   UNL     1     -12.808  13.348   4.505  1.00  0.00     0.031 C 
ATOM     59  C   UNL     1     -11.522  14.995   5.847  1.00  0.00     0.034 A 
BRANCH  46  60
ATOM     60  C   UNL     1      -5.751  16.630   7.462  1.00  0.00     0.023 A 
ATOM     61  C   UNL     1      -4.749  17.442   6.901  1.00  0.00     0.031 A 
ATOM     62  C   UNL     1      -5.875  16.619   8.863  1.00  0.00     0.131 A 
ATOM     63  C   UNL     1      -3.855  18.132   7.734  1.00  0.00     0.055 A 
ATOM     64  C   UNL     1      -5.040  17.381   9.684  1.00  0.00     0.041 A 
ATOM     65  F   UNL     1      -6.799  15.851   9.462  1.00  0.00    -0.206 F 
ATOM     66  C   UNL     1      -4.009  18.127   9.122  1.00  0.00     0.022 A 
BRANCH  63  67
ATOM     67  S   UNL     1      -2.386  18.890   6.987  1.00  0.00     0.124 S 
ATOM     68  O   UNL     1      -1.778  17.749   6.306  1.00  0.00    -0.237 OA
ATOM     69  O   UNL     1      -2.965  19.914   6.125  1.00  0.00    -0.237 OA
ATOM     70  O   UNL     1      -1.635  19.391   8.137  1.00  0.00    -0.744 OA
ENDBRANCH  63  67
ENDBRANCH  46  60
BRANCH  47  71
ATOM     71  C   UNL     1     -11.283  10.145   2.201  1.00  0.00     0.023 A 
ATOM     72  C   UNL     1     -12.127  10.488   1.133  1.00  0.00     0.031 A 
ATOM     73  C   UNL     1     -11.234   8.795   2.597  1.00  0.00     0.131 A 
ATOM     74  C   UNL     1     -12.910   9.499   0.517  1.00  0.00     0.055 A 
ATOM     75  C   UNL     1     -11.978   7.809   1.950  1.00  0.00     0.041 A 
ATOM     76  F   UNL     1     -10.436   8.413   3.607  1.00  0.00    -0.206 F 
ATOM     77  C   UNL     1     -12.830   8.160   0.908  1.00  0.00     0.022 A 
BRANCH  74  78
ATOM     78  S   UNL     1     -14.081   9.996  -0.777  1.00  0.00     0.124 S 
ATOM     79  O   UNL     1     -14.944  10.925  -0.057  1.00  0.00    -0.237 OA
ATOM     80  O   UNL     1     -13.196  10.585  -1.777  1.00  0.00    -0.237 OA
ATOM     81  O   UNL     1     -14.708   8.736  -1.170  1.00  0.00    -0.744 OA
ENDBRANCH  74  78
ENDBRANCH  47  71
BRANCH  59  82
ATOM     82  C   UNL     1     -12.838  15.623   6.243  1.00  0.00     0.023 A 
ATOM     83  C   UNL     1     -13.783  14.935   7.024  1.00  0.00     0.031 A 
ATOM     84  C   UNL     1     -13.157  16.925   5.818  1.00  0.00     0.131 A 
ATOM     85  C   UNL     1     -15.024  15.526   7.304  1.00  0.00     0.055 A 
ATOM     86  C   UNL     1     -14.367  17.535   6.156  1.00  0.00     0.041 A 
ATOM     87  F   UNL     1     -12.297  17.630   5.065  1.00  0.00    -0.206 F 
ATOM     88  C   UNL     1     -15.315  16.829   6.891  1.00  0.00     0.022 A 
BRANCH  85  89
ATOM     89  S   UNL     1     -16.298  14.530   8.127  1.00  0.00     0.124 S 
ATOM     90  O   UNL     1     -16.439  13.403   7.210  1.00  0.00    -0.237 OA
ATOM     91  O   UNL     1     -15.680  14.232   9.414  1.00  0.00    -0.237 OA
ATOM     92  O   UNL     1     -17.450  15.428   8.186  1.00  0.00    -0.744 OA
ENDBRANCH  85  89
ENDBRANCH  59  82
ENDBRANCH  33  34
ENDBRANCH  25  28
ENDBRANCH  23  24
ENDBRANCH   1  23
TORSDOF 15
