REMARK SMILES Cc1c(CC(=O)N[C@@H](C)C(=O)NCCCNC(=O)c2ccc(-c3c4nc(c(-c5cc(S(=O)(=O)[O-])ccc5F)c5ccc([nH]5)c(-c5cc(S(=O)(=O)[O-])ccc5F)c5nc(c(-c6cc(S(=O)(=O)[O-])ccc6F)c6ccc3[nH]6)C=C5)C=C4)cc2)c(=O)oc2cc3oc4c(c3cc12)CCCC4
REMARK SMILES IDX 14 1 13 2 12 3 10 4 11 5 8 7 9 8 7 9 5 10 6 11 4 13 3 14
REMARK SMILES IDX 1 15 2 16 93 17 82 18 85 19 92 20 83 21 84 22 86 23 91 24
REMARK SMILES IDX 87 25 90 26 88 27 89 28 94 29 97 30 95 31 96 32 15 33 16 34
REMARK SMILES IDX 17 35 18 37 19 38 20 39 81 40 21 41 80 42 22 43 23 44 24 45
REMARK SMILES IDX 74 46 25 47 79 48 73 49 75 50 26 51 78 52 72 53 71 54 27 56
REMARK SMILES IDX 59 57 39 58 58 59 40 60 43 61 57 62 76 63 41 64 42 65 56 67
REMARK SMILES IDX 77 68 44 69 28 70 29 71 37 72 30 73 36 74 38 75 35 76 31 77
REMARK SMILES IDX 32 78 33 79 34 80 60 81 61 82 69 83 62 84 68 85 70 86 67 87
REMARK SMILES IDX 63 88 64 89 65 90 66 91 45 92 46 93 54 94 47 95 53 96 55 97
REMARK SMILES IDX 52 98 48 99 49 100 50 101 51 102
REMARK H PARENT 12 6 7 12 16 36 75 55 43 66
REMARK Flexibility Score: inf
ROOT
ATOM      1  C   UNL     1       4.663   3.720   5.023  1.00  0.00     0.042 C 
ENDROOT
BRANCH   1   2
ATOM      2  C   UNL     1       4.638   2.216   5.269  1.00  0.00     0.117 C 
BRANCH   2   3
ATOM      3  N   UNL     1       3.561   1.844   6.176  1.00  0.00    -0.354 N 
ATOM      4  C   UNL     1       2.349   1.268   5.972  1.00  0.00     0.242 C 
ATOM      5  O   UNL     1       1.591   1.188   6.944  1.00  0.00    -0.273 OA
ATOM      6  H   UNL     1       3.749   2.049   7.120  1.00  0.00     0.163 HD
BRANCH   4   7
ATOM      7  C   UNL     1       1.955   0.658   4.622  1.00  0.00     0.168 C 
ATOM      8  C   UNL     1       2.862  -0.519   4.276  1.00  0.00     0.041 C 
BRANCH   7   9
ATOM      9  N   UNL     1       1.873   1.661   3.565  1.00  0.00    -0.344 N 
ATOM     10  C   UNL     1       0.814   1.961   2.757  1.00  0.00     0.225 C 
ATOM     11  O   UNL     1       0.876   2.976   2.062  1.00  0.00    -0.275 OA
ATOM     12  H   UNL     1       2.689   2.191   3.415  1.00  0.00     0.164 HD
BRANCH  10  13
ATOM     13  C   UNL     1      -0.412   1.052   2.703  1.00  0.00     0.143 C 
BRANCH  13  14
ATOM     14  C   UNL     1      -0.039  -0.362   2.322  1.00  0.00     0.051 A 
ATOM     15  C   UNL     1       1.067   0.301   0.152  1.00  0.00     0.046 C 
ATOM     16  C   UNL     1       0.715  -0.679   1.249  1.00  0.00    -0.029 A 
ATOM     17  C   UNL     1       1.181  -2.066   1.095  1.00  0.00     0.022 A 
ATOM     18  C   UNL     1      -0.526  -1.406   3.265  1.00  0.00     0.340 A 
ATOM     19  C   UNL     1       0.678  -3.055   1.944  1.00  0.00     0.142 A 
ATOM     20  C   UNL     1       2.031  -2.438   0.049  1.00  0.00     0.024 A 
ATOM     21  O   UNL     1      -1.261  -1.134   4.209  1.00  0.00    -0.246 OA
ATOM     22  O   UNL     1      -0.129  -2.711   3.042  1.00  0.00    -0.422 OA
ATOM     23  C   UNL     1       0.839  -4.426   1.719  1.00  0.00     0.095 A 
ATOM     24  C   UNL     1       2.046  -3.789  -0.318  1.00  0.00     0.025 A 
ATOM     25  C   UNL     1       1.408  -4.724   0.492  1.00  0.00     0.138 A 
ATOM     26  C   UNL     1       2.316  -4.438  -1.545  1.00  0.00     0.001 A 
ATOM     27  O   UNL     1       1.237  -5.898  -0.186  1.00  0.00    -0.461 OA
ATOM     28  C   UNL     1       1.622  -5.627  -1.457  1.00  0.00     0.108 A 
ATOM     29  C   UNL     1       2.592  -3.842  -2.878  1.00  0.00     0.040 C 
ATOM     30  C   UNL     1       0.816  -6.145  -2.595  1.00  0.00     0.076 C 
ATOM     31  C   UNL     1       1.274  -3.806  -3.686  1.00  0.00     0.005 C 
ATOM     32  C   UNL     1       0.221  -4.884  -3.285  1.00  0.00     0.008 C 
ENDBRANCH  13  14
ENDBRANCH  10  13
ENDBRANCH   7   9
ENDBRANCH   4   7
ENDBRANCH   2   3
ENDBRANCH   1   2
BRANCH   1  33
ATOM     33  C   UNL     1       4.774   4.535   6.311  1.00  0.00     0.118 C 
BRANCH  33  34
ATOM     34  N   UNL     1       6.100   4.520   6.909  1.00  0.00    -0.352 N 
ATOM     35  C   UNL     1       7.235   5.210   6.535  1.00  0.00     0.251 C 
ATOM     36  H   UNL     1       6.202   3.933   7.693  1.00  0.00     0.163 HD
ATOM     37  O   UNL     1       8.287   5.035   7.127  1.00  0.00    -0.269 OA
BRANCH  35  38
ATOM     38  C   UNL     1       7.155   6.119   5.375  1.00  0.00     0.039 A 
ATOM     39  C   UNL     1       6.194   7.131   5.348  1.00  0.00     0.014 A 
ATOM     40  C   UNL     1       7.992   5.893   4.279  1.00  0.00     0.014 A 
ATOM     41  C   UNL     1       5.950   7.805   4.163  1.00  0.00     0.010 A 
ATOM     42  C   UNL     1       7.786   6.614   3.105  1.00  0.00     0.010 A 
ATOM     43  C   UNL     1       6.731   7.531   3.034  1.00  0.00    -0.014 A 
BRANCH  43  44
ATOM     44  C   UNL     1       6.401   8.288   1.824  1.00  0.00     0.031 A 
ATOM     45  C   UNL     1       7.409   9.316   1.445  1.00  0.00     0.074 A 
ATOM     46  C   UNL     1       5.614   7.765   0.864  1.00  0.00     0.049 A 
ATOM     47  N   UNL     1       8.497   9.027   0.794  1.00  0.00    -0.248 NA
ATOM     48  C   UNL     1       7.384  10.666   2.004  1.00  0.00     0.031 C 
ATOM     49  C   UNL     1       5.598   6.344   0.492  1.00  0.00     0.029 A 
ATOM     50  N   UNL     1       4.883   8.384  -0.118  1.00  0.00    -0.354 N 
ATOM     51  C   UNL     1       9.327  10.129   0.890  1.00  0.00     0.074 A 
ATOM     52  C   UNL     1       8.594  11.121   1.647  1.00  0.00     0.031 C 
ATOM     53  C   UNL     1       5.061   6.230  -0.740  1.00  0.00     0.029 A 
ATOM     54  C   UNL     1       4.547   7.527  -1.162  1.00  0.00     0.049 A 
ATOM     55  H   UNL     1       4.623   9.333  -0.088  1.00  0.00     0.167 HD
ATOM     56  C   UNL     1      10.572  10.176   0.350  1.00  0.00     0.034 A 
ATOM     57  C   UNL     1       4.367   7.927  -2.450  1.00  0.00     0.034 A 
ATOM     58  C   UNL     1      10.960   9.030  -0.417  1.00  0.00     0.049 A 
ATOM     59  C   UNL     1       5.799   8.199  -2.859  1.00  0.00     0.074 A 
ATOM     60  C   UNL     1      11.698   7.883  -0.228  1.00  0.00     0.029 A 
ATOM     61  N   UNL     1      10.470   8.923  -1.698  1.00  0.00    -0.354 N 
ATOM     62  N   UNL     1       6.688   7.301  -3.208  1.00  0.00    -0.248 NA
ATOM     63  C   UNL     1       6.365   9.506  -2.518  1.00  0.00     0.031 C 
ATOM     64  C   UNL     1      11.255   6.971  -1.237  1.00  0.00     0.029 A 
ATOM     65  C   UNL     1      10.220   7.594  -1.937  1.00  0.00     0.049 A 
ATOM     66  H   UNL     1      10.325   9.664  -2.329  1.00  0.00     0.167 HD
ATOM     67  C   UNL     1       7.929   7.844  -2.850  1.00  0.00     0.074 A 
ATOM     68  C   UNL     1       7.654   9.210  -2.456  1.00  0.00     0.031 C 
ATOM     69  C   UNL     1       9.082   7.123  -2.708  1.00  0.00     0.034 A 
BRANCH  56  70
ATOM     70  C   UNL     1      11.416  11.389   0.363  1.00  0.00     0.023 A 
ATOM     71  C   UNL     1      12.225  11.740   1.453  1.00  0.00     0.031 A 
ATOM     72  C   UNL     1      11.496  12.148  -0.817  1.00  0.00     0.131 A 
ATOM     73  C   UNL     1      13.106  12.825   1.322  1.00  0.00     0.055 A 
ATOM     74  C   UNL     1      12.376  13.217  -0.943  1.00  0.00     0.041 A 
ATOM     75  F   UNL     1      10.728  11.834  -1.875  1.00  0.00    -0.206 F 
ATOM     76  C   UNL     1      13.192  13.556   0.130  1.00  0.00     0.022 A 
BRANCH  73  77
ATOM     77  S   UNL     1      14.199  13.327   2.681  1.00  0.00     0.124 S 
ATOM     78  O   UNL     1      15.524  13.158   2.090  1.00  0.00    -0.237 OA
ATOM     79  O   UNL     1      13.786  14.711   2.903  1.00  0.00    -0.237 OA
ATOM     80  O   UNL     1      13.868  12.400   3.757  1.00  0.00    -0.744 OA
ENDBRANCH  73  77
ENDBRANCH  56  70
BRANCH  57  81
ATOM     81  C   UNL     1       3.225   8.895  -2.587  1.00  0.00     0.023 A 
ATOM     82  C   UNL     1       3.329  10.231  -2.991  1.00  0.00     0.031 A 
ATOM     83  C   UNL     1       1.944   8.456  -2.175  1.00  0.00     0.131 A 
ATOM     84  C   UNL     1       2.251  11.113  -2.799  1.00  0.00     0.055 A 
ATOM     85  C   UNL     1       0.853   9.321  -2.047  1.00  0.00     0.041 A 
ATOM     86  F   UNL     1       1.740   7.166  -1.855  1.00  0.00    -0.206 F 
ATOM     87  C   UNL     1       1.014  10.669  -2.328  1.00  0.00     0.022 A 
BRANCH  84  88
ATOM     88  S   UNL     1       2.467  12.895  -3.068  1.00  0.00     0.124 S 
ATOM     89  O   UNL     1       1.276  13.242  -3.837  1.00  0.00    -0.237 OA
ATOM     90  O   UNL     1       2.503  13.389  -1.695  1.00  0.00    -0.237 OA
ATOM     91  O   UNL     1       3.729  12.973  -3.797  1.00  0.00    -0.744 OA
ENDBRANCH  84  88
ENDBRANCH  57  81
BRANCH  69  92
ATOM     92  C   UNL     1       9.071   5.706  -3.195  1.00  0.00     0.023 A 
ATOM     93  C   UNL     1       9.321   4.635  -2.315  1.00  0.00     0.031 A 
ATOM     94  C   UNL     1       8.968   5.427  -4.566  1.00  0.00     0.131 A 
ATOM     95  C   UNL     1       9.556   3.352  -2.823  1.00  0.00     0.055 A 
ATOM     96  C   UNL     1       9.137   4.132  -5.062  1.00  0.00     0.041 A 
ATOM     97  F   UNL     1       8.767   6.415  -5.454  1.00  0.00    -0.206 F 
ATOM     98  C   UNL     1       9.453   3.091  -4.192  1.00  0.00     0.022 A 
BRANCH  95  99
ATOM     99  S   UNL     1      10.086   2.003  -1.732  1.00  0.00     0.124 S 
ATOM    100  O   UNL     1       9.246   0.890  -2.172  1.00  0.00    -0.237 OA
ATOM    101  O   UNL     1      11.502   1.883  -2.068  1.00  0.00    -0.237 OA
ATOM    102  O   UNL     1       9.797   2.498  -0.390  1.00  0.00    -0.744 OA
ENDBRANCH  95  99
ENDBRANCH  69  92
ENDBRANCH  43  44
ENDBRANCH  35  38
ENDBRANCH  33  34
ENDBRANCH   1  33
TORSDOF 16
