REMARK SMILES COC(=O)c1ccc(NC(=O)[C@@H]2CC=CC[C@@H]2C(=O)NCCCNC(=O)c2ccc(-c3c4nc(c(-c5cc(S(=O)(=O)[O-])ccc5F)c5ccc([nH]5)c(-c5cc(S(=O)(=O)[O-])ccc5F)c5nc(c(-c6cc(S(=O)(=O)[O-])ccc6F)c6ccc3[nH]6)C=C5)C=C4)cc2)c(C)c1
REMARK SMILES IDX 21 1 20 2 18 3 19 4 17 6 12 7 13 8 14 9 16 10 15 11 10 12
REMARK SMILES IDX 9 13 11 15 8 16 5 17 6 18 92 19 7 20 90 21 91 22 3 23 4 24
REMARK SMILES IDX 2 25 1 26 22 27 23 28 24 29 25 30 26 32 27 33 28 34 89 35
REMARK SMILES IDX 29 36 88 37 30 38 31 39 32 40 82 41 33 42 87 43 81 44 83 45
REMARK SMILES IDX 34 46 86 47 80 48 79 49 35 51 67 52 47 53 66 54 48 55 51 56
REMARK SMILES IDX 65 57 84 58 49 59 50 60 64 62 85 63 52 64 36 65 37 66 45 67
REMARK SMILES IDX 38 68 44 69 46 70 43 71 39 72 40 73 41 74 42 75 68 76 69 77
REMARK SMILES IDX 77 78 70 79 76 80 78 81 75 82 71 83 72 84 73 85 74 86 53 87
REMARK SMILES IDX 54 88 62 89 55 90 61 91 63 92 60 93 56 94 57 95 58 96 59 97
REMARK H PARENT 20 5 9 14 24 31 83 50 51 61
REMARK Flexibility Score: inf
ROOT
ATOM      1  C   UNL     1       3.436   4.007  -2.318  1.00  0.00     0.117 C 
ENDROOT
BRANCH   1   2
ATOM      2  N   UNL     1       3.152   5.435  -2.322  1.00  0.00    -0.356 N 
ATOM      3  C   UNL     1       3.986   6.512  -2.423  1.00  0.00     0.224 C 
ATOM      4  O   UNL     1       3.510   7.568  -2.847  1.00  0.00    -0.275 OA
ATOM      5  H   UNL     1       2.198   5.662  -2.238  1.00  0.00     0.163 HD
BRANCH   3   6
ATOM      6  C   UNL     1       5.467   6.426  -2.024  1.00  0.00     0.095 C 
ATOM      7  C   UNL     1       5.793   6.502  -0.511  1.00  0.00     0.095 C 
ATOM      8  C   UNL     1       6.599   7.685   0.060  1.00  0.00     0.041 C 
ATOM      9  C   UNL     1       7.091   8.690  -0.925  1.00  0.00    -0.030 C 
ATOM     10  C   UNL     1       6.327   7.363  -2.906  1.00  0.00     0.041 C 
ATOM     11  C   UNL     1       6.954   8.552  -2.246  1.00  0.00    -0.030 C 
BRANCH   7  12
ATOM     12  C   UNL     1       4.684   6.142   0.457  1.00  0.00     0.228 C 
ATOM     13  N   UNL     1       3.550   6.835   0.705  1.00  0.00    -0.326 N 
ATOM     14  H   UNL     1       2.952   6.326   1.300  1.00  0.00     0.169 HD
ATOM     15  O   UNL     1       4.834   5.118   1.146  1.00  0.00    -0.274 OA
BRANCH  13  16
ATOM     16  C   UNL     1       2.974   8.075   0.359  1.00  0.00     0.044 A 
ATOM     17  C   UNL     1       1.699  10.549  -0.203  1.00  0.00     0.060 A 
ATOM     18  C   UNL     1       2.988  10.295  -0.657  1.00  0.00     0.018 A 
ATOM     19  C   UNL     1       1.032   9.555   0.511  1.00  0.00     0.021 A 
ATOM     20  C   UNL     1       3.605   9.067  -0.384  1.00  0.00     0.027 A 
ATOM     21  C   UNL     1       1.665   8.336   0.818  1.00  0.00    -0.027 A 
ATOM     22  C   UNL     1       0.882   7.334   1.612  1.00  0.00     0.046 C 
BRANCH  17  23
ATOM     23  C   UNL     1       1.111  11.898  -0.433  1.00  0.00     0.337 C 
ATOM     24  O   UNL     1       1.716  12.829  -0.925  1.00  0.00    -0.246 OA
BRANCH  23  25
ATOM     25  O   UNL     1      -0.161  11.958   0.031  1.00  0.00    -0.465 OA
ATOM     26  C   UNL     1      -0.266  12.551   1.327  1.00  0.00     0.282 C 
ENDBRANCH  23  25
ENDBRANCH  17  23
ENDBRANCH  13  16
ENDBRANCH   7  12
ENDBRANCH   3   6
ENDBRANCH   1   2
BRANCH   1  27
ATOM     27  C   UNL     1       2.974   3.249  -1.075  1.00  0.00     0.042 C 
BRANCH  27  28
ATOM     28  C   UNL     1       1.477   3.338  -0.761  1.00  0.00     0.118 C 
BRANCH  28  29
ATOM     29  N   UNL     1       0.914   2.009  -0.492  1.00  0.00    -0.352 N 
ATOM     30  C   UNL     1      -0.236   1.613   0.154  1.00  0.00     0.251 C 
ATOM     31  H   UNL     1       1.458   1.264  -0.836  1.00  0.00     0.163 HD
ATOM     32  O   UNL     1      -0.529   0.425   0.266  1.00  0.00    -0.269 OA
BRANCH  30  33
ATOM     33  C   UNL     1      -1.202   2.633   0.602  1.00  0.00     0.039 A 
ATOM     34  C   UNL     1      -2.507   2.555   0.099  1.00  0.00     0.014 A 
ATOM     35  C   UNL     1      -0.800   3.729   1.351  1.00  0.00     0.014 A 
ATOM     36  C   UNL     1      -3.319   3.687   0.114  1.00  0.00     0.010 A 
ATOM     37  C   UNL     1      -1.601   4.856   1.347  1.00  0.00     0.010 A 
ATOM     38  C   UNL     1      -2.807   4.871   0.640  1.00  0.00    -0.014 A 
BRANCH  38  39
ATOM     39  C   UNL     1      -3.334   6.191   0.296  1.00  0.00     0.031 A 
ATOM     40  C   UNL     1      -4.068   7.027   1.262  1.00  0.00     0.074 A 
ATOM     41  C   UNL     1      -3.079   6.708  -0.927  1.00  0.00     0.049 A 
ATOM     42  N   UNL     1      -4.999   7.857   0.926  1.00  0.00    -0.248 NA
ATOM     43  C   UNL     1      -3.805   7.000   2.694  1.00  0.00     0.031 C 
ATOM     44  C   UNL     1      -3.303   8.079  -1.379  1.00  0.00     0.029 A 
ATOM     45  N   UNL     1      -2.768   6.011  -2.091  1.00  0.00    -0.354 N 
ATOM     46  C   UNL     1      -5.233   8.674   2.006  1.00  0.00     0.074 A 
ATOM     47  C   UNL     1      -4.528   8.049   3.105  1.00  0.00     0.031 C 
ATOM     48  C   UNL     1      -3.395   8.087  -2.717  1.00  0.00     0.029 A 
ATOM     49  C   UNL     1      -3.349   6.708  -3.165  1.00  0.00     0.049 A 
ATOM     50  H   UNL     1      -2.240   5.182  -2.151  1.00  0.00     0.167 HD
ATOM     51  C   UNL     1      -5.863   9.871   1.833  1.00  0.00     0.034 A 
ATOM     52  C   UNL     1      -4.247   6.105  -3.996  1.00  0.00     0.034 A 
ATOM     53  C   UNL     1      -6.168  10.134   0.427  1.00  0.00     0.049 A 
ATOM     54  C   UNL     1      -5.605   6.775  -4.003  1.00  0.00     0.074 A 
ATOM     55  C   UNL     1      -5.570  10.945  -0.525  1.00  0.00     0.029 A 
ATOM     56  N   UNL     1      -7.075   9.333  -0.256  1.00  0.00    -0.354 N 
ATOM     57  N   UNL     1      -5.981   7.668  -3.130  1.00  0.00    -0.248 NA
ATOM     58  C   UNL     1      -6.657   6.475  -4.968  1.00  0.00     0.031 C 
ATOM     59  C   UNL     1      -6.112  10.614  -1.791  1.00  0.00     0.029 A 
ATOM     60  C   UNL     1      -7.049   9.612  -1.609  1.00  0.00     0.049 A 
ATOM     61  H   UNL     1      -7.656   8.659   0.166  1.00  0.00     0.167 HD
ATOM     62  C   UNL     1      -7.286   8.032  -3.361  1.00  0.00     0.074 A 
ATOM     63  C   UNL     1      -7.654   7.273  -4.543  1.00  0.00     0.031 C 
ATOM     64  C   UNL     1      -7.933   8.913  -2.534  1.00  0.00     0.034 A 
BRANCH  51  65
ATOM     65  C   UNL     1      -5.933  10.950   2.892  1.00  0.00     0.023 A 
ATOM     66  C   UNL     1      -5.971  12.306   2.502  1.00  0.00     0.031 A 
ATOM     67  C   UNL     1      -5.957  10.720   4.279  1.00  0.00     0.131 A 
ATOM     68  C   UNL     1      -5.914  13.346   3.446  1.00  0.00     0.055 A 
ATOM     69  C   UNL     1      -5.847  11.753   5.221  1.00  0.00     0.041 A 
ATOM     70  F   UNL     1      -6.136   9.491   4.783  1.00  0.00    -0.206 F 
ATOM     71  C   UNL     1      -5.809  13.076   4.806  1.00  0.00     0.022 A 
BRANCH  68  72
ATOM     72  S   UNL     1      -5.984  15.063   2.865  1.00  0.00     0.124 S 
ATOM     73  O   UNL     1      -4.813  15.140   1.997  1.00  0.00    -0.237 OA
ATOM     74  O   UNL     1      -7.284  15.115   2.206  1.00  0.00    -0.237 OA
ATOM     75  O   UNL     1      -5.887  15.841   4.099  1.00  0.00    -0.744 OA
ENDBRANCH  68  72
ENDBRANCH  51  65
BRANCH  52  76
ATOM     76  C   UNL     1      -3.977   4.646  -4.160  1.00  0.00     0.023 A 
ATOM     77  C   UNL     1      -2.689   4.289  -4.624  1.00  0.00     0.031 A 
ATOM     78  C   UNL     1      -4.724   3.672  -3.486  1.00  0.00     0.131 A 
ATOM     79  C   UNL     1      -2.109   3.074  -4.234  1.00  0.00     0.055 A 
ATOM     80  C   UNL     1      -4.172   2.420  -3.181  1.00  0.00     0.041 A 
ATOM     81  F   UNL     1      -5.938   3.960  -2.992  1.00  0.00    -0.206 F 
ATOM     82  C   UNL     1      -2.843   2.135  -3.511  1.00  0.00     0.022 A 
BRANCH  79  83
ATOM     83  S   UNL     1      -0.307   2.892  -4.424  1.00  0.00     0.124 S 
ATOM     84  O   UNL     1      -0.175   2.577  -5.841  1.00  0.00    -0.237 OA
ATOM     85  O   UNL     1       0.193   4.204  -4.011  1.00  0.00    -0.237 OA
ATOM     86  O   UNL     1       0.045   1.810  -3.507  1.00  0.00    -0.744 OA
ENDBRANCH  79  83
ENDBRANCH  52  76
BRANCH  64  87
ATOM     87  C   UNL     1      -9.411   9.275  -2.540  1.00  0.00     0.023 A 
ATOM     88  C   UNL     1     -10.383   8.611  -3.303  1.00  0.00     0.031 A 
ATOM     89  C   UNL     1      -9.911  10.306  -1.698  1.00  0.00     0.131 A 
ATOM     90  C   UNL     1     -11.739   8.996  -3.263  1.00  0.00     0.055 A 
ATOM     91  C   UNL     1     -11.266  10.644  -1.612  1.00  0.00     0.041 A 
ATOM     92  F   UNL     1      -9.108  11.029  -0.905  1.00  0.00    -0.206 F 
ATOM     93  C   UNL     1     -12.192   9.995  -2.408  1.00  0.00     0.022 A 
BRANCH  90  94
ATOM     94  S   UNL     1     -12.897   8.187  -4.400  1.00  0.00     0.124 S 
ATOM     95  O   UNL     1     -12.344   8.549  -5.702  1.00  0.00    -0.237 OA
ATOM     96  O   UNL     1     -12.769   6.782  -4.027  1.00  0.00    -0.237 OA
ATOM     97  O   UNL     1     -14.184   8.800  -4.080  1.00  0.00    -0.744 OA
ENDBRANCH  90  94
ENDBRANCH  64  87
ENDBRANCH  38  39
ENDBRANCH  30  33
ENDBRANCH  28  29
ENDBRANCH  27  28
ENDBRANCH   1  27
TORSDOF 17
