REMARK SMILES CC[C@@](C)([NH2+]CC(=O)N[C@@H](C)c1ccc(F)cc1)C(=O)NCCCNC(=O)c1ccc(-c2c3nc(c(-c4cc(S(=O)(=O)[O-])ccc4F)c4ccc([nH]4)c(-c4cc(S(=O)(=O)[O-])ccc4F)c4nc(c(-c5cc(S(=O)(=O)[O-])ccc5F)c5ccc2[nH]5)C=C4)C=C3)cc1
REMARK SMILES IDX 22 1 21 2 19 3 20 4 3 6 4 7 2 8 1 9 5 10 6 13 7 14 8 15 9 16
REMARK SMILES IDX 10 18 11 19 12 20 13 21 18 22 14 23 17 24 15 25 16 26 23 27
REMARK SMILES IDX 24 28 25 29 26 30 27 32 28 33 29 34 90 35 30 36 89 37 31 38
REMARK SMILES IDX 32 39 33 40 83 41 34 42 88 43 82 44 84 45 35 46 87 47 81 48
REMARK SMILES IDX 80 49 36 51 68 52 48 53 67 54 49 55 52 56 66 57 85 58 50 59
REMARK SMILES IDX 51 60 65 62 86 63 53 64 37 65 38 66 46 67 39 68 45 69 47 70
REMARK SMILES IDX 44 71 40 72 41 73 42 74 43 75 69 76 70 77 78 78 71 79 77 80
REMARK SMILES IDX 79 81 76 82 72 83 73 84 74 85 75 86 54 87 55 88 63 89 56 90
REMARK SMILES IDX 62 91 64 92 61 93 57 94 58 95 59 96 60 97
REMARK H PARENT 21 5 5 11 5 12 9 17 25 31 84 50 52 61
REMARK Flexibility Score: inf
ROOT
ATOM      1  C   UNL     1       2.639   3.644  -3.358  1.00  0.00     0.118 C 
ENDROOT
BRANCH   1   2
ATOM      2  N   UNL     1       2.866   3.051  -2.037  1.00  0.00    -0.351 N 
ATOM      3  C   UNL     1       2.098   2.197  -1.262  1.00  0.00     0.281 C 
ATOM      4  O   UNL     1       2.770   1.424  -0.565  1.00  0.00    -0.268 OA
ATOM      5  H   UNL     1       3.723   3.305  -1.625  1.00  0.00     0.163 HD
BRANCH   3   6
ATOM      6  C   UNL     1       0.480   2.218  -1.157  1.00  0.00     0.172 C 
ATOM      7  C   UNL     1      -0.506   1.073  -1.455  1.00  0.00     0.090 C 
BRANCH   6   8
ATOM      8  C   UNL     1       0.263   2.421   0.402  1.00  0.00     0.075 C 
ATOM      9  C   UNL     1       0.457   1.127   1.246  1.00  0.00     0.011 C 
ENDBRANCH   6   8
BRANCH   6  10
ATOM     10  N   UNL     1       0.051   3.329  -2.004  1.00  0.00    -0.326 N 
ATOM     11  H   UNL     1       0.869   3.916  -2.168  1.00  0.00     0.347 HD
ATOM     12  H   UNL     1      -0.715   3.757  -1.483  1.00  0.00     0.347 HD
BRANCH  10  13
ATOM     13  C   UNL     1      -0.544   3.024  -3.335  1.00  0.00     0.362 C 
BRANCH  13  14
ATOM     14  C   UNL     1       0.065   2.088  -4.453  1.00  0.00     0.275 C 
ATOM     15  O   UNL     1      -0.394   2.314  -5.595  1.00  0.00    -0.268 OA
ATOM     16  N   UNL     1       0.918   1.033  -4.490  1.00  0.00    -0.345 N 
ATOM     17  H   UNL     1       1.010   0.750  -5.428  1.00  0.00     0.164 HD
BRANCH  16  18
ATOM     18  C   UNL     1       1.765   0.142  -3.660  1.00  0.00     0.109 C 
ATOM     19  C   UNL     1       1.055  -1.130  -3.163  1.00  0.00     0.036 C 
BRANCH  18  20
ATOM     20  C   UNL     1       3.053  -0.292  -4.383  1.00  0.00    -0.026 A 
ATOM     21  C   UNL     1       4.257   0.412  -4.192  1.00  0.00     0.009 A 
ATOM     22  C   UNL     1       3.106  -1.483  -5.134  1.00  0.00     0.009 A 
ATOM     23  C   UNL     1       5.465  -0.058  -4.719  1.00  0.00     0.039 A 
ATOM     24  C   UNL     1       4.320  -1.981  -5.612  1.00  0.00     0.039 A 
ATOM     25  C   UNL     1       5.487  -1.262  -5.404  1.00  0.00     0.123 A 
ATOM     26  F   UNL     1       6.652  -1.755  -5.845  1.00  0.00    -0.207 F 
ENDBRANCH  18  20
ENDBRANCH  16  18
ENDBRANCH  13  14
ENDBRANCH  10  13
ENDBRANCH   6  10
ENDBRANCH   3   6
ENDBRANCH   1   2
BRANCH   1  27
ATOM     27  C   UNL     1       3.365   4.941  -3.662  1.00  0.00     0.042 C 
BRANCH  27  28
ATOM     28  C   UNL     1       4.824   4.788  -4.053  1.00  0.00     0.118 C 
BRANCH  28  29
ATOM     29  N   UNL     1       5.043   4.061  -5.305  1.00  0.00    -0.352 N 
ATOM     30  C   UNL     1       5.506   4.472  -6.537  1.00  0.00     0.251 C 
ATOM     31  H   UNL     1       4.819   3.103  -5.258  1.00  0.00     0.163 HD
ATOM     32  O   UNL     1       5.526   3.666  -7.467  1.00  0.00    -0.269 OA
BRANCH  30  33
ATOM     33  C   UNL     1       5.926   5.871  -6.766  1.00  0.00     0.039 A 
ATOM     34  C   UNL     1       5.561   6.512  -7.954  1.00  0.00     0.014 A 
ATOM     35  C   UNL     1       6.652   6.567  -5.803  1.00  0.00     0.014 A 
ATOM     36  C   UNL     1       5.810   7.879  -8.111  1.00  0.00     0.010 A 
ATOM     37  C   UNL     1       6.780   7.947  -5.900  1.00  0.00     0.010 A 
ATOM     38  C   UNL     1       6.357   8.623  -7.053  1.00  0.00    -0.014 A 
BRANCH  38  39
ATOM     39  C   UNL     1       6.509  10.101  -7.120  1.00  0.00     0.031 A 
ATOM     40  C   UNL     1       7.869  10.720  -6.929  1.00  0.00     0.074 A 
ATOM     41  C   UNL     1       5.419  10.884  -7.259  1.00  0.00     0.049 A 
ATOM     42  N   UNL     1       8.192  11.980  -6.794  1.00  0.00    -0.248 NA
ATOM     43  C   UNL     1       9.011   9.797  -6.829  1.00  0.00     0.031 C 
ATOM     44  C   UNL     1       4.041  10.405  -7.402  1.00  0.00     0.029 A 
ATOM     45  N   UNL     1       5.295  12.250  -7.301  1.00  0.00    -0.354 N 
ATOM     46  C   UNL     1       9.563  11.995  -6.563  1.00  0.00     0.074 A 
ATOM     47  C   UNL     1       9.999  10.618  -6.510  1.00  0.00     0.031 C 
ATOM     48  C   UNL     1       3.222  11.456  -7.566  1.00  0.00     0.029 A 
ATOM     49  C   UNL     1       4.003  12.685  -7.486  1.00  0.00     0.049 A 
ATOM     50  H   UNL     1       6.061  12.863  -7.208  1.00  0.00     0.167 HD
ATOM     51  C   UNL     1      10.389  13.061  -6.439  1.00  0.00     0.034 A 
ATOM     52  C   UNL     1       3.502  13.933  -7.575  1.00  0.00     0.034 A 
ATOM     53  C   UNL     1       9.951  14.428  -6.553  1.00  0.00     0.049 A 
ATOM     54  C   UNL     1       4.440  15.103  -7.451  1.00  0.00     0.074 A 
ATOM     55  C   UNL     1      10.713  15.581  -6.508  1.00  0.00     0.029 A 
ATOM     56  N   UNL     1       8.635  14.823  -6.750  1.00  0.00    -0.354 N 
ATOM     57  N   UNL     1       5.735  15.098  -7.235  1.00  0.00    -0.248 NA
ATOM     58  C   UNL     1       3.854  16.444  -7.579  1.00  0.00     0.031 C 
ATOM     59  C   UNL     1       9.853  16.676  -6.631  1.00  0.00     0.029 A 
ATOM     60  C   UNL     1       8.562  16.204  -6.812  1.00  0.00     0.049 A 
ATOM     61  H   UNL     1       7.868  14.212  -6.832  1.00  0.00     0.167 HD
ATOM     62  C   UNL     1       6.122  16.433  -7.221  1.00  0.00     0.074 A 
ATOM     63  C   UNL     1       4.925  17.216  -7.454  1.00  0.00     0.031 C 
ATOM     64  C   UNL     1       7.356  16.963  -7.037  1.00  0.00     0.034 A 
BRANCH  51  65
ATOM     65  C   UNL     1      11.846  12.788  -6.171  1.00  0.00     0.023 A 
ATOM     66  C   UNL     1      12.661  12.157  -7.127  1.00  0.00     0.031 A 
ATOM     67  C   UNL     1      12.428  13.161  -4.948  1.00  0.00     0.131 A 
ATOM     68  C   UNL     1      13.998  11.866  -6.822  1.00  0.00     0.055 A 
ATOM     69  C   UNL     1      13.778  12.932  -4.677  1.00  0.00     0.041 A 
ATOM     70  F   UNL     1      11.691  13.748  -3.992  1.00  0.00    -0.206 F 
ATOM     71  C   UNL     1      14.570  12.272  -5.614  1.00  0.00     0.022 A 
BRANCH  68  72
ATOM     72  S   UNL     1      14.958  10.867  -7.991  1.00  0.00     0.124 S 
ATOM     73  O   UNL     1      14.268   9.582  -7.912  1.00  0.00    -0.237 OA
ATOM     74  O   UNL     1      14.799  11.601  -9.242  1.00  0.00    -0.237 OA
ATOM     75  O   UNL     1      16.306  10.882  -7.428  1.00  0.00    -0.744 OA
ENDBRANCH  68  72
ENDBRANCH  51  65
BRANCH  52  76
ATOM     76  C   UNL     1       2.044  14.138  -7.801  1.00  0.00     0.023 A 
ATOM     77  C   UNL     1       1.568  14.624  -9.029  1.00  0.00     0.031 A 
ATOM     78  C   UNL     1       1.105  13.840  -6.798  1.00  0.00     0.131 A 
ATOM     79  C   UNL     1       0.191  14.818  -9.217  1.00  0.00     0.055 A 
ATOM     80  C   UNL     1      -0.267  14.001  -7.003  1.00  0.00     0.041 A 
ATOM     81  F   UNL     1       1.509  13.362  -5.611  1.00  0.00    -0.206 F 
ATOM     82  C   UNL     1      -0.730  14.498  -8.217  1.00  0.00     0.022 A 
BRANCH  79  83
ATOM     83  S   UNL     1      -0.385  15.519 -10.789  1.00  0.00     0.124 S 
ATOM     84  O   UNL     1       0.202  16.854 -10.751  1.00  0.00    -0.237 OA
ATOM     85  O   UNL     1       0.185  14.594 -11.763  1.00  0.00    -0.237 OA
ATOM     86  O   UNL     1      -1.840  15.472 -10.669  1.00  0.00    -0.744 OA
ENDBRANCH  79  83
ENDBRANCH  52  76
BRANCH  64  87
ATOM     87  C   UNL     1       7.485  18.460  -7.109  1.00  0.00     0.023 A 
ATOM     88  C   UNL     1       7.016  19.285  -6.075  1.00  0.00     0.031 A 
ATOM     89  C   UNL     1       8.138  19.058  -8.201  1.00  0.00     0.131 A 
ATOM     90  C   UNL     1       7.188  20.674  -6.165  1.00  0.00     0.055 A 
ATOM     91  C   UNL     1       8.344  20.435  -8.264  1.00  0.00     0.041 A 
ATOM     92  F   UNL     1       8.607  18.307  -9.211  1.00  0.00    -0.206 F 
ATOM     93  C   UNL     1       7.864  21.252  -7.243  1.00  0.00     0.022 A 
BRANCH  90  94
ATOM     94  S   UNL     1       6.494  21.724  -4.860  1.00  0.00     0.124 S 
ATOM     95  O   UNL     1       5.060  21.508  -5.030  1.00  0.00    -0.237 OA
ATOM     96  O   UNL     1       7.083  21.158  -3.651  1.00  0.00    -0.237 OA
ATOM     97  O   UNL     1       6.966  23.062  -5.209  1.00  0.00    -0.744 OA
ENDBRANCH  90  94
ENDBRANCH  64  87
ENDBRANCH  38  39
ENDBRANCH  30  33
ENDBRANCH  28  29
ENDBRANCH  27  28
ENDBRANCH   1  27
TORSDOF 19
