REMARK SMILES CC1(C)C(Nc2cc(C(=O)NCCCNC(=O)c3ccc(-c4c5nc(c(-c6cc(S(=O)(=O)[O-])ccc6F)c6ccc([nH]6)c(-c6cc(S(=O)(=O)[O-])ccc6F)c6nc(c(-c7cc(S(=O)(=O)[O-])ccc7F)c7ccc4[nH]7)C=C6)C=C5)cc3)cc(Cl)n2)C1(C)C
REMARK SMILES IDX 13 1 12 2 11 3 9 4 10 5 8 7 6 8 7 9 84 10 82 11 81 12 83 13
REMARK SMILES IDX 5 14 4 16 1 17 2 18 3 19 85 20 86 21 87 22 14 23 15 24 16 25
REMARK SMILES IDX 17 27 18 28 19 29 80 30 20 31 79 32 21 33 22 34 23 35 73 36
REMARK SMILES IDX 24 37 78 38 72 39 74 40 25 41 77 42 71 43 70 44 26 46 58 47
REMARK SMILES IDX 38 48 57 49 39 50 42 51 56 52 75 53 40 54 41 55 55 57 76 58
REMARK SMILES IDX 43 59 27 60 28 61 36 62 29 63 35 64 37 65 34 66 30 67 31 68
REMARK SMILES IDX 32 69 33 70 59 71 60 72 68 73 61 74 67 75 69 76 66 77 62 78
REMARK SMILES IDX 63 79 64 80 65 81 44 82 45 83 53 84 46 85 52 86 54 87 51 88
REMARK SMILES IDX 47 89 48 90 49 91 50 92
REMARK H PARENT 11 6 5 15 15 26 74 45 42 56
REMARK Flexibility Score: inf
ROOT
ATOM      1  C   UNL     1      -7.247   4.927  -0.221  1.00  0.00     0.042 C 
ENDROOT
BRANCH   1   2
ATOM      2  C   UNL     1      -7.258   4.103   1.066  1.00  0.00     0.118 C 
BRANCH   2   3
ATOM      3  N   UNL     1      -6.874   2.729   0.804  1.00  0.00    -0.352 N 
ATOM      4  C   UNL     1      -5.720   2.014   0.959  1.00  0.00     0.251 C 
ATOM      5  O   UNL     1      -5.760   0.827   0.626  1.00  0.00    -0.269 OA
ATOM      6  H   UNL     1      -7.609   2.191   0.431  1.00  0.00     0.163 HD
BRANCH   4   7
ATOM      7  C   UNL     1      -4.453   2.547   1.532  1.00  0.00     0.046 A 
ATOM      8  C   UNL     1      -2.292   1.994   2.462  1.00  0.00     0.128 A 
ATOM      9  C   UNL     1      -3.505   1.591   1.920  1.00  0.00     0.060 A 
ATOM     10  N   UNL     1      -2.020   3.281   2.720  1.00  0.00    -0.219 NA
ATOM     11  C   UNL     1      -2.922   4.184   2.297  1.00  0.00     0.132 A 
ATOM     12  C   UNL     1      -4.116   3.885   1.667  1.00  0.00     0.055 A 
ATOM     13  Cl  UNL     1      -2.465   5.816   2.574  1.00  0.00    -0.062 Cl
BRANCH   8  14
ATOM     14  N   UNL     1      -1.250   1.083   2.675  1.00  0.00    -0.366 N 
ATOM     15  H   UNL     1      -0.768   1.071   3.533  1.00  0.00     0.162 HD
BRANCH  14  16
ATOM     16  C   UNL     1      -0.885   0.146   1.604  1.00  0.00     0.093 C 
ATOM     17  C   UNL     1       0.969  -0.148  -0.142  1.00  0.00     0.014 C 
ATOM     18  C   UNL     1       0.568  -0.201   1.319  1.00  0.00    -0.008 C 
ATOM     19  C   UNL     1       1.658   0.352   2.212  1.00  0.00     0.014 C 
ATOM     20  C   UNL     1      -0.418  -1.268   1.851  1.00  0.00    -0.008 C 
ATOM     21  C   UNL     1      -0.977  -2.327   0.923  1.00  0.00     0.014 C 
ATOM     22  C   UNL     1      -0.325  -1.767   3.275  1.00  0.00     0.014 C 
ENDBRANCH  14  16
ENDBRANCH   8  14
ENDBRANCH   4   7
ENDBRANCH   2   3
ENDBRANCH   1   2
BRANCH   1  23
ATOM     23  C   UNL     1      -8.465   4.657  -1.108  1.00  0.00     0.118 C 
BRANCH  23  24
ATOM     24  N   UNL     1      -9.698   5.129  -0.489  1.00  0.00    -0.352 N 
ATOM     25  C   UNL     1     -10.595   6.077  -0.914  1.00  0.00     0.251 C 
ATOM     26  H   UNL     1      -9.922   4.700   0.369  1.00  0.00     0.163 HD
ATOM     27  O   UNL     1     -11.427   6.512  -0.123  1.00  0.00    -0.269 OA
BRANCH  25  28
ATOM     28  C   UNL     1     -10.555   6.576  -2.306  1.00  0.00     0.039 A 
ATOM     29  C   UNL     1     -10.752   7.939  -2.545  1.00  0.00     0.014 A 
ATOM     30  C   UNL     1     -10.359   5.699  -3.375  1.00  0.00     0.014 A 
ATOM     31  C   UNL     1     -10.687   8.431  -3.851  1.00  0.00     0.010 A 
ATOM     32  C   UNL     1     -10.223   6.201  -4.667  1.00  0.00     0.010 A 
ATOM     33  C   UNL     1     -10.384   7.572  -4.919  1.00  0.00    -0.014 A 
BRANCH  33  34
ATOM     34  C   UNL     1     -10.227   8.077  -6.308  1.00  0.00     0.031 A 
ATOM     35  C   UNL     1     -11.157   7.601  -7.390  1.00  0.00     0.074 A 
ATOM     36  C   UNL     1      -9.196   8.892  -6.609  1.00  0.00     0.049 A 
ATOM     37  N   UNL     1     -11.102   7.806  -8.681  1.00  0.00    -0.248 NA
ATOM     38  C   UNL     1     -12.282   6.754  -6.963  1.00  0.00     0.031 C 
ATOM     39  C   UNL     1      -8.214   9.401  -5.649  1.00  0.00     0.029 A 
ATOM     40  N   UNL     1      -8.787   9.420  -7.809  1.00  0.00    -0.354 N 
ATOM     41  C   UNL     1     -12.169   7.098  -9.224  1.00  0.00     0.074 A 
ATOM     42  C   UNL     1     -12.821   6.416  -8.125  1.00  0.00     0.031 C 
ATOM     43  C   UNL     1      -7.327  10.175  -6.295  1.00  0.00     0.029 A 
ATOM     44  C   UNL     1      -7.638  10.172  -7.720  1.00  0.00     0.049 A 
ATOM     45  H   UNL     1      -9.271   9.274  -8.654  1.00  0.00     0.167 HD
ATOM     46  C   UNL     1     -12.576   7.038 -10.516  1.00  0.00     0.034 A 
ATOM     47  C   UNL     1      -6.902  10.768  -8.680  1.00  0.00     0.034 A 
ATOM     48  C   UNL     1     -11.918   7.737 -11.594  1.00  0.00     0.049 A 
ATOM     49  C   UNL     1      -7.350  10.655 -10.116  1.00  0.00     0.074 A 
ATOM     50  C   UNL     1     -12.278   7.793 -12.929  1.00  0.00     0.029 A 
ATOM     51  N   UNL     1     -10.759   8.492 -11.464  1.00  0.00    -0.354 N 
ATOM     52  N   UNL     1      -8.387  10.016 -10.609  1.00  0.00    -0.248 NA
ATOM     53  C   UNL     1      -6.536  11.345 -11.125  1.00  0.00     0.031 C 
ATOM     54  C   UNL     1     -11.297   8.514 -13.618  1.00  0.00     0.029 A 
ATOM     55  C   UNL     1     -10.372   8.986 -12.700  1.00  0.00     0.049 A 
ATOM     56  H   UNL     1     -10.282   8.653 -10.618  1.00  0.00     0.167 HD
ATOM     57  C   UNL     1      -8.368  10.261 -11.979  1.00  0.00     0.074 A 
ATOM     58  C   UNL     1      -7.223  11.110 -12.233  1.00  0.00     0.031 C 
ATOM     59  C   UNL     1      -9.225   9.831 -12.939  1.00  0.00     0.034 A 
BRANCH  46  60
ATOM     60  C   UNL     1     -13.765   6.163 -10.837  1.00  0.00     0.023 A 
ATOM     61  C   UNL     1     -15.039   6.417 -10.298  1.00  0.00     0.031 A 
ATOM     62  C   UNL     1     -13.620   5.048 -11.682  1.00  0.00     0.131 A 
ATOM     63  C   UNL     1     -16.096   5.529 -10.549  1.00  0.00     0.055 A 
ATOM     64  C   UNL     1     -14.697   4.217 -11.998  1.00  0.00     0.041 A 
ATOM     65  F   UNL     1     -12.425   4.741 -12.210  1.00  0.00    -0.206 F 
ATOM     66  C   UNL     1     -15.941   4.446 -11.418  1.00  0.00     0.022 A 
BRANCH  63  67
ATOM     67  S   UNL     1     -17.633   5.727  -9.608  1.00  0.00     0.124 S 
ATOM     68  O   UNL     1     -17.154   5.611  -8.233  1.00  0.00    -0.237 OA
ATOM     69  O   UNL     1     -18.086   7.051 -10.018  1.00  0.00    -0.237 OA
ATOM     70  O   UNL     1     -18.462   4.613 -10.067  1.00  0.00    -0.744 OA
ENDBRANCH  63  67
ENDBRANCH  46  60
BRANCH  47  71
ATOM     71  C   UNL     1      -5.652  11.504  -8.327  1.00  0.00     0.023 A 
ATOM     72  C   UNL     1      -5.535  12.883  -8.559  1.00  0.00     0.031 A 
ATOM     73  C   UNL     1      -4.540  10.830  -7.792  1.00  0.00     0.131 A 
ATOM     74  C   UNL     1      -4.318  13.535  -8.305  1.00  0.00     0.055 A 
ATOM     75  C   UNL     1      -3.351  11.494  -7.485  1.00  0.00     0.041 A 
ATOM     76  F   UNL     1      -4.597   9.511  -7.547  1.00  0.00    -0.206 F 
ATOM     77  C   UNL     1      -3.230  12.853  -7.755  1.00  0.00     0.022 A 
BRANCH  74  78
ATOM     78  S   UNL     1      -4.145  15.272  -8.798  1.00  0.00     0.124 S 
ATOM     79  O   UNL     1      -4.439  15.205 -10.225  1.00  0.00    -0.237 OA
ATOM     80  O   UNL     1      -5.149  15.924  -7.965  1.00  0.00    -0.237 OA
ATOM     81  O   UNL     1      -2.757  15.584  -8.461  1.00  0.00    -0.744 OA
ENDBRANCH  74  78
ENDBRANCH  47  71
BRANCH  59  82
ATOM     82  C   UNL     1      -8.992  10.321 -14.347  1.00  0.00     0.023 A 
ATOM     83  C   UNL     1      -7.872   9.926 -15.099  1.00  0.00     0.031 A 
ATOM     84  C   UNL     1      -9.923  11.187 -14.951  1.00  0.00     0.131 A 
ATOM     85  C   UNL     1      -7.691  10.428 -16.397  1.00  0.00     0.055 A 
ATOM     86  C   UNL     1      -9.768  11.635 -16.263  1.00  0.00     0.041 A 
ATOM     87  F   UNL     1     -11.008  11.600 -14.277  1.00  0.00    -0.206 F 
ATOM     88  C   UNL     1      -8.642  11.263 -16.990  1.00  0.00     0.022 A 
BRANCH  85  89
ATOM     89  S   UNL     1      -6.156  10.034 -17.279  1.00  0.00     0.124 S 
ATOM     90  O   UNL     1      -5.143  10.595 -16.392  1.00  0.00    -0.237 OA
ATOM     91  O   UNL     1      -6.202   8.577 -17.353  1.00  0.00    -0.237 OA
ATOM     92  O   UNL     1      -6.309  10.723 -18.560  1.00  0.00    -0.744 OA
ENDBRANCH  85  89
ENDBRANCH  59  82
ENDBRANCH  33  34
ENDBRANCH  25  28
ENDBRANCH  23  24
ENDBRANCH   1  23
TORSDOF 15
