REMARK SMILES CCC[C@]1(C(=O)NCCCNC(=O)c2ccc(-c3c4nc(c(-c5cc(S(=O)(=O)[O-])ccc5F)c5ccc([nH]5)c(-c5cc(S(=O)(=O)[O-])ccc5F)c5nc(c(-c6cc(S(=O)(=O)[O-])ccc6F)c6ccc3[nH]6)C=C5)C=C4)cc2)CCCN(C(=O)N[C@H]2CCOC2)C1
REMARK SMILES IDX 9 1 8 2 7 3 5 4 6 5 4 7 77 8 89 9 78 10 80 11 79 12 3 13
REMARK SMILES IDX 2 14 1 15 81 16 82 17 83 18 84 20 85 21 88 22 86 23 87 24
REMARK SMILES IDX 10 25 11 26 12 27 13 29 14 30 15 31 76 32 16 33 75 34 17 35
REMARK SMILES IDX 18 36 19 37 69 38 20 39 74 40 68 41 70 42 21 43 73 44 67 45
REMARK SMILES IDX 66 46 22 48 54 49 34 50 53 51 35 52 38 53 52 54 71 55 36 56
REMARK SMILES IDX 37 57 51 59 72 60 39 61 23 62 24 63 32 64 25 65 31 66 33 67
REMARK SMILES IDX 30 68 26 69 27 70 28 71 29 72 55 73 56 74 64 75 57 76 63 77
REMARK SMILES IDX 65 78 62 79 58 80 59 81 60 82 61 83 40 84 41 85 49 86 42 87
REMARK SMILES IDX 48 88 50 89 47 90 43 91 44 92 45 93 46 94
REMARK H PARENT 7 6 83 19 11 28 70 47 38 58
REMARK Flexibility Score: inf
ROOT
ATOM      1  C   UNL     1       2.659   7.005   2.259  1.00  0.00     0.042 C 
ENDROOT
BRANCH   1   2
ATOM      2  C   UNL     1       2.115   6.351   3.522  1.00  0.00     0.117 C 
BRANCH   2   3
ATOM      3  N   UNL     1       1.579   7.298   4.487  1.00  0.00    -0.355 N 
ATOM      4  C   UNL     1       0.310   7.551   4.924  1.00  0.00     0.228 C 
ATOM      5  O   UNL     1       0.199   8.486   5.720  1.00  0.00    -0.274 OA
ATOM      6  H   UNL     1       2.264   7.868   4.907  1.00  0.00     0.163 HD
BRANCH   4   7
ATOM      7  C   UNL     1      -0.917   6.749   4.418  1.00  0.00     0.067 C 
ATOM      8  C   UNL     1      -1.020   7.031   2.875  1.00  0.00     0.020 C 
ATOM      9  C   UNL     1      -0.751   5.252   4.784  1.00  0.00     0.138 C 
ATOM     10  C   UNL     1      -1.466   5.875   1.972  1.00  0.00     0.023 C 
ATOM     11  N   UNL     1      -1.528   4.390   3.898  1.00  0.00    -0.324 N 
ATOM     12  C   UNL     1      -1.103   4.503   2.512  1.00  0.00     0.121 C 
BRANCH   7  13
ATOM     13  C   UNL     1      -2.240   7.318   5.057  1.00  0.00     0.018 C 
BRANCH  13  14
ATOM     14  C   UNL     1      -2.670   6.862   6.463  1.00  0.00    -0.002 C 
ATOM     15  C   UNL     1      -1.683   7.127   7.589  1.00  0.00     0.004 C 
ENDBRANCH  13  14
ENDBRANCH   7  13
BRANCH  11  16
ATOM     16  C   UNL     1      -2.382   3.473   4.450  1.00  0.00     0.317 C 
ATOM     17  O   UNL     1      -2.314   3.138   5.635  1.00  0.00    -0.249 OA
ATOM     18  N   UNL     1      -3.396   2.929   3.735  1.00  0.00    -0.333 N 
ATOM     19  H   UNL     1      -3.780   2.108   4.119  1.00  0.00     0.165 HD
BRANCH  18  20
ATOM     20  C   UNL     1      -4.003   3.362   2.502  1.00  0.00     0.112 C 
ATOM     21  C   UNL     1      -4.989   2.406   1.867  1.00  0.00     0.056 C 
ATOM     22  C   UNL     1      -4.873   4.606   2.585  1.00  0.00     0.185 C 
ATOM     23  C   UNL     1      -5.499   3.312   0.758  1.00  0.00     0.162 C 
ATOM     24  O   UNL     1      -5.584   4.634   1.330  1.00  0.00    -0.379 OA
ENDBRANCH  18  20
ENDBRANCH  11  16
ENDBRANCH   4   7
ENDBRANCH   2   3
ENDBRANCH   1   2
BRANCH   1  25
ATOM     25  C   UNL     1       3.872   7.885   2.502  1.00  0.00     0.118 C 
BRANCH  25  26
ATOM     26  N   UNL     1       5.007   7.120   2.996  1.00  0.00    -0.352 N 
ATOM     27  C   UNL     1       6.186   6.796   2.376  1.00  0.00     0.251 C 
ATOM     28  H   UNL     1       4.915   6.785   3.917  1.00  0.00     0.163 HD
ATOM     29  O   UNL     1       6.899   5.917   2.870  1.00  0.00    -0.269 OA
BRANCH  27  30
ATOM     30  C   UNL     1       6.591   7.470   1.125  1.00  0.00     0.039 A 
ATOM     31  C   UNL     1       7.234   6.730   0.129  1.00  0.00     0.014 A 
ATOM     32  C   UNL     1       6.364   8.836   0.938  1.00  0.00     0.014 A 
ATOM     33  C   UNL     1       7.588   7.346  -1.074  1.00  0.00     0.010 A 
ATOM     34  C   UNL     1       6.623   9.423  -0.296  1.00  0.00     0.010 A 
ATOM     35  C   UNL     1       7.252   8.689  -1.312  1.00  0.00    -0.014 A 
BRANCH  35  36
ATOM     36  C   UNL     1       7.577   9.357  -2.599  1.00  0.00     0.031 A 
ATOM     37  C   UNL     1       8.500  10.547  -2.613  1.00  0.00     0.074 A 
ATOM     38  C   UNL     1       6.995   8.934  -3.739  1.00  0.00     0.049 A 
ATOM     39  N   UNL     1       8.832  11.327  -3.610  1.00  0.00    -0.248 NA
ATOM     40  C   UNL     1       9.102  10.931  -1.327  1.00  0.00     0.031 C 
ATOM     41  C   UNL     1       6.056   7.814  -3.844  1.00  0.00     0.029 A 
ATOM     42  N   UNL     1       7.099   9.398  -5.026  1.00  0.00    -0.354 N 
ATOM     43  C   UNL     1       9.666  12.299  -3.069  1.00  0.00     0.074 A 
ATOM     44  C   UNL     1       9.732  12.051  -1.645  1.00  0.00     0.031 C 
ATOM     45  C   UNL     1       5.694   7.663  -5.128  1.00  0.00     0.029 A 
ATOM     46  C   UNL     1       6.330   8.703  -5.930  1.00  0.00     0.049 A 
ATOM     47  H   UNL     1       7.671  10.159  -5.279  1.00  0.00     0.167 HD
ATOM     48  C   UNL     1      10.338  13.291  -3.705  1.00  0.00     0.034 A 
ATOM     49  C   UNL     1       6.146   8.891  -7.252  1.00  0.00     0.034 A 
ATOM     50  C   UNL     1      10.274  13.513  -5.128  1.00  0.00     0.049 A 
ATOM     51  C   UNL     1       6.881  10.020  -7.932  1.00  0.00     0.074 A 
ATOM     52  C   UNL     1      10.950  14.455  -5.885  1.00  0.00     0.029 A 
ATOM     53  N   UNL     1       9.485  12.788  -6.012  1.00  0.00    -0.354 N 
ATOM     54  N   UNL     1       7.702  10.903  -7.412  1.00  0.00    -0.248 NA
ATOM     55  C   UNL     1       6.672  10.169  -9.378  1.00  0.00     0.031 C 
ATOM     56  C   UNL     1      10.518  14.344  -7.210  1.00  0.00     0.029 A 
ATOM     57  C   UNL     1       9.634  13.281  -7.299  1.00  0.00     0.049 A 
ATOM     58  H   UNL     1       8.904  12.033  -5.761  1.00  0.00     0.167 HD
ATOM     59  C   UNL     1       8.134  11.691  -8.477  1.00  0.00     0.074 A 
ATOM     60  C   UNL     1       7.495  11.166  -9.666  1.00  0.00     0.031 C 
ATOM     61  C   UNL     1       8.984  12.750  -8.474  1.00  0.00     0.034 A 
BRANCH  48  62
ATOM     62  C   UNL     1      11.179  14.217  -2.858  1.00  0.00     0.023 A 
ATOM     63  C   UNL     1      12.276  13.746  -2.115  1.00  0.00     0.031 A 
ATOM     64  C   UNL     1      10.868  15.586  -2.772  1.00  0.00     0.131 A 
ATOM     65  C   UNL     1      12.973  14.617  -1.263  1.00  0.00     0.055 A 
ATOM     66  C   UNL     1      11.618  16.465  -1.988  1.00  0.00     0.041 A 
ATOM     67  F   UNL     1       9.819  16.092  -3.440  1.00  0.00    -0.206 F 
ATOM     68  C   UNL     1      12.669  15.979  -1.215  1.00  0.00     0.022 A 
BRANCH  65  69
ATOM     69  S   UNL     1      14.185  13.914  -0.111  1.00  0.00     0.124 S 
ATOM     70  O   UNL     1      13.357  12.988   0.659  1.00  0.00    -0.237 OA
ATOM     71  O   UNL     1      15.158  13.305  -1.010  1.00  0.00    -0.237 OA
ATOM     72  O   UNL     1      14.664  15.077   0.634  1.00  0.00    -0.744 OA
ENDBRANCH  65  69
ENDBRANCH  48  62
BRANCH  49  73
ATOM     73  C   UNL     1       5.226   8.007  -8.025  1.00  0.00     0.023 A 
ATOM     74  C   UNL     1       5.708   7.196  -9.065  1.00  0.00     0.031 A 
ATOM     75  C   UNL     1       3.842   8.000  -7.773  1.00  0.00     0.131 A 
ATOM     76  C   UNL     1       4.810   6.454  -9.848  1.00  0.00     0.055 A 
ATOM     77  C   UNL     1       2.960   7.215  -8.517  1.00  0.00     0.041 A 
ATOM     78  F   UNL     1       3.327   8.753  -6.787  1.00  0.00    -0.206 F 
ATOM     79  C   UNL     1       3.441   6.448  -9.573  1.00  0.00     0.022 A 
BRANCH  76  80
ATOM     80  S   UNL     1       5.449   5.575 -11.301  1.00  0.00     0.124 S 
ATOM     81  O   UNL     1       6.070   6.659 -12.054  1.00  0.00    -0.237 OA
ATOM     82  O   UNL     1       6.359   4.610 -10.693  1.00  0.00    -0.237 OA
ATOM     83  O   UNL     1       4.248   5.002 -11.905  1.00  0.00    -0.744 OA
ENDBRANCH  76  80
ENDBRANCH  49  73
BRANCH  61  84
ATOM     84  C   UNL     1       9.307  13.374  -9.810  1.00  0.00     0.023 A 
ATOM     85  C   UNL     1       8.334  14.048 -10.568  1.00  0.00     0.031 A 
ATOM     86  C   UNL     1      10.609  13.282 -10.335  1.00  0.00     0.131 A 
ATOM     87  C   UNL     1       8.663  14.553 -11.835  1.00  0.00     0.055 A 
ATOM     88  C   UNL     1      10.946  13.843 -11.566  1.00  0.00     0.041 A 
ATOM     89  F   UNL     1      11.577  12.647  -9.654  1.00  0.00    -0.206 F 
ATOM     90  C   UNL     1       9.967  14.471 -12.331  1.00  0.00     0.022 A 
BRANCH  87  91
ATOM     91  S   UNL     1       7.339  15.233 -12.871  1.00  0.00     0.124 S 
ATOM     92  O   UNL     1       6.427  14.100 -12.981  1.00  0.00    -0.237 OA
ATOM     93  O   UNL     1       6.864  16.358 -12.071  1.00  0.00    -0.237 OA
ATOM     94  O   UNL     1       8.026  15.600 -14.108  1.00  0.00    -0.744 OA
ENDBRANCH  87  91
ENDBRANCH  61  84
ENDBRANCH  35  36
ENDBRANCH  27  30
ENDBRANCH  25  26
ENDBRANCH   1  25
TORSDOF 17
