REMARK SMILES O=C(NCCCNC(=O)c1ccc(-c2c3nc(c(-c4cc(S(=O)(=O)[O-])ccc4F)c4ccc([nH]4)c(-c4cc(S(=O)(=O)[O-])ccc4F)c4nc(c(-c5cc(S(=O)(=O)[O-])ccc5F)c5ccc2[nH]5)C=C4)C=C3)cc1)c1ccc(C(=O)Nc2ccc(-c3nc4ccccc4[nH]3)cc2)cc1
REMARK SMILES IDX 5 1 4 2 3 3 1 4 2 5 73 7 74 8 96 9 75 10 95 11 76 12 77 13
REMARK SMILES IDX 78 14 79 15 80 17 81 18 94 19 82 20 93 21 83 22 84 23 85 24
REMARK SMILES IDX 92 25 86 26 91 27 87 29 90 30 88 31 89 32 6 33 7 34 8 35
REMARK SMILES IDX 9 37 10 38 11 39 72 40 12 41 71 42 13 43 14 44 15 45 65 46
REMARK SMILES IDX 16 47 70 48 64 49 66 50 17 51 69 52 63 53 62 54 18 56 50 57
REMARK SMILES IDX 30 58 49 59 31 60 34 61 48 62 67 63 32 64 33 65 47 67 68 68
REMARK SMILES IDX 35 69 19 70 20 71 28 72 21 73 27 74 29 75 26 76 22 77 23 78
REMARK SMILES IDX 24 79 25 80 51 81 52 82 60 83 53 84 59 85 61 86 58 87 54 88
REMARK SMILES IDX 55 89 56 90 57 91 36 92 37 93 45 94 38 95 44 96 46 97 43 98
REMARK SMILES IDX 39 99 40 100 41 101 42 102
REMARK H PARENT 3 6 79 16 92 28 7 36 66 55 34 66
REMARK Flexibility Score: inf
ROOT
ATOM      1  C   UNL     1       5.051  -1.807   1.572  1.00  0.00     0.042 C 
ENDROOT
BRANCH   1   2
ATOM      2  C   UNL     1       4.732  -1.339   0.162  1.00  0.00     0.118 C 
BRANCH   2   3
ATOM      3  N   UNL     1       3.306  -1.245  -0.108  1.00  0.00    -0.352 N 
ATOM      4  O   UNL     1       1.303  -0.311  -0.507  1.00  0.00    -0.269 OA
ATOM      5  C   UNL     1       2.521  -0.168  -0.431  1.00  0.00     0.251 C 
ATOM      6  H   UNL     1       2.822  -2.100  -0.048  1.00  0.00     0.163 HD
BRANCH   5   7
ATOM      7  C   UNL     1       3.108   1.175  -0.647  1.00  0.00     0.039 A 
ATOM      8  C   UNL     1       4.307   1.383  -1.331  1.00  0.00     0.014 A 
ATOM      9  C   UNL     1       2.394   2.278  -0.183  1.00  0.00     0.014 A 
ATOM     10  C   UNL     1       4.883   2.658  -1.372  1.00  0.00     0.014 A 
ATOM     11  C   UNL     1       2.925   3.563  -0.320  1.00  0.00     0.014 A 
ATOM     12  C   UNL     1       4.219   3.763  -0.821  1.00  0.00     0.040 A 
BRANCH  12  13
ATOM     13  C   UNL     1       4.901   5.099  -0.903  1.00  0.00     0.255 C 
ATOM     14  O   UNL     1       5.832   5.239  -1.698  1.00  0.00    -0.269 OA
ATOM     15  N   UNL     1       4.458   6.212  -0.213  1.00  0.00    -0.322 N 
ATOM     16  H   UNL     1       4.778   7.076  -0.560  1.00  0.00     0.170 HD
BRANCH  15  17
ATOM     17  C   UNL     1       3.621   6.291   0.904  1.00  0.00     0.041 A 
ATOM     18  C   UNL     1       2.584   7.227   0.886  1.00  0.00     0.027 A 
ATOM     19  C   UNL     1       3.743   5.407   1.973  1.00  0.00     0.027 A 
ATOM     20  C   UNL     1       1.566   7.161   1.848  1.00  0.00     0.014 A 
ATOM     21  C   UNL     1       2.748   5.368   2.947  1.00  0.00     0.014 A 
ATOM     22  C   UNL     1       1.620   6.202   2.867  1.00  0.00     0.017 A 
BRANCH  22  23
ATOM     23  C   UNL     1       0.546   5.984   3.837  1.00  0.00     0.138 A 
ATOM     24  N   UNL     1       0.705   5.375   4.997  1.00  0.00    -0.229 NA
ATOM     25  N   UNL     1      -0.788   6.265   3.633  1.00  0.00    -0.338 N 
ATOM     26  C   UNL     1      -0.545   5.214   5.524  1.00  0.00     0.089 A 
ATOM     27  C   UNL     1      -1.509   5.763   4.690  1.00  0.00     0.066 A 
ATOM     28  H   UNL     1      -1.162   6.746   2.859  1.00  0.00     0.168 HD
ATOM     29  C   UNL     1      -0.929   4.582   6.713  1.00  0.00     0.030 A 
ATOM     30  C   UNL     1      -2.876   5.718   4.978  1.00  0.00     0.028 A 
ATOM     31  C   UNL     1      -2.290   4.521   7.026  1.00  0.00     0.002 A 
ATOM     32  C   UNL     1      -3.244   5.081   6.173  1.00  0.00     0.002 A 
ENDBRANCH  22  23
ENDBRANCH  15  17
ENDBRANCH  12  13
ENDBRANCH   5   7
ENDBRANCH   2   3
ENDBRANCH   1   2
BRANCH   1  33
ATOM     33  C   UNL     1       4.508  -3.182   1.923  1.00  0.00     0.118 C 
BRANCH  33  34
ATOM     34  N   UNL     1       4.975  -4.224   1.020  1.00  0.00    -0.352 N 
ATOM     35  C   UNL     1       5.764  -5.324   1.255  1.00  0.00     0.251 C 
ATOM     36  H   UNL     1       4.677  -4.123   0.087  1.00  0.00     0.163 HD
ATOM     37  O   UNL     1       6.194  -5.962   0.299  1.00  0.00    -0.269 OA
BRANCH  35  38
ATOM     38  C   UNL     1       6.117  -5.720   2.637  1.00  0.00     0.039 A 
ATOM     39  C   UNL     1       7.404  -6.201   2.892  1.00  0.00     0.014 A 
ATOM     40  C   UNL     1       5.189  -5.639   3.678  1.00  0.00     0.014 A 
ATOM     41  C   UNL     1       7.776  -6.530   4.198  1.00  0.00     0.010 A 
ATOM     42  C   UNL     1       5.592  -5.867   4.990  1.00  0.00     0.010 A 
ATOM     43  C   UNL     1       6.887  -6.325   5.266  1.00  0.00    -0.014 A 
BRANCH  43  44
ATOM     44  C   UNL     1       7.297  -6.594   6.671  1.00  0.00     0.031 A 
ATOM     45  C   UNL     1       6.571  -7.631   7.487  1.00  0.00     0.074 A 
ATOM     46  C   UNL     1       8.292  -5.872   7.224  1.00  0.00     0.049 A 
ATOM     47  N   UNL     1       6.753  -7.978   8.736  1.00  0.00    -0.248 NA
ATOM     48  C   UNL     1       5.475  -8.351   6.821  1.00  0.00     0.031 C 
ATOM     49  C   UNL     1       9.039  -4.808   6.549  1.00  0.00     0.029 A 
ATOM     50  N   UNL     1       8.849  -5.921   8.477  1.00  0.00    -0.354 N 
ATOM     51  C   UNL     1       5.793  -8.948   9.006  1.00  0.00     0.074 A 
ATOM     52  C   UNL     1       4.985  -9.078   7.813  1.00  0.00     0.031 C 
ATOM     53  C   UNL     1       9.980  -4.334   7.380  1.00  0.00     0.029 A 
ATOM     54  C   UNL     1       9.872  -5.019   8.664  1.00  0.00     0.049 A 
ATOM     55  H   UNL     1       8.545  -6.543   9.177  1.00  0.00     0.167 HD
ATOM     56  C   UNL     1       5.619  -9.681  10.133  1.00  0.00     0.034 A 
ATOM     57  C   UNL     1      10.632  -4.767   9.748  1.00  0.00     0.034 A 
ATOM     58  C   UNL     1       6.439  -9.542  11.313  1.00  0.00     0.049 A 
ATOM     59  C   UNL     1      10.400  -5.575  11.000  1.00  0.00     0.074 A 
ATOM     60  C   UNL     1       6.382 -10.265  12.492  1.00  0.00     0.029 A 
ATOM     61  N   UNL     1       7.460  -8.612  11.469  1.00  0.00    -0.354 N 
ATOM     62  N   UNL     1       9.523  -6.527  11.220  1.00  0.00    -0.248 NA
ATOM     63  C   UNL     1      11.273  -5.284  12.144  1.00  0.00     0.031 C 
ATOM     64  C   UNL     1       7.311  -9.722  13.386  1.00  0.00     0.029 A 
ATOM     65  C   UNL     1       8.015  -8.721  12.736  1.00  0.00     0.049 A 
ATOM     66  H   UNL     1       7.747  -7.970  10.781  1.00  0.00     0.167 HD
ATOM     67  C   UNL     1       9.763  -6.971  12.518  1.00  0.00     0.074 A 
ATOM     68  C   UNL     1      10.880  -6.197  13.018  1.00  0.00     0.031 C 
ATOM     69  C   UNL     1       9.121  -7.933  13.230  1.00  0.00     0.034 A 
BRANCH  56  70
ATOM     70  C   UNL     1       4.483 -10.679  10.146  1.00  0.00     0.023 A 
ATOM     71  C   UNL     1       4.433 -11.756   9.243  1.00  0.00     0.031 A 
ATOM     72  C   UNL     1       3.421 -10.540  11.058  1.00  0.00     0.131 A 
ATOM     73  C   UNL     1       3.313 -12.601   9.217  1.00  0.00     0.055 A 
ATOM     74  C   UNL     1       2.351 -11.438  11.086  1.00  0.00     0.041 A 
ATOM     75  F   UNL     1       3.397  -9.521  11.931  1.00  0.00    -0.206 F 
ATOM     76  C   UNL     1       2.284 -12.466  10.151  1.00  0.00     0.022 A 
BRANCH  73  77
ATOM     77  S   UNL     1       3.147 -13.778   7.847  1.00  0.00     0.124 S 
ATOM     78  O   UNL     1       3.176 -12.888   6.688  1.00  0.00    -0.237 OA
ATOM     79  O   UNL     1       4.314 -14.634   8.024  1.00  0.00    -0.237 OA
ATOM     80  O   UNL     1       1.858 -14.418   8.099  1.00  0.00    -0.744 OA
ENDBRANCH  73  77
ENDBRANCH  56  70
BRANCH  57  81
ATOM     81  C   UNL     1      11.679  -3.704   9.710  1.00  0.00     0.023 A 
ATOM     82  C   UNL     1      13.037  -4.018   9.880  1.00  0.00     0.031 A 
ATOM     83  C   UNL     1      11.332  -2.350   9.551  1.00  0.00     0.131 A 
ATOM     84  C   UNL     1      13.991  -2.990   9.944  1.00  0.00     0.055 A 
ATOM     85  C   UNL     1      12.292  -1.336   9.553  1.00  0.00     0.041 A 
ATOM     86  F   UNL     1      10.049  -1.993   9.382  1.00  0.00    -0.206 F 
ATOM     87  C   UNL     1      13.630  -1.653   9.765  1.00  0.00     0.022 A 
BRANCH  84  88
ATOM     88  S   UNL     1      15.703  -3.419  10.363  1.00  0.00     0.124 S 
ATOM     89  O   UNL     1      15.536  -4.079  11.653  1.00  0.00    -0.237 OA
ATOM     90  O   UNL     1      16.082  -4.277   9.246  1.00  0.00    -0.237 OA
ATOM     91  O   UNL     1      16.377  -2.123  10.407  1.00  0.00    -0.744 OA
ENDBRANCH  84  88
ENDBRANCH  57  81
BRANCH  69  92
ATOM     92  C   UNL     1       9.653  -8.230  14.614  1.00  0.00     0.023 A 
ATOM     93  C   UNL     1       9.624  -7.272  15.642  1.00  0.00     0.031 A 
ATOM     94  C   UNL     1      10.225  -9.484  14.898  1.00  0.00     0.131 A 
ATOM     95  C   UNL     1      10.225  -7.554  16.878  1.00  0.00     0.055 A 
ATOM     96  C   UNL     1      10.752  -9.785  16.154  1.00  0.00     0.041 A 
ATOM     97  F   UNL     1      10.284 -10.438  13.955  1.00  0.00    -0.206 F 
ATOM     98  C   UNL     1      10.771  -8.811  17.148  1.00  0.00     0.022 A 
BRANCH  95  99
ATOM     99  S   UNL     1      10.396  -6.213  18.088  1.00  0.00     0.124 S 
ATOM    100  O   UNL     1      11.132  -5.209  17.325  1.00  0.00    -0.237 OA
ATOM    101  O   UNL     1       9.006  -5.889  18.393  1.00  0.00    -0.237 OA
ATOM    102  O   UNL     1      11.143  -6.831  19.182  1.00  0.00    -0.744 OA
ENDBRANCH  95  99
ENDBRANCH  69  92
ENDBRANCH  43  44
ENDBRANCH  35  38
ENDBRANCH  33  34
ENDBRANCH   1  33
TORSDOF 16
