REMARK SMILES Cc1n[nH]c(CCC(=O)NCCCNC(=O)c2ccc(-c3c4nc(c(-c5cc(S(=O)(=O)[O-])ccc5F)c5ccc([nH]5)c(-c5cc(S(=O)(=O)[O-])ccc5F)c5nc(c(-c6cc(S(=O)(=O)[O-])ccc6F)c6ccc3[nH]6)C=C5)C=C4)cc2)c1C
REMARK SMILES IDX 12 1 11 2 10 3 8 4 9 5 7 7 6 8 5 9 1 10 2 11 3 12 80 13 4 14
REMARK SMILES IDX 81 15 13 17 14 18 15 19 16 21 17 22 18 23 79 24 19 25 78 26
REMARK SMILES IDX 20 27 21 28 22 29 72 30 23 31 77 32 71 33 73 34 24 35 76 36
REMARK SMILES IDX 70 37 69 38 25 40 57 41 37 42 56 43 38 44 41 45 55 46 74 47
REMARK SMILES IDX 39 48 40 49 54 51 75 52 42 53 26 54 27 55 35 56 28 57 34 58
REMARK SMILES IDX 36 59 33 60 29 61 30 62 31 63 32 64 58 65 59 66 67 67 60 68
REMARK SMILES IDX 66 69 68 70 65 71 61 72 62 73 63 74 64 75 43 76 44 77 52 78
REMARK SMILES IDX 45 79 51 80 53 81 50 82 46 83 47 84 48 85 49 86
REMARK H PARENT 10 6 4 16 14 20 73 39 41 50
REMARK Flexibility Score: inf
ROOT
ATOM      1  C   UNL     1       2.776   0.810   0.489  1.00  0.00     0.042 C 
ENDROOT
BRANCH   1   2
ATOM      2  C   UNL     1       3.125   2.127   1.179  1.00  0.00     0.117 C 
BRANCH   2   3
ATOM      3  N   UNL     1       3.338   3.229   0.260  1.00  0.00    -0.356 N 
ATOM      4  C   UNL     1       3.049   4.551   0.439  1.00  0.00     0.220 C 
ATOM      5  O   UNL     1       3.382   5.358  -0.430  1.00  0.00    -0.275 OA
ATOM      6  H   UNL     1       3.745   2.993  -0.606  1.00  0.00     0.163 HD
BRANCH   4   7
ATOM      7  C   UNL     1       2.320   5.022   1.683  1.00  0.00     0.106 C 
BRANCH   7   8
ATOM      8  C   UNL     1       0.827   5.237   1.415  1.00  0.00     0.066 C 
BRANCH   8   9
ATOM      9  C   UNL     1       0.074   3.951   1.480  1.00  0.00     0.039 A 
ATOM     10  C   UNL     1      -0.985   0.517   0.779  1.00  0.00     0.069 C 
ATOM     11  C   UNL     1      -0.702   1.893   1.261  1.00  0.00     0.062 A 
ATOM     12  N   UNL     1      -0.758   2.155   2.573  1.00  0.00    -0.181 NA
ATOM     13  C   UNL     1      -0.279   3.028   0.511  1.00  0.00    -0.007 A 
ATOM     14  N   UNL     1      -0.352   3.426   2.667  1.00  0.00    -0.282 N 
ATOM     15  C   UNL     1      -0.140   3.142  -0.963  1.00  0.00     0.048 C 
ATOM     16  H   UNL     1      -0.360   3.934   3.510  1.00  0.00     0.190 HD
ENDBRANCH   8   9
ENDBRANCH   7   8
ENDBRANCH   4   7
ENDBRANCH   2   3
ENDBRANCH   1   2
BRANCH   1  17
ATOM     17  C   UNL     1       4.017   0.051   0.019  1.00  0.00     0.118 C 
BRANCH  17  18
ATOM     18  N   UNL     1       3.780  -1.389  -0.003  1.00  0.00    -0.352 N 
ATOM     19  C   UNL     1       3.211  -2.305  -0.861  1.00  0.00     0.251 C 
ATOM     20  H   UNL     1       4.116  -1.821   0.815  1.00  0.00     0.163 HD
ATOM     21  O   UNL     1       3.097  -3.445  -0.449  1.00  0.00    -0.269 OA
BRANCH  19  22
ATOM     22  C   UNL     1       2.741  -1.972  -2.232  1.00  0.00     0.039 A 
ATOM     23  C   UNL     1       2.255  -3.007  -3.054  1.00  0.00     0.014 A 
ATOM     24  C   UNL     1       2.790  -0.684  -2.744  1.00  0.00     0.014 A 
ATOM     25  C   UNL     1       1.955  -2.750  -4.395  1.00  0.00     0.010 A 
ATOM     26  C   UNL     1       2.374  -0.404  -4.021  1.00  0.00     0.010 A 
ATOM     27  C   UNL     1       2.082  -1.446  -4.879  1.00  0.00    -0.014 A 
BRANCH  27  28
ATOM     28  C   UNL     1       1.941  -1.107  -6.284  1.00  0.00     0.031 A 
ATOM     29  C   UNL     1       0.623  -1.360  -6.884  1.00  0.00     0.074 A 
ATOM     30  C   UNL     1       2.857  -0.388  -6.968  1.00  0.00     0.049 A 
ATOM     31  N   UNL     1       0.326  -2.290  -7.723  1.00  0.00    -0.248 NA
ATOM     32  C   UNL     1      -0.521  -0.560  -6.435  1.00  0.00     0.031 C 
ATOM     33  C   UNL     1       4.080   0.245  -6.460  1.00  0.00     0.029 A 
ATOM     34  N   UNL     1       2.809   0.033  -8.262  1.00  0.00    -0.354 N 
ATOM     35  C   UNL     1      -0.988  -2.057  -8.096  1.00  0.00     0.074 A 
ATOM     36  C   UNL     1      -1.511  -1.120  -7.135  1.00  0.00     0.031 C 
ATOM     37  C   UNL     1       4.532   1.140  -7.365  1.00  0.00     0.029 A 
ATOM     38  C   UNL     1       3.738   1.016  -8.575  1.00  0.00     0.049 A 
ATOM     39  H   UNL     1       2.171  -0.328  -8.919  1.00  0.00     0.167 HD
ATOM     40  C   UNL     1      -1.458  -2.491  -9.297  1.00  0.00     0.034 A 
ATOM     41  C   UNL     1       3.851   1.693  -9.743  1.00  0.00     0.034 A 
ATOM     42  C   UNL     1      -0.518  -3.393  -9.933  1.00  0.00     0.049 A 
ATOM     43  C   UNL     1       3.253   0.835 -10.795  1.00  0.00     0.074 A 
ATOM     44  C   UNL     1       0.086  -4.581  -9.565  1.00  0.00     0.029 A 
ATOM     45  N   UNL     1       0.236  -2.906 -10.979  1.00  0.00    -0.354 N 
ATOM     46  N   UNL     1       3.748  -0.322 -11.142  1.00  0.00    -0.248 NA
ATOM     47  C   UNL     1       1.862   1.039 -11.168  1.00  0.00     0.031 C 
ATOM     48  C   UNL     1       1.421  -4.487 -10.060  1.00  0.00     0.029 A 
ATOM     49  C   UNL     1       1.540  -3.284 -10.759  1.00  0.00     0.049 A 
ATOM     50  H   UNL     1      -0.097  -2.384 -11.744  1.00  0.00     0.167 HD
ATOM     51  C   UNL     1       2.647  -1.136 -11.353  1.00  0.00     0.074 A 
ATOM     52  C   UNL     1       1.526  -0.213 -11.495  1.00  0.00     0.031 C 
ATOM     53  C   UNL     1       2.701  -2.480 -11.105  1.00  0.00     0.034 A 
BRANCH  40  54
ATOM     54  C   UNL     1      -2.611  -1.887 -10.054  1.00  0.00     0.023 A 
ATOM     55  C   UNL     1      -3.053  -2.567 -11.204  1.00  0.00     0.031 A 
ATOM     56  C   UNL     1      -3.131  -0.587  -9.867  1.00  0.00     0.131 A 
ATOM     57  C   UNL     1      -3.903  -1.943 -12.131  1.00  0.00     0.055 A 
ATOM     58  C   UNL     1      -4.043  -0.002 -10.750  1.00  0.00     0.041 A 
ATOM     59  F   UNL     1      -2.712   0.222  -8.887  1.00  0.00    -0.206 F 
ATOM     60  C   UNL     1      -4.414  -0.669 -11.905  1.00  0.00     0.022 A 
BRANCH  57  61
ATOM     61  S   UNL     1      -4.176  -2.760 -13.723  1.00  0.00     0.124 S 
ATOM     62  O   UNL     1      -2.808  -3.001 -14.171  1.00  0.00    -0.237 OA
ATOM     63  O   UNL     1      -4.942  -3.937 -13.329  1.00  0.00    -0.237 OA
ATOM     64  O   UNL     1      -4.915  -1.762 -14.492  1.00  0.00    -0.744 OA
ENDBRANCH  57  61
ENDBRANCH  40  54
BRANCH  41  65
ATOM     65  C   UNL     1       4.281   3.098  -9.940  1.00  0.00     0.023 A 
ATOM     66  C   UNL     1       4.708   3.586 -11.189  1.00  0.00     0.031 A 
ATOM     67  C   UNL     1       4.054   4.057  -8.926  1.00  0.00     0.131 A 
ATOM     68  C   UNL     1       4.891   4.973 -11.385  1.00  0.00     0.055 A 
ATOM     69  C   UNL     1       4.251   5.425  -9.119  1.00  0.00     0.041 A 
ATOM     70  F   UNL     1       3.546   3.703  -7.734  1.00  0.00    -0.206 F 
ATOM     71  C   UNL     1       4.663   5.891 -10.357  1.00  0.00     0.022 A 
BRANCH  68  72
ATOM     72  S   UNL     1       5.306   5.614 -13.037  1.00  0.00     0.124 S 
ATOM     73  O   UNL     1       6.711   5.247 -13.167  1.00  0.00    -0.237 OA
ATOM     74  O   UNL     1       4.367   4.901 -13.896  1.00  0.00    -0.237 OA
ATOM     75  O   UNL     1       5.052   7.050 -12.918  1.00  0.00    -0.744 OA
ENDBRANCH  68  72
ENDBRANCH  41  65
BRANCH  53  76
ATOM     76  C   UNL     1       4.064  -3.128 -10.930  1.00  0.00     0.023 A 
ATOM     77  C   UNL     1       5.029  -2.727  -9.979  1.00  0.00     0.031 A 
ATOM     78  C   UNL     1       4.343  -4.279 -11.689  1.00  0.00     0.131 A 
ATOM     79  C   UNL     1       6.223  -3.459  -9.827  1.00  0.00     0.055 A 
ATOM     80  C   UNL     1       5.516  -5.016 -11.520  1.00  0.00     0.041 A 
ATOM     81  F   UNL     1       3.457  -4.732 -12.591  1.00  0.00    -0.206 F 
ATOM     82  C   UNL     1       6.465  -4.604 -10.592  1.00  0.00     0.022 A 
BRANCH  79  83
ATOM     83  S   UNL     1       7.491  -2.921  -8.634  1.00  0.00     0.124 S 
ATOM     84  O   UNL     1       7.646  -1.499  -8.916  1.00  0.00    -0.237 OA
ATOM     85  O   UNL     1       6.881  -3.256  -7.350  1.00  0.00    -0.237 OA
ATOM     86  O   UNL     1       8.655  -3.739  -8.984  1.00  0.00    -0.744 OA
ENDBRANCH  79  83
ENDBRANCH  53  76
ENDBRANCH  27  28
ENDBRANCH  19  22
ENDBRANCH  17  18
ENDBRANCH   1  17
TORSDOF 15
