REMARK SMILES Nn1c(S[C@@H](C(=O)NCCCNC(=O)c2ccc(-c3c4nc(c(-c5cc(S(=O)(=O)[O-])ccc5F)c5ccc([nH]5)c(-c5cc(S(=O)(=O)[O-])ccc5F)c5nc(c(-c6cc(S(=O)(=O)[O-])ccc6F)c6ccc3[nH]6)C=C5)C=C4)cc2)c2ccccc2)nc2ccc(Br)cc2c1=O
REMARK SMILES IDX 10 1 9 2 8 3 6 4 7 5 5 7 4 8 3 9 2 10 92 11 84 12 91 13
REMARK SMILES IDX 93 14 85 15 90 16 86 17 88 18 87 19 89 20 1 21 78 24 79 25
REMARK SMILES IDX 83 26 80 27 82 28 81 29 11 30 12 31 13 32 14 34 15 35 16 36
REMARK SMILES IDX 77 37 17 38 76 39 18 40 19 41 20 42 70 43 21 44 75 45 69 46
REMARK SMILES IDX 71 47 22 48 74 49 68 50 67 51 23 53 55 54 35 55 54 56 36 57
REMARK SMILES IDX 39 58 53 59 72 60 37 61 38 62 52 64 73 65 40 66 24 67 25 68
REMARK SMILES IDX 33 69 26 70 32 71 34 72 31 73 27 74 28 75 29 76 30 77 56 78
REMARK SMILES IDX 57 79 65 80 58 81 64 82 66 83 63 84 59 85 60 86 61 87 62 88
REMARK SMILES IDX 41 89 42 90 50 91 43 92 49 93 51 94 48 95 44 96 45 97 46 98
REMARK SMILES IDX 47 99
REMARK H PARENT 8 6 1 22 1 23 12 33 71 52 39 63
REMARK Flexibility Score: inf
ROOT
ATOM      1  C   UNL     1       4.772  -1.993   2.525  1.00  0.00     0.042 C 
ENDROOT
BRANCH   1   2
ATOM      2  C   UNL     1       4.961  -0.499   2.258  1.00  0.00     0.117 C 
BRANCH   2   3
ATOM      3  N   UNL     1       4.398  -0.041   0.994  1.00  0.00    -0.355 N 
ATOM      4  C   UNL     1       3.279   0.696   0.713  1.00  0.00     0.238 C 
ATOM      5  O   UNL     1       3.163   1.057  -0.464  1.00  0.00    -0.273 OA
ATOM      6  H   UNL     1       4.914  -0.311   0.200  1.00  0.00     0.163 HD
BRANCH   4   7
ATOM      7  C   UNL     1       2.221   1.047   1.781  1.00  0.00     0.174 C 
BRANCH   7   8
ATOM      8  S   UNL     1       1.646  -0.397   2.670  1.00  0.00    -0.068 SA
BRANCH   8   9
ATOM      9  C   UNL     1       0.452  -1.353   1.843  1.00  0.00     0.191 A 
ATOM     10  N   UNL     1       0.289  -1.457   0.462  1.00  0.00    -0.202 N 
ATOM     11  C   UNL     1      -0.861  -2.053  -0.081  1.00  0.00     0.280 A 
ATOM     12  N   UNL     1      -0.298  -1.999   2.679  1.00  0.00    -0.222 NA
ATOM     13  C   UNL     1      -1.669  -2.851   0.853  1.00  0.00     0.069 A 
ATOM     14  O   UNL     1      -1.237  -1.938  -1.247  1.00  0.00    -0.267 OA
ATOM     15  C   UNL     1      -1.302  -2.835   2.195  1.00  0.00     0.079 A 
ATOM     16  C   UNL     1      -2.734  -3.637   0.401  1.00  0.00     0.031 A 
ATOM     17  C   UNL     1      -1.976  -3.667   3.090  1.00  0.00     0.030 A 
ATOM     18  C   UNL     1      -3.412  -4.443   1.312  1.00  0.00     0.018 A 
ATOM     19  C   UNL     1      -3.027  -4.476   2.651  1.00  0.00     0.018 A 
ATOM     20  Br  UNL     1      -4.861  -5.504   0.724  1.00  0.00    -0.051 Br
BRANCH  10  21
ATOM     21  N   UNL     1       1.220  -1.008  -0.487  1.00  0.00    -0.334 N 
ATOM     22  H   UNL     1       2.055  -0.578  -0.193  1.00  0.00     0.178 HD
ATOM     23  H   UNL     1       1.038  -1.123  -1.448  1.00  0.00     0.178 HD
ENDBRANCH  10  21
ENDBRANCH   8   9
ENDBRANCH   7   8
BRANCH   7  24
ATOM     24  C   UNL     1       1.203   2.101   1.327  1.00  0.00    -0.025 A 
ATOM     25  C   UNL     1      -0.130   1.837   0.981  1.00  0.00     0.005 A 
ATOM     26  C   UNL     1       1.647   3.432   1.181  1.00  0.00     0.005 A 
ATOM     27  C   UNL     1      -0.963   2.831   0.457  1.00  0.00     0.000 A 
ATOM     28  C   UNL     1       0.809   4.434   0.678  1.00  0.00     0.000 A 
ATOM     29  C   UNL     1      -0.493   4.128   0.301  1.00  0.00     0.000 A 
ENDBRANCH   7  24
ENDBRANCH   4   7
ENDBRANCH   2   3
ENDBRANCH   1   2
BRANCH   1  30
ATOM     30  C   UNL     1       5.350  -2.932   1.472  1.00  0.00     0.118 C 
BRANCH  30  31
ATOM     31  N   UNL     1       6.804  -2.919   1.412  1.00  0.00    -0.352 N 
ATOM     32  C   UNL     1       7.725  -3.919   1.651  1.00  0.00     0.251 C 
ATOM     33  H   UNL     1       7.196  -2.052   1.159  1.00  0.00     0.163 HD
ATOM     34  O   UNL     1       8.915  -3.636   1.665  1.00  0.00    -0.269 OA
BRANCH  32  35
ATOM     35  C   UNL     1       7.284  -5.307   1.938  1.00  0.00     0.039 A 
ATOM     36  C   UNL     1       6.244  -5.905   1.228  1.00  0.00     0.014 A 
ATOM     37  C   UNL     1       7.926  -6.024   2.954  1.00  0.00     0.014 A 
ATOM     38  C   UNL     1       5.702  -7.107   1.676  1.00  0.00     0.010 A 
ATOM     39  C   UNL     1       7.444  -7.282   3.335  1.00  0.00     0.010 A 
ATOM     40  C   UNL     1       6.279  -7.802   2.752  1.00  0.00    -0.014 A 
BRANCH  40  41
ATOM     41  C   UNL     1       5.624  -9.036   3.271  1.00  0.00     0.031 A 
ATOM     42  C   UNL     1       5.083  -9.087   4.678  1.00  0.00     0.074 A 
ATOM     43  C   UNL     1       5.449 -10.095   2.455  1.00  0.00     0.049 A 
ATOM     44  N   UNL     1       4.433 -10.052   5.279  1.00  0.00    -0.248 NA
ATOM     45  C   UNL     1       5.306  -7.905   5.526  1.00  0.00     0.031 C 
ATOM     46  C   UNL     1       5.926 -10.168   1.075  1.00  0.00     0.029 A 
ATOM     47  N   UNL     1       4.810 -11.295   2.652  1.00  0.00    -0.354 N 
ATOM     48  C   UNL     1       4.176  -9.598   6.569  1.00  0.00     0.074 A 
ATOM     49  C   UNL     1       4.792  -8.296   6.683  1.00  0.00     0.031 C 
ATOM     50  C   UNL     1       5.519 -11.323   0.532  1.00  0.00     0.029 A 
ATOM     51  C   UNL     1       4.811 -12.108   1.543  1.00  0.00     0.049 A 
ATOM     52  H   UNL     1       4.391 -11.548   3.506  1.00  0.00     0.167 HD
ATOM     53  C   UNL     1       3.469 -10.198   7.558  1.00  0.00     0.034 A 
ATOM     54  C   UNL     1       4.311 -13.347   1.352  1.00  0.00     0.034 A 
ATOM     55  C   UNL     1       2.854 -11.496   7.430  1.00  0.00     0.049 A 
ATOM     56  C   UNL     1       3.556 -14.013   2.472  1.00  0.00     0.074 A 
ATOM     57  C   UNL     1       2.112 -12.185   8.373  1.00  0.00     0.029 A 
ATOM     58  N   UNL     1       2.900 -12.297   6.297  1.00  0.00    -0.354 N 
ATOM     59  N   UNL     1       3.289 -13.552   3.672  1.00  0.00    -0.248 NA
ATOM     60  C   UNL     1       3.021 -15.357   2.218  1.00  0.00     0.031 C 
ATOM     61  C   UNL     1       1.769 -13.427   7.837  1.00  0.00     0.029 A 
ATOM     62  C   UNL     1       2.216 -13.481   6.527  1.00  0.00     0.049 A 
ATOM     63  H   UNL     1       3.351 -12.059   5.455  1.00  0.00     0.167 HD
ATOM     64  C   UNL     1       2.535 -14.536   4.305  1.00  0.00     0.074 A 
ATOM     65  C   UNL     1       2.370 -15.610   3.347  1.00  0.00     0.031 C 
ATOM     66  C   UNL     1       2.031 -14.544   5.565  1.00  0.00     0.034 A 
BRANCH  53  67
ATOM     67  C   UNL     1       3.300  -9.465   8.870  1.00  0.00     0.023 A 
ATOM     68  C   UNL     1       3.791 -10.026  10.065  1.00  0.00     0.031 A 
ATOM     69  C   UNL     1       2.560  -8.272   8.956  1.00  0.00     0.131 A 
ATOM     70  C   UNL     1       3.511  -9.411  11.292  1.00  0.00     0.055 A 
ATOM     71  C   UNL     1       2.326  -7.636  10.176  1.00  0.00     0.041 A 
ATOM     72  F   UNL     1       2.064  -7.695   7.848  1.00  0.00    -0.206 F 
ATOM     73  C   UNL     1       2.792  -8.213  11.353  1.00  0.00     0.022 A 
BRANCH  70  74
ATOM     74  S   UNL     1       4.004 -10.175  12.862  1.00  0.00     0.124 S 
ATOM     75  O   UNL     1       4.900  -9.163  13.417  1.00  0.00    -0.237 OA
ATOM     76  O   UNL     1       2.723 -10.317  13.548  1.00  0.00    -0.237 OA
ATOM     77  O   UNL     1       4.646 -11.421  12.460  1.00  0.00    -0.744 OA
ENDBRANCH  70  74
ENDBRANCH  53  67
BRANCH  54  78
ATOM     78  C   UNL     1       4.479 -13.986   0.013  1.00  0.00     0.023 A 
ATOM     79  C   UNL     1       5.765 -14.230  -0.506  1.00  0.00     0.031 A 
ATOM     80  C   UNL     1       3.374 -14.223  -0.821  1.00  0.00     0.131 A 
ATOM     81  C   UNL     1       5.916 -14.600  -1.849  1.00  0.00     0.055 A 
ATOM     82  C   UNL     1       3.527 -14.672  -2.135  1.00  0.00     0.041 A 
ATOM     83  F   UNL     1       2.129 -13.994  -0.376  1.00  0.00    -0.206 F 
ATOM     84  C   UNL     1       4.805 -14.840  -2.661  1.00  0.00     0.022 A 
BRANCH  81  85
ATOM     85  S   UNL     1       7.557 -14.621  -2.623  1.00  0.00     0.124 S 
ATOM     86  O   UNL     1       7.639 -15.987  -3.129  1.00  0.00    -0.237 OA
ATOM     87  O   UNL     1       7.417 -13.579  -3.638  1.00  0.00    -0.237 OA
ATOM     88  O   UNL     1       8.461 -14.300  -1.525  1.00  0.00    -0.744 OA
ENDBRANCH  81  85
ENDBRANCH  54  78
BRANCH  66  89
ATOM     89  C   UNL     1       1.219 -15.736   6.021  1.00  0.00     0.023 A 
ATOM     90  C   UNL     1      -0.121 -15.555   6.420  1.00  0.00     0.031 A 
ATOM     91  C   UNL     1       1.806 -16.995   6.226  1.00  0.00     0.131 A 
ATOM     92  C   UNL     1      -0.810 -16.598   7.051  1.00  0.00     0.055 A 
ATOM     93  C   UNL     1       1.097 -18.050   6.806  1.00  0.00     0.041 A 
ATOM     94  F   UNL     1       3.084 -17.218   5.878  1.00  0.00    -0.206 F 
ATOM     95  C   UNL     1      -0.212 -17.848   7.237  1.00  0.00     0.022 A 
BRANCH  92  96
ATOM     96  S   UNL     1      -2.465 -16.339   7.749  1.00  0.00     0.124 S 
ATOM     97  O   UNL     1      -3.263 -17.308   7.002  1.00  0.00    -0.237 OA
ATOM     98  O   UNL     1      -2.256 -16.658   9.159  1.00  0.00    -0.237 OA
ATOM     99  O   UNL     1      -2.756 -14.939   7.458  1.00  0.00    -0.744 OA
ENDBRANCH  92  96
ENDBRANCH  66  89
ENDBRANCH  40  41
ENDBRANCH  32  35
ENDBRANCH  30  31
ENDBRANCH   1  30
TORSDOF 17
