REMARK SMILES C=CCCCOc1ccc(C(=O)NCCCNC(=O)c2ccc(-c3c4nc(c(-c5cc(S(=O)(=O)[O-])ccc5F)c5ccc([nH]5)c(-c5cc(S(=O)(=O)[O-])ccc5F)c5nc(c(-c6cc(S(=O)(=O)[O-])ccc6F)c6ccc3[nH]6)C=C5)C=C4)cc2)cc1[N+](=O)[O-]
REMARK SMILES IDX 14 1 13 2 11 3 12 4 10 6 7 7 8 8 84 9 9 10 83 11 6 12 5 13
REMARK SMILES IDX 4 14 3 15 2 16 1 17 85 18 86 19 87 20 15 21 16 22 17 23
REMARK SMILES IDX 18 24 19 26 20 27 21 28 82 29 22 30 81 31 23 32 24 33 25 34
REMARK SMILES IDX 75 35 26 36 80 37 74 38 76 39 27 40 79 41 73 42 72 43 28 45
REMARK SMILES IDX 60 46 40 47 59 48 41 49 44 50 58 51 77 52 42 53 43 54 57 56
REMARK SMILES IDX 78 57 45 58 29 59 30 60 38 61 31 62 37 63 39 64 36 65 32 66
REMARK SMILES IDX 33 67 34 68 35 69 61 70 62 71 70 72 63 73 69 74 71 75 68 76
REMARK SMILES IDX 64 77 65 78 66 79 67 80 46 81 47 82 55 83 48 84 54 85 56 86
REMARK SMILES IDX 53 87 49 88 50 89 51 90 52 91
REMARK H PARENT 13 5 17 25 76 44 44 55
REMARK Flexibility Score: inf
ROOT
ATOM      1  C   UNL     1      -0.499  -4.364  -1.019  1.00  0.00     0.118 C 
ENDROOT
BRANCH   1   2
ATOM      2  N   UNL     1      -0.460  -4.918  -2.367  1.00  0.00    -0.352 N 
ATOM      3  C   UNL     1      -0.681  -4.319  -3.582  1.00  0.00     0.251 C 
ATOM      4  O   UNL     1      -0.410  -4.921  -4.619  1.00  0.00    -0.269 OA
ATOM      5  H   UNL     1      -0.240  -5.877  -2.413  1.00  0.00     0.163 HD
BRANCH   3   6
ATOM      6  C   UNL     1      -1.181  -2.929  -3.668  1.00  0.00     0.046 A 
ATOM      7  C   UNL     1      -1.886  -0.218  -3.723  1.00  0.00     0.197 A 
ATOM      8  C   UNL     1      -0.927  -0.707  -4.613  1.00  0.00     0.055 A 
ATOM      9  C   UNL     1      -2.590  -1.120  -2.922  1.00  0.00     0.311 A 
ATOM     10  C   UNL     1      -0.570  -2.058  -4.580  1.00  0.00     0.018 A 
ATOM     11  C   UNL     1      -2.245  -2.475  -2.888  1.00  0.00     0.103 A 
BRANCH   7  12
ATOM     12  O   UNL     1      -2.133   1.123  -3.651  1.00  0.00    -0.487 OA
BRANCH  12  13
ATOM     13  C   UNL     1      -1.027   1.885  -3.138  1.00  0.00     0.230 C 
BRANCH  13  14
ATOM     14  C   UNL     1      -1.117   2.071  -1.617  1.00  0.00     0.046 C 
BRANCH  14  15
ATOM     15  C   UNL     1      -0.557   0.912  -0.778  1.00  0.00     0.030 C 
BRANCH  15  16
ATOM     16  C   UNL     1       0.934   0.743  -0.852  1.00  0.00    -0.035 C 
ATOM     17  C   UNL     1       1.645   0.189   0.140  1.00  0.00     0.004 C 
ENDBRANCH  15  16
ENDBRANCH  14  15
ENDBRANCH  13  14
ENDBRANCH  12  13
ENDBRANCH   7  12
BRANCH   9  18
ATOM     18  N   UNL     1      -3.615  -0.654  -1.998  1.00  0.00     0.066 N 
ATOM     19  O   UNL     1      -3.563  -1.101  -0.843  1.00  0.00    -0.258 OA
ATOM     20  O   UNL     1      -4.467   0.137  -2.420  1.00  0.00    -0.258 OA
ENDBRANCH   9  18
ENDBRANCH   3   6
ENDBRANCH   1   2
BRANCH   1  21
ATOM     21  C   UNL     1      -1.717  -4.840  -0.231  1.00  0.00     0.042 C 
BRANCH  21  22
ATOM     22  C   UNL     1      -1.660  -6.309   0.175  1.00  0.00     0.118 C 
BRANCH  22  23
ATOM     23  N   UNL     1      -0.666  -6.561   1.207  1.00  0.00    -0.352 N 
ATOM     24  C   UNL     1      -0.817  -7.083   2.468  1.00  0.00     0.251 C 
ATOM     25  H   UNL     1       0.257  -6.321   0.963  1.00  0.00     0.163 HD
ATOM     26  O   UNL     1       0.128  -7.011   3.255  1.00  0.00    -0.269 OA
BRANCH  24  27
ATOM     27  C   UNL     1      -2.093  -7.704   2.894  1.00  0.00     0.039 A 
ATOM     28  C   UNL     1      -2.541  -7.492   4.202  1.00  0.00     0.014 A 
ATOM     29  C   UNL     1      -2.830  -8.524   2.036  1.00  0.00     0.014 A 
ATOM     30  C   UNL     1      -3.750  -8.052   4.626  1.00  0.00     0.010 A 
ATOM     31  C   UNL     1      -4.072  -9.016   2.434  1.00  0.00     0.010 A 
ATOM     32  C   UNL     1      -4.544  -8.793   3.736  1.00  0.00    -0.014 A 
BRANCH  32  33
ATOM     33  C   UNL     1      -5.859  -9.351   4.154  1.00  0.00     0.031 A 
ATOM     34  C   UNL     1      -6.078 -10.841   4.171  1.00  0.00     0.074 A 
ATOM     35  C   UNL     1      -6.872  -8.517   4.466  1.00  0.00     0.049 A 
ATOM     36  N   UNL     1      -7.169 -11.517   4.428  1.00  0.00    -0.248 NA
ATOM     37  C   UNL     1      -4.921 -11.681   3.825  1.00  0.00     0.031 C 
ATOM     38  C   UNL     1      -6.793  -7.055   4.458  1.00  0.00     0.029 A 
ATOM     39  N   UNL     1      -8.166  -8.776   4.843  1.00  0.00    -0.354 N 
ATOM     40  C   UNL     1      -6.835 -12.857   4.264  1.00  0.00     0.074 A 
ATOM     41  C   UNL     1      -5.457 -12.892   3.822  1.00  0.00     0.031 C 
ATOM     42  C   UNL     1      -7.977  -6.548   4.837  1.00  0.00     0.029 A 
ATOM     43  C   UNL     1      -8.915  -7.643   5.066  1.00  0.00     0.049 A 
ATOM     44  H   UNL     1      -8.525  -9.687   4.946  1.00  0.00     0.167 HD
ATOM     45  C   UNL     1      -7.599 -13.957   4.482  1.00  0.00     0.034 A 
ATOM     46  C   UNL     1     -10.214  -7.500   5.400  1.00  0.00     0.034 A 
ATOM     47  C   UNL     1      -8.970 -13.905   4.930  1.00  0.00     0.049 A 
ATOM     48  C   UNL     1     -11.054  -8.736   5.601  1.00  0.00     0.074 A 
ATOM     49  C   UNL     1      -9.821 -14.956   5.227  1.00  0.00     0.029 A 
ATOM     50  N   UNL     1      -9.697 -12.739   5.138  1.00  0.00    -0.354 N 
ATOM     51  N   UNL     1     -10.710  -9.998   5.483  1.00  0.00    -0.248 NA
ATOM     52  C   UNL     1     -12.455  -8.529   5.990  1.00  0.00     0.031 C 
ATOM     53  C   UNL     1     -11.078 -14.429   5.541  1.00  0.00     0.029 A 
ATOM     54  C   UNL     1     -10.993 -13.046   5.526  1.00  0.00     0.049 A 
ATOM     55  H   UNL     1      -9.344 -11.827   5.026  1.00  0.00     0.167 HD
ATOM     56  C   UNL     1     -11.844 -10.734   5.821  1.00  0.00     0.074 A 
ATOM     57  C   UNL     1     -12.874  -9.774   6.159  1.00  0.00     0.031 C 
ATOM     58  C   UNL     1     -12.015 -12.080   5.854  1.00  0.00     0.034 A 
BRANCH  45  59
ATOM     59  C   UNL     1      -6.972 -15.306   4.210  1.00  0.00     0.023 A 
ATOM     60  C   UNL     1      -5.846 -15.756   4.923  1.00  0.00     0.031 A 
ATOM     61  C   UNL     1      -7.491 -16.146   3.208  1.00  0.00     0.131 A 
ATOM     62  C   UNL     1      -5.231 -16.967   4.572  1.00  0.00     0.055 A 
ATOM     63  C   UNL     1      -6.926 -17.391   2.923  1.00  0.00     0.041 A 
ATOM     64  F   UNL     1      -8.552 -15.765   2.478  1.00  0.00    -0.206 F 
ATOM     65  C   UNL     1      -5.779 -17.801   3.595  1.00  0.00     0.022 A 
BRANCH  62  66
ATOM     66  S   UNL     1      -3.619 -17.363   5.303  1.00  0.00     0.124 S 
ATOM     67  O   UNL     1      -2.817 -16.214   4.887  1.00  0.00    -0.237 OA
ATOM     68  O   UNL     1      -3.928 -17.444   6.726  1.00  0.00    -0.237 OA
ATOM     69  O   UNL     1      -3.255 -18.628   4.669  1.00  0.00    -0.744 OA
ENDBRANCH  62  66
ENDBRANCH  45  59
BRANCH  46  70
ATOM     70  C   UNL     1     -10.811  -6.141   5.556  1.00  0.00     0.023 A 
ATOM     71  C   UNL     1     -11.314  -5.710   6.794  1.00  0.00     0.031 A 
ATOM     72  C   UNL     1     -10.931  -5.270   4.459  1.00  0.00     0.131 A 
ATOM     73  C   UNL     1     -11.960  -4.468   6.894  1.00  0.00     0.055 A 
ATOM     74  C   UNL     1     -11.520  -4.010   4.576  1.00  0.00     0.041 A 
ATOM     75  F   UNL     1     -10.465  -5.630   3.252  1.00  0.00    -0.206 F 
ATOM     76  C   UNL     1     -12.053  -3.608   5.797  1.00  0.00     0.022 A 
BRANCH  73  77
ATOM     77  S   UNL     1     -12.765  -4.031   8.460  1.00  0.00     0.124 S 
ATOM     78  O   UNL     1     -13.697  -5.139   8.633  1.00  0.00    -0.237 OA
ATOM     79  O   UNL     1     -11.634  -3.993   9.381  1.00  0.00    -0.237 OA
ATOM     80  O   UNL     1     -13.380  -2.736   8.177  1.00  0.00    -0.744 OA
ENDBRANCH  73  77
ENDBRANCH  46  70
BRANCH  58  81
ATOM     81  C   UNL     1     -13.356 -12.591   6.325  1.00  0.00     0.023 A 
ATOM     82  C   UNL     1     -14.537 -12.368   5.595  1.00  0.00     0.031 A 
ATOM     83  C   UNL     1     -13.453 -13.304   7.534  1.00  0.00     0.131 A 
ATOM     84  C   UNL     1     -15.769 -12.802   6.108  1.00  0.00     0.055 A 
ATOM     85  C   UNL     1     -14.672 -13.790   8.007  1.00  0.00     0.041 A 
ATOM     86  F   UNL     1     -12.359 -13.544   8.276  1.00  0.00    -0.206 F 
ATOM     87  C   UNL     1     -15.842 -13.527   7.300  1.00  0.00     0.022 A 
BRANCH  84  88
ATOM     88  S   UNL     1     -17.291 -12.317   5.248  1.00  0.00     0.124 S 
ATOM     89  O   UNL     1     -17.196 -10.861   5.261  1.00  0.00    -0.237 OA
ATOM     90  O   UNL     1     -17.129 -12.955   3.945  1.00  0.00    -0.237 OA
ATOM     91  O   UNL     1     -18.351 -12.877   6.084  1.00  0.00    -0.744 OA
ENDBRANCH  84  88
ENDBRANCH  58  81
ENDBRANCH  32  33
ENDBRANCH  24  27
ENDBRANCH  22  23
ENDBRANCH  21  22
ENDBRANCH   1  21
TORSDOF 19
