REMARK SMILES O=C(NCCCNC(=O)c1ccc(-c2ccc(F)c(C(F)(F)F)c2)cc1[N+](=O)[O-])c1ccc(-c2c3nc(c(-c4cc(S(=O)(=O)[O-])ccc4F)c4ccc([nH]4)c(-c4cc(S(=O)(=O)[O-])ccc4F)c4nc(c(-c5cc(S(=O)(=O)[O-])ccc5F)c5ccc2[nH]5)C=C4)C=C3)cc1
REMARK SMILES IDX 4 1 3 2 1 3 2 4 30 6 31 7 92 8 32 9 91 10 33 11 34 12 35 13
REMARK SMILES IDX 85 14 36 15 90 16 84 17 86 18 37 19 89 20 83 21 82 22 38 24
REMARK SMILES IDX 70 25 50 26 69 27 51 28 54 29 68 30 87 31 52 32 53 33 67 35
REMARK SMILES IDX 88 36 55 37 39 38 40 39 48 40 41 41 47 42 49 43 46 44 42 45
REMARK SMILES IDX 43 46 44 47 45 48 71 49 72 50 80 51 73 52 79 53 81 54 78 55
REMARK SMILES IDX 74 56 75 57 76 58 77 59 56 60 57 61 65 62 58 63 64 64 66 65
REMARK SMILES IDX 63 66 59 67 60 68 61 69 62 70 5 71 6 72 7 73 8 74 9 76 10 77
REMARK SMILES IDX 11 78 26 79 12 80 25 81 13 82 27 83 28 84 29 85 14 86 15 87
REMARK SMILES IDX 24 88 16 89 19 90 17 91 18 92 20 93 21 94 22 95 23 96
REMARK H PARENT 3 5 86 23 54 34 7 75
REMARK Flexibility Score: inf
ROOT
ATOM      1  C   UNL     1       4.722  -0.617   1.116  1.00  0.00     0.118 C 
ENDROOT
BRANCH   1   2
ATOM      2  N   UNL     1       3.272  -0.652   0.978  1.00  0.00    -0.352 N 
ATOM      3  O   UNL     1       1.249  -0.143   0.132  1.00  0.00    -0.269 OA
ATOM      4  C   UNL     1       2.465  -0.150  -0.016  1.00  0.00     0.251 C 
ATOM      5  H   UNL     1       2.796  -1.106   1.711  1.00  0.00     0.163 HD
BRANCH   4   6
ATOM      6  C   UNL     1       3.068   0.401  -1.249  1.00  0.00     0.039 A 
ATOM      7  C   UNL     1       4.116  -0.263  -1.889  1.00  0.00     0.014 A 
ATOM      8  C   UNL     1       2.568   1.595  -1.776  1.00  0.00     0.014 A 
ATOM      9  C   UNL     1       4.775   0.346  -2.949  1.00  0.00     0.010 A 
ATOM     10  C   UNL     1       3.165   2.154  -2.909  1.00  0.00     0.010 A 
ATOM     11  C   UNL     1       4.295   1.551  -3.485  1.00  0.00    -0.014 A 
BRANCH  11  12
ATOM     12  C   UNL     1       4.951   2.132  -4.683  1.00  0.00     0.031 A 
ATOM     13  C   UNL     1       5.604   3.484  -4.627  1.00  0.00     0.074 A 
ATOM     14  C   UNL     1       4.944   1.426  -5.830  1.00  0.00     0.049 A 
ATOM     15  N   UNL     1       6.162   4.172  -5.589  1.00  0.00    -0.248 NA
ATOM     16  C   UNL     1       5.616   4.157  -3.321  1.00  0.00     0.031 C 
ATOM     17  C   UNL     1       4.333   0.105  -5.999  1.00  0.00     0.029 A 
ATOM     18  N   UNL     1       5.457   1.714  -7.068  1.00  0.00    -0.354 N 
ATOM     19  C   UNL     1       6.572   5.371  -5.014  1.00  0.00     0.074 A 
ATOM     20  C   UNL     1       6.164   5.324  -3.625  1.00  0.00     0.031 C 
ATOM     21  C   UNL     1       4.522  -0.310  -7.258  1.00  0.00     0.029 A 
ATOM     22  C   UNL     1       5.195   0.745  -8.006  1.00  0.00     0.049 A 
ATOM     23  H   UNL     1       5.965   2.535  -7.265  1.00  0.00     0.167 HD
ATOM     24  C   UNL     1       7.231   6.406  -5.595  1.00  0.00     0.034 A 
ATOM     25  C   UNL     1       5.422   0.722  -9.333  1.00  0.00     0.034 A 
ATOM     26  C   UNL     1       7.623   6.424  -6.986  1.00  0.00     0.049 A 
ATOM     27  C   UNL     1       6.108   1.897  -9.968  1.00  0.00     0.074 A 
ATOM     28  C   UNL     1       8.335   7.394  -7.670  1.00  0.00     0.029 A 
ATOM     29  N   UNL     1       7.319   5.432  -7.913  1.00  0.00    -0.354 N 
ATOM     30  N   UNL     1       6.514   3.013  -9.407  1.00  0.00    -0.248 NA
ATOM     31  C   UNL     1       6.369   1.812 -11.409  1.00  0.00     0.031 C 
ATOM     32  C   UNL     1       8.396   7.026  -9.020  1.00  0.00     0.029 A 
ATOM     33  C   UNL     1       7.793   5.786  -9.167  1.00  0.00     0.049 A 
ATOM     34  H   UNL     1       6.837   4.598  -7.708  1.00  0.00     0.167 HD
ATOM     35  C   UNL     1       7.095   3.759 -10.427  1.00  0.00     0.074 A 
ATOM     36  C   UNL     1       6.994   2.960 -11.633  1.00  0.00     0.031 C 
ATOM     37  C   UNL     1       7.666   4.988 -10.366  1.00  0.00     0.034 A 
BRANCH  24  38
ATOM     38  C   UNL     1       7.512   7.619  -4.737  1.00  0.00     0.023 A 
ATOM     39  C   UNL     1       8.319   7.548  -3.587  1.00  0.00     0.031 A 
ATOM     40  C   UNL     1       6.922   8.859  -5.045  1.00  0.00     0.131 A 
ATOM     41  C   UNL     1       8.438   8.662  -2.742  1.00  0.00     0.055 A 
ATOM     42  C   UNL     1       7.117   9.989  -4.247  1.00  0.00     0.041 A 
ATOM     43  F   UNL     1       6.126   8.989  -6.118  1.00  0.00    -0.206 F 
ATOM     44  C   UNL     1       7.862   9.889  -3.076  1.00  0.00     0.022 A 
BRANCH  41  45
ATOM     45  S   UNL     1       9.207   8.434  -1.114  1.00  0.00     0.124 S 
ATOM     46  O   UNL     1       8.418   7.335  -0.561  1.00  0.00    -0.237 OA
ATOM     47  O   UNL     1      10.588   8.117  -1.459  1.00  0.00    -0.237 OA
ATOM     48  O   UNL     1       9.008   9.724  -0.456  1.00  0.00    -0.744 OA
ENDBRANCH  41  45
ENDBRANCH  24  38
BRANCH  25  49
ATOM     49  C   UNL     1       4.935  -0.432 -10.137  1.00  0.00     0.023 A 
ATOM     50  C   UNL     1       5.825  -1.333 -10.738  1.00  0.00     0.031 A 
ATOM     51  C   UNL     1       3.554  -0.666 -10.280  1.00  0.00     0.131 A 
ATOM     52  C   UNL     1       5.323  -2.420 -11.470  1.00  0.00     0.055 A 
ATOM     53  C   UNL     1       3.061  -1.774 -10.969  1.00  0.00     0.041 A 
ATOM     54  F   UNL     1       2.663   0.162  -9.711  1.00  0.00    -0.206 F 
ATOM     55  C   UNL     1       3.949  -2.656 -11.576  1.00  0.00     0.022 A 
BRANCH  52  56
ATOM     56  S   UNL     1       6.496  -3.511 -12.321  1.00  0.00     0.124 S 
ATOM     57  O   UNL     1       7.163  -2.582 -13.226  1.00  0.00    -0.237 OA
ATOM     58  O   UNL     1       7.299  -4.015 -11.212  1.00  0.00    -0.237 OA
ATOM     59  O   UNL     1       5.635  -4.501 -12.964  1.00  0.00    -0.744 OA
ENDBRANCH  52  56
ENDBRANCH  25  49
BRANCH  37  60
ATOM     60  C   UNL     1       8.264   5.525 -11.642  1.00  0.00     0.023 A 
ATOM     61  C   UNL     1       7.462   5.923 -12.726  1.00  0.00     0.031 A 
ATOM     62  C   UNL     1       9.659   5.647 -11.767  1.00  0.00     0.131 A 
ATOM     63  C   UNL     1       8.065   6.388 -13.904  1.00  0.00     0.055 A 
ATOM     64  C   UNL     1      10.250   6.159 -12.922  1.00  0.00     0.041 A 
ATOM     65  F   UNL     1      10.469   5.277 -10.763  1.00  0.00    -0.206 F 
ATOM     66  C   UNL     1       9.453   6.525 -14.002  1.00  0.00     0.022 A 
BRANCH  63  67
ATOM     67  S   UNL     1       7.016   6.757 -15.337  1.00  0.00     0.124 S 
ATOM     68  O   UNL     1       6.421   5.454 -15.619  1.00  0.00    -0.237 OA
ATOM     69  O   UNL     1       6.109   7.771 -14.810  1.00  0.00    -0.237 OA
ATOM     70  O   UNL     1       7.963   7.236 -16.342  1.00  0.00    -0.744 OA
ENDBRANCH  63  67
ENDBRANCH  37  60
ENDBRANCH  11  12
ENDBRANCH   4   6
ENDBRANCH   1   2
BRANCH   1  71
ATOM     71  C   UNL     1       5.192   0.244   2.279  1.00  0.00     0.042 C 
BRANCH  71  72
ATOM     72  C   UNL     1       4.690  -0.211   3.639  1.00  0.00     0.118 C 
BRANCH  72  73
ATOM     73  N   UNL     1       5.060  -1.586   3.947  1.00  0.00    -0.352 N 
ATOM     74  C   UNL     1       5.679  -2.110   5.048  1.00  0.00     0.258 C 
ATOM     75  H   UNL     1       4.828  -2.243   3.251  1.00  0.00     0.163 HD
ATOM     76  O   UNL     1       6.018  -3.287   5.079  1.00  0.00    -0.269 OA
BRANCH  74  77
ATOM     77  C   UNL     1       5.990  -1.250   6.199  1.00  0.00     0.117 A 
ATOM     78  C   UNL     1       7.324  -1.186   6.611  1.00  0.00     0.022 A 
ATOM     79  C   UNL     1       5.030  -0.538   6.914  1.00  0.00     0.282 A 
ATOM     80  C   UNL     1       7.685  -0.393   7.707  1.00  0.00     0.010 A 
ATOM     81  C   UNL     1       5.389   0.286   7.989  1.00  0.00     0.095 A 
ATOM     82  C   UNL     1       6.727   0.358   8.413  1.00  0.00    -0.012 A 
BRANCH  79  83
ATOM     83  N   UNL     1       3.620  -0.662   6.605  1.00  0.00     0.063 N 
ATOM     84  O   UNL     1       2.988   0.393   6.453  1.00  0.00    -0.258 OA
ATOM     85  O   UNL     1       3.140  -1.800   6.556  1.00  0.00    -0.258 OA
ENDBRANCH  79  83
BRANCH  82  86
ATOM     86  C   UNL     1       7.100   1.151   9.598  1.00  0.00    -0.017 A 
ATOM     87  C   UNL     1       8.233   1.980   9.605  1.00  0.00     0.012 A 
ATOM     88  C   UNL     1       6.328   1.081  10.774  1.00  0.00     0.025 A 
ATOM     89  C   UNL     1       8.585   2.703  10.748  1.00  0.00     0.040 A 
ATOM     90  C   UNL     1       6.667   1.811  11.924  1.00  0.00     0.092 A 
ATOM     91  C   UNL     1       7.803   2.609  11.894  1.00  0.00     0.135 A 
ATOM     92  F   UNL     1       8.165   3.301  12.982  1.00  0.00    -0.206 F 
BRANCH  90  93
ATOM     93  C   UNL     1       5.849   1.730  13.176  1.00  0.00     0.419 C 
ATOM     94  F   UNL     1       6.511   1.127  14.201  1.00  0.00    -0.166 F 
ATOM     95  F   UNL     1       5.451   2.946  13.639  1.00  0.00    -0.166 F 
ATOM     96  F   UNL     1       4.700   1.011  13.013  1.00  0.00    -0.166 F 
ENDBRANCH  90  93
ENDBRANCH  82  86
ENDBRANCH  74  77
ENDBRANCH  72  73
ENDBRANCH  71  72
ENDBRANCH   1  71
TORSDOF 16
