REMARK SMILES Cc1ccc2c(c1)C=C(C(=O)NCCCNC(=O)c1ccc(-c3c4nc(c(-c5cc(S(=O)(=O)[O-])ccc5F)c5ccc([nH]5)c(-c5cc(S(=O)(=O)[O-])ccc5F)c5nc(c(-c6cc(S(=O)(=O)[O-])ccc6F)c6ccc3[nH]6)C=C5)C=C4)cc1)CO2
REMARK SMILES IDX 16 1 17 2 18 3 15 5 14 6 13 7 12 8 10 9 11 10 9 12 1 13 2 14
REMARK SMILES IDX 3 15 7 16 4 17 6 18 5 19 8 20 83 21 82 22 19 23 20 24 81 25
REMARK SMILES IDX 21 26 80 27 22 28 23 29 24 30 74 31 25 32 79 33 73 34 75 35
REMARK SMILES IDX 26 36 78 37 72 38 71 39 27 41 59 42 39 43 58 44 40 45 43 46
REMARK SMILES IDX 57 47 76 48 41 49 42 50 56 52 77 53 44 54 28 55 29 56 37 57
REMARK SMILES IDX 30 58 36 59 38 60 35 61 31 62 32 63 33 64 34 65 60 66 61 67
REMARK SMILES IDX 69 68 62 69 68 70 70 71 67 72 63 73 64 74 65 75 66 76 45 77
REMARK SMILES IDX 46 78 54 79 47 80 53 81 55 82 52 83 48 84 49 85 50 86 51 87
REMARK H PARENT 16 4 12 11 75 40 43 51
REMARK Flexibility Score: inf
ROOT
ATOM      1  N   UNL     1      -3.166  -5.414 -10.102  1.00  0.00    -0.352 N 
ATOM      2  C   UNL     1      -3.539  -6.464 -10.908  1.00  0.00     0.251 C 
ATOM      3  O   UNL     1      -2.804  -6.802 -11.833  1.00  0.00    -0.269 OA
ATOM      4  H   UNL     1      -2.405  -4.887 -10.437  1.00  0.00     0.163 HD
ENDROOT
BRANCH   1   5
ATOM      5  C   UNL     1      -3.717  -4.955  -8.830  1.00  0.00     0.118 C 
BRANCH   5   6
ATOM      6  C   UNL     1      -2.714  -5.076  -7.685  1.00  0.00     0.042 C 
BRANCH   6   7
ATOM      7  C   UNL     1      -1.536  -4.118  -7.818  1.00  0.00     0.118 C 
BRANCH   7   8
ATOM      8  N   UNL     1      -1.914  -2.750  -7.512  1.00  0.00    -0.352 N 
ATOM      9  C   UNL     1      -1.803  -1.940  -6.431  1.00  0.00     0.250 C 
ATOM     10  O   UNL     1      -2.252  -0.798  -6.575  1.00  0.00    -0.270 OA
ATOM     11  H   UNL     1      -2.358  -2.305  -8.270  1.00  0.00     0.163 HD
BRANCH   9  12
ATOM     12  C   UNL     1      -1.169  -2.341  -5.141  1.00  0.00     0.055 C 
ATOM     13  C   UNL     1       1.075   0.158   0.059  1.00  0.00     0.044 C 
ATOM     14  C   UNL     1       0.680  -0.930  -0.894  1.00  0.00    -0.050 A 
ATOM     15  C   UNL     1       0.960  -2.267  -0.584  1.00  0.00     0.007 A 
ATOM     16  C   UNL     1       0.046  -0.629  -2.108  1.00  0.00     0.015 A 
ATOM     17  C   UNL     1       0.588  -3.286  -1.460  1.00  0.00     0.047 A 
ATOM     18  C   UNL     1      -0.314  -1.650  -2.996  1.00  0.00     0.017 A 
ATOM     19  C   UNL     1      -0.046  -2.976  -2.662  1.00  0.00     0.127 A 
ATOM     20  C   UNL     1      -0.975  -1.347  -4.257  1.00  0.00     0.025 C 
ATOM     21  O   UNL     1      -0.414  -4.031  -3.445  1.00  0.00    -0.488 OA
ATOM     22  C   UNL     1      -0.752  -3.739  -4.813  1.00  0.00     0.271 C 
ENDBRANCH   9  12
ENDBRANCH   7   8
ENDBRANCH   6   7
ENDBRANCH   5   6
ENDBRANCH   1   5
BRANCH   2  23
ATOM     23  C   UNL     1      -4.798  -7.197 -10.650  1.00  0.00     0.039 A 
ATOM     24  C   UNL     1      -5.961  -6.513 -10.298  1.00  0.00     0.014 A 
ATOM     25  C   UNL     1      -4.816  -8.591 -10.765  1.00  0.00     0.014 A 
ATOM     26  C   UNL     1      -7.080  -7.224  -9.879  1.00  0.00     0.010 A 
ATOM     27  C   UNL     1      -5.975  -9.301 -10.436  1.00  0.00     0.010 A 
ATOM     28  C   UNL     1      -7.098  -8.627  -9.934  1.00  0.00    -0.014 A 
BRANCH  28  29
ATOM     29  C   UNL     1      -8.301  -9.358  -9.453  1.00  0.00     0.031 A 
ATOM     30  C   UNL     1      -8.223 -10.260  -8.251  1.00  0.00     0.074 A 
ATOM     31  C   UNL     1      -9.485  -9.145 -10.060  1.00  0.00     0.049 A 
ATOM     32  N   UNL     1      -9.182 -10.921  -7.654  1.00  0.00    -0.248 NA
ATOM     33  C   UNL     1      -6.898 -10.449  -7.638  1.00  0.00     0.031 C 
ATOM     34  C   UNL     1      -9.677  -8.284 -11.227  1.00  0.00     0.029 A 
ATOM     35  N   UNL     1     -10.747  -9.597  -9.768  1.00  0.00    -0.354 N 
ATOM     36  C   UNL     1      -8.579 -11.607  -6.606  1.00  0.00     0.074 A 
ATOM     37  C   UNL     1      -7.163 -11.322  -6.676  1.00  0.00     0.031 C 
ATOM     38  C   UNL     1     -10.984  -8.213 -11.508  1.00  0.00     0.029 A 
ATOM     39  C   UNL     1     -11.720  -9.079 -10.591  1.00  0.00     0.049 A 
ATOM     40  H   UNL     1     -10.938 -10.232  -9.040  1.00  0.00     0.167 HD
ATOM     41  C   UNL     1      -9.156 -12.387  -5.660  1.00  0.00     0.034 A 
ATOM     42  C   UNL     1     -13.055  -9.275 -10.611  1.00  0.00     0.034 A 
ATOM     43  C   UNL     1     -10.571 -12.656  -5.599  1.00  0.00     0.049 A 
ATOM     44  C   UNL     1     -13.671 -10.175  -9.572  1.00  0.00     0.074 A 
ATOM     45  C   UNL     1     -11.255 -13.435  -4.682  1.00  0.00     0.029 A 
ATOM     46  N   UNL     1     -11.520 -12.153  -6.479  1.00  0.00    -0.354 N 
ATOM     47  N   UNL     1     -13.088 -10.800  -8.575  1.00  0.00    -0.248 NA
ATOM     48  C   UNL     1     -15.120 -10.400  -9.655  1.00  0.00     0.031 C 
ATOM     49  C   UNL     1     -12.604 -13.448  -5.039  1.00  0.00     0.029 A 
ATOM     50  C   UNL     1     -12.778 -12.620  -6.138  1.00  0.00     0.049 A 
ATOM     51  H   UNL     1     -11.326 -11.552  -7.235  1.00  0.00     0.167 HD
ATOM     52  C   UNL     1     -14.099 -11.480  -7.904  1.00  0.00     0.074 A 
ATOM     53  C   UNL     1     -15.335 -11.166  -8.592  1.00  0.00     0.031 C 
ATOM     54  C   UNL     1     -14.008 -12.295  -6.822  1.00  0.00     0.034 A 
BRANCH  41  55
ATOM     55  C   UNL     1      -8.274 -13.002  -4.600  1.00  0.00     0.023 A 
ATOM     56  C   UNL     1      -8.156 -14.401  -4.499  1.00  0.00     0.031 A 
ATOM     57  C   UNL     1      -7.632 -12.211  -3.630  1.00  0.00     0.131 A 
ATOM     58  C   UNL     1      -7.433 -14.965  -3.440  1.00  0.00     0.055 A 
ATOM     59  C   UNL     1      -6.880 -12.777  -2.599  1.00  0.00     0.041 A 
ATOM     60  F   UNL     1      -7.712 -10.871  -3.681  1.00  0.00    -0.206 F 
ATOM     61  C   UNL     1      -6.788 -14.161  -2.495  1.00  0.00     0.022 A 
BRANCH  58  62
ATOM     62  S   UNL     1      -7.349 -16.763  -3.210  1.00  0.00     0.124 S 
ATOM     63  O   UNL     1      -5.916 -17.014  -3.347  1.00  0.00    -0.237 OA
ATOM     64  O   UNL     1      -7.884 -16.925  -1.861  1.00  0.00    -0.237 OA
ATOM     65  O   UNL     1      -8.179 -17.294  -4.285  1.00  0.00    -0.744 OA
ENDBRANCH  58  62
ENDBRANCH  41  55
BRANCH  42  66
ATOM     66  C   UNL     1     -13.876  -8.545 -11.621  1.00  0.00     0.023 A 
ATOM     67  C   UNL     1     -13.659  -8.733 -12.999  1.00  0.00     0.031 A 
ATOM     68  C   UNL     1     -14.784  -7.550 -11.224  1.00  0.00     0.131 A 
ATOM     69  C   UNL     1     -14.271  -7.876 -13.923  1.00  0.00     0.055 A 
ATOM     70  C   UNL     1     -15.452  -6.750 -12.154  1.00  0.00     0.041 A 
ATOM     71  F   UNL     1     -15.015  -7.326  -9.922  1.00  0.00    -0.206 F 
ATOM     72  C   UNL     1     -15.179  -6.897 -13.511  1.00  0.00     0.022 A 
BRANCH  69  73
ATOM     73  S   UNL     1     -13.789  -7.904 -15.673  1.00  0.00     0.124 S 
ATOM     74  O   UNL     1     -15.062  -8.168 -16.336  1.00  0.00    -0.237 OA
ATOM     75  O   UNL     1     -13.250  -6.558 -15.853  1.00  0.00    -0.237 OA
ATOM     76  O   UNL     1     -12.806  -8.980 -15.743  1.00  0.00    -0.744 OA
ENDBRANCH  69  73
ENDBRANCH  42  66
BRANCH  54  77
ATOM     77  C   UNL     1     -15.271 -12.926  -6.287  1.00  0.00     0.023 A 
ATOM     78  C   UNL     1     -15.709 -12.627  -4.982  1.00  0.00     0.031 A 
ATOM     79  C   UNL     1     -15.945 -13.932  -7.000  1.00  0.00     0.131 A 
ATOM     80  C   UNL     1     -16.760 -13.357  -4.415  1.00  0.00     0.055 A 
ATOM     81  C   UNL     1     -17.023 -14.625  -6.448  1.00  0.00     0.041 A 
ATOM     82  F   UNL     1     -15.558 -14.261  -8.243  1.00  0.00    -0.206 F 
ATOM     83  C   UNL     1     -17.425 -14.349  -5.144  1.00  0.00     0.022 A 
BRANCH  80  84
ATOM     84  S   UNL     1     -17.244 -13.113  -2.683  1.00  0.00     0.124 S 
ATOM     85  O   UNL     1     -18.635 -12.686  -2.816  1.00  0.00    -0.237 OA
ATOM     86  O   UNL     1     -17.052 -14.446  -2.120  1.00  0.00    -0.237 OA
ATOM     87  O   UNL     1     -16.323 -12.089  -2.201  1.00  0.00    -0.744 OA
ENDBRANCH  80  84
ENDBRANCH  54  77
ENDBRANCH  28  29
ENDBRANCH   2  23
TORSDOF 13
