REMARK SMILES COCC[C@H]([NH3+])C(=O)N1CC(n2cc(C(=O)NCCCNC(=O)c3ccc(-c4c5nc(c(-c6cc(S(=O)(=O)[O-])ccc6F)c6ccc([nH]6)c(-c6cc(S(=O)(=O)[O-])ccc6F)c6nc(c(-c7cc(S(=O)(=O)[O-])ccc7F)c7ccc4[nH]7)C=C6)C=C5)cc3)nn2)C1
REMARK SMILES IDX 18 1 17 2 15 3 16 4 14 6 12 7 13 8 88 9 87 10 11 11 7 12
REMARK SMILES IDX 8 13 9 14 10 15 89 16 5 17 4 18 3 19 2 20 1 21 6 22 19 26
REMARK SMILES IDX 20 27 21 28 22 29 23 31 24 32 25 33 86 34 26 35 85 36 27 37
REMARK SMILES IDX 28 38 29 39 79 40 30 41 84 42 78 43 80 44 31 45 83 46 77 47
REMARK SMILES IDX 76 48 32 50 64 51 44 52 63 53 45 54 48 55 62 56 81 57 46 58
REMARK SMILES IDX 47 59 61 61 82 62 49 63 33 64 34 65 42 66 35 67 41 68 43 69
REMARK SMILES IDX 40 70 36 71 37 72 38 73 39 74 65 75 66 76 74 77 67 78 73 79
REMARK SMILES IDX 75 80 72 81 68 82 69 83 70 84 71 85 50 86 51 87 59 88 52 89
REMARK SMILES IDX 58 90 60 91 57 92 53 93 54 94 55 95 56 96
REMARK H PARENT 17 5 6 23 6 24 6 25 21 30 80 49 48 60
REMARK Flexibility Score: inf
ROOT
ATOM      1  C   UNL     1       0.362   3.075  10.147  1.00  0.00     0.118 C 
ENDROOT
BRANCH   1   2
ATOM      2  N   UNL     1       1.056   2.376  11.215  1.00  0.00    -0.351 N 
ATOM      3  C   UNL     1       1.781   1.201  11.198  1.00  0.00     0.273 C 
ATOM      4  O   UNL     1       2.438   0.921  12.191  1.00  0.00    -0.267 OA
ATOM      5  H   UNL     1       1.000   2.812  12.095  1.00  0.00     0.163 HD
BRANCH   3   6
ATOM      6  C   UNL     1       1.772   0.349  10.012  1.00  0.00     0.170 A 
ATOM      7  N   UNL     1       1.349  -0.697   8.161  1.00  0.00    -0.245 N 
ATOM      8  C   UNL     1       0.783   0.144   9.072  1.00  0.00     0.145 A 
ATOM      9  N   UNL     1       2.589  -1.045   8.519  1.00  0.00    -0.066 NA
ATOM     10  N   UNL     1       2.849  -0.445   9.674  1.00  0.00    -0.125 NA
BRANCH   7  11
ATOM     11  C   UNL     1       0.710  -1.052   6.938  1.00  0.00     0.148 C 
ATOM     12  C   UNL     1       0.774  -1.568   3.694  1.00  0.00     0.280 C 
ATOM     13  O   UNL     1       0.443  -2.717   3.388  1.00  0.00    -0.268 OA
ATOM     14  N   UNL     1       1.152  -1.268   4.970  1.00  0.00    -0.333 N 
ATOM     15  C   UNL     1       1.361  -2.161   6.107  1.00  0.00     0.149 C 
ATOM     16  C   UNL     1       1.129  -0.085   5.802  1.00  0.00     0.149 C 
BRANCH  12  17
ATOM     17  C   UNL     1       0.893  -0.486   2.599  1.00  0.00     0.273 C 
BRANCH  17  18
ATOM     18  C   UNL     1       2.373  -0.266   2.238  1.00  0.00     0.104 C 
BRANCH  18  19
ATOM     19  C   UNL     1       2.845  -1.206   1.122  1.00  0.00     0.166 C 
BRANCH  19  20
ATOM     20  O   UNL     1       2.716  -0.629  -0.180  1.00  0.00    -0.384 OA
ATOM     21  C   UNL     1       1.379  -0.535  -0.650  1.00  0.00     0.194 C 
ENDBRANCH  19  20
ENDBRANCH  18  19
ENDBRANCH  17  18
BRANCH  17  22
ATOM     22  N   UNL     1       0.244   0.789   2.946  1.00  0.00    -0.347 N 
ATOM     23  H   UNL     1       0.708   1.196   3.758  1.00  0.00     0.345 HD
ATOM     24  H   UNL     1      -0.738   0.622   3.164  1.00  0.00     0.345 HD
ATOM     25  H   UNL     1       0.313   1.432   2.157  1.00  0.00     0.345 HD
ENDBRANCH  17  22
ENDBRANCH  12  17
ENDBRANCH   7  11
ENDBRANCH   3   6
ENDBRANCH   1   2
BRANCH   1  26
ATOM     26  C   UNL     1      -1.156   2.877  10.208  1.00  0.00     0.042 C 
BRANCH  26  27
ATOM     27  C   UNL     1      -1.827   3.834  11.185  1.00  0.00     0.118 C 
BRANCH  27  28
ATOM     28  N   UNL     1      -1.796   5.213  10.703  1.00  0.00    -0.352 N 
ATOM     29  C   UNL     1      -2.228   6.362  11.332  1.00  0.00     0.251 C 
ATOM     30  H   UNL     1      -1.413   5.340   9.805  1.00  0.00     0.163 HD
ATOM     31  O   UNL     1      -2.461   7.365  10.666  1.00  0.00    -0.269 OA
BRANCH  29  32
ATOM     32  C   UNL     1      -2.422   6.366  12.794  1.00  0.00     0.039 A 
ATOM     33  C   UNL     1      -3.514   7.029  13.363  1.00  0.00     0.014 A 
ATOM     34  C   UNL     1      -1.507   5.690  13.599  1.00  0.00     0.014 A 
ATOM     35  C   UNL     1      -3.730   6.926  14.736  1.00  0.00     0.010 A 
ATOM     36  C   UNL     1      -1.781   5.496  14.934  1.00  0.00     0.010 A 
ATOM     37  C   UNL     1      -2.874   6.133  15.516  1.00  0.00    -0.014 A 
BRANCH  37  38
ATOM     38  C   UNL     1      -3.226   5.797  16.899  1.00  0.00     0.031 A 
ATOM     39  C   UNL     1      -4.547   5.117  17.033  1.00  0.00     0.074 A 
ATOM     40  C   UNL     1      -2.334   5.817  17.914  1.00  0.00     0.049 A 
ATOM     41  N   UNL     1      -5.611   5.538  17.632  1.00  0.00    -0.248 NA
ATOM     42  C   UNL     1      -4.764   3.888  16.247  1.00  0.00     0.031 C 
ATOM     43  C   UNL     1      -0.908   6.150  17.834  1.00  0.00     0.029 A 
ATOM     44  N   UNL     1      -2.471   5.407  19.208  1.00  0.00    -0.354 N 
ATOM     45  C   UNL     1      -6.543   4.506  17.525  1.00  0.00     0.074 A 
ATOM     46  C   UNL     1      -6.059   3.663  16.469  1.00  0.00     0.031 C 
ATOM     47  C   UNL     1      -0.275   5.696  18.936  1.00  0.00     0.029 A 
ATOM     48  C   UNL     1      -1.262   5.182  19.869  1.00  0.00     0.049 A 
ATOM     49  H   UNL     1      -3.347   5.279  19.638  1.00  0.00     0.167 HD
ATOM     50  C   UNL     1      -7.466   4.285  18.506  1.00  0.00     0.034 A 
ATOM     51  C   UNL     1      -1.071   4.578  21.075  1.00  0.00     0.034 A 
ATOM     52  C   UNL     1      -7.574   5.449  19.366  1.00  0.00     0.049 A 
ATOM     53  C   UNL     1      -2.366   4.644  21.794  1.00  0.00     0.074 A 
ATOM     54  C   UNL     1      -7.866   6.785  19.157  1.00  0.00     0.029 A 
ATOM     55  N   UNL     1      -6.974   5.400  20.608  1.00  0.00    -0.354 N 
ATOM     56  N   UNL     1      -2.922   5.763  22.171  1.00  0.00    -0.248 NA
ATOM     57  C   UNL     1      -3.275   3.514  21.673  1.00  0.00     0.031 C 
ATOM     58  C   UNL     1      -6.988   7.497  20.028  1.00  0.00     0.029 A 
ATOM     59  C   UNL     1      -6.280   6.568  20.793  1.00  0.00     0.049 A 
ATOM     60  H   UNL     1      -7.034   4.655  21.250  1.00  0.00     0.167 HD
ATOM     61  C   UNL     1      -4.272   5.600  21.901  1.00  0.00     0.074 A 
ATOM     62  C   UNL     1      -4.444   4.161  21.705  1.00  0.00     0.031 C 
ATOM     63  C   UNL     1      -5.060   6.669  21.573  1.00  0.00     0.034 A 
BRANCH  50  64
ATOM     64  C   UNL     1      -7.928   2.902  18.962  1.00  0.00     0.023 A 
ATOM     65  C   UNL     1      -8.664   2.858  20.162  1.00  0.00     0.031 A 
ATOM     66  C   UNL     1      -7.461   1.650  18.505  1.00  0.00     0.131 A 
ATOM     67  C   UNL     1      -8.716   1.693  20.944  1.00  0.00     0.055 A 
ATOM     68  C   UNL     1      -7.572   0.473  19.256  1.00  0.00     0.041 A 
ATOM     69  F   UNL     1      -6.831   1.480  17.340  1.00  0.00    -0.206 F 
ATOM     70  C   UNL     1      -8.157   0.499  20.509  1.00  0.00     0.022 A 
BRANCH  67  71
ATOM     71  S   UNL     1      -9.332   1.845  22.638  1.00  0.00     0.124 S 
ATOM     72  O   UNL     1      -8.483   2.918  23.146  1.00  0.00    -0.237 OA
ATOM     73  O   UNL     1     -10.734   2.181  22.414  1.00  0.00    -0.237 OA
ATOM     74  O   UNL     1      -9.087   0.523  23.206  1.00  0.00    -0.744 OA
ENDBRANCH  67  71
ENDBRANCH  50  64
BRANCH  51  75
ATOM     75  C   UNL     1       0.068   3.710  21.500  1.00  0.00     0.023 A 
ATOM     76  C   UNL     1       0.350   3.412  22.853  1.00  0.00     0.031 A 
ATOM     77  C   UNL     1       0.770   2.953  20.533  1.00  0.00     0.131 A 
ATOM     78  C   UNL     1       1.291   2.405  23.185  1.00  0.00     0.055 A 
ATOM     79  C   UNL     1       1.701   1.966  20.866  1.00  0.00     0.041 A 
ATOM     80  F   UNL     1       0.512   3.088  19.223  1.00  0.00    -0.206 F 
ATOM     81  C   UNL     1       1.958   1.680  22.196  1.00  0.00     0.022 A 
BRANCH  78  82
ATOM     82  S   UNL     1       1.599   1.949  24.926  1.00  0.00     0.124 S 
ATOM     83  O   UNL     1       2.294   3.124  25.437  1.00  0.00    -0.237 OA
ATOM     84  O   UNL     1       0.253   1.717  25.434  1.00  0.00    -0.237 OA
ATOM     85  O   UNL     1       2.427   0.745  24.822  1.00  0.00    -0.744 OA
ENDBRANCH  78  82
ENDBRANCH  51  75
BRANCH  63  86
ATOM     86  C   UNL     1      -4.546   8.067  21.860  1.00  0.00     0.023 A 
ATOM     87  C   UNL     1      -3.339   8.614  21.366  1.00  0.00     0.031 A 
ATOM     88  C   UNL     1      -5.396   8.919  22.588  1.00  0.00     0.131 A 
ATOM     89  C   UNL     1      -3.024   9.966  21.617  1.00  0.00     0.055 A 
ATOM     90  C   UNL     1      -5.092  10.260  22.814  1.00  0.00     0.041 A 
ATOM     91  F   UNL     1      -6.569   8.468  23.064  1.00  0.00    -0.206 F 
ATOM     92  C   UNL     1      -3.900  10.787  22.334  1.00  0.00     0.022 A 
BRANCH  89  93
ATOM     93  S   UNL     1      -1.454  10.684  21.033  1.00  0.00     0.124 S 
ATOM     94  O   UNL     1      -0.457   9.693  21.419  1.00  0.00    -0.237 OA
ATOM     95  O   UNL     1      -1.688  10.832  19.599  1.00  0.00    -0.237 OA
ATOM     96  O   UNL     1      -1.367  11.950  21.765  1.00  0.00    -0.744 OA
ENDBRANCH  89  93
ENDBRANCH  63  86
ENDBRANCH  37  38
ENDBRANCH  29  32
ENDBRANCH  27  28
ENDBRANCH  26  27
ENDBRANCH   1  26
TORSDOF 19
