REMARK SMILES O=C(NCCCNC(=O)c1ccc([C@H]2CCC[N@@H+](CCN3CCCC3=O)C2)cc1)c1ccc(-c2c3nc(c(-c4cc(S(=O)(=O)[O-])ccc4F)c4ccc([nH]4)c(-c4cc(S(=O)(=O)[O-])ccc4F)c4nc(c(-c5cc(S(=O)(=O)[O-])ccc5F)c5ccc2[nH]5)C=C4)C=C3)cc1
REMARK SMILES IDX 5 1 4 2 3 3 1 4 2 5 30 7 31 8 92 9 32 10 91 11 33 12 34 13
REMARK SMILES IDX 35 14 85 15 36 16 90 17 84 18 86 19 37 20 89 21 83 22 82 23
REMARK SMILES IDX 38 25 70 26 50 27 69 28 51 29 54 30 68 31 87 32 52 33 53 34
REMARK SMILES IDX 67 36 88 37 55 38 39 39 40 40 48 41 41 42 47 43 49 44 46 45
REMARK SMILES IDX 42 46 43 47 44 48 45 49 71 50 72 51 80 52 73 53 79 54 81 55
REMARK SMILES IDX 78 56 74 57 75 58 76 59 77 60 56 61 57 62 65 63 58 64 64 65
REMARK SMILES IDX 66 66 63 67 59 68 60 69 61 70 62 71 6 72 7 73 8 74 9 76
REMARK SMILES IDX 10 77 11 78 29 79 12 80 28 81 13 82 14 83 15 84 27 85 16 86
REMARK SMILES IDX 18 87 17 88 19 90 20 91 21 92 22 93 25 94 23 95 24 96 26 97
REMARK H PARENT 3 6 86 24 54 35 7 75 18 89
REMARK Flexibility Score: inf
ROOT
ATOM      1  C   UNL     1      12.135   8.139  11.605  1.00  0.00     0.042 C 
ENDROOT
BRANCH   1   2
ATOM      2  C   UNL     1      13.482   8.386  12.273  1.00  0.00     0.118 C 
BRANCH   2   3
ATOM      3  N   UNL     1      14.414   9.130  11.434  1.00  0.00    -0.352 N 
ATOM      4  O   UNL     1      15.667  10.867  10.744  1.00  0.00    -0.269 OA
ATOM      5  C   UNL     1      15.020  10.346  11.649  1.00  0.00     0.251 C 
ATOM      6  H   UNL     1      14.646   8.694  10.582  1.00  0.00     0.163 HD
BRANCH   5   7
ATOM      7  C   UNL     1      14.875  11.038  12.951  1.00  0.00     0.039 A 
ATOM      8  C   UNL     1      14.963  10.332  14.152  1.00  0.00     0.014 A 
ATOM      9  C   UNL     1      14.664  12.420  12.972  1.00  0.00     0.014 A 
ATOM     10  C   UNL     1      14.676  10.969  15.354  1.00  0.00     0.010 A 
ATOM     11  C   UNL     1      14.477  13.079  14.193  1.00  0.00     0.010 A 
ATOM     12  C   UNL     1      14.449  12.354  15.394  1.00  0.00    -0.014 A 
BRANCH  12  13
ATOM     13  C   UNL     1      14.250  13.020  16.709  1.00  0.00     0.031 A 
ATOM     14  C   UNL     1      12.959  13.716  17.045  1.00  0.00     0.074 A 
ATOM     15  C   UNL     1      15.246  12.967  17.616  1.00  0.00     0.049 A 
ATOM     16  N   UNL     1      12.621  14.342  18.145  1.00  0.00    -0.248 NA
ATOM     17  C   UNL     1      11.916  13.719  16.010  1.00  0.00     0.031 C 
ATOM     18  C   UNL     1      16.545  12.324  17.399  1.00  0.00     0.029 A 
ATOM     19  N   UNL     1      15.325  13.443  18.900  1.00  0.00    -0.354 N 
ATOM     20  C   UNL     1      11.334  14.825  17.933  1.00  0.00     0.074 A 
ATOM     21  C   UNL     1      10.969  14.451  16.582  1.00  0.00     0.031 C 
ATOM     22  C   UNL     1      17.270  12.405  18.523  1.00  0.00     0.029 A 
ATOM     23  C   UNL     1      16.527  13.175  19.512  1.00  0.00     0.049 A 
ATOM     24  H   UNL     1      14.591  13.929  19.341  1.00  0.00     0.167 HD
ATOM     25  C   UNL     1      10.533  15.509  18.789  1.00  0.00     0.034 A 
ATOM     26  C   UNL     1      16.997  13.534  20.723  1.00  0.00     0.034 A 
ATOM     27  C   UNL     1      10.921  15.877  20.133  1.00  0.00     0.049 A 
ATOM     28  C   UNL     1      16.111  14.341  21.631  1.00  0.00     0.074 A 
ATOM     29  C   UNL     1      10.176  16.538  21.095  1.00  0.00     0.029 A 
ATOM     30  N   UNL     1      12.166  15.630  20.702  1.00  0.00    -0.354 N 
ATOM     31  N   UNL     1      14.886  14.767  21.424  1.00  0.00    -0.248 NA
ATOM     32  C   UNL     1      16.667  14.711  22.937  1.00  0.00     0.031 C 
ATOM     33  C   UNL     1      10.993  16.763  22.209  1.00  0.00     0.029 A 
ATOM     34  C   UNL     1      12.221  16.163  21.983  1.00  0.00     0.049 A 
ATOM     35  H   UNL     1      12.902  15.148  20.260  1.00  0.00     0.167 HD
ATOM     36  C   UNL     1      14.518  15.438  22.586  1.00  0.00     0.074 A 
ATOM     37  C   UNL     1      15.643  15.339  23.495  1.00  0.00     0.031 C 
ATOM     38  C   UNL     1      13.355  16.076  22.875  1.00  0.00     0.034 A 
BRANCH  25  39
ATOM     39  C   UNL     1       9.178  15.949  18.281  1.00  0.00     0.023 A 
ATOM     40  C   UNL     1       8.193  15.024  17.888  1.00  0.00     0.031 A 
ATOM     41  C   UNL     1       8.870  17.317  18.172  1.00  0.00     0.131 A 
ATOM     42  C   UNL     1       6.983  15.477  17.339  1.00  0.00     0.055 A 
ATOM     43  C   UNL     1       7.631  17.762  17.704  1.00  0.00     0.041 A 
ATOM     44  F   UNL     1       9.774  18.250  18.509  1.00  0.00    -0.206 F 
ATOM     45  C   UNL     1       6.685  16.840  17.269  1.00  0.00     0.022 A 
BRANCH  42  46
ATOM     46  S   UNL     1       5.868  14.265  16.578  1.00  0.00     0.124 S 
ATOM     47  O   UNL     1       6.739  13.644  15.582  1.00  0.00    -0.237 OA
ATOM     48  O   UNL     1       5.492  13.426  17.709  1.00  0.00    -0.237 OA
ATOM     49  O   UNL     1       4.793  15.087  16.024  1.00  0.00    -0.744 OA
ENDBRANCH  42  46
ENDBRANCH  25  39
BRANCH  26  50
ATOM     50  C   UNL     1      18.387  13.171  21.122  1.00  0.00     0.023 A 
ATOM     51  C   UNL     1      18.635  12.334  22.220  1.00  0.00     0.031 A 
ATOM     52  C   UNL     1      19.495  13.683  20.420  1.00  0.00     0.131 A 
ATOM     53  C   UNL     1      19.957  12.068  22.610  1.00  0.00     0.055 A 
ATOM     54  C   UNL     1      20.806  13.365  20.773  1.00  0.00     0.041 A 
ATOM     55  F   UNL     1      19.314  14.488  19.360  1.00  0.00    -0.206 F 
ATOM     56  C   UNL     1      21.043  12.563  21.884  1.00  0.00     0.022 A 
BRANCH  53  57
ATOM     57  S   UNL     1      20.238  11.136  24.139  1.00  0.00     0.124 S 
ATOM     58  O   UNL     1      19.537  11.956  25.120  1.00  0.00    -0.237 OA
ATOM     59  O   UNL     1      19.628   9.848  23.825  1.00  0.00    -0.237 OA
ATOM     60  O   UNL     1      21.694  11.120  24.265  1.00  0.00    -0.744 OA
ENDBRANCH  53  57
ENDBRANCH  26  50
BRANCH  38  61
ATOM     61  C   UNL     1      13.234  16.680  24.254  1.00  0.00     0.023 A 
ATOM     62  C   UNL     1      14.042  17.754  24.667  1.00  0.00     0.031 A 
ATOM     63  C   UNL     1      12.310  16.156  25.176  1.00  0.00     0.131 A 
ATOM     64  C   UNL     1      13.955  18.229  25.985  1.00  0.00     0.055 A 
ATOM     65  C   UNL     1      12.181  16.677  26.464  1.00  0.00     0.041 A 
ATOM     66  F   UNL     1      11.517  15.127  24.839  1.00  0.00    -0.206 F 
ATOM     67  C   UNL     1      13.016  17.709  26.880  1.00  0.00     0.022 A 
BRANCH  64  68
ATOM     68  S   UNL     1      15.157  19.465  26.548  1.00  0.00     0.124 S 
ATOM     69  O   UNL     1      16.425  18.778  26.324  1.00  0.00    -0.237 OA
ATOM     70  O   UNL     1      14.879  20.594  25.666  1.00  0.00    -0.237 OA
ATOM     71  O   UNL     1      14.804  19.673  27.951  1.00  0.00    -0.744 OA
ENDBRANCH  64  68
ENDBRANCH  38  61
ENDBRANCH  12  13
ENDBRANCH   5   7
ENDBRANCH   2   3
ENDBRANCH   1   2
BRANCH   1  72
ATOM     72  C   UNL     1      12.188   7.229  10.384  1.00  0.00     0.118 C 
BRANCH  72  73
ATOM     73  N   UNL     1      12.698   5.902  10.699  1.00  0.00    -0.352 N 
ATOM     74  C   UNL     1      12.063   4.684  10.687  1.00  0.00     0.251 C 
ATOM     75  H   UNL     1      13.647   5.873  10.962  1.00  0.00     0.163 HD
ATOM     76  O   UNL     1      12.609   3.699  11.173  1.00  0.00    -0.269 OA
BRANCH  74  77
ATOM     77  C   UNL     1      10.723   4.553  10.084  1.00  0.00     0.039 A 
ATOM     78  C   UNL     1       9.704   3.920  10.795  1.00  0.00     0.014 A 
ATOM     79  C   UNL     1      10.488   5.000   8.787  1.00  0.00     0.014 A 
ATOM     80  C   UNL     1       8.414   3.851  10.255  1.00  0.00     0.005 A 
ATOM     81  C   UNL     1       9.202   4.920   8.252  1.00  0.00     0.005 A 
ATOM     82  C   UNL     1       8.122   4.415   9.001  1.00  0.00    -0.039 A 
BRANCH  82  83
ATOM     83  C   UNL     1       6.673   4.483   8.485  1.00  0.00     0.074 C 
ATOM     84  C   UNL     1       5.700   4.957   9.585  1.00  0.00     0.020 C 
ATOM     85  C   UNL     1       6.533   5.428   7.265  1.00  0.00     0.270 C 
ATOM     86  C   UNL     1       4.300   5.217   9.034  1.00  0.00     0.062 C 
ATOM     87  N   UNL     1       5.171   5.698   6.798  1.00  0.00    -0.333 N 
ATOM     88  C   UNL     1       4.327   6.211   7.873  1.00  0.00     0.262 C 
ATOM     89  H   UNL     1       4.752   4.811   6.517  1.00  0.00     0.348 HD
BRANCH  87  90
ATOM     90  C   UNL     1       5.169   6.547   5.584  1.00  0.00     0.284 C 
BRANCH  90  91
ATOM     91  C   UNL     1       5.631   8.033   5.632  1.00  0.00     0.180 C 
BRANCH  91  92
ATOM     92  N   UNL     1       7.033   8.324   5.923  1.00  0.00    -0.337 N 
ATOM     93  C   UNL     1       7.419   9.565   6.559  1.00  0.00     0.120 C 
ATOM     94  C   UNL     1       8.143   7.589   5.525  1.00  0.00     0.222 C 
ATOM     95  C   UNL     1       8.923   9.645   6.352  1.00  0.00     0.031 C 
ATOM     96  C   UNL     1       9.338   8.193   6.223  1.00  0.00     0.102 C 
ATOM     97  O   UNL     1       8.173   6.595   4.829  1.00  0.00    -0.275 OA
ENDBRANCH  91  92
ENDBRANCH  90  91
ENDBRANCH  87  90
ENDBRANCH  82  83
ENDBRANCH  74  77
ENDBRANCH  72  73
ENDBRANCH   1  72
TORSDOF 17
