REMARK SMILES CCC[NH2+][C@]1(C(=O)NCCCNC(=O)c2ccc(-c3c4nc(c(-c5cc(S(=O)(=O)[O-])ccc5F)c5ccc([nH]5)c(-c5cc(S(=O)(=O)[O-])ccc5F)c5nc(c(-c6cc(S(=O)(=O)[O-])ccc6F)c6ccc3[nH]6)C=C5)C=C4)cc2)CCC[C@H](n2ccc(C)n2)C1
REMARK SMILES IDX 10 1 9 2 8 3 6 4 7 5 5 7 78 8 88 9 79 10 81 11 80 12 4 13
REMARK SMILES IDX 3 16 2 17 1 18 82 19 83 20 87 21 84 22 85 23 86 24 11 25
REMARK SMILES IDX 12 26 13 27 14 29 15 30 16 31 77 32 17 33 76 34 18 35 19 36
REMARK SMILES IDX 20 37 70 38 21 39 75 40 69 41 71 42 22 43 74 44 68 45 67 46
REMARK SMILES IDX 23 48 55 49 35 50 54 51 36 52 39 53 53 54 72 55 37 56 38 57
REMARK SMILES IDX 52 59 73 60 40 61 24 62 25 63 33 64 26 65 32 66 34 67 31 68
REMARK SMILES IDX 27 69 28 70 29 71 30 72 56 73 57 74 65 75 58 76 64 77 66 78
REMARK SMILES IDX 63 79 59 80 60 81 61 82 62 83 41 84 42 85 50 86 43 87 49 88
REMARK SMILES IDX 51 89 48 90 44 91 45 92 46 93 47 94
REMARK H PARENT 8 6 4 14 4 15 12 28 71 47 39 58
REMARK Flexibility Score: inf
ROOT
ATOM      1  C   UNL     1      -2.585   1.285   3.889  1.00  0.00     0.042 C 
ENDROOT
BRANCH   1   2
ATOM      2  C   UNL     1      -2.205  -0.195   3.796  1.00  0.00     0.118 C 
BRANCH   2   3
ATOM      3  N   UNL     1      -1.185  -0.432   2.794  1.00  0.00    -0.351 N 
ATOM      4  C   UNL     1       0.162  -0.616   2.800  1.00  0.00     0.281 C 
ATOM      5  O   UNL     1       0.595  -0.806   1.656  1.00  0.00    -0.268 OA
ATOM      6  H   UNL     1      -1.561  -0.469   1.885  1.00  0.00     0.163 HD
BRANCH   4   7
ATOM      7  C   UNL     1       1.047  -0.744   4.117  1.00  0.00     0.177 C 
ATOM      8  C   UNL     1       0.731   0.385   5.133  1.00  0.00     0.079 C 
ATOM      9  C   UNL     1       0.780  -2.171   4.690  1.00  0.00     0.106 C 
ATOM     10  C   UNL     1       1.071   0.084   6.589  1.00  0.00     0.009 C 
ATOM     11  C   UNL     1       1.050  -2.399   6.197  1.00  0.00     0.114 C 
ATOM     12  C   UNL     1       0.466  -1.246   7.018  1.00  0.00     0.028 C 
BRANCH   7  13
ATOM     13  N   UNL     1       2.519  -0.573   3.900  1.00  0.00    -0.334 N 
ATOM     14  H   UNL     1       2.773   0.336   4.287  1.00  0.00     0.347 HD
ATOM     15  H   UNL     1       2.926  -1.394   4.347  1.00  0.00     0.347 HD
BRANCH  13  16
ATOM     16  C   UNL     1       3.050  -0.621   2.543  1.00  0.00     0.261 C 
BRANCH  16  17
ATOM     17  C   UNL     1       4.583  -0.623   2.527  1.00  0.00     0.058 C 
ATOM     18  C   UNL     1       5.153  -2.034   2.517  1.00  0.00     0.010 C 
ENDBRANCH  16  17
ENDBRANCH  13  16
ENDBRANCH   7  13
BRANCH  11  19
ATOM     19  N   UNL     1       2.432  -2.667   6.598  1.00  0.00    -0.269 N 
ATOM     20  C   UNL     1       2.835  -3.085   7.841  1.00  0.00     0.109 A 
ATOM     21  N   UNL     1       3.469  -2.417   5.780  1.00  0.00    -0.178 NA
ATOM     22  C   UNL     1       4.206  -2.996   7.852  1.00  0.00     0.045 A 
ATOM     23  C   UNL     1       4.551  -2.562   6.555  1.00  0.00     0.059 A 
ATOM     24  C   UNL     1       5.902  -2.268   6.022  1.00  0.00     0.069 C 
ENDBRANCH  11  19
ENDBRANCH   4   7
ENDBRANCH   2   3
ENDBRANCH   1   2
BRANCH   1  25
ATOM     25  C   UNL     1      -3.072   1.901   2.578  1.00  0.00     0.118 C 
BRANCH  25  26
ATOM     26  N   UNL     1      -4.296   1.286   2.092  1.00  0.00    -0.352 N 
ATOM     27  C   UNL     1      -5.530   1.838   1.862  1.00  0.00     0.251 C 
ATOM     28  H   UNL     1      -4.229   0.324   1.899  1.00  0.00     0.163 HD
ATOM     29  O   UNL     1      -6.485   1.087   1.652  1.00  0.00    -0.269 OA
BRANCH  27  30
ATOM     30  C   UNL     1      -5.731   3.305   1.884  1.00  0.00     0.039 A 
ATOM     31  C   UNL     1      -6.889   3.812   2.481  1.00  0.00     0.014 A 
ATOM     32  C   UNL     1      -4.819   4.179   1.285  1.00  0.00     0.014 A 
ATOM     33  C   UNL     1      -7.103   5.192   2.530  1.00  0.00     0.010 A 
ATOM     34  C   UNL     1      -5.000   5.559   1.393  1.00  0.00     0.010 A 
ATOM     35  C   UNL     1      -6.145   6.080   2.015  1.00  0.00    -0.014 A 
BRANCH  35  36
ATOM     36  C   UNL     1      -6.330   7.551   2.131  1.00  0.00     0.031 A 
ATOM     37  C   UNL     1      -6.513   8.399   0.901  1.00  0.00     0.074 A 
ATOM     38  C   UNL     1      -6.287   8.129   3.349  1.00  0.00     0.049 A 
ATOM     39  N   UNL     1      -6.652   9.697   0.803  1.00  0.00    -0.248 NA
ATOM     40  C   UNL     1      -6.511   7.696  -0.390  1.00  0.00     0.031 C 
ATOM     41  C   UNL     1      -6.069   7.418   4.611  1.00  0.00     0.029 A 
ATOM     42  N   UNL     1      -6.418   9.441   3.727  1.00  0.00    -0.354 N 
ATOM     43  C   UNL     1      -6.747   9.969  -0.558  1.00  0.00     0.074 A 
ATOM     44  C   UNL     1      -6.589   8.704  -1.246  1.00  0.00     0.031 C 
ATOM     45  C   UNL     1      -6.105   8.299   5.624  1.00  0.00     0.029 A 
ATOM     46  C   UNL     1      -6.310   9.639   5.084  1.00  0.00     0.049 A 
ATOM     47  H   UNL     1      -6.574  10.173   3.087  1.00  0.00     0.167 HD
ATOM     48  C   UNL     1      -6.964  11.158  -1.175  1.00  0.00     0.034 A 
ATOM     49  C   UNL     1      -6.363  10.772   5.812  1.00  0.00     0.034 A 
ATOM     50  C   UNL     1      -7.125  12.410  -0.473  1.00  0.00     0.049 A 
ATOM     51  C   UNL     1      -6.601  12.081   5.105  1.00  0.00     0.074 A 
ATOM     52  C   UNL     1      -7.400  13.663  -0.995  1.00  0.00     0.029 A 
ATOM     53  N   UNL     1      -7.018  12.571   0.903  1.00  0.00    -0.354 N 
ATOM     54  N   UNL     1      -6.742  12.313   3.820  1.00  0.00    -0.248 NA
ATOM     55  C   UNL     1      -6.704  13.277   5.949  1.00  0.00     0.031 C 
ATOM     56  C   UNL     1      -7.397  14.588   0.056  1.00  0.00     0.029 A 
ATOM     57  C   UNL     1      -7.194  13.905   1.244  1.00  0.00     0.049 A 
ATOM     58  H   UNL     1      -6.843  11.845   1.543  1.00  0.00     0.167 HD
ATOM     59  C   UNL     1      -6.976  13.680   3.707  1.00  0.00     0.074 A 
ATOM     60  C   UNL     1      -6.979  14.213   5.054  1.00  0.00     0.031 C 
ATOM     61  C   UNL     1      -7.175  14.427   2.590  1.00  0.00     0.034 A 
BRANCH  48  62
ATOM     62  C   UNL     1      -7.012  11.157  -2.686  1.00  0.00     0.023 A 
ATOM     63  C   UNL     1      -8.000  10.449  -3.393  1.00  0.00     0.031 A 
ATOM     64  C   UNL     1      -6.043  11.852  -3.431  1.00  0.00     0.131 A 
ATOM     65  C   UNL     1      -7.952  10.386  -4.794  1.00  0.00     0.055 A 
ATOM     66  C   UNL     1      -6.049  11.853  -4.828  1.00  0.00     0.041 A 
ATOM     67  F   UNL     1      -5.064  12.532  -2.814  1.00  0.00    -0.206 F 
ATOM     68  C   UNL     1      -6.997  11.104  -5.518  1.00  0.00     0.022 A 
BRANCH  65  69
ATOM     69  S   UNL     1      -9.067   9.239  -5.649  1.00  0.00     0.124 S 
ATOM     70  O   UNL     1      -8.685   7.960  -5.056  1.00  0.00    -0.237 OA
ATOM     71  O   UNL     1     -10.384   9.746  -5.282  1.00  0.00    -0.237 OA
ATOM     72  O   UNL     1      -8.708   9.397  -7.057  1.00  0.00    -0.744 OA
ENDBRANCH  65  69
ENDBRANCH  48  62
BRANCH  49  73
ATOM     73  C   UNL     1      -6.186  10.726   7.291  1.00  0.00     0.023 A 
ATOM     74  C   UNL     1      -7.238  11.066   8.156  1.00  0.00     0.031 A 
ATOM     75  C   UNL     1      -4.950  10.374   7.861  1.00  0.00     0.131 A 
ATOM     76  C   UNL     1      -7.022  11.091   9.543  1.00  0.00     0.055 A 
ATOM     77  C   UNL     1      -4.754  10.352   9.242  1.00  0.00     0.041 A 
ATOM     78  F   UNL     1      -3.914  10.032   7.078  1.00  0.00    -0.206 F 
ATOM     79  C   UNL     1      -5.791  10.725  10.092  1.00  0.00     0.022 A 
BRANCH  76  80
ATOM     80  S   UNL     1      -8.357  11.683  10.619  1.00  0.00     0.124 S 
ATOM     81  O   UNL     1      -8.589  13.024  10.095  1.00  0.00    -0.237 OA
ATOM     82  O   UNL     1      -9.408  10.703  10.363  1.00  0.00    -0.237 OA
ATOM     83  O   UNL     1      -7.768  11.626  11.954  1.00  0.00    -0.744 OA
ENDBRANCH  76  80
ENDBRANCH  49  73
BRANCH  61  84
ATOM     84  C   UNL     1      -7.449  15.898   2.797  1.00  0.00     0.023 A 
ATOM     85  C   UNL     1      -6.473  16.765   3.320  1.00  0.00     0.031 A 
ATOM     86  C   UNL     1      -8.716  16.430   2.501  1.00  0.00     0.131 A 
ATOM     87  C   UNL     1      -6.800  18.101   3.594  1.00  0.00     0.055 A 
ATOM     88  C   UNL     1      -9.016  17.776   2.716  1.00  0.00     0.041 A 
ATOM     89  F   UNL     1      -9.687  15.648   2.002  1.00  0.00    -0.206 F 
ATOM     90  C   UNL     1      -8.061  18.616   3.281  1.00  0.00     0.022 A 
BRANCH  87  91
ATOM     91  S   UNL     1      -5.590  19.133   4.468  1.00  0.00     0.124 S 
ATOM     92  O   UNL     1      -5.358  18.363   5.686  1.00  0.00    -0.237 OA
ATOM     93  O   UNL     1      -4.480  19.179   3.522  1.00  0.00    -0.237 OA
ATOM     94  O   UNL     1      -6.293  20.399   4.659  1.00  0.00    -0.744 OA
ENDBRANCH  87  91
ENDBRANCH  61  84
ENDBRANCH  35  36
ENDBRANCH  27  30
ENDBRANCH  25  26
ENDBRANCH   1  25
TORSDOF 17
