REMARK SMILES CS(=O)(=O)c1ccc(C2=NN(c3ccc(C(=O)NCCCNC(=O)c4ccc(-c5c6nc(c(-c7cc(S(=O)(=O)[O-])ccc7F)c7ccc([nH]7)c(-c7cc(S(=O)(=O)[O-])ccc7F)c7nc(c(-c8cc(S(=O)(=O)[O-])ccc8F)c8ccc5[nH]8)C=C7)C=C6)cc4)cc3)[C@H](c3cccs3)C2)cc1
REMARK SMILES IDX 20 1 19 2 18 3 16 4 17 5 15 7 12 8 13 9 89 10 14 11 88 12
REMARK SMILES IDX 11 13 9 14 10 15 96 16 90 17 8 18 5 19 6 20 98 21 7 22 97 23
REMARK SMILES IDX 2 24 1 25 3 26 4 27 91 28 92 29 95 30 93 31 94 32 21 33
REMARK SMILES IDX 22 34 23 35 24 37 25 38 26 39 87 40 27 41 86 42 28 43 29 44
REMARK SMILES IDX 30 45 80 46 31 47 85 48 79 49 81 50 32 51 84 52 78 53 77 54
REMARK SMILES IDX 33 56 65 57 45 58 64 59 46 60 49 61 63 62 82 63 47 64 48 65
REMARK SMILES IDX 62 67 83 68 50 69 34 70 35 71 43 72 36 73 42 74 44 75 41 76
REMARK SMILES IDX 37 77 38 78 39 79 40 80 66 81 67 82 75 83 68 84 74 85 76 86
REMARK SMILES IDX 73 87 69 88 70 89 71 90 72 91 51 92 52 93 60 94 53 95 59 96
REMARK SMILES IDX 61 97 58 98 54 99 55 100 56 101 57 102
REMARK H PARENT 18 6 22 36 81 55 49 66
REMARK Flexibility Score: inf
ROOT
ATOM      1  C   UNL     1       7.047   2.893  12.901  1.00  0.00     0.042 C 
ENDROOT
BRANCH   1   2
ATOM      2  C   UNL     1       6.992   4.346  12.431  1.00  0.00     0.118 C 
BRANCH   2   3
ATOM      3  N   UNL     1       8.016   4.620  11.436  1.00  0.00    -0.352 N 
ATOM      4  C   UNL     1       7.946   4.760  10.073  1.00  0.00     0.251 C 
ATOM      5  O   UNL     1       8.965   5.099   9.471  1.00  0.00    -0.269 OA
ATOM      6  H   UNL     1       8.922   4.724  11.807  1.00  0.00     0.163 HD
BRANCH   4   7
ATOM      7  C   UNL     1       6.678   4.582   9.316  1.00  0.00     0.039 A 
ATOM      8  C   UNL     1       4.278   4.417   7.843  1.00  0.00     0.060 A 
ATOM      9  C   UNL     1       5.310   5.262   7.426  1.00  0.00     0.029 A 
ATOM     10  C   UNL     1       4.492   3.607   8.959  1.00  0.00     0.029 A 
ATOM     11  C   UNL     1       6.498   5.352   8.159  1.00  0.00     0.016 A 
ATOM     12  C   UNL     1       5.688   3.668   9.672  1.00  0.00     0.016 A 
BRANCH   8  13
ATOM     13  N   UNL     1       3.082   4.334   7.156  1.00  0.00    -0.257 N 
ATOM     14  C   UNL     1       1.909   4.050   5.422  1.00  0.00     0.071 C 
ATOM     15  N   UNL     1       3.062   3.765   5.933  1.00  0.00    -0.176 NA
ATOM     16  C   UNL     1       1.027   4.958   6.232  1.00  0.00     0.091 C 
ATOM     17  C   UNL     1       1.877   5.092   7.509  1.00  0.00     0.154 C 
BRANCH  14  18
ATOM     18  C   UNL     1       1.484   3.498   4.134  1.00  0.00    -0.002 A 
ATOM     19  C   UNL     1       0.793   2.369   1.695  1.00  0.00     0.067 A 
ATOM     20  C   UNL     1       1.217   1.541   2.736  1.00  0.00     0.021 A 
ATOM     21  C   UNL     1       0.721   3.760   1.870  1.00  0.00     0.021 A 
ATOM     22  C   UNL     1       1.576   2.112   3.956  1.00  0.00     0.011 A 
ATOM     23  C   UNL     1       1.057   4.328   3.100  1.00  0.00     0.011 A 
BRANCH  19  24
ATOM     24  S   UNL     1       0.354   1.714   0.103  1.00  0.00     0.175 S 
ATOM     25  C   UNL     1       1.071   0.100  -0.018  1.00  0.00     0.163 C 
ATOM     26  O   UNL     1       1.011   2.550  -0.883  1.00  0.00    -0.224 OA
ATOM     27  O   UNL     1      -1.090   1.564   0.112  1.00  0.00    -0.224 OA
ENDBRANCH  19  24
ENDBRANCH  14  18
BRANCH  17  28
ATOM     28  C   UNL     1       1.214   4.689   8.819  1.00  0.00     0.030 A 
ATOM     29  C   UNL     1       1.636   5.048  10.091  1.00  0.00     0.017 A 
ATOM     30  S   UNL     1      -0.153   3.656   8.915  1.00  0.00    -0.147 S 
ATOM     31  C   UNL     1       0.848   4.471  11.127  1.00  0.00     0.012 A 
ATOM     32  C   UNL     1      -0.179   3.711  10.621  1.00  0.00     0.065 A 
ENDBRANCH  17  28
ENDBRANCH   8  13
ENDBRANCH   4   7
ENDBRANCH   2   3
ENDBRANCH   1   2
BRANCH   1  33
ATOM     33  C   UNL     1       8.224   2.600  13.824  1.00  0.00     0.118 C 
BRANCH  33  34
ATOM     34  N   UNL     1       8.094   3.286  15.101  1.00  0.00    -0.352 N 
ATOM     35  C   UNL     1       8.031   2.779  16.374  1.00  0.00     0.251 C 
ATOM     36  H   UNL     1       8.043   4.268  15.041  1.00  0.00     0.163 HD
ATOM     37  O   UNL     1       7.662   3.512  17.288  1.00  0.00    -0.269 OA
BRANCH  35  38
ATOM     38  C   UNL     1       8.387   1.368  16.646  1.00  0.00     0.039 A 
ATOM     39  C   UNL     1       7.643   0.660  17.594  1.00  0.00     0.014 A 
ATOM     40  C   UNL     1       9.469   0.753  16.009  1.00  0.00     0.014 A 
ATOM     41  C   UNL     1       7.949  -0.677  17.859  1.00  0.00     0.010 A 
ATOM     42  C   UNL     1       9.722  -0.601  16.216  1.00  0.00     0.010 A 
ATOM     43  C   UNL     1       8.967  -1.330  17.146  1.00  0.00    -0.014 A 
BRANCH  43  44
ATOM     44  C   UNL     1       9.242  -2.776  17.359  1.00  0.00     0.031 A 
ATOM     45  C   UNL     1      10.571  -3.228  17.901  1.00  0.00     0.074 A 
ATOM     46  C   UNL     1       8.306  -3.683  17.015  1.00  0.00     0.049 A 
ATOM     47  N   UNL     1      11.009  -4.444  18.110  1.00  0.00    -0.248 NA
ATOM     48  C   UNL     1      11.546  -2.176  18.225  1.00  0.00     0.031 C 
ATOM     49  C   UNL     1       6.996  -3.364  16.441  1.00  0.00     0.029 A 
ATOM     50  N   UNL     1       8.308  -5.053  17.091  1.00  0.00    -0.354 N 
ATOM     51  C   UNL     1      12.310  -4.305  18.581  1.00  0.00     0.074 A 
ATOM     52  C   UNL     1      12.609  -2.888  18.566  1.00  0.00     0.031 C 
ATOM     53  C   UNL     1       6.312  -4.502  16.248  1.00  0.00     0.029 A 
ATOM     54  C   UNL     1       7.149  -5.634  16.632  1.00  0.00     0.049 A 
ATOM     55  H   UNL     1       9.068  -5.571  17.441  1.00  0.00     0.167 HD
ATOM     56  C   UNL     1      13.166  -5.267  19.008  1.00  0.00     0.034 A 
ATOM     57  C   UNL     1       6.802  -6.932  16.519  1.00  0.00     0.034 A 
ATOM     58  C   UNL     1      12.847  -6.676  19.017  1.00  0.00     0.049 A 
ATOM     59  C   UNL     1       7.783  -7.985  16.968  1.00  0.00     0.074 A 
ATOM     60  C   UNL     1      13.617  -7.731  19.474  1.00  0.00     0.029 A 
ATOM     61  N   UNL     1      11.667  -7.229  18.533  1.00  0.00    -0.354 N 
ATOM     62  N   UNL     1       8.989  -7.833  17.465  1.00  0.00    -0.248 NA
ATOM     63  C   UNL     1       7.351  -9.383  16.852  1.00  0.00     0.031 C 
ATOM     64  C   UNL     1      12.940  -8.923  19.196  1.00  0.00     0.029 A 
ATOM     65  C   UNL     1      11.706  -8.611  18.647  1.00  0.00     0.049 A 
ATOM     66  H   UNL     1      10.913  -6.715  18.163  1.00  0.00     0.167 HD
ATOM     67  C   UNL     1       9.446  -9.117  17.750  1.00  0.00     0.074 A 
ATOM     68  C   UNL     1       8.377 -10.025  17.387  1.00  0.00     0.031 C 
ATOM     69  C   UNL     1      10.639  -9.510  18.267  1.00  0.00     0.034 A 
BRANCH  56  70
ATOM     70  C   UNL     1      14.537  -4.828  19.471  1.00  0.00     0.023 A 
ATOM     71  C   UNL     1      14.707  -3.969  20.571  1.00  0.00     0.031 A 
ATOM     72  C   UNL     1      15.691  -5.256  18.790  1.00  0.00     0.131 A 
ATOM     73  C   UNL     1      15.988  -3.505  20.909  1.00  0.00     0.055 A 
ATOM     74  C   UNL     1      16.970  -4.860  19.185  1.00  0.00     0.041 A 
ATOM     75  F   UNL     1      15.594  -6.059  17.718  1.00  0.00    -0.206 F 
ATOM     76  C   UNL     1      17.124  -3.966  20.241  1.00  0.00     0.022 A 
BRANCH  73  77
ATOM     77  S   UNL     1      16.132  -2.175  22.134  1.00  0.00     0.124 S 
ATOM     78  O   UNL     1      15.317  -1.125  21.526  1.00  0.00    -0.237 OA
ATOM     79  O   UNL     1      15.585  -2.792  23.336  1.00  0.00    -0.237 OA
ATOM     80  O   UNL     1      17.566  -1.897  22.171  1.00  0.00    -0.744 OA
ENDBRANCH  73  77
ENDBRANCH  56  70
BRANCH  57  81
ATOM     81  C   UNL     1       5.478  -7.313  15.949  1.00  0.00     0.023 A 
ATOM     82  C   UNL     1       4.524  -7.995  16.722  1.00  0.00     0.031 A 
ATOM     83  C   UNL     1       5.160  -7.036  14.607  1.00  0.00     0.131 A 
ATOM     84  C   UNL     1       3.322  -8.419  16.136  1.00  0.00     0.055 A 
ATOM     85  C   UNL     1       3.938  -7.407  14.045  1.00  0.00     0.041 A 
ATOM     86  F   UNL     1       6.033  -6.383  13.823  1.00  0.00    -0.206 F 
ATOM     87  C   UNL     1       3.015  -8.117  14.807  1.00  0.00     0.022 A 
BRANCH  84  88
ATOM     88  S   UNL     1       2.199  -9.457  17.112  1.00  0.00     0.124 S 
ATOM     89  O   UNL     1       3.057 -10.585  17.452  1.00  0.00    -0.237 OA
ATOM     90  O   UNL     1       1.843  -8.566  18.212  1.00  0.00    -0.237 OA
ATOM     91  O   UNL     1       1.114  -9.755  16.179  1.00  0.00    -0.744 OA
ENDBRANCH  84  88
ENDBRANCH  57  81
BRANCH  69  92
ATOM     92  C   UNL     1      10.827 -10.989  18.510  1.00  0.00     0.023 A 
ATOM     93  C   UNL     1      10.853 -11.917  17.454  1.00  0.00     0.031 A 
ATOM     94  C   UNL     1      10.960 -11.479  19.822  1.00  0.00     0.131 A 
ATOM     95  C   UNL     1      10.942 -13.290  17.731  1.00  0.00     0.055 A 
ATOM     96  C   UNL     1      11.120 -12.839  20.087  1.00  0.00     0.041 A 
ATOM     97  F   UNL     1      10.937 -10.640  20.870  1.00  0.00    -0.206 F 
ATOM     98  C   UNL     1      11.095 -13.755  19.039  1.00  0.00     0.022 A 
BRANCH  95  99
ATOM     99  S   UNL     1      10.740 -14.468  16.367  1.00  0.00     0.124 S 
ATOM    100  O   UNL     1       9.425 -14.107  15.847  1.00  0.00    -0.237 OA
ATOM    101  O   UNL     1      11.875 -14.148  15.507  1.00  0.00    -0.237 OA
ATOM    102  O   UNL     1      10.810 -15.771  17.026  1.00  0.00    -0.744 OA
ENDBRANCH  95  99
ENDBRANCH  69  92
ENDBRANCH  43  44
ENDBRANCH  35  38
ENDBRANCH  33  34
ENDBRANCH   1  33
TORSDOF 17
