REMARK SMILES N#C[C@H]1CN(C(=O)c2csc(/C=C/C(=O)NCCCNC(=O)c3ccc(-c4c5nc(c(-c6cc(S(=O)(=O)[O-])ccc6F)c6ccc([nH]6)c(-c6cc(S(=O)(=O)[O-])ccc6F)c6nc(c(-c7cc(S(=O)(=O)[O-])ccc7F)c7ccc4[nH]7)C=C6)C=C5)cc3)c2)CCO1
REMARK SMILES IDX 17 1 16 2 14 3 15 4 13 6 12 7 11 8 8 9 9 10 86 11 10 12 6 13
REMARK SMILES IDX 7 14 5 15 3 16 4 17 89 18 88 19 87 20 2 21 1 22 18 23 19 24
REMARK SMILES IDX 20 25 21 26 22 28 23 29 24 30 85 31 25 32 84 33 26 34 27 35
REMARK SMILES IDX 28 36 78 37 29 38 83 39 77 40 79 41 30 42 82 43 76 44 75 45
REMARK SMILES IDX 31 47 63 48 43 49 62 50 44 51 47 52 61 53 80 54 45 55 46 56
REMARK SMILES IDX 60 58 81 59 48 60 32 61 33 62 41 63 34 64 40 65 42 66 39 67
REMARK SMILES IDX 35 68 36 69 37 70 38 71 64 72 65 73 73 74 66 75 72 76 74 77
REMARK SMILES IDX 71 78 67 79 68 80 69 81 70 82 49 83 50 84 58 85 51 86 57 87
REMARK SMILES IDX 59 88 56 89 52 90 53 91 54 92 55 93
REMARK H PARENT 16 5 20 27 79 46 47 57
REMARK Flexibility Score: inf
ROOT
ATOM      1  C   UNL     1      -2.858   5.581  -2.270  1.00  0.00     0.118 C 
ENDROOT
BRANCH   1   2
ATOM      2  N   UNL     1      -2.427   6.772  -1.558  1.00  0.00    -0.352 N 
ATOM      3  C   UNL     1      -1.193   7.251  -1.255  1.00  0.00     0.244 C 
ATOM      4  O   UNL     1      -1.098   8.342  -0.695  1.00  0.00    -0.270 OA
ATOM      5  H   UNL     1      -3.166   7.336  -1.236  1.00  0.00     0.163 HD
BRANCH   3   6
ATOM      6  C   UNL     1       0.046   6.550  -1.663  1.00  0.00     0.072 C 
ATOM      7  C   UNL     1       0.218   5.222  -1.677  1.00  0.00     0.024 C 
BRANCH   7   8
ATOM      8  C   UNL     1       1.404   4.571  -2.123  1.00  0.00     0.028 A 
ATOM      9  C   UNL     1       2.813   2.838  -2.874  1.00  0.00     0.051 A 
ATOM     10  C   UNL     1       3.719   3.855  -2.650  1.00  0.00     0.079 A 
ATOM     11  C   UNL     1       1.477   3.285  -2.632  1.00  0.00     0.033 A 
ATOM     12  S   UNL     1       2.971   5.274  -2.064  1.00  0.00    -0.144 S 
BRANCH   9  13
ATOM     13  C   UNL     1       3.165   1.498  -3.320  1.00  0.00     0.254 C 
ATOM     14  O   UNL     1       2.778   1.084  -4.408  1.00  0.00    -0.269 OA
BRANCH  13  15
ATOM     15  N   UNL     1       3.890   0.711  -2.433  1.00  0.00    -0.333 N 
ATOM     16  C   UNL     1       3.751  -0.027  -0.062  1.00  0.00     0.240 C 
ATOM     17  C   UNL     1       4.240   1.057  -1.044  1.00  0.00     0.167 C 
ATOM     18  O   UNL     1       4.232  -1.326  -0.474  1.00  0.00    -0.360 OA
ATOM     19  C   UNL     1       3.762  -1.656  -1.792  1.00  0.00     0.183 C 
ATOM     20  C   UNL     1       4.276  -0.646  -2.822  1.00  0.00     0.148 C 
BRANCH  16  21
ATOM     21  C   UNL     1       4.237   0.295   1.295  1.00  0.00     0.096 C 
ATOM     22  N   UNL     1       4.625   0.595   2.345  1.00  0.00    -0.195 NA
ENDBRANCH  16  21
ENDBRANCH  13  15
ENDBRANCH   9  13
ENDBRANCH   7   8
ENDBRANCH   3   6
ENDBRANCH   1   2
BRANCH   1  23
ATOM     23  C   UNL     1      -3.420   4.539  -1.303  1.00  0.00     0.042 C 
BRANCH  23  24
ATOM     24  C   UNL     1      -4.829   4.874  -0.824  1.00  0.00     0.118 C 
BRANCH  24  25
ATOM     25  N   UNL     1      -5.784   4.857  -1.923  1.00  0.00    -0.352 N 
ATOM     26  C   UNL     1      -6.901   4.089  -2.117  1.00  0.00     0.251 C 
ATOM     27  H   UNL     1      -5.596   5.502  -2.643  1.00  0.00     0.163 HD
ATOM     28  O   UNL     1      -7.385   4.027  -3.244  1.00  0.00    -0.269 OA
BRANCH  26  29
ATOM     29  C   UNL     1      -7.520   3.350  -0.995  1.00  0.00     0.039 A 
ATOM     30  C   UNL     1      -8.156   2.135  -1.262  1.00  0.00     0.014 A 
ATOM     31  C   UNL     1      -7.543   3.878   0.298  1.00  0.00     0.014 A 
ATOM     32  C   UNL     1      -8.796   1.448  -0.231  1.00  0.00     0.010 A 
ATOM     33  C   UNL     1      -8.091   3.143   1.344  1.00  0.00     0.010 A 
ATOM     34  C   UNL     1      -8.755   1.936   1.086  1.00  0.00    -0.014 A 
BRANCH  34  35
ATOM     35  C   UNL     1      -9.451   1.219   2.185  1.00  0.00     0.031 A 
ATOM     36  C   UNL     1     -10.579   1.889   2.926  1.00  0.00     0.074 A 
ATOM     37  C   UNL     1      -9.060  -0.026   2.520  1.00  0.00     0.049 A 
ATOM     38  N   UNL     1     -11.303   1.433   3.916  1.00  0.00    -0.248 NA
ATOM     39  C   UNL     1     -10.918   3.262   2.522  1.00  0.00     0.031 C 
ATOM     40  C   UNL     1      -7.958  -0.760   1.893  1.00  0.00     0.029 A 
ATOM     41  N   UNL     1      -9.546  -0.898   3.459  1.00  0.00    -0.354 N 
ATOM     42  C   UNL     1     -12.176   2.463   4.253  1.00  0.00     0.074 A 
ATOM     43  C   UNL     1     -11.835   3.592   3.417  1.00  0.00     0.031 C 
ATOM     44  C   UNL     1      -7.885  -1.987   2.431  1.00  0.00     0.029 A 
ATOM     45  C   UNL     1      -8.894  -2.110   3.479  1.00  0.00     0.049 A 
ATOM     46  H   UNL     1     -10.292  -0.679   4.063  1.00  0.00     0.167 HD
ATOM     47  C   UNL     1     -13.189   2.457   5.154  1.00  0.00     0.034 A 
ATOM     48  C   UNL     1      -9.083  -3.193   4.257  1.00  0.00     0.034 A 
ATOM     49  C   UNL     1     -13.515   1.318   5.978  1.00  0.00     0.049 A 
ATOM     50  C   UNL     1     -10.187  -3.160   5.284  1.00  0.00     0.074 A 
ATOM     51  C   UNL     1     -14.538   1.186   6.899  1.00  0.00     0.029 A 
ATOM     52  N   UNL     1     -12.815   0.117   5.989  1.00  0.00    -0.354 N 
ATOM     53  N   UNL     1     -11.032  -2.192   5.561  1.00  0.00    -0.248 NA
ATOM     54  C   UNL     1     -10.374  -4.372   6.089  1.00  0.00     0.031 C 
ATOM     55  C   UNL     1     -14.403  -0.054   7.530  1.00  0.00     0.029 A 
ATOM     56  C   UNL     1     -13.364  -0.745   6.925  1.00  0.00     0.049 A 
ATOM     57  H   UNL     1     -12.043  -0.091   5.415  1.00  0.00     0.167 HD
ATOM     58  C   UNL     1     -11.880  -2.700   6.543  1.00  0.00     0.074 A 
ATOM     59  C   UNL     1     -11.451  -4.060   6.795  1.00  0.00     0.031 C 
ATOM     60  C   UNL     1     -12.924  -2.099   7.173  1.00  0.00     0.034 A 
BRANCH  47  61
ATOM     61  C   UNL     1     -13.991   3.729   5.313  1.00  0.00     0.023 A 
ATOM     62  C   UNL     1     -14.717   4.286   4.245  1.00  0.00     0.031 A 
ATOM     63  C   UNL     1     -14.010   4.411   6.542  1.00  0.00     0.131 A 
ATOM     64  C   UNL     1     -15.359   5.524   4.402  1.00  0.00     0.055 A 
ATOM     65  C   UNL     1     -14.730   5.594   6.719  1.00  0.00     0.041 A 
ATOM     66  F   UNL     1     -13.315   3.947   7.593  1.00  0.00    -0.206 F 
ATOM     67  C   UNL     1     -15.397   6.167   5.641  1.00  0.00     0.022 A 
BRANCH  64  68
ATOM     68  S   UNL     1     -15.999   6.360   2.925  1.00  0.00     0.124 S 
ATOM     69  O   UNL     1     -14.794   6.470   2.104  1.00  0.00    -0.237 OA
ATOM     70  O   UNL     1     -17.014   5.429   2.448  1.00  0.00    -0.237 OA
ATOM     71  O   UNL     1     -16.508   7.629   3.442  1.00  0.00    -0.744 OA
ENDBRANCH  64  68
ENDBRANCH  47  61
BRANCH  48  72
ATOM     72  C   UNL     1      -8.213  -4.396   4.107  1.00  0.00     0.023 A 
ATOM     73  C   UNL     1      -8.750  -5.641   3.743  1.00  0.00     0.031 A 
ATOM     74  C   UNL     1      -6.834  -4.330   4.380  1.00  0.00     0.131 A 
ATOM     75  C   UNL     1      -7.928  -6.779   3.720  1.00  0.00     0.055 A 
ATOM     76  C   UNL     1      -6.008  -5.452   4.288  1.00  0.00     0.041 A 
ATOM     77  F   UNL     1      -6.266  -3.166   4.732  1.00  0.00    -0.206 F 
ATOM     78  C   UNL     1      -6.558  -6.689   3.973  1.00  0.00     0.022 A 
BRANCH  75  79
ATOM     79  S   UNL     1      -8.699  -8.402   3.467  1.00  0.00     0.124 S 
ATOM     80  O   UNL     1      -9.663  -8.444   4.561  1.00  0.00    -0.237 OA
ATOM     81  O   UNL     1      -9.255  -8.267   2.125  1.00  0.00    -0.237 OA
ATOM     82  O   UNL     1      -7.578  -9.331   3.585  1.00  0.00    -0.744 OA
ENDBRANCH  75  79
ENDBRANCH  48  72
BRANCH  60  83
ATOM     83  C   UNL     1     -13.717  -2.941   8.146  1.00  0.00     0.023 A 
ATOM     84  C   UNL     1     -13.143  -3.481   9.309  1.00  0.00     0.031 A 
ATOM     85  C   UNL     1     -15.069  -3.232   7.883  1.00  0.00     0.131 A 
ATOM     86  C   UNL     1     -13.889  -4.351  10.118  1.00  0.00     0.055 A 
ATOM     87  C   UNL     1     -15.832  -4.027   8.739  1.00  0.00     0.041 A 
ATOM     88  F   UNL     1     -15.672  -2.750   6.785  1.00  0.00    -0.206 F 
ATOM     89  C   UNL     1     -15.237  -4.609   9.853  1.00  0.00     0.022 A 
BRANCH  86  90
ATOM     90  S   UNL     1     -13.034  -5.260  11.434  1.00  0.00     0.124 S 
ATOM     91  O   UNL     1     -11.965  -5.925  10.697  1.00  0.00    -0.237 OA
ATOM     92  O   UNL     1     -12.617  -4.188  12.333  1.00  0.00    -0.237 OA
ATOM     93  O   UNL     1     -14.067  -6.147  11.965  1.00  0.00    -0.744 OA
ENDBRANCH  86  90
ENDBRANCH  60  83
ENDBRANCH  34  35
ENDBRANCH  26  29
ENDBRANCH  24  25
ENDBRANCH  23  24
ENDBRANCH   1  23
TORSDOF 17
