REMARK SMILES O=C(NCCCNC(=O)[C@H]1CC[C@@H](CNc2nncs2)CC1)c1ccc(-c2c3nc(c(-c4cc(S(=O)(=O)[O-])ccc4F)c4ccc([nH]4)c(-c4cc(S(=O)(=O)[O-])ccc4F)c4nc(c(-c5cc(S(=O)(=O)[O-])ccc5F)c5ccc2[nH]5)C=C4)C=C3)cc1
REMARK SMILES IDX 5 1 4 2 3 3 1 4 2 5 23 7 24 8 85 9 25 10 84 11 26 12 27 13
REMARK SMILES IDX 28 14 78 15 29 16 83 17 77 18 79 19 30 20 82 21 76 22 75 23
REMARK SMILES IDX 31 25 63 26 43 27 62 28 44 29 47 30 61 31 80 32 45 33 46 34
REMARK SMILES IDX 60 36 81 37 48 38 32 39 33 40 41 41 34 42 40 43 42 44 39 45
REMARK SMILES IDX 35 46 36 47 37 48 38 49 64 50 65 51 73 52 66 53 72 54 74 55
REMARK SMILES IDX 71 56 67 57 68 58 69 59 70 60 49 61 50 62 58 63 51 64 57 65
REMARK SMILES IDX 59 66 56 67 52 68 53 69 54 70 55 71 6 72 7 73 8 74 9 76
REMARK SMILES IDX 10 77 22 78 11 79 21 80 12 81 13 82 14 83 15 84 16 86 17 87
REMARK SMILES IDX 20 88 18 89 19 90
REMARK H PARENT 3 6 79 24 47 35 7 75 15 85
REMARK Flexibility Score: inf
ROOT
ATOM      1  C   UNL     1       4.718  -2.236  -0.125  1.00  0.00     0.042 C 
ENDROOT
BRANCH   1   2
ATOM      2  C   UNL     1       4.490  -0.953  -0.912  1.00  0.00     0.118 C 
BRANCH   2   3
ATOM      3  N   UNL     1       3.074  -0.601  -0.992  1.00  0.00    -0.352 N 
ATOM      4  O   UNL     1       1.121   0.294  -0.324  1.00  0.00    -0.269 OA
ATOM      5  C   UNL     1       2.346   0.340  -0.301  1.00  0.00     0.251 C 
ATOM      6  H   UNL     1       2.556  -1.122  -1.647  1.00  0.00     0.163 HD
BRANCH   5   7
ATOM      7  C   UNL     1       3.041   1.395   0.467  1.00  0.00     0.039 A 
ATOM      8  C   UNL     1       4.193   1.989  -0.045  1.00  0.00     0.014 A 
ATOM      9  C   UNL     1       2.529   1.812   1.698  1.00  0.00     0.014 A 
ATOM     10  C   UNL     1       4.940   2.842   0.751  1.00  0.00     0.010 A 
ATOM     11  C   UNL     1       3.218   2.774   2.446  1.00  0.00     0.010 A 
ATOM     12  C   UNL     1       4.455   3.264   1.998  1.00  0.00    -0.014 A 
BRANCH  12  13
ATOM     13  C   UNL     1       5.255   4.242   2.781  1.00  0.00     0.031 A 
ATOM     14  C   UNL     1       5.799   3.889   4.138  1.00  0.00     0.074 A 
ATOM     15  C   UNL     1       5.540   5.436   2.222  1.00  0.00     0.049 A 
ATOM     16  N   UNL     1       6.549   4.605   4.937  1.00  0.00    -0.248 NA
ATOM     17  C   UNL     1       5.444   2.568   4.675  1.00  0.00     0.031 C 
ATOM     18  C   UNL     1       5.066   5.883   0.908  1.00  0.00     0.029 A 
ATOM     19  N   UNL     1       6.320   6.474   2.659  1.00  0.00    -0.354 N 
ATOM     20  C   UNL     1       6.733   3.836   6.082  1.00  0.00     0.074 A 
ATOM     21  C   UNL     1       5.984   2.613   5.884  1.00  0.00     0.031 C 
ATOM     22  C   UNL     1       5.625   7.065   0.616  1.00  0.00     0.029 A 
ATOM     23  C   UNL     1       6.425   7.503   1.752  1.00  0.00     0.049 A 
ATOM     24  H   UNL     1       6.763   6.483   3.538  1.00  0.00     0.167 HD
ATOM     25  C   UNL     1       7.462   4.126   7.190  1.00  0.00     0.034 A 
ATOM     26  C   UNL     1       7.077   8.678   1.829  1.00  0.00     0.034 A 
ATOM     27  C   UNL     1       8.211   5.350   7.358  1.00  0.00     0.049 A 
ATOM     28  C   UNL     1       7.853   8.986   3.080  1.00  0.00     0.074 A 
ATOM     29  C   UNL     1       9.007   5.736   8.423  1.00  0.00     0.029 A 
ATOM     30  N   UNL     1       8.251   6.394   6.439  1.00  0.00    -0.354 N 
ATOM     31  N   UNL     1       8.023   8.244   4.151  1.00  0.00    -0.248 NA
ATOM     32  C   UNL     1       8.528  10.287   3.131  1.00  0.00     0.031 C 
ATOM     33  C   UNL     1       9.466   7.036   8.182  1.00  0.00     0.029 A 
ATOM     34  C   UNL     1       9.031   7.433   6.928  1.00  0.00     0.049 A 
ATOM     35  H   UNL     1       7.792   6.396   5.568  1.00  0.00     0.167 HD
ATOM     36  C   UNL     1       8.851   8.980   4.991  1.00  0.00     0.074 A 
ATOM     37  C   UNL     1       9.159  10.212   4.293  1.00  0.00     0.031 C 
ATOM     38  C   UNL     1       9.320   8.663   6.226  1.00  0.00     0.034 A 
BRANCH  25  39
ATOM     39  C   UNL     1       7.433   3.125   8.324  1.00  0.00     0.023 A 
ATOM     40  C   UNL     1       7.919   1.813   8.178  1.00  0.00     0.031 A 
ATOM     41  C   UNL     1       6.874   3.481   9.566  1.00  0.00     0.131 A 
ATOM     42  C   UNL     1       7.762   0.886   9.221  1.00  0.00     0.055 A 
ATOM     43  C   UNL     1       6.799   2.578  10.629  1.00  0.00     0.041 A 
ATOM     44  F   UNL     1       6.372   4.710   9.762  1.00  0.00    -0.206 F 
ATOM     45  C   UNL     1       7.229   1.266  10.455  1.00  0.00     0.022 A 
BRANCH  42  46
ATOM     46  S   UNL     1       8.112  -0.863   8.886  1.00  0.00     0.124 S 
ATOM     47  O   UNL     1       7.232  -1.130   7.750  1.00  0.00    -0.237 OA
ATOM     48  O   UNL     1       9.541  -0.849   8.596  1.00  0.00    -0.237 OA
ATOM     49  O   UNL     1       7.732  -1.534  10.128  1.00  0.00    -0.744 OA
ENDBRANCH  42  46
ENDBRANCH  25  39
BRANCH  26  50
ATOM     50  C   UNL     1       7.008   9.653   0.704  1.00  0.00     0.023 A 
ATOM     51  C   UNL     1       8.160  10.024  -0.004  1.00  0.00     0.031 A 
ATOM     52  C   UNL     1       5.787  10.248   0.336  1.00  0.00     0.131 A 
ATOM     53  C   UNL     1       8.077  10.992  -1.017  1.00  0.00     0.055 A 
ATOM     54  C   UNL     1       5.699  11.167  -0.710  1.00  0.00     0.041 A 
ATOM     55  F   UNL     1       4.652   9.925   0.978  1.00  0.00    -0.206 F 
ATOM     56  C   UNL     1       6.852  11.554  -1.385  1.00  0.00     0.022 A 
BRANCH  53  57
ATOM     57  S   UNL     1       9.610  11.570  -1.794  1.00  0.00     0.124 S 
ATOM     58  O   UNL     1      10.357  12.067  -0.644  1.00  0.00    -0.237 OA
ATOM     59  O   UNL     1      10.117  10.347  -2.408  1.00  0.00    -0.237 OA
ATOM     60  O   UNL     1       9.152  12.592  -2.731  1.00  0.00    -0.744 OA
ENDBRANCH  53  57
ENDBRANCH  26  50
BRANCH  38  61
ATOM     61  C   UNL     1      10.264   9.652   6.866  1.00  0.00     0.023 A 
ATOM     62  C   UNL     1       9.850  10.943   7.237  1.00  0.00     0.031 A 
ATOM     63  C   UNL     1      11.611   9.306   7.072  1.00  0.00     0.131 A 
ATOM     64  C   UNL     1      10.788  11.865   7.726  1.00  0.00     0.055 A 
ATOM     65  C   UNL     1      12.525  10.204   7.624  1.00  0.00     0.041 A 
ATOM     66  F   UNL     1      12.064   8.088   6.733  1.00  0.00    -0.206 F 
ATOM     67  C   UNL     1      12.119  11.498   7.938  1.00  0.00     0.022 A 
BRANCH  64  68
ATOM     68  S   UNL     1      10.272  13.587   7.967  1.00  0.00     0.124 S 
ATOM     69  O   UNL     1       9.777  13.944   6.641  1.00  0.00    -0.237 OA
ATOM     70  O   UNL     1       9.262  13.466   9.013  1.00  0.00    -0.237 OA
ATOM     71  O   UNL     1      11.505  14.261   8.371  1.00  0.00    -0.744 OA
ENDBRANCH  64  68
ENDBRANCH  38  61
ENDBRANCH  12  13
ENDBRANCH   5   7
ENDBRANCH   2   3
ENDBRANCH   1   2
BRANCH   1  72
ATOM     72  C   UNL     1       4.103  -3.444  -0.810  1.00  0.00     0.117 C 
BRANCH  72  73
ATOM     73  N   UNL     1       4.850  -3.831  -1.995  1.00  0.00    -0.356 N 
ATOM     74  C   UNL     1       5.708  -4.826  -2.308  1.00  0.00     0.223 C 
ATOM     75  H   UNL     1       4.692  -3.221  -2.751  1.00  0.00     0.163 HD
ATOM     76  O   UNL     1       6.174  -4.762  -3.455  1.00  0.00    -0.275 OA
BRANCH  74  77
ATOM     77  C   UNL     1       6.159  -5.953  -1.360  1.00  0.00     0.078 C 
ATOM     78  C   UNL     1       5.219  -6.281  -0.199  1.00  0.00     0.014 C 
ATOM     79  C   UNL     1       6.444  -7.187  -2.254  1.00  0.00     0.014 C 
ATOM     80  C   UNL     1       5.454  -7.622   0.482  1.00  0.00     0.006 C 
ATOM     81  C   UNL     1       6.616  -8.504  -1.507  1.00  0.00     0.006 C 
ATOM     82  C   UNL     1       5.479  -8.776  -0.518  1.00  0.00     0.008 C 
BRANCH  82  83
ATOM     83  C   UNL     1       4.099  -8.969  -1.188  1.00  0.00     0.119 C 
BRANCH  83  84
ATOM     84  N   UNL     1       4.060 -10.240  -1.876  1.00  0.00    -0.360 N 
ATOM     85  H   UNL     1       4.778 -10.428  -2.523  1.00  0.00     0.162 HD
BRANCH  84  86
ATOM     86  C   UNL     1       3.114 -11.188  -1.701  1.00  0.00     0.205 A 
ATOM     87  N   UNL     1       3.305 -12.444  -2.056  1.00  0.00    -0.121 NA
ATOM     88  S   UNL     1       1.543 -10.919  -1.033  1.00  0.00    -0.083 S 
ATOM     89  N   UNL     1       2.238 -13.267  -1.758  1.00  0.00    -0.145 NA
ATOM     90  C   UNL     1       1.249 -12.591  -1.221  1.00  0.00     0.204 A 
ENDBRANCH  84  86
ENDBRANCH  83  84
ENDBRANCH  82  83
ENDBRANCH  74  77
ENDBRANCH  72  73
ENDBRANCH   1  72
TORSDOF 16
