REMARK SMILES COc1ccccc1OC1CCN(c2cccc(C(=O)NCCCNC(=O)c3ccc(-c4c5nc(c(-c6cc(S(=O)(=O)[O-])ccc6F)c6ccc([nH]6)c(-c6cc(S(=O)(=O)[O-])ccc6F)c6nc(c(-c7cc(S(=O)(=O)[O-])ccc7F)c7ccc4[nH]7)C=C6)C=C5)cc3)n2)CC1
REMARK SMILES IDX 22 1 21 2 19 3 20 4 18 6 14 7 15 8 91 9 16 10 17 11 13 12
REMARK SMILES IDX 10 13 11 14 93 15 12 16 92 17 9 18 8 19 3 20 4 21 5 22 7 23
REMARK SMILES IDX 6 24 2 25 1 26 23 27 24 28 25 29 26 30 27 32 28 33 29 34
REMARK SMILES IDX 90 35 30 36 89 37 31 38 32 39 33 40 83 41 34 42 88 43 82 44
REMARK SMILES IDX 84 45 35 46 87 47 81 48 80 49 36 51 68 52 48 53 67 54 49 55
REMARK SMILES IDX 52 56 66 57 85 58 50 59 51 60 65 62 86 63 53 64 37 65 38 66
REMARK SMILES IDX 46 67 39 68 45 69 47 70 44 71 40 72 41 73 42 74 43 75 69 76
REMARK SMILES IDX 70 77 78 78 71 79 77 80 79 81 76 82 72 83 73 84 74 85 75 86
REMARK SMILES IDX 54 87 55 88 63 89 56 90 62 91 64 92 61 93 57 94 58 95 59 96
REMARK SMILES IDX 60 97
REMARK H PARENT 21 5 25 31 84 50 52 61
REMARK Flexibility Score: inf
ROOT
ATOM      1  C   UNL     1      -4.485   4.385  -2.915  1.00  0.00     0.118 C 
ENDROOT
BRANCH   1   2
ATOM      2  N   UNL     1      -3.176   4.650  -2.351  1.00  0.00    -0.351 N 
ATOM      3  C   UNL     1      -2.366   3.947  -1.489  1.00  0.00     0.269 C 
ATOM      4  O   UNL     1      -1.272   4.464  -1.242  1.00  0.00    -0.268 OA
ATOM      5  H   UNL     1      -2.788   5.506  -2.644  1.00  0.00     0.163 HD
BRANCH   3   6
ATOM      6  C   UNL     1      -2.711   2.602  -0.899  1.00  0.00     0.130 A 
ATOM      7  C   UNL     1      -1.781   0.655  -0.026  1.00  0.00     0.129 A 
ATOM      8  C   UNL     1      -3.025   0.049   0.036  1.00  0.00     0.047 A 
ATOM      9  N   UNL     1      -1.620   1.907  -0.485  1.00  0.00    -0.226 NA
ATOM     10  C   UNL     1      -4.149   0.777  -0.327  1.00  0.00     0.006 A 
ATOM     11  C   UNL     1      -3.992   2.081  -0.787  1.00  0.00     0.034 A 
BRANCH   7  12
ATOM     12  N   UNL     1      -0.655  -0.068   0.300  1.00  0.00    -0.356 N 
ATOM     13  C   UNL     1       3.067  -0.724  -0.017  1.00  0.00     0.177 C 
ATOM     14  C   UNL     1       2.367   0.433   1.382  1.00  0.00     0.066 C 
ATOM     15  C   UNL     1       1.797  -1.441  -1.307  1.00  0.00     0.066 C 
ATOM     16  C   UNL     1       0.445   0.631   1.581  1.00  0.00     0.122 C 
ATOM     17  C   UNL     1      -0.101  -1.223  -0.997  1.00  0.00     0.122 C 
BRANCH  13  18
ATOM     18  O   UNL     1       3.748  -1.831   0.588  1.00  0.00    -0.486 OA
BRANCH  18  19
ATOM     19  C   UNL     1       2.763  -2.535   1.201  1.00  0.00     0.161 A 
ATOM     20  C   UNL     1       1.472  -2.030   1.192  1.00  0.00     0.160 A 
ATOM     21  C   UNL     1       0.455  -2.735   1.840  1.00  0.00     0.050 A 
ATOM     22  C   UNL     1       0.731  -3.968   2.433  1.00  0.00     0.004 A 
ATOM     23  C   UNL     1       3.054  -3.758   1.794  1.00  0.00     0.050 A 
ATOM     24  C   UNL     1       2.028  -4.485   2.398  1.00  0.00     0.004 A 
BRANCH  20  25
ATOM     25  O   UNL     1       1.136  -0.860   0.498  1.00  0.00    -0.493 OA
ATOM     26  C   UNL     1       1.346   0.653  -0.620  1.00  0.00     0.278 C 
ENDBRANCH  20  25
ENDBRANCH  18  19
ENDBRANCH  13  18
ENDBRANCH   7  12
ENDBRANCH   3   6
ENDBRANCH   1   2
BRANCH   1  27
ATOM     27  C   UNL     1      -5.589   5.031  -2.077  1.00  0.00     0.042 C 
BRANCH  27  28
ATOM     28  C   UNL     1      -5.723   6.536  -2.306  1.00  0.00     0.118 C 
BRANCH  28  29
ATOM     29  N   UNL     1      -6.223   6.829  -3.640  1.00  0.00    -0.352 N 
ATOM     30  C   UNL     1      -7.379   7.444  -4.048  1.00  0.00     0.251 C 
ATOM     31  H   UNL     1      -5.633   6.537  -4.372  1.00  0.00     0.163 HD
ATOM     32  O   UNL     1      -7.723   7.317  -5.220  1.00  0.00    -0.269 OA
BRANCH  30  33
ATOM     33  C   UNL     1      -8.206   8.246  -3.115  1.00  0.00     0.039 A 
ATOM     34  C   UNL     1      -9.592   8.255  -3.300  1.00  0.00     0.014 A 
ATOM     35  C   UNL     1      -7.638   9.055  -2.125  1.00  0.00     0.014 A 
ATOM     36  C   UNL     1     -10.404   9.042  -2.480  1.00  0.00     0.010 A 
ATOM     37  C   UNL     1      -8.455   9.787  -1.262  1.00  0.00     0.010 A 
ATOM     38  C   UNL     1      -9.846   9.800  -1.438  1.00  0.00    -0.014 A 
BRANCH  38  39
ATOM     39  C   UNL     1     -10.717  10.599  -0.536  1.00  0.00     0.031 A 
ATOM     40  C   UNL     1     -10.631  12.103  -0.519  1.00  0.00     0.074 A 
ATOM     41  C   UNL     1     -11.564   9.959   0.294  1.00  0.00     0.049 A 
ATOM     42  N   UNL     1     -11.313  12.962   0.196  1.00  0.00    -0.248 NA
ATOM     43  C   UNL     1      -9.629  12.721  -1.399  1.00  0.00     0.031 C 
ATOM     44  C   UNL     1     -11.689   8.503   0.411  1.00  0.00     0.029 A 
ATOM     45  N   UNL     1     -12.477  10.441   1.198  1.00  0.00    -0.354 N 
ATOM     46  C   UNL     1     -10.812  14.217  -0.134  1.00  0.00     0.074 A 
ATOM     47  C   UNL     1      -9.736  14.002  -1.078  1.00  0.00     0.031 C 
ATOM     48  C   UNL     1     -12.639   8.214   1.314  1.00  0.00     0.029 A 
ATOM     49  C   UNL     1     -13.168   9.456   1.865  1.00  0.00     0.049 A 
ATOM     50  H   UNL     1     -12.624  11.402   1.354  1.00  0.00     0.167 HD
ATOM     51  C   UNL     1     -11.224  15.436   0.299  1.00  0.00     0.034 A 
ATOM     52  C   UNL     1     -14.119   9.543   2.816  1.00  0.00     0.034 A 
ATOM     53  C   UNL     1     -12.317  15.631   1.222  1.00  0.00     0.049 A 
ATOM     54  C   UNL     1     -14.583  10.909   3.252  1.00  0.00     0.074 A 
ATOM     55  C   UNL     1     -12.876  16.820   1.659  1.00  0.00     0.029 A 
ATOM     56  N   UNL     1     -13.012  14.611   1.861  1.00  0.00    -0.354 N 
ATOM     57  N   UNL     1     -14.158  12.089   2.862  1.00  0.00    -0.248 NA
ATOM     58  C   UNL     1     -15.668  10.954   4.239  1.00  0.00     0.031 C 
ATOM     59  C   UNL     1     -13.860  16.523   2.608  1.00  0.00     0.029 A 
ATOM     60  C   UNL     1     -13.969  15.145   2.712  1.00  0.00     0.049 A 
ATOM     61  H   UNL     1     -12.850  13.650   1.728  1.00  0.00     0.167 HD
ATOM     62  C   UNL     1     -14.940  13.017   3.545  1.00  0.00     0.074 A 
ATOM     63  C   UNL     1     -15.881  12.257   4.342  1.00  0.00     0.031 C 
ATOM     64  C   UNL     1     -14.885  14.373   3.519  1.00  0.00     0.034 A 
BRANCH  51  65
ATOM     65  C   UNL     1     -10.473  16.649  -0.198  1.00  0.00     0.023 A 
ATOM     66  C   UNL     1     -10.463  17.013  -1.557  1.00  0.00     0.031 A 
ATOM     67  C   UNL     1      -9.753  17.455   0.703  1.00  0.00     0.131 A 
ATOM     68  C   UNL     1      -9.697  18.110  -1.983  1.00  0.00     0.055 A 
ATOM     69  C   UNL     1      -9.054  18.588   0.282  1.00  0.00     0.041 A 
ATOM     70  F   UNL     1      -9.711  17.148   2.009  1.00  0.00    -0.206 F 
ATOM     71  C   UNL     1      -9.012  18.914  -1.070  1.00  0.00     0.022 A 
BRANCH  68  72
ATOM     72  S   UNL     1      -9.511  18.400  -3.764  1.00  0.00     0.124 S 
ATOM     73  O   UNL     1      -8.885  17.154  -4.202  1.00  0.00    -0.237 OA
ATOM     74  O   UNL     1     -10.888  18.609  -4.196  1.00  0.00    -0.237 OA
ATOM     75  O   UNL     1      -8.650  19.579  -3.832  1.00  0.00    -0.744 OA
ENDBRANCH  68  72
ENDBRANCH  51  65
BRANCH  52  76
ATOM     76  C   UNL     1     -14.693   8.310   3.427  1.00  0.00     0.023 A 
ATOM     77  C   UNL     1     -16.048   7.980   3.263  1.00  0.00     0.031 A 
ATOM     78  C   UNL     1     -13.901   7.464   4.223  1.00  0.00     0.131 A 
ATOM     79  C   UNL     1     -16.582   6.865   3.927  1.00  0.00     0.055 A 
ATOM     80  C   UNL     1     -14.424   6.325   4.838  1.00  0.00     0.041 A 
ATOM     81  F   UNL     1     -12.597   7.728   4.405  1.00  0.00    -0.206 F 
ATOM     82  C   UNL     1     -15.777   6.029   4.704  1.00  0.00     0.022 A 
BRANCH  79  83
ATOM     83  S   UNL     1     -18.370   6.572   3.834  1.00  0.00     0.124 S 
ATOM     84  O   UNL     1     -18.905   7.838   4.323  1.00  0.00    -0.237 OA
ATOM     85  O   UNL     1     -18.557   6.302   2.413  1.00  0.00    -0.237 OA
ATOM     86  O   UNL     1     -18.573   5.426   4.717  1.00  0.00    -0.744 OA
ENDBRANCH  79  83
ENDBRANCH  52  76
BRANCH  64  87
ATOM     87  C   UNL     1     -15.894  15.107   4.368  1.00  0.00     0.023 A 
ATOM     88  C   UNL     1     -15.876  15.019   5.771  1.00  0.00     0.031 A 
ATOM     89  C   UNL     1     -16.911  15.869   3.767  1.00  0.00     0.131 A 
ATOM     90  C   UNL     1     -16.896  15.619   6.523  1.00  0.00     0.055 A 
ATOM     91  C   UNL     1     -17.886  16.519   4.524  1.00  0.00     0.041 A 
ATOM     92  F   UNL     1     -16.979  15.986   2.431  1.00  0.00    -0.206 F 
ATOM     93  C   UNL     1     -17.893  16.382   5.909  1.00  0.00     0.022 A 
BRANCH  90  94
ATOM     94  S   UNL     1     -16.971  15.288   8.305  1.00  0.00     0.124 S 
ATOM     95  O   UNL     1     -17.039  13.831   8.341  1.00  0.00    -0.237 OA
ATOM     96  O   UNL     1     -15.727  15.881   8.784  1.00  0.00    -0.237 OA
ATOM     97  O   UNL     1     -18.190  15.976   8.730  1.00  0.00    -0.744 OA
ENDBRANCH  90  94
ENDBRANCH  64  87
ENDBRANCH  38  39
ENDBRANCH  30  33
ENDBRANCH  28  29
ENDBRANCH  27  28
ENDBRANCH   1  27
TORSDOF 17
