REMARK SMILES CCCCCCNC(=O)Oc1cccc(-c2ccc([C@@H](C)C(=O)NCCCNC(=O)c3ccc(-c4c5nc(c(-c6cc(S(=O)(=O)[O-])ccc6F)c6ccc([nH]6)c(-c6cc(S(=O)(=O)[O-])ccc6F)c6nc(c(-c7cc(S(=O)(=O)[O-])ccc7F)c7ccc4[nH]7)C=C6)C=C5)cc3)cc2Cl)c1
REMARK SMILES IDX 20 1 21 2 19 3 16 4 17 5 95 6 18 7 94 8 96 9 15 10 11 11
REMARK SMILES IDX 12 12 97 13 13 14 14 15 10 16 8 17 7 18 9 20 6 21 5 22 4 23
REMARK SMILES IDX 3 24 2 25 1 26 22 27 23 28 24 29 25 31 26 32 27 33 28 34
REMARK SMILES IDX 29 35 30 37 31 38 32 39 93 40 33 41 92 42 34 43 35 44 36 45
REMARK SMILES IDX 86 46 37 47 91 48 85 49 87 50 38 51 90 52 84 53 83 54 39 56
REMARK SMILES IDX 71 57 51 58 70 59 52 60 55 61 69 62 88 63 53 64 54 65 68 67
REMARK SMILES IDX 89 68 56 69 40 70 41 71 49 72 42 73 48 74 50 75 47 76 43 77
REMARK SMILES IDX 44 78 45 79 46 80 72 81 73 82 81 83 74 84 80 85 82 86 79 87
REMARK SMILES IDX 75 88 76 89 77 90 78 91 57 92 58 93 66 94 59 95 65 96 67 97
REMARK SMILES IDX 64 98 60 99 61 100 62 101 63 102
REMARK H PARENT 7 19 24 30 28 36 87 55 55 66
REMARK Flexibility Score: inf
ROOT
ATOM      1  C   UNL     1      -4.751   9.563  -9.608  1.00  0.00     0.105 C 
ATOM      2  C   UNL     1      -5.928  10.285 -10.260  1.00  0.00     0.023 C 
ENDROOT
BRANCH   1   3
ATOM      3  C   UNL     1      -5.009   9.016  -8.214  1.00  0.00    -0.034 A 
ATOM      4  C   UNL     1      -5.241   7.974  -5.552  1.00  0.00     0.000 A 
ATOM      5  C   UNL     1      -5.608   9.294  -5.874  1.00  0.00     0.010 A 
ATOM      6  C   UNL     1      -4.828   7.159  -6.624  1.00  0.00     0.049 A 
ATOM      7  C   UNL     1      -5.538   9.788  -7.182  1.00  0.00     0.005 A 
ATOM      8  C   UNL     1      -4.681   7.684  -7.919  1.00  0.00     0.025 A 
ATOM      9  Cl  UNL     1      -4.533   5.458  -6.454  1.00  0.00    -0.084 Cl
BRANCH   4  10
ATOM     10  C   UNL     1      -5.287   7.547  -4.134  1.00  0.00    -0.013 A 
ATOM     11  C   UNL     1      -4.276   6.470  -2.200  1.00  0.00     0.133 A 
ATOM     12  C   UNL     1      -5.363   6.804  -1.400  1.00  0.00     0.047 A 
ATOM     13  C   UNL     1      -4.225   6.842  -3.545  1.00  0.00     0.056 A 
ATOM     14  C   UNL     1      -6.413   7.528  -1.954  1.00  0.00     0.004 A 
ATOM     15  C   UNL     1      -6.379   7.884  -3.307  1.00  0.00     0.009 A 
BRANCH  11  16
ATOM     16  O   UNL     1      -3.306   5.629  -1.629  1.00  0.00    -0.410 OA
BRANCH  16  17
ATOM     17  C   UNL     1      -1.962   5.932  -1.787  1.00  0.00     0.412 C 
ATOM     18  N   UNL     1      -1.139   4.960  -1.288  1.00  0.00    -0.321 N 
ATOM     19  H   UNL     1      -0.172   5.143  -1.319  1.00  0.00     0.167 HD
ATOM     20  O   UNL     1      -1.506   6.939  -2.312  1.00  0.00    -0.224 OA
BRANCH  18  21
ATOM     21  C   UNL     1      -1.542   3.691  -0.719  1.00  0.00     0.119 C 
BRANCH  21  22
ATOM     22  C   UNL     1      -0.958   2.512  -1.499  1.00  0.00     0.021 C 
BRANCH  22  23
ATOM     23  C   UNL     1       0.572   2.408  -1.452  1.00  0.00     0.002 C 
BRANCH  23  24
ATOM     24  C   UNL     1       1.177   2.269  -0.050  1.00  0.00    -0.000 C 
BRANCH  24  25
ATOM     25  C   UNL     1       0.694   1.061   0.755  1.00  0.00    -0.003 C 
ATOM     26  C   UNL     1       1.059  -0.271   0.118  1.00  0.00     0.004 C 
ENDBRANCH  24  25
ENDBRANCH  23  24
ENDBRANCH  22  23
ENDBRANCH  21  22
ENDBRANCH  18  21
ENDBRANCH  16  17
ENDBRANCH  11  16
ENDBRANCH   4  10
ENDBRANCH   1   3
BRANCH   1  27
ATOM     27  C   UNL     1      -3.398  10.279  -9.752  1.00  0.00     0.227 C 
ATOM     28  O   UNL     1      -2.460   9.704 -10.318  1.00  0.00    -0.274 OA
ATOM     29  N   UNL     1      -3.147  11.538  -9.304  1.00  0.00    -0.356 N 
ATOM     30  H   UNL     1      -2.244  11.866  -9.520  1.00  0.00     0.163 HD
BRANCH  29  31
ATOM     31  C   UNL     1      -3.958  12.490  -8.570  1.00  0.00     0.117 C 
BRANCH  31  32
ATOM     32  C   UNL     1      -3.627  12.508  -7.079  1.00  0.00     0.042 C 
BRANCH  32  33
ATOM     33  C   UNL     1      -2.412  13.353  -6.724  1.00  0.00     0.118 C 
BRANCH  33  34
ATOM     34  N   UNL     1      -2.655  14.773  -6.932  1.00  0.00    -0.352 N 
ATOM     35  C   UNL     1      -2.697  15.815  -6.039  1.00  0.00     0.251 C 
ATOM     36  H   UNL     1      -2.817  15.029  -7.869  1.00  0.00     0.163 HD
ATOM     37  O   UNL     1      -3.167  16.888  -6.412  1.00  0.00    -0.269 OA
BRANCH  35  38
ATOM     38  C   UNL     1      -2.203  15.663  -4.649  1.00  0.00     0.039 A 
ATOM     39  C   UNL     1      -2.850  16.366  -3.626  1.00  0.00     0.014 A 
ATOM     40  C   UNL     1      -1.080  14.889  -4.349  1.00  0.00     0.014 A 
ATOM     41  C   UNL     1      -2.402  16.250  -2.307  1.00  0.00     0.010 A 
ATOM     42  C   UNL     1      -0.691  14.703  -3.023  1.00  0.00     0.010 A 
ATOM     43  C   UNL     1      -1.337  15.393  -1.988  1.00  0.00    -0.014 A 
BRANCH  43  44
ATOM     44  C   UNL     1      -0.873  15.227  -0.585  1.00  0.00     0.031 A 
ATOM     45  C   UNL     1       0.527  15.630  -0.199  1.00  0.00     0.074 A 
ATOM     46  C   UNL     1      -1.693  14.669   0.328  1.00  0.00     0.049 A 
ATOM     47  N   UNL     1       1.138  15.506   0.951  1.00  0.00    -0.248 NA
ATOM     48  C   UNL     1       1.358  16.226  -1.257  1.00  0.00     0.031 C 
ATOM     49  C   UNL     1      -3.055  14.201   0.063  1.00  0.00     0.029 A 
ATOM     50  N   UNL     1      -1.502  14.391   1.659  1.00  0.00    -0.354 N 
ATOM     51  C   UNL     1       2.428  15.990   0.752  1.00  0.00     0.074 A 
ATOM     52  C   UNL     1       2.526  16.351  -0.646  1.00  0.00     0.031 C 
ATOM     53  C   UNL     1      -3.584  13.721   1.200  1.00  0.00     0.029 A 
ATOM     54  C   UNL     1      -2.587  13.798   2.262  1.00  0.00     0.049 A 
ATOM     55  H   UNL     1      -0.666  14.598   2.137  1.00  0.00     0.167 HD
ATOM     56  C   UNL     1       3.428  16.140   1.655  1.00  0.00     0.034 A 
ATOM     57  C   UNL     1      -2.755  13.353   3.523  1.00  0.00     0.034 A 
ATOM     58  C   UNL     1       3.307  15.785   3.049  1.00  0.00     0.049 A 
ATOM     59  C   UNL     1      -1.621  13.512   4.505  1.00  0.00     0.074 A 
ATOM     60  C   UNL     1       4.234  15.947   4.064  1.00  0.00     0.029 A 
ATOM     61  N   UNL     1       2.191  15.188   3.624  1.00  0.00    -0.354 N 
ATOM     62  N   UNL     1      -0.426  14.023   4.313  1.00  0.00    -0.248 NA
ATOM     63  C   UNL     1      -1.864  13.047   5.876  1.00  0.00     0.031 C 
ATOM     64  C   UNL     1       3.709  15.383   5.232  1.00  0.00     0.029 A 
ATOM     65  C   UNL     1       2.421  14.946   4.970  1.00  0.00     0.049 A 
ATOM     66  H   UNL     1       1.359  14.969   3.146  1.00  0.00     0.167 HD
ATOM     67  C   UNL     1       0.213  13.967   5.549  1.00  0.00     0.074 A 
ATOM     68  C   UNL     1      -0.736  13.392   6.480  1.00  0.00     0.031 C 
ATOM     69  C   UNL     1       1.468  14.360   5.885  1.00  0.00     0.034 A 
BRANCH  56  70
ATOM     70  C   UNL     1       4.746  16.687   1.154  1.00  0.00     0.023 A 
ATOM     71  C   UNL     1       4.850  17.975   0.599  1.00  0.00     0.031 A 
ATOM     72  C   UNL     1       5.911  15.903   1.211  1.00  0.00     0.131 A 
ATOM     73  C   UNL     1       6.068  18.409   0.054  1.00  0.00     0.055 A 
ATOM     74  C   UNL     1       7.141  16.373   0.744  1.00  0.00     0.041 A 
ATOM     75  F   UNL     1       5.874  14.657   1.710  1.00  0.00    -0.206 F 
ATOM     76  C   UNL     1       7.221  17.627   0.147  1.00  0.00     0.022 A 
BRANCH  73  77
ATOM     77  S   UNL     1       6.089  19.947  -0.907  1.00  0.00     0.124 S 
ATOM     78  O   UNL     1       5.117  19.652  -1.958  1.00  0.00    -0.237 OA
ATOM     79  O   UNL     1       5.682  20.942   0.078  1.00  0.00    -0.237 OA
ATOM     80  O   UNL     1       7.474  20.049  -1.362  1.00  0.00    -0.744 OA
ENDBRANCH  73  77
ENDBRANCH  56  70
BRANCH  57  81
ATOM     81  C   UNL     1      -4.035  12.706   3.933  1.00  0.00     0.023 A 
ATOM     82  C   UNL     1      -4.857  13.283   4.915  1.00  0.00     0.031 A 
ATOM     83  C   UNL     1      -4.436  11.477   3.379  1.00  0.00     0.131 A 
ATOM     84  C   UNL     1      -6.010  12.609   5.347  1.00  0.00     0.055 A 
ATOM     85  C   UNL     1      -5.614  10.839   3.771  1.00  0.00     0.041 A 
ATOM     86  F   UNL     1      -3.690  10.882   2.434  1.00  0.00    -0.206 F 
ATOM     87  C   UNL     1      -6.402  11.398   4.772  1.00  0.00     0.022 A 
BRANCH  84  88
ATOM     88  S   UNL     1      -6.945  13.293   6.743  1.00  0.00     0.124 S 
ATOM     89  O   UNL     1      -5.927  13.346   7.785  1.00  0.00    -0.237 OA
ATOM     90  O   UNL     1      -7.387  14.578   6.210  1.00  0.00    -0.237 OA
ATOM     91  O   UNL     1      -8.006  12.311   6.955  1.00  0.00    -0.744 OA
ENDBRANCH  84  88
ENDBRANCH  57  81
BRANCH  69  92
ATOM     92  C   UNL     1       1.864  14.221   7.336  1.00  0.00     0.023 A 
ATOM     93  C   UNL     1       1.991  12.964   7.953  1.00  0.00     0.031 A 
ATOM     94  C   UNL     1       2.103  15.367   8.115  1.00  0.00     0.131 A 
ATOM     95  C   UNL     1       2.287  12.885   9.322  1.00  0.00     0.055 A 
ATOM     96  C   UNL     1       2.463  15.280   9.460  1.00  0.00     0.041 A 
ATOM     97  F   UNL     1       1.993  16.593   7.579  1.00  0.00    -0.206 F 
ATOM     98  C   UNL     1       2.542  14.034  10.075  1.00  0.00     0.022 A 
BRANCH  95  99
ATOM     99  S   UNL     1       2.233  11.263  10.133  1.00  0.00     0.124 S 
ATOM    100  O   UNL     1       0.865  10.833   9.861  1.00  0.00    -0.237 OA
ATOM    101  O   UNL     1       3.283  10.529   9.433  1.00  0.00    -0.237 OA
ATOM    102  O   UNL     1       2.520  11.569  11.533  1.00  0.00    -0.744 OA
ENDBRANCH  95  99
ENDBRANCH  69  92
ENDBRANCH  43  44
ENDBRANCH  35  38
ENDBRANCH  33  34
ENDBRANCH  32  33
ENDBRANCH  31  32
ENDBRANCH  29  31
ENDBRANCH   1  27
TORSDOF 22
