REMARK SMILES Cc1c(C#N)c2ccccc2n1CC(=O)N1CC[C@H](O)C[C@@H]1C(=O)NCCCNC(=O)c1ccc(-c2c3nc(c(-c4cc(S(=O)(=O)[O-])ccc4F)c4ccc([nH]4)c(-c4cc(S(=O)(=O)[O-])ccc4F)c4nc(c(-c5cc(S(=O)(=O)[O-])ccc5F)c5ccc2[nH]5)C=C4)C=C3)cc1
REMARK SMILES IDX 26 1 25 2 23 3 24 4 22 6 16 7 17 8 18 9 21 10 19 11 14 12
REMARK SMILES IDX 15 13 13 14 12 15 1 16 2 17 3 18 6 19 11 20 7 21 10 22 8 23
REMARK SMILES IDX 9 24 4 25 5 26 20 27 27 29 28 30 29 31 30 32 31 34 32 35
REMARK SMILES IDX 33 36 94 37 34 38 93 39 35 40 36 41 37 42 87 43 38 44 92 45
REMARK SMILES IDX 86 46 88 47 39 48 91 49 85 50 84 51 40 53 72 54 52 55 71 56
REMARK SMILES IDX 53 57 56 58 70 59 89 60 54 61 55 62 69 64 90 65 57 66 41 67
REMARK SMILES IDX 42 68 50 69 43 70 49 71 51 72 48 73 44 74 45 75 46 76 47 77
REMARK SMILES IDX 73 78 74 79 82 80 75 81 81 82 83 83 80 84 76 85 77 86 78 87
REMARK SMILES IDX 79 88 58 89 59 90 67 91 60 92 66 93 68 94 65 95 61 96 62 97
REMARK SMILES IDX 63 98 64 99
REMARK H PARENT 25 5 20 28 29 33 88 52 56 63
REMARK Flexibility Score: inf
ROOT
ATOM      1  C   UNL     1      -6.006   0.729   4.204  1.00  0.00     0.117 C 
ENDROOT
BRANCH   1   2
ATOM      2  N   UNL     1      -5.722  -0.511   3.508  1.00  0.00    -0.354 N 
ATOM      3  C   UNL     1      -4.594  -0.908   2.859  1.00  0.00     0.242 C 
ATOM      4  O   UNL     1      -4.611  -2.045   2.372  1.00  0.00    -0.273 OA
ATOM      5  H   UNL     1      -6.458  -1.165   3.503  1.00  0.00     0.163 HD
BRANCH   3   6
ATOM      6  C   UNL     1      -3.345   0.016   2.770  1.00  0.00     0.177 C 
ATOM      7  N   UNL     1      -2.321  -0.600   1.884  1.00  0.00    -0.329 N 
ATOM      8  C   UNL     1      -1.627  -1.768   2.436  1.00  0.00     0.123 C 
ATOM      9  C   UNL     1      -1.013  -1.467   3.800  1.00  0.00     0.053 C 
ATOM     10  C   UNL     1      -2.717   0.350   4.125  1.00  0.00     0.067 C 
ATOM     11  C   UNL     1      -2.013  -0.844   4.760  1.00  0.00     0.118 C 
BRANCH   7  12
ATOM     12  C   UNL     1      -2.109  -0.032   0.637  1.00  0.00     0.243 C 
ATOM     13  O   UNL     1      -2.385   1.159   0.443  1.00  0.00    -0.273 OA
BRANCH  12  14
ATOM     14  C   UNL     1      -1.738  -0.874  -0.574  1.00  0.00     0.222 C 
BRANCH  14  15
ATOM     15  N   UNL     1      -0.571  -1.741  -0.480  1.00  0.00    -0.334 N 
ATOM     16  C   UNL     1       1.113   0.113  -0.140  1.00  0.00     0.066 C 
ATOM     17  C   UNL     1       0.730  -1.324  -0.260  1.00  0.00     0.034 A 
ATOM     18  C   UNL     1       1.497  -2.468  -0.107  1.00  0.00     0.080 A 
ATOM     19  C   UNL     1       0.656  -3.604  -0.280  1.00  0.00     0.018 A 
ATOM     20  C   UNL     1      -0.629  -3.126  -0.548  1.00  0.00     0.050 A 
ATOM     21  C   UNL     1       0.860  -5.000  -0.206  1.00  0.00     0.012 A 
ATOM     22  C   UNL     1      -1.713  -3.998  -0.755  1.00  0.00     0.027 A 
ATOM     23  C   UNL     1      -0.217  -5.871  -0.400  1.00  0.00     0.001 A 
ATOM     24  C   UNL     1      -1.485  -5.374  -0.674  1.00  0.00     0.002 A 
BRANCH  18  25
ATOM     25  C   UNL     1       2.896  -2.500   0.222  1.00  0.00     0.102 C 
ATOM     26  N   UNL     1       4.014  -2.535   0.499  1.00  0.00    -0.192 NA
ENDBRANCH  18  25
ENDBRANCH  14  15
ENDBRANCH  12  14
ENDBRANCH   7  12
BRANCH  11  27
ATOM     27  O   UNL     1      -2.953  -1.805   5.226  1.00  0.00    -0.393 OA
ATOM     28  H   UNL     1      -3.466  -2.147   4.477  1.00  0.00     0.210 HD
ENDBRANCH  11  27
ENDBRANCH   3   6
ENDBRANCH   1   2
BRANCH   1  29
ATOM     29  C   UNL     1      -7.327   1.362   3.781  1.00  0.00     0.042 C 
BRANCH  29  30
ATOM     30  C   UNL     1      -8.569   0.512   4.035  1.00  0.00     0.118 C 
BRANCH  30  31
ATOM     31  N   UNL     1      -8.739   0.083   5.405  1.00  0.00    -0.352 N 
ATOM     32  C   UNL     1      -9.438   0.561   6.479  1.00  0.00     0.251 C 
ATOM     33  H   UNL     1      -8.240  -0.741   5.611  1.00  0.00     0.163 HD
ATOM     34  O   UNL     1      -9.588  -0.242   7.404  1.00  0.00    -0.269 OA
BRANCH  32  35
ATOM     35  C   UNL     1      -9.915   1.962   6.657  1.00  0.00     0.039 A 
ATOM     36  C   UNL     1      -9.805   2.997   5.730  1.00  0.00     0.014 A 
ATOM     37  C   UNL     1     -10.419   2.263   7.938  1.00  0.00     0.014 A 
ATOM     38  C   UNL     1     -10.032   4.316   6.134  1.00  0.00     0.010 A 
ATOM     39  C   UNL     1     -10.669   3.571   8.335  1.00  0.00     0.010 A 
ATOM     40  C   UNL     1     -10.398   4.610   7.459  1.00  0.00    -0.014 A 
BRANCH  40  41
ATOM     41  C   UNL     1     -10.711   5.995   7.836  1.00  0.00     0.031 A 
ATOM     42  C   UNL     1     -11.842   6.524   7.023  1.00  0.00     0.074 A 
ATOM     43  C   UNL     1     -10.131   6.688   8.849  1.00  0.00     0.049 A 
ATOM     44  N   UNL     1     -11.755   7.356   6.039  1.00  0.00    -0.248 NA
ATOM     45  C   UNL     1     -13.166   5.883   7.130  1.00  0.00     0.031 C 
ATOM     46  C   UNL     1      -9.185   6.189   9.855  1.00  0.00     0.029 A 
ATOM     47  N   UNL     1     -10.299   7.992   9.245  1.00  0.00    -0.354 N 
ATOM     48  C   UNL     1     -13.062   7.564   5.601  1.00  0.00     0.074 A 
ATOM     49  C   UNL     1     -13.839   6.486   6.146  1.00  0.00     0.031 C 
ATOM     50  C   UNL     1      -9.058   7.089  10.863  1.00  0.00     0.029 A 
ATOM     51  C   UNL     1      -9.775   8.302  10.509  1.00  0.00     0.049 A 
ATOM     52  H   UNL     1     -10.755   8.661   8.683  1.00  0.00     0.167 HD
ATOM     53  C   UNL     1     -13.426   8.772   5.083  1.00  0.00     0.034 A 
ATOM     54  C   UNL     1      -9.893   9.474  11.197  1.00  0.00     0.034 A 
ATOM     55  C   UNL     1     -12.252   9.561   4.817  1.00  0.00     0.049 A 
ATOM     56  C   UNL     1     -10.241  10.522  10.223  1.00  0.00     0.074 A 
ATOM     57  C   UNL     1     -11.250   9.569   3.875  1.00  0.00     0.029 A 
ATOM     58  N   UNL     1     -11.791  10.223   5.925  1.00  0.00    -0.354 N 
ATOM     59  N   UNL     1      -9.404  10.973   9.336  1.00  0.00    -0.248 NA
ATOM     60  C   UNL     1     -11.648  10.798   9.974  1.00  0.00     0.031 C 
ATOM     61  C   UNL     1     -10.102  10.089   4.536  1.00  0.00     0.029 A 
ATOM     62  C   UNL     1     -10.454  10.481   5.828  1.00  0.00     0.049 A 
ATOM     63  H   UNL     1     -12.352  10.480   6.693  1.00  0.00     0.167 HD
ATOM     64  C   UNL     1     -10.187  11.133   8.213  1.00  0.00     0.074 A 
ATOM     65  C   UNL     1     -11.564  11.187   8.700  1.00  0.00     0.031 C 
ATOM     66  C   UNL     1      -9.671  10.864   6.982  1.00  0.00     0.034 A 
BRANCH  53  67
ATOM     67  C   UNL     1     -14.777   9.427   5.296  1.00  0.00     0.023 A 
ATOM     68  C   UNL     1     -15.758   8.914   6.164  1.00  0.00     0.031 A 
ATOM     69  C   UNL     1     -15.013  10.733   4.811  1.00  0.00     0.131 A 
ATOM     70  C   UNL     1     -16.899   9.655   6.506  1.00  0.00     0.055 A 
ATOM     71  C   UNL     1     -16.119  11.499   5.205  1.00  0.00     0.041 A 
ATOM     72  F   UNL     1     -14.145  11.330   3.980  1.00  0.00    -0.206 F 
ATOM     73  C   UNL     1     -17.072  10.960   6.059  1.00  0.00     0.022 A 
BRANCH  70  74
ATOM     74  S   UNL     1     -18.185   8.923   7.558  1.00  0.00     0.124 S 
ATOM     75  O   UNL     1     -18.288   9.895   8.640  1.00  0.00    -0.237 OA
ATOM     76  O   UNL     1     -19.319   8.875   6.639  1.00  0.00    -0.237 OA
ATOM     77  O   UNL     1     -17.629   7.622   7.922  1.00  0.00    -0.744 OA
ENDBRANCH  70  74
ENDBRANCH  53  67
BRANCH  54  78
ATOM     78  C   UNL     1     -10.116   9.749  12.644  1.00  0.00     0.023 A 
ATOM     79  C   UNL     1     -10.916   8.856  13.373  1.00  0.00     0.031 A 
ATOM     80  C   UNL     1      -9.942  11.044  13.186  1.00  0.00     0.131 A 
ATOM     81  C   UNL     1     -11.584   9.286  14.532  1.00  0.00     0.055 A 
ATOM     82  C   UNL     1     -10.580  11.457  14.367  1.00  0.00     0.041 A 
ATOM     83  F   UNL     1      -9.227  11.970  12.527  1.00  0.00    -0.206 F 
ATOM     84  C   UNL     1     -11.427  10.581  15.034  1.00  0.00     0.022 A 
BRANCH  81  85
ATOM     85  S   UNL     1     -12.806   8.208  15.330  1.00  0.00     0.124 S 
ATOM     86  O   UNL     1     -12.390   8.254  16.730  1.00  0.00    -0.237 OA
ATOM     87  O   UNL     1     -14.053   8.900  15.022  1.00  0.00    -0.237 OA
ATOM     88  O   UNL     1     -12.609   6.923  14.666  1.00  0.00    -0.744 OA
ENDBRANCH  81  85
ENDBRANCH  54  78
BRANCH  66  89
ATOM     89  C   UNL     1      -8.176  10.852   6.822  1.00  0.00     0.023 A 
ATOM     90  C   UNL     1      -7.675  11.731   5.852  1.00  0.00     0.031 A 
ATOM     91  C   UNL     1      -7.286   9.931   7.401  1.00  0.00     0.131 A 
ATOM     92  C   UNL     1      -6.355  11.627   5.419  1.00  0.00     0.055 A 
ATOM     93  C   UNL     1      -5.937   9.889   7.028  1.00  0.00     0.041 A 
ATOM     94  F   UNL     1      -7.703   9.004   8.275  1.00  0.00    -0.206 F 
ATOM     95  C   UNL     1      -5.471  10.724   6.014  1.00  0.00     0.022 A 
BRANCH  92  96
ATOM     96  S   UNL     1      -5.833  12.533   3.944  1.00  0.00     0.124 S 
ATOM     97  O   UNL     1      -4.834  13.451   4.482  1.00  0.00    -0.237 OA
ATOM     98  O   UNL     1      -5.313  11.463   3.095  1.00  0.00    -0.237 OA
ATOM     99  O   UNL     1      -7.061  13.159   3.459  1.00  0.00    -0.744 OA
ENDBRANCH  92  96
ENDBRANCH  66  89
ENDBRANCH  40  41
ENDBRANCH  32  35
ENDBRANCH  30  31
ENDBRANCH  29  30
ENDBRANCH   1  29
TORSDOF 18
