REMARK SMILES [NH3+][C@@]1(C(=O)NCCCNC(=O)c2ccc(-c3c4nc(c(-c5cc(S(=O)(=O)[O-])ccc5F)c5ccc([nH]5)c(-c5cc(S(=O)(=O)[O-])ccc5F)c5nc(c(-c6cc(S(=O)(=O)[O-])ccc6F)c6ccc3[nH]6)C=C5)C=C4)cc2)CCC[C@@H](Oc2ccccc2[N+](=O)[O-])C1
REMARK SMILES IDX 7 1 6 2 5 3 3 4 4 5 2 7 75 8 89 9 76 10 78 11 77 12 1 13
REMARK SMILES IDX 79 17 80 18 81 19 85 20 82 21 84 22 83 23 86 24 87 25 88 26
REMARK SMILES IDX 8 27 9 28 10 29 11 31 12 32 13 33 74 34 14 35 73 36 15 37
REMARK SMILES IDX 16 38 17 39 67 40 18 41 72 42 66 43 68 44 19 45 71 46 65 47
REMARK SMILES IDX 64 48 20 50 52 51 32 52 51 53 33 54 36 55 50 56 69 57 34 58
REMARK SMILES IDX 35 59 49 61 70 62 37 63 21 64 22 65 30 66 23 67 29 68 31 69
REMARK SMILES IDX 28 70 24 71 25 72 26 73 27 74 53 75 54 76 62 77 55 78 61 79
REMARK SMILES IDX 63 80 60 81 56 82 57 83 58 84 59 85 38 86 39 87 47 88 40 89
REMARK SMILES IDX 46 90 48 91 45 92 41 93 42 94 43 95 44 96
REMARK H PARENT 5 6 1 14 1 15 1 16 9 30 68 49 36 60
REMARK Flexibility Score: inf
ROOT
ATOM      1  C   UNL     1      -3.995  -1.239  -2.263  1.00  0.00     0.042 C 
ENDROOT
BRANCH   1   2
ATOM      2  C   UNL     1      -3.784   0.042  -1.453  1.00  0.00     0.118 C 
BRANCH   2   3
ATOM      3  N   UNL     1      -3.557  -0.201  -0.039  1.00  0.00    -0.351 N 
ATOM      4  C   UNL     1      -2.420  -0.470   0.672  1.00  0.00     0.281 C 
ATOM      5  O   UNL     1      -2.557  -0.540   1.900  1.00  0.00    -0.268 OA
ATOM      6  H   UNL     1      -4.373  -0.166   0.510  1.00  0.00     0.163 HD
BRANCH   4   7
ATOM      7  C   UNL     1      -0.992  -0.569   0.017  1.00  0.00     0.177 C 
ATOM      8  C   UNL     1      -0.098  -1.462   0.907  1.00  0.00     0.079 C 
ATOM      9  C   UNL     1      -0.390   0.854  -0.026  1.00  0.00     0.124 C 
ATOM     10  C   UNL     1       1.355  -1.516   0.436  1.00  0.00     0.011 C 
ATOM     11  C   UNL     1       1.130   0.972  -0.264  1.00  0.00     0.180 C 
ATOM     12  C   UNL     1       1.995  -0.134   0.364  1.00  0.00     0.046 C 
BRANCH   7  13
ATOM     13  N   UNL     1      -1.082  -1.231  -1.291  1.00  0.00    -0.345 N 
ATOM     14  H   UNL     1      -0.152  -1.290  -1.707  1.00  0.00     0.345 HD
ATOM     15  H   UNL     1      -1.694  -0.692  -1.904  1.00  0.00     0.345 HD
ATOM     16  H   UNL     1      -1.461  -2.170  -1.172  1.00  0.00     0.345 HD
ENDBRANCH   7  13
BRANCH  11  17
ATOM     17  O   UNL     1       1.560   1.378  -1.585  1.00  0.00    -0.483 OA
BRANCH  17  18
ATOM     18  C   UNL     1       1.124   0.646  -2.644  1.00  0.00     0.197 A 
ATOM     19  C   UNL     1       1.809  -0.524  -2.977  1.00  0.00     0.054 A 
ATOM     20  C   UNL     1       0.054   1.054  -3.450  1.00  0.00     0.310 A 
ATOM     21  C   UNL     1       1.331  -1.354  -3.994  1.00  0.00     0.004 A 
ATOM     22  C   UNL     1      -0.449   0.213  -4.454  1.00  0.00     0.090 A 
ATOM     23  C   UNL     1       0.182  -1.005  -4.705  1.00  0.00     0.007 A 
BRANCH  20  24
ATOM     24  N   UNL     1      -0.600   2.338  -3.238  1.00  0.00     0.066 N 
ATOM     25  O   UNL     1      -1.838   2.352  -3.306  1.00  0.00    -0.258 OA
ATOM     26  O   UNL     1       0.107   3.329  -3.018  1.00  0.00    -0.258 OA
ENDBRANCH  20  24
ENDBRANCH  17  18
ENDBRANCH  11  17
ENDBRANCH   4   7
ENDBRANCH   2   3
ENDBRANCH   1   2
BRANCH   1  27
ATOM     27  C   UNL     1      -5.458  -1.560  -2.538  1.00  0.00     0.118 C 
BRANCH  27  28
ATOM     28  N   UNL     1      -6.084  -0.601  -3.439  1.00  0.00    -0.352 N 
ATOM     29  C   UNL     1      -6.907  -0.806  -4.520  1.00  0.00     0.251 C 
ATOM     30  H   UNL     1      -5.885   0.343  -3.243  1.00  0.00     0.163 HD
ATOM     31  O   UNL     1      -7.210   0.154  -5.227  1.00  0.00    -0.269 OA
BRANCH  29  32
ATOM     32  C   UNL     1      -7.392  -2.163  -4.864  1.00  0.00     0.039 A 
ATOM     33  C   UNL     1      -7.494  -2.519  -6.213  1.00  0.00     0.014 A 
ATOM     34  C   UNL     1      -7.756  -3.081  -3.878  1.00  0.00     0.014 A 
ATOM     35  C   UNL     1      -7.891  -3.812  -6.566  1.00  0.00     0.010 A 
ATOM     36  C   UNL     1      -8.059  -4.394  -4.227  1.00  0.00     0.010 A 
ATOM     37  C   UNL     1      -8.137  -4.775  -5.575  1.00  0.00    -0.014 A 
BRANCH  37  38
ATOM     38  C   UNL     1      -8.502  -6.175  -5.917  1.00  0.00     0.031 A 
ATOM     39  C   UNL     1      -9.825  -6.734  -5.459  1.00  0.00     0.074 A 
ATOM     40  C   UNL     1      -7.621  -6.961  -6.568  1.00  0.00     0.049 A 
ATOM     41  N   UNL     1     -10.279  -7.958  -5.534  1.00  0.00    -0.248 NA
ATOM     42  C   UNL     1     -10.741  -5.795  -4.793  1.00  0.00     0.031 C 
ATOM     43  C   UNL     1      -6.295  -6.543  -7.028  1.00  0.00     0.029 A 
ATOM     44  N   UNL     1      -7.699  -8.279  -6.944  1.00  0.00    -0.354 N 
ATOM     45  C   UNL     1     -11.522  -7.940  -4.909  1.00  0.00     0.074 A 
ATOM     46  C   UNL     1     -11.714  -6.600  -4.398  1.00  0.00     0.031 C 
ATOM     47  C   UNL     1      -5.695  -7.576  -7.642  1.00  0.00     0.029 A 
ATOM     48  C   UNL     1      -6.566  -8.745  -7.574  1.00  0.00     0.049 A 
ATOM     49  H   UNL     1      -8.491  -8.840  -6.779  1.00  0.00     0.167 HD
ATOM     50  C   UNL     1     -12.431  -8.940  -4.795  1.00  0.00     0.034 A 
ATOM     51  C   UNL     1      -6.257  -9.977  -8.025  1.00  0.00     0.034 A 
ATOM     52  C   UNL     1     -12.228 -10.264  -5.329  1.00  0.00     0.049 A 
ATOM     53  C   UNL     1      -7.275 -11.080  -7.870  1.00  0.00     0.074 A 
ATOM     54  C   UNL     1     -13.094 -11.343  -5.312  1.00  0.00     0.029 A 
ATOM     55  N   UNL     1     -11.076 -10.691  -5.978  1.00  0.00    -0.354 N 
ATOM     56  N   UNL     1      -8.462 -11.035  -7.309  1.00  0.00    -0.248 NA
ATOM     57  C   UNL     1      -6.920 -12.394  -8.421  1.00  0.00     0.031 C 
ATOM     58  C   UNL     1     -12.443 -12.438  -5.889  1.00  0.00     0.029 A 
ATOM     59  C   UNL     1     -11.201 -12.023  -6.343  1.00  0.00     0.049 A 
ATOM     60  H   UNL     1     -10.286 -10.131  -6.152  1.00  0.00     0.167 HD
ATOM     61  C   UNL     1      -9.008 -12.306  -7.474  1.00  0.00     0.074 A 
ATOM     62  C   UNL     1      -8.027 -13.087  -8.198  1.00  0.00     0.031 C 
ATOM     63  C   UNL     1     -10.211 -12.785  -7.068  1.00  0.00     0.034 A 
BRANCH  50  64
ATOM     64  C   UNL     1     -13.712  -8.637  -4.055  1.00  0.00     0.023 A 
ATOM     65  C   UNL     1     -14.612  -7.656  -4.509  1.00  0.00     0.031 A 
ATOM     66  C   UNL     1     -14.030  -9.318  -2.866  1.00  0.00     0.131 A 
ATOM     67  C   UNL     1     -15.739  -7.328  -3.741  1.00  0.00     0.055 A 
ATOM     68  C   UNL     1     -15.200  -9.047  -2.152  1.00  0.00     0.041 A 
ATOM     69  F   UNL     1     -13.202 -10.250  -2.369  1.00  0.00    -0.206 F 
ATOM     70  C   UNL     1     -16.055  -8.036  -2.580  1.00  0.00     0.022 A 
BRANCH  67  71
ATOM     71  S   UNL     1     -16.704  -5.864  -4.205  1.00  0.00     0.124 S 
ATOM     72  O   UNL     1     -15.698  -4.808  -4.112  1.00  0.00    -0.237 OA
ATOM     73  O   UNL     1     -17.157  -6.197  -5.550  1.00  0.00    -0.237 OA
ATOM     74  O   UNL     1     -17.752  -5.807  -3.188  1.00  0.00    -0.744 OA
ENDBRANCH  67  71
ENDBRANCH  50  64
BRANCH  51  75
ATOM     75  C   UNL     1      -4.929 -10.248  -8.651  1.00  0.00     0.023 A 
ATOM     76  C   UNL     1      -4.829 -10.662  -9.989  1.00  0.00     0.031 A 
ATOM     77  C   UNL     1      -3.740 -10.149  -7.905  1.00  0.00     0.131 A 
ATOM     78  C   UNL     1      -3.580 -11.019 -10.522  1.00  0.00     0.055 A 
ATOM     79  C   UNL     1      -2.493 -10.445  -8.458  1.00  0.00     0.041 A 
ATOM     80  F   UNL     1      -3.774  -9.754  -6.622  1.00  0.00    -0.206 F 
ATOM     81  C   UNL     1      -2.410 -10.899  -9.770  1.00  0.00     0.022 A 
BRANCH  78  82
ATOM     82  S   UNL     1      -3.521 -11.746 -12.183  1.00  0.00     0.124 S 
ATOM     83  O   UNL     1      -4.418 -12.887 -12.039  1.00  0.00    -0.237 OA
ATOM     84  O   UNL     1      -4.006 -10.648 -13.011  1.00  0.00    -0.237 OA
ATOM     85  O   UNL     1      -2.108 -12.079 -12.357  1.00  0.00    -0.744 OA
ENDBRANCH  78  82
ENDBRANCH  51  75
BRANCH  63  86
ATOM     86  C   UNL     1     -10.555 -14.202  -7.455  1.00  0.00     0.023 A 
ATOM     87  C   UNL     1      -9.854 -15.305  -6.938  1.00  0.00     0.031 A 
ATOM     88  C   UNL     1     -11.603 -14.449  -8.360  1.00  0.00     0.131 A 
ATOM     89  C   UNL     1     -10.174 -16.601  -7.371  1.00  0.00     0.055 A 
ATOM     90  C   UNL     1     -11.959 -15.744  -8.738  1.00  0.00     0.041 A 
ATOM     91  F   UNL     1     -12.304 -13.432  -8.888  1.00  0.00    -0.206 F 
ATOM     92  C   UNL     1     -11.234 -16.828  -8.253  1.00  0.00     0.022 A 
BRANCH  89  93
ATOM     93  S   UNL     1      -9.124 -17.980  -6.840  1.00  0.00     0.124 S 
ATOM     94  O   UNL     1      -7.813 -17.572  -7.336  1.00  0.00    -0.237 OA
ATOM     95  O   UNL     1      -9.291 -17.960  -5.390  1.00  0.00    -0.237 OA
ATOM     96  O   UNL     1      -9.710 -19.137  -7.514  1.00  0.00    -0.744 OA
ENDBRANCH  89  93
ENDBRANCH  63  86
ENDBRANCH  37  38
ENDBRANCH  29  32
ENDBRANCH  27  28
ENDBRANCH   1  27
TORSDOF 17
