REMARK SMILES CC[C@@](C)([NH2+]CCC(=O)NC(C)C)C(=O)NCCCNC(=O)c1ccc(-c2c3nc(c(-c4cc(S(=O)(=O)[O-])ccc4F)c4ccc([nH]4)c(-c4cc(S(=O)(=O)[O-])ccc4F)c4nc(c(-c5cc(S(=O)(=O)[O-])ccc5F)c5ccc2[nH]5)C=C4)C=C3)cc1
REMARK SMILES IDX 17 1 16 2 14 3 15 4 3 6 4 7 2 8 1 9 5 10 6 13 7 14 8 15 9 16
REMARK SMILES IDX 10 17 11 19 12 20 13 21 18 22 19 23 20 24 21 25 22 27 23 28
REMARK SMILES IDX 24 29 85 30 25 31 84 32 26 33 27 34 28 35 78 36 29 37 83 38
REMARK SMILES IDX 77 39 79 40 30 41 82 42 76 43 75 44 31 46 63 47 43 48 62 49
REMARK SMILES IDX 44 50 47 51 61 52 80 53 45 54 46 55 60 57 81 58 48 59 32 60
REMARK SMILES IDX 33 61 41 62 34 63 40 64 42 65 39 66 35 67 36 68 37 69 38 70
REMARK SMILES IDX 64 71 65 72 73 73 66 74 72 75 74 76 71 77 67 78 68 79 69 80
REMARK SMILES IDX 70 81 49 82 50 83 58 84 51 85 57 86 59 87 56 88 52 89 53 90
REMARK SMILES IDX 54 91 55 92
REMARK H PARENT 16 5 5 11 5 12 10 18 20 26 79 45 47 56
REMARK Flexibility Score: inf
ROOT
ATOM      1  C   UNL     1       3.290   3.459   3.307  1.00  0.00     0.118 C 
ENDROOT
BRANCH   1   2
ATOM      2  N   UNL     1       3.768   2.235   2.702  1.00  0.00    -0.351 N 
ATOM      3  C   UNL     1       3.094   1.183   2.165  1.00  0.00     0.281 C 
ATOM      4  O   UNL     1       3.783   0.204   1.857  1.00  0.00    -0.268 OA
ATOM      5  H   UNL     1       4.748   2.149   2.675  1.00  0.00     0.163 HD
BRANCH   3   6
ATOM      6  C   UNL     1       1.545   1.214   1.938  1.00  0.00     0.172 C 
ATOM      7  C   UNL     1       1.184   2.393   1.015  1.00  0.00     0.090 C 
BRANCH   6   8
ATOM      8  C   UNL     1       1.143  -0.122   1.198  1.00  0.00     0.075 C 
ATOM      9  C   UNL     1       1.489  -0.226  -0.284  1.00  0.00     0.011 C 
ENDBRANCH   6   8
BRANCH   6  10
ATOM     10  N   UNL     1       0.837   1.024   3.231  1.00  0.00    -0.333 N 
ATOM     11  H   UNL     1       1.475   0.454   3.785  1.00  0.00     0.347 HD
ATOM     12  H   UNL     1      -0.063   0.726   2.854  1.00  0.00     0.347 HD
BRANCH  10  13
ATOM     13  C   UNL     1       0.338   2.023   4.170  1.00  0.00     0.271 C 
BRANCH  13  14
ATOM     14  C   UNL     1      -0.387   3.295   3.724  1.00  0.00     0.161 C 
BRANCH  14  15
ATOM     15  C   UNL     1      -1.902   3.306   3.826  1.00  0.00     0.225 C 
ATOM     16  O   UNL     1      -2.479   4.131   4.537  1.00  0.00    -0.275 OA
ATOM     17  N   UNL     1      -2.666   2.479   3.059  1.00  0.00    -0.354 N 
ATOM     18  H   UNL     1      -3.633   2.661   3.065  1.00  0.00     0.163 HD
BRANCH  17  19
ATOM     19  C   UNL     1      -2.239   1.366   2.236  1.00  0.00     0.075 C 
ATOM     20  C   UNL     1      -2.587   0.043   2.903  1.00  0.00     0.030 C 
ATOM     21  C   UNL     1      -2.773   1.464   0.816  1.00  0.00     0.030 C 
ENDBRANCH  17  19
ENDBRANCH  14  15
ENDBRANCH  13  14
ENDBRANCH  10  13
ENDBRANCH   6  10
ENDBRANCH   3   6
ENDBRANCH   1   2
BRANCH   1  22
ATOM     22  C   UNL     1       3.545   3.477   4.802  1.00  0.00     0.042 C 
BRANCH  22  23
ATOM     23  C   UNL     1       5.004   3.676   5.151  1.00  0.00     0.118 C 
BRANCH  23  24
ATOM     24  N   UNL     1       5.491   4.985   4.743  1.00  0.00    -0.352 N 
ATOM     25  C   UNL     1       5.935   6.029   5.511  1.00  0.00     0.251 C 
ATOM     26  H   UNL     1       5.503   5.144   3.771  1.00  0.00     0.163 HD
ATOM     27  O   UNL     1       6.067   7.141   4.995  1.00  0.00    -0.269 OA
BRANCH  25  28
ATOM     28  C   UNL     1       6.229   5.824   6.944  1.00  0.00     0.039 A 
ATOM     29  C   UNL     1       5.936   6.840   7.855  1.00  0.00     0.014 A 
ATOM     30  C   UNL     1       6.800   4.630   7.392  1.00  0.00     0.014 A 
ATOM     31  C   UNL     1       6.174   6.635   9.214  1.00  0.00     0.010 A 
ATOM     32  C   UNL     1       6.907   4.377   8.751  1.00  0.00     0.010 A 
ATOM     33  C   UNL     1       6.631   5.390   9.677  1.00  0.00    -0.014 A 
BRANCH  33  34
ATOM     34  C   UNL     1       6.890   5.147  11.118  1.00  0.00     0.031 A 
ATOM     35  C   UNL     1       8.280   4.780  11.573  1.00  0.00     0.074 A 
ATOM     36  C   UNL     1       5.874   5.216  12.000  1.00  0.00     0.049 A 
ATOM     37  N   UNL     1       8.706   4.482  12.773  1.00  0.00    -0.248 NA
ATOM     38  C   UNL     1       9.319   4.695  10.534  1.00  0.00     0.031 C 
ATOM     39  C   UNL     1       4.479   5.509  11.662  1.00  0.00     0.029 A 
ATOM     40  N   UNL     1       5.856   5.048  13.360  1.00  0.00    -0.354 N 
ATOM     41  C   UNL     1      10.052   4.161  12.627  1.00  0.00     0.074 A 
ATOM     42  C   UNL     1      10.347   4.215  11.213  1.00  0.00     0.031 C 
ATOM     43  C   UNL     1       3.752   5.547  12.789  1.00  0.00     0.029 A 
ATOM     44  C   UNL     1       4.614   5.232  13.923  1.00  0.00     0.049 A 
ATOM     45  H   UNL     1       6.656   4.818  13.886  1.00  0.00     0.167 HD
ATOM     46  C   UNL     1      10.968   3.883  13.587  1.00  0.00     0.034 A 
ATOM     47  C   UNL     1       4.218   5.153  15.209  1.00  0.00     0.034 A 
ATOM     48  C   UNL     1      10.655   3.860  14.994  1.00  0.00     0.049 A 
ATOM     49  C   UNL     1       5.251   4.833  16.260  1.00  0.00     0.074 A 
ATOM     50  C   UNL     1      11.506   3.646  16.063  1.00  0.00     0.029 A 
ATOM     51  N   UNL     1       9.387   4.054  15.528  1.00  0.00    -0.354 N 
ATOM     52  N   UNL     1       6.534   4.589  16.111  1.00  0.00    -0.248 NA
ATOM     53  C   UNL     1       4.787   4.794  17.651  1.00  0.00     0.031 C 
ATOM     54  C   UNL     1      10.742   3.639  17.235  1.00  0.00     0.029 A 
ATOM     55  C   UNL     1       9.428   3.934  16.908  1.00  0.00     0.049 A 
ATOM     56  H   UNL     1       8.577   4.248  15.003  1.00  0.00     0.167 HD
ATOM     57  C   UNL     1       7.034   4.399  17.396  1.00  0.00     0.074 A 
ATOM     58  C   UNL     1       5.919   4.578  18.304  1.00  0.00     0.031 C 
ATOM     59  C   UNL     1       8.300   4.106  17.794  1.00  0.00     0.034 A 
BRANCH  46  60
ATOM     60  C   UNL     1      12.376   3.568  13.138  1.00  0.00     0.023 A 
ATOM     61  C   UNL     1      13.155   4.501  12.429  1.00  0.00     0.031 A 
ATOM     62  C   UNL     1      12.939   2.304  13.390  1.00  0.00     0.131 A 
ATOM     63  C   UNL     1      14.411   4.131  11.926  1.00  0.00     0.055 A 
ATOM     64  C   UNL     1      14.227   1.972  12.965  1.00  0.00     0.041 A 
ATOM     65  F   UNL     1      12.239   1.361  14.040  1.00  0.00    -0.206 F 
ATOM     66  C   UNL     1      14.965   2.882  12.213  1.00  0.00     0.022 A 
BRANCH  63  67
ATOM     67  S   UNL     1      15.240   5.247  10.760  1.00  0.00     0.124 S 
ATOM     68  O   UNL     1      14.252   5.338   9.688  1.00  0.00    -0.237 OA
ATOM     69  O   UNL     1      15.431   6.452  11.558  1.00  0.00    -0.237 OA
ATOM     70  O   UNL     1      16.464   4.529  10.410  1.00  0.00    -0.744 OA
ENDBRANCH  63  67
ENDBRANCH  46  60
BRANCH  47  71
ATOM     71  C   UNL     1       2.791   5.381  15.578  1.00  0.00     0.023 A 
ATOM     72  C   UNL     1       2.419   6.453  16.405  1.00  0.00     0.031 A 
ATOM     73  C   UNL     1       1.779   4.506  15.142  1.00  0.00     0.131 A 
ATOM     74  C   UNL     1       1.083   6.594  16.813  1.00  0.00     0.055 A 
ATOM     75  C   UNL     1       0.442   4.685  15.502  1.00  0.00     0.041 A 
ATOM     76  F   UNL     1       2.077   3.467  14.345  1.00  0.00    -0.206 F 
ATOM     77  C   UNL     1       0.090   5.726  16.355  1.00  0.00     0.022 A 
BRANCH  74  78
ATOM     78  S   UNL     1       0.678   7.875  18.032  1.00  0.00     0.124 S 
ATOM     79  O   UNL     1       1.555   7.517  19.141  1.00  0.00    -0.237 OA
ATOM     80  O   UNL     1       1.019   9.097  17.312  1.00  0.00    -0.237 OA
ATOM     81  O   UNL     1      -0.749   7.674  18.275  1.00  0.00    -0.744 OA
ENDBRANCH  74  78
ENDBRANCH  47  71
BRANCH  59  82
ATOM     82  C   UNL     1       8.543   4.008  19.280  1.00  0.00     0.023 A 
ATOM     83  C   UNL     1       7.953   3.000  20.062  1.00  0.00     0.031 A 
ATOM     84  C   UNL     1       9.368   4.947  19.924  1.00  0.00     0.131 A 
ATOM     85  C   UNL     1       8.142   2.995  21.451  1.00  0.00     0.055 A 
ATOM     86  C   UNL     1       9.610   4.894  21.297  1.00  0.00     0.041 A 
ATOM     87  F   UNL     1       9.956   5.933  19.227  1.00  0.00    -0.206 F 
ATOM     88  C   UNL     1       8.982   3.923  22.071  1.00  0.00     0.022 A 
BRANCH  85  89
ATOM     89  S   UNL     1       7.186   1.823  22.453  1.00  0.00     0.124 S 
ATOM     90  O   UNL     1       5.814   2.170  22.096  1.00  0.00    -0.237 OA
ATOM     91  O   UNL     1       7.664   0.534  21.966  1.00  0.00    -0.237 OA
ATOM     92  O   UNL     1       7.572   2.150  23.824  1.00  0.00    -0.744 OA
ENDBRANCH  85  89
ENDBRANCH  59  82
ENDBRANCH  33  34
ENDBRANCH  25  28
ENDBRANCH  23  24
ENDBRANCH  22  23
ENDBRANCH   1  22
TORSDOF 19
