REMARK SMILES Cc1ccc(-c2cc(Cl)cc3c2O[C@H](C(F)(F)F)C(C(=O)NCCCNC(=O)c2ccc(-c4c5nc(c(-c6cc(S(=O)(=O)[O-])ccc6F)c6ccc([nH]6)c(-c6cc(S(=O)(=O)[O-])ccc6F)c6nc(c(-c7cc(S(=O)(=O)[O-])ccc7F)c7ccc4[nH]7)C=C6)C=C5)cc2)=C3)cc1F
REMARK SMILES IDX 25 1 24 2 23 3 22 4 20 5 21 6 19 8 6 9 7 10 12 11 8 12 11 13
REMARK SMILES IDX 13 14 9 15 10 16 92 17 14 18 5 19 1 20 2 21 3 22 94 23 4 24
REMARK SMILES IDX 93 25 95 26 15 27 16 28 17 29 18 30 26 31 27 32 28 34 29 35
REMARK SMILES IDX 30 36 91 37 31 38 90 39 32 40 33 41 34 42 84 43 35 44 89 45
REMARK SMILES IDX 83 46 85 47 36 48 88 49 82 50 81 51 37 53 69 54 49 55 68 56
REMARK SMILES IDX 50 57 53 58 67 59 86 60 51 61 52 62 66 64 87 65 54 66 38 67
REMARK SMILES IDX 39 68 47 69 40 70 46 71 48 72 45 73 41 74 42 75 43 76 44 77
REMARK SMILES IDX 70 78 71 79 79 80 72 81 78 82 80 83 77 84 73 85 74 86 75 87
REMARK SMILES IDX 76 88 55 89 56 90 64 91 57 92 63 93 65 94 62 95 58 96 59 97
REMARK SMILES IDX 60 98 61 99
REMARK H PARENT 22 7 26 33 85 52 53 63
REMARK Flexibility Score: inf
ROOT
ATOM      1  C   UNL     1      -2.155  -5.517   8.451  1.00  0.00     0.118 C 
ENDROOT
BRANCH   1   2
ATOM      2  C   UNL     1      -2.474  -4.747   7.168  1.00  0.00     0.042 C 
BRANCH   2   3
ATOM      3  C   UNL     1      -1.966  -5.332   5.862  1.00  0.00     0.118 C 
BRANCH   3   4
ATOM      4  N   UNL     1      -3.045  -5.980   5.148  1.00  0.00    -0.352 N 
ATOM      5  C   UNL     1      -3.814  -5.689   4.079  1.00  0.00     0.251 C 
ATOM      6  O   UNL     1      -4.770  -6.456   3.909  1.00  0.00    -0.270 OA
ATOM      7  H   UNL     1      -3.276  -6.853   5.542  1.00  0.00     0.163 HD
BRANCH   5   8
ATOM      8  C   UNL     1      -3.571  -4.587   3.096  1.00  0.00     0.067 C 
ATOM      9  C   UNL     1      -3.064  -1.770  -0.014  1.00  0.00     0.026 A 
ATOM     10  C   UNL     1      -3.994  -1.768  -1.067  1.00  0.00     0.033 A 
ATOM     11  C   UNL     1      -3.278  -2.657   1.061  1.00  0.00     0.135 A 
ATOM     12  C   UNL     1      -5.097  -2.622  -1.041  1.00  0.00     0.042 A 
ATOM     13  C   UNL     1      -4.382  -3.512   1.083  1.00  0.00     0.019 A 
ATOM     14  O   UNL     1      -2.402  -2.608   2.112  1.00  0.00    -0.475 OA
ATOM     15  Cl  UNL     1      -6.221  -2.606  -2.345  1.00  0.00    -0.084 Cl
ATOM     16  C   UNL     1      -5.296  -3.492   0.028  1.00  0.00     0.032 A 
ATOM     17  C   UNL     1      -4.565  -4.424   2.202  1.00  0.00     0.025 C 
ATOM     18  C   UNL     1      -2.304  -3.778   2.975  1.00  0.00     0.314 C 
BRANCH   9  19
ATOM     19  C   UNL     1      -1.898  -0.871  -0.056  1.00  0.00    -0.012 A 
ATOM     20  C   UNL     1       1.545   1.751   0.008  1.00  0.00     0.047 C 
ATOM     21  C   UNL     1       0.343   0.859  -0.044  1.00  0.00    -0.015 A 
ATOM     22  C   UNL     1      -0.954   1.381  -0.029  1.00  0.00     0.007 A 
ATOM     23  C   UNL     1       0.503  -0.527  -0.079  1.00  0.00     0.126 A 
ATOM     24  C   UNL     1      -2.061   0.524  -0.039  1.00  0.00     0.009 A 
ATOM     25  C   UNL     1      -0.593  -1.385  -0.087  1.00  0.00     0.048 A 
ATOM     26  F   UNL     1       1.736  -1.054  -0.106  1.00  0.00    -0.207 F 
ENDBRANCH   9  19
BRANCH  18  27
ATOM     27  C   UNL     1      -1.100  -4.611   2.504  1.00  0.00     0.429 C 
ATOM     28  F   UNL     1       0.054  -3.907   2.603  1.00  0.00    -0.167 F 
ATOM     29  F   UNL     1      -0.922  -5.742   3.223  1.00  0.00    -0.167 F 
ATOM     30  F   UNL     1      -1.222  -4.989   1.207  1.00  0.00    -0.167 F 
ENDBRANCH  18  27
ENDBRANCH   5   8
ENDBRANCH   3   4
ENDBRANCH   2   3
ENDBRANCH   1   2
BRANCH   1  31
ATOM     31  N   UNL     1      -0.923  -6.295   8.480  1.00  0.00    -0.352 N 
ATOM     32  C   UNL     1       0.242  -6.266   9.201  1.00  0.00     0.251 C 
ATOM     33  H   UNL     1      -0.929  -7.022   7.816  1.00  0.00     0.163 HD
ATOM     34  O   UNL     1       0.935  -7.288   9.143  1.00  0.00    -0.269 OA
BRANCH  32  35
ATOM     35  C   UNL     1       0.800  -5.069   9.876  1.00  0.00     0.039 A 
ATOM     36  C   UNL     1       0.078  -3.968  10.329  1.00  0.00     0.014 A 
ATOM     37  C   UNL     1       2.202  -5.018   9.919  1.00  0.00     0.014 A 
ATOM     38  C   UNL     1       0.722  -2.746  10.544  1.00  0.00     0.010 A 
ATOM     39  C   UNL     1       2.846  -3.821  10.170  1.00  0.00     0.010 A 
ATOM     40  C   UNL     1       2.095  -2.661  10.361  1.00  0.00    -0.014 A 
BRANCH  40  41
ATOM     41  C   UNL     1       2.832  -1.408  10.326  1.00  0.00     0.031 A 
ATOM     42  C   UNL     1       2.931  -0.553  11.532  1.00  0.00     0.074 A 
ATOM     43  C   UNL     1       3.486  -1.074   9.183  1.00  0.00     0.049 A 
ATOM     44  N   UNL     1       3.241   0.697  11.486  1.00  0.00    -0.248 NA
ATOM     45  C   UNL     1       2.658  -1.018  12.893  1.00  0.00     0.031 C 
ATOM     46  C   UNL     1       4.581  -0.126   9.051  1.00  0.00     0.029 A 
ATOM     47  N   UNL     1       3.245  -1.461   7.857  1.00  0.00    -0.354 N 
ATOM     48  C   UNL     1       3.525   1.105  12.771  1.00  0.00     0.074 A 
ATOM     49  C   UNL     1       3.016   0.052  13.619  1.00  0.00     0.031 C 
ATOM     50  C   UNL     1       4.747   0.180   7.754  1.00  0.00     0.029 A 
ATOM     51  C   UNL     1       3.626  -0.386   7.029  1.00  0.00     0.049 A 
ATOM     52  H   UNL     1       2.878  -2.324   7.560  1.00  0.00     0.167 HD
ATOM     53  C   UNL     1       4.318   2.201  12.944  1.00  0.00     0.034 A 
ATOM     54  C   UNL     1       2.826   0.307   6.152  1.00  0.00     0.034 A 
ATOM     55  C   UNL     1       4.664   2.795  11.650  1.00  0.00     0.049 A 
ATOM     56  C   UNL     1       2.783   1.804   6.421  1.00  0.00     0.074 A 
ATOM     57  C   UNL     1       5.773   2.682  10.829  1.00  0.00     0.029 A 
ATOM     58  N   UNL     1       3.675   3.380  10.881  1.00  0.00    -0.354 N 
ATOM     59  N   UNL     1       3.434   2.388   7.382  1.00  0.00    -0.248 NA
ATOM     60  C   UNL     1       1.858   2.719   5.746  1.00  0.00     0.031 C 
ATOM     61  C   UNL     1       5.453   3.250   9.569  1.00  0.00     0.029 A 
ATOM     62  C   UNL     1       4.156   3.726   9.629  1.00  0.00     0.049 A 
ATOM     63  H   UNL     1       2.750   3.530  11.183  1.00  0.00     0.167 HD
ATOM     64  C   UNL     1       2.915   3.638   7.592  1.00  0.00     0.074 A 
ATOM     65  C   UNL     1       1.950   3.812   6.522  1.00  0.00     0.031 C 
ATOM     66  C   UNL     1       3.268   4.386   8.679  1.00  0.00     0.034 A 
BRANCH  53  67
ATOM     67  C   UNL     1       5.021   2.598  14.233  1.00  0.00     0.023 A 
ATOM     68  C   UNL     1       4.652   2.169  15.526  1.00  0.00     0.031 A 
ATOM     69  C   UNL     1       6.171   3.424  14.177  1.00  0.00     0.131 A 
ATOM     70  C   UNL     1       5.447   2.477  16.654  1.00  0.00     0.055 A 
ATOM     71  C   UNL     1       6.940   3.750  15.298  1.00  0.00     0.041 A 
ATOM     72  F   UNL     1       6.630   3.928  13.024  1.00  0.00    -0.206 F 
ATOM     73  C   UNL     1       6.592   3.263  16.543  1.00  0.00     0.022 A 
BRANCH  70  74
ATOM     74  S   UNL     1       5.069   1.816  18.304  1.00  0.00     0.124 S 
ATOM     75  O   UNL     1       6.294   1.085  18.631  1.00  0.00    -0.237 OA
ATOM     76  O   UNL     1       4.844   3.026  19.089  1.00  0.00    -0.237 OA
ATOM     77  O   UNL     1       3.894   0.977  18.088  1.00  0.00    -0.744 OA
ENDBRANCH  70  74
ENDBRANCH  53  67
BRANCH  54  78
ATOM     78  C   UNL     1       1.599  -0.423   5.726  1.00  0.00     0.023 A 
ATOM     79  C   UNL     1       0.447  -0.189   6.488  1.00  0.00     0.031 A 
ATOM     80  C   UNL     1       1.772  -1.670   5.107  1.00  0.00     0.131 A 
ATOM     81  C   UNL     1      -0.274  -1.282   6.948  1.00  0.00     0.055 A 
ATOM     82  C   UNL     1       1.075  -2.768   5.589  1.00  0.00     0.041 A 
ATOM     83  F   UNL     1       2.787  -1.877   4.254  1.00  0.00    -0.206 F 
ATOM     84  C   UNL     1       0.141  -2.572   6.607  1.00  0.00     0.022 A 
BRANCH  81  85
ATOM     85  S   UNL     1      -1.621  -0.952   8.122  1.00  0.00     0.124 S 
ATOM     86  O   UNL     1      -2.702  -0.606   7.205  1.00  0.00    -0.237 OA
ATOM     87  O   UNL     1      -1.804  -2.221   8.824  1.00  0.00    -0.237 OA
ATOM     88  O   UNL     1      -1.090   0.122   8.940  1.00  0.00    -0.744 OA
ENDBRANCH  81  85
ENDBRANCH  54  78
BRANCH  66  89
ATOM     89  C   UNL     1       2.795   5.790   8.972  1.00  0.00     0.023 A 
ATOM     90  C   UNL     1       2.814   6.272  10.303  1.00  0.00     0.031 A 
ATOM     91  C   UNL     1       2.466   6.735   7.989  1.00  0.00     0.131 A 
ATOM     92  C   UNL     1       2.472   7.590  10.619  1.00  0.00     0.055 A 
ATOM     93  C   UNL     1       2.072   8.042   8.307  1.00  0.00     0.041 A 
ATOM     94  F   UNL     1       2.591   6.458   6.682  1.00  0.00    -0.206 F 
ATOM     95  C   UNL     1       2.068   8.474   9.627  1.00  0.00     0.022 A 
BRANCH  92  96
ATOM     96  S   UNL     1       2.635   8.207  12.317  1.00  0.00     0.124 S 
ATOM     97  O   UNL     1       3.635   9.261  12.153  1.00  0.00    -0.237 OA
ATOM     98  O   UNL     1       1.279   8.672  12.598  1.00  0.00    -0.237 OA
ATOM     99  O   UNL     1       3.069   7.041  13.075  1.00  0.00    -0.744 OA
ENDBRANCH  92  96
ENDBRANCH  66  89
ENDBRANCH  40  41
ENDBRANCH  32  35
ENDBRANCH   1  31
TORSDOF 15
