REMARK SMILES Cc1nn(-c2ccc(C(=O)NCCCNC(=O)c3ccc(-c4c5nc(c(-c6cc(S(=O)(=O)[O-])ccc6F)c6ccc([nH]6)c(-c6cc(S(=O)(=O)[O-])ccc6F)c6nc(c(-c7cc(S(=O)(=O)[O-])ccc7F)c7ccc4[nH]7)C=C6)C=C5)cc3)cc2)c2c1[C@@H](c1ccc[nH]c1=O)SCC(O)=N2
REMARK SMILES IDX 12 1 11 2 9 3 10 4 8 6 5 7 6 8 82 9 7 10 81 11 4 12 1 13
REMARK SMILES IDX 2 14 3 15 84 16 83 17 85 18 86 19 87 20 91 21 88 22 90 23
REMARK SMILES IDX 92 24 89 25 93 27 94 28 97 30 95 31 96 33 13 35 14 36 15 37
REMARK SMILES IDX 16 38 17 40 18 41 19 42 80 43 20 44 79 45 21 46 22 47 23 48
REMARK SMILES IDX 73 49 24 50 78 51 72 52 74 53 25 54 77 55 71 56 70 57 26 59
REMARK SMILES IDX 58 60 38 61 57 62 39 63 42 64 56 65 75 66 40 67 41 68 55 70
REMARK SMILES IDX 76 71 43 72 27 73 28 74 36 75 29 76 35 77 37 78 34 79 30 80
REMARK SMILES IDX 31 81 32 82 33 83 59 84 60 85 68 86 61 87 67 88 69 89 66 90
REMARK SMILES IDX 62 91 63 92 64 93 65 94 44 95 45 96 53 97 46 98 52 99 54 100
REMARK SMILES IDX 51 101 47 102 48 103 49 104 50 105
REMARK H PARENT 11 5 90 26 96 34 15 39 74 58 42 69
REMARK Flexibility Score: 90.00
ROOT
ATOM      1  C   UNL     1       1.946  -9.287   2.878  1.00  0.00     0.118 C 
ENDROOT
BRANCH   1   2
ATOM      2  N   UNL     1       1.483  -9.872   1.632  1.00  0.00    -0.352 N 
ATOM      3  C   UNL     1       1.033  -9.310   0.463  1.00  0.00     0.251 C 
ATOM      4  O   UNL     1       0.793 -10.066  -0.479  1.00  0.00    -0.269 OA
ATOM      5  H   UNL     1       1.493 -10.857   1.624  1.00  0.00     0.163 HD
BRANCH   3   6
ATOM      6  C   UNL     1       0.853  -7.842   0.271  1.00  0.00     0.039 A 
ATOM      7  C   UNL     1       0.442  -5.124  -0.241  1.00  0.00     0.067 A 
ATOM      8  C   UNL     1       0.532  -6.020  -1.310  1.00  0.00     0.029 A 
ATOM      9  C   UNL     1       0.567  -5.561   1.071  1.00  0.00     0.029 A 
ATOM     10  C   UNL     1       0.766  -7.372  -1.050  1.00  0.00     0.016 A 
ATOM     11  C   UNL     1       0.711  -6.921   1.314  1.00  0.00     0.016 A 
BRANCH   7  12
ATOM     12  N   UNL     1       0.066  -3.782  -0.447  1.00  0.00    -0.215 N 
ATOM     13  C   UNL     1       0.514  -0.400   0.431  1.00  0.00     0.069 C 
ATOM     14  C   UNL     1       0.040  -1.683  -0.156  1.00  0.00     0.067 A 
ATOM     15  N   UNL     1       0.673  -2.790   0.231  1.00  0.00    -0.171 NA
ATOM     16  C   UNL     1      -1.035  -1.958  -1.077  1.00  0.00     0.038 A 
ATOM     17  C   UNL     1      -1.040  -3.348  -1.167  1.00  0.00     0.164 A 
BRANCH  16  18
ATOM     18  C   UNL     1      -1.988  -0.927  -1.653  1.00  0.00     0.118 C 
BRANCH  18  19
ATOM     19  C   UNL     1      -1.298   0.246  -2.327  1.00  0.00     0.035 A 
ATOM     20  C   UNL     1      -0.049   0.264  -2.841  1.00  0.00     0.012 A 
ATOM     21  C   UNL     1      -2.068   1.538  -2.326  1.00  0.00     0.252 A 
ATOM     22  C   UNL     1       0.552   1.479  -3.338  1.00  0.00     0.018 A 
ATOM     23  N   UNL     1      -1.433   2.628  -2.872  1.00  0.00    -0.329 N 
ATOM     24  O   UNL     1      -3.194   1.641  -1.851  1.00  0.00    -0.269 OA
ATOM     25  C   UNL     1      -0.152   2.615  -3.348  1.00  0.00     0.086 A 
ATOM     26  H   UNL     1      -1.934   3.474  -2.923  1.00  0.00     0.169 HD
ENDBRANCH  18  19
BRANCH  18  27
ATOM     27  S   UNL     1      -3.292  -1.528  -2.814  1.00  0.00    -0.139 SA
BRANCH  27  28
ATOM     28  C   UNL     1      -2.445  -2.896  -3.627  1.00  0.00     0.167 CG0
ATOM     29  G   UNL     1      -2.554  -4.089  -2.730  1.00  0.00     0.000 G0
ENDBRANCH  27  28
ENDBRANCH  18  27
ENDBRANCH  16  18
BRANCH  17  30
ATOM     30  N   UNL     1      -1.910  -4.281  -1.635  1.00  0.00    -0.197 NA
ATOM     31  C   UNL     1      -2.554  -4.089  -2.730  1.00  0.00     0.197 CG0
ATOM     32  G   UNL     1      -2.445  -2.896  -3.627  1.00  0.00     0.000 G0
BRANCH  31  33
ATOM     33  O   UNL     1      -3.433  -5.037  -3.103  1.00  0.00    -0.496 OA
ATOM     34  H   UNL     1      -3.923  -4.936  -3.895  1.00  0.00     0.295 HD
ENDBRANCH  31  33
ENDBRANCH  17  30
ENDBRANCH   7  12
ENDBRANCH   3   6
ENDBRANCH   1   2
BRANCH   1  35
ATOM     35  C   UNL     1       0.811  -9.137   3.901  1.00  0.00     0.042 C 
BRANCH  35  36
ATOM     36  C   UNL     1       0.585 -10.404   4.705  1.00  0.00     0.118 C 
BRANCH  36  37
ATOM     37  N   UNL     1       1.699 -10.670   5.612  1.00  0.00    -0.352 N 
ATOM     38  C   UNL     1       1.973 -11.816   6.336  1.00  0.00     0.251 C 
ATOM     39  H   UNL     1       2.343  -9.933   5.723  1.00  0.00     0.163 HD
ATOM     40  O   UNL     1       2.711 -11.767   7.304  1.00  0.00    -0.269 OA
BRANCH  38  41
ATOM     41  C   UNL     1       1.331 -13.078   5.924  1.00  0.00     0.039 A 
ATOM     42  C   UNL     1       0.807 -13.956   6.874  1.00  0.00     0.014 A 
ATOM     43  C   UNL     1       1.204 -13.343   4.564  1.00  0.00     0.014 A 
ATOM     44  C   UNL     1       0.065 -15.051   6.436  1.00  0.00     0.010 A 
ATOM     45  C   UNL     1       0.338 -14.322   4.142  1.00  0.00     0.010 A 
ATOM     46  C   UNL     1      -0.200 -15.211   5.064  1.00  0.00    -0.014 A 
BRANCH  46  47
ATOM     47  C   UNL     1      -1.142 -16.230   4.601  1.00  0.00     0.031 A 
ATOM     48  C   UNL     1      -2.438 -16.258   5.330  1.00  0.00     0.074 A 
ATOM     49  C   UNL     1      -0.974 -16.971   3.484  1.00  0.00     0.049 A 
ATOM     50  N   UNL     1      -2.852 -17.158   6.157  1.00  0.00    -0.248 NA
ATOM     51  C   UNL     1      -3.314 -15.078   5.257  1.00  0.00     0.031 C 
ATOM     52  C   UNL     1       0.096 -16.889   2.483  1.00  0.00     0.029 A 
ATOM     53  N   UNL     1      -1.808 -17.903   2.945  1.00  0.00    -0.354 N 
ATOM     54  C   UNL     1      -4.144 -16.791   6.517  1.00  0.00     0.074 A 
ATOM     55  C   UNL     1      -4.286 -15.420   6.107  1.00  0.00     0.031 C 
ATOM     56  C   UNL     1      -0.277 -17.545   1.363  1.00  0.00     0.029 A 
ATOM     57  C   UNL     1      -1.519 -18.247   1.627  1.00  0.00     0.049 A 
ATOM     58  H   UNL     1      -2.556 -18.302   3.447  1.00  0.00     0.167 HD
ATOM     59  C   UNL     1      -5.058 -17.728   6.902  1.00  0.00     0.034 A 
ATOM     60  C   UNL     1      -2.247 -19.047   0.804  1.00  0.00     0.034 A 
ATOM     61  C   UNL     1      -4.405 -18.981   7.225  1.00  0.00     0.049 A 
ATOM     62  C   UNL     1      -3.056 -19.927   1.682  1.00  0.00     0.074 A 
ATOM     63  C   UNL     1      -3.403 -19.350   8.105  1.00  0.00     0.029 A 
ATOM     64  N   UNL     1      -4.478 -20.011   6.311  1.00  0.00    -0.354 N 
ATOM     65  N   UNL     1      -2.529 -20.815   2.480  1.00  0.00    -0.248 NA
ATOM     66  C   UNL     1      -4.397 -19.492   2.040  1.00  0.00     0.031 C 
ATOM     67  C   UNL     1      -2.595 -20.269   7.370  1.00  0.00     0.029 A 
ATOM     68  C   UNL     1      -3.200 -20.483   6.130  1.00  0.00     0.049 A 
ATOM     69  H   UNL     1      -5.293 -20.345   5.871  1.00  0.00     0.167 HD
ATOM     70  C   UNL     1      -3.255 -20.712   3.656  1.00  0.00     0.074 A 
ATOM     71  C   UNL     1      -4.456 -19.961   3.291  1.00  0.00     0.031 C 
ATOM     72  C   UNL     1      -2.691 -20.994   4.869  1.00  0.00     0.034 A 
BRANCH  59  73
ATOM     73  C   UNL     1      -6.548 -17.651   6.639  1.00  0.00     0.023 A 
ATOM     74  C   UNL     1      -7.334 -18.734   7.083  1.00  0.00     0.031 A 
ATOM     75  C   UNL     1      -7.189 -16.760   5.749  1.00  0.00     0.131 A 
ATOM     76  C   UNL     1      -8.618 -18.963   6.559  1.00  0.00     0.055 A 
ATOM     77  C   UNL     1      -8.495 -16.953   5.286  1.00  0.00     0.041 A 
ATOM     78  F   UNL     1      -6.571 -15.707   5.203  1.00  0.00    -0.206 F 
ATOM     79  C   UNL     1      -9.204 -18.080   5.660  1.00  0.00     0.022 A 
BRANCH  76  80
ATOM     80  S   UNL     1      -9.421 -20.544   6.927  1.00  0.00     0.124 S 
ATOM     81  O   UNL     1      -8.395 -21.495   6.514  1.00  0.00    -0.237 OA
ATOM     82  O   UNL     1      -9.657 -20.433   8.362  1.00  0.00    -0.237 OA
ATOM     83  O   UNL     1     -10.620 -20.516   6.093  1.00  0.00    -0.744 OA
ENDBRANCH  76  80
ENDBRANCH  59  73
BRANCH  60  84
ATOM     84  C   UNL     1      -2.486 -18.883  -0.656  1.00  0.00     0.023 A 
ATOM     85  C   UNL     1      -3.005 -19.919  -1.462  1.00  0.00     0.031 A 
ATOM     86  C   UNL     1      -2.445 -17.594  -1.234  1.00  0.00     0.131 A 
ATOM     87  C   UNL     1      -3.462 -19.644  -2.773  1.00  0.00     0.055 A 
ATOM     88  C   UNL     1      -2.897 -17.328  -2.529  1.00  0.00     0.041 A 
ATOM     89  F   UNL     1      -2.045 -16.526  -0.525  1.00  0.00    -0.206 F 
ATOM     90  C   UNL     1      -3.420 -18.351  -3.301  1.00  0.00     0.022 A 
BRANCH  87  91
ATOM     91  S   UNL     1      -4.230 -20.954  -3.783  1.00  0.00     0.124 S 
ATOM     92  O   UNL     1      -3.078 -21.763  -4.166  1.00  0.00    -0.237 OA
ATOM     93  O   UNL     1      -5.170 -21.565  -2.849  1.00  0.00    -0.237 OA
ATOM     94  O   UNL     1      -4.855 -20.216  -4.881  1.00  0.00    -0.744 OA
ENDBRANCH  87  91
ENDBRANCH  60  84
BRANCH  72  95
ATOM     95  C   UNL     1      -1.347 -21.698   4.904  1.00  0.00     0.023 A 
ATOM     96  C   UNL     1      -0.165 -21.233   4.280  1.00  0.00     0.031 A 
ATOM     97  C   UNL     1      -1.242 -22.843   5.716  1.00  0.00     0.131 A 
ATOM     98  C   UNL     1       1.054 -21.918   4.473  1.00  0.00     0.055 A 
ATOM     99  C   UNL     1      -0.032 -23.503   5.923  1.00  0.00     0.041 A 
ATOM    100  F   UNL     1      -2.321 -23.323   6.357  1.00  0.00    -0.206 F 
ATOM    101  C   UNL     1       1.121 -23.047   5.297  1.00  0.00     0.022 A 
BRANCH  98 102
ATOM    102  S   UNL     1       2.580 -21.367   3.640  1.00  0.00     0.124 S 
ATOM    103  O   UNL     1       2.165 -21.170   2.257  1.00  0.00    -0.237 OA
ATOM    104  O   UNL     1       2.928 -20.158   4.382  1.00  0.00    -0.237 OA
ATOM    105  O   UNL     1       3.502 -22.487   3.844  1.00  0.00    -0.744 OA
ENDBRANCH  98 102
ENDBRANCH  72  95
ENDBRANCH  46  47
ENDBRANCH  38  41
ENDBRANCH  36  37
ENDBRANCH  35  36
ENDBRANCH   1  35
TORSDOF 16
