REMARK SMILES C[NH+](C)CCc1nc(Nc2ccc(O)c(C(=O)NCCCNC(=O)c3ccc(-c4c5nc(c(-c6cc(S(=O)(=O)[O-])ccc6F)c6ccc([nH]6)c(-c6cc(S(=O)(=O)[O-])ccc6F)c6nc(c(-c7cc(S(=O)(=O)[O-])ccc7F)c7ccc4[nH]7)C=C6)C=C5)cc3)c2)c2ccccc2n1
REMARK SMILES IDX 19 1 18 2 16 3 17 4 15 6 10 7 11 8 88 9 12 10 13 11 9 12
REMARK SMILES IDX 8 14 6 15 7 16 95 17 94 18 89 19 93 20 90 21 92 22 91 23
REMARK SMILES IDX 5 24 4 25 2 26 1 27 3 28 14 30 20 32 21 33 22 34 23 35 24 37
REMARK SMILES IDX 25 38 26 39 87 40 27 41 86 42 28 43 29 44 30 45 80 46 31 47
REMARK SMILES IDX 85 48 79 49 81 50 32 51 84 52 78 53 77 54 33 56 65 57 45 58
REMARK SMILES IDX 64 59 46 60 49 61 63 62 82 63 47 64 48 65 62 67 83 68 50 69
REMARK SMILES IDX 34 70 35 71 43 72 36 73 42 74 44 75 41 76 37 77 38 78 39 79
REMARK SMILES IDX 40 80 66 81 67 82 75 83 68 84 74 85 76 86 73 87 69 88 70 89
REMARK SMILES IDX 71 90 72 91 51 92 52 93 60 94 53 95 59 96 61 97 58 98 54 99
REMARK SMILES IDX 55 100 56 101 57 102
REMARK H PARENT 18 5 9 13 2 29 14 31 22 36 81 55 49 66
REMARK Flexibility Score: inf
ROOT
ATOM      1  C   UNL     1      -0.756   7.265  -8.141  1.00  0.00     0.118 C 
ENDROOT
BRANCH   1   2
ATOM      2  N   UNL     1       0.149   7.912  -7.215  1.00  0.00    -0.352 N 
ATOM      3  C   UNL     1       0.299   7.836  -5.857  1.00  0.00     0.255 C 
ATOM      4  O   UNL     1       1.141   8.599  -5.369  1.00  0.00    -0.269 OA
ATOM      5  H   UNL     1       0.782   8.530  -7.648  1.00  0.00     0.163 HD
BRANCH   3   6
ATOM      6  C   UNL     1      -0.381   6.861  -4.948  1.00  0.00     0.083 A 
ATOM      7  C   UNL     1      -0.069   5.636  -2.832  1.00  0.00     0.041 A 
ATOM      8  C   UNL     1      -1.301   5.016  -3.020  1.00  0.00     0.030 A 
ATOM      9  C   UNL     1       0.381   6.535  -3.805  1.00  0.00     0.043 A 
ATOM     10  C   UNL     1      -2.095   5.347  -4.114  1.00  0.00     0.049 A 
ATOM     11  C   UNL     1      -1.649   6.282  -5.059  1.00  0.00     0.128 A 
BRANCH   7  12
ATOM     12  N   UNL     1       0.763   5.319  -1.746  1.00  0.00    -0.340 N 
ATOM     13  H   UNL     1       1.121   6.075  -1.228  1.00  0.00     0.168 HD
BRANCH  12  14
ATOM     14  C   UNL     1       1.137   4.027  -1.321  1.00  0.00     0.142 A 
ATOM     15  C   UNL     1       1.296   1.776  -1.768  1.00  0.00     0.137 A 
ATOM     16  N   UNL     1       0.848   2.985  -2.123  1.00  0.00    -0.215 NA
ATOM     17  N   UNL     1       2.076   1.553  -0.702  1.00  0.00    -0.233 NA
ATOM     18  C   UNL     1       2.268   2.566   0.146  1.00  0.00     0.076 A 
ATOM     19  C   UNL     1       1.790   3.857  -0.092  1.00  0.00     0.043 A 
ATOM     20  C   UNL     1       2.941   2.312   1.334  1.00  0.00     0.029 A 
ATOM     21  C   UNL     1       1.973   4.863   0.892  1.00  0.00     0.014 A 
ATOM     22  C   UNL     1       3.113   3.297   2.309  1.00  0.00     0.002 A 
ATOM     23  C   UNL     1       2.620   4.576   2.091  1.00  0.00     0.001 A 
BRANCH  15  24
ATOM     24  C   UNL     1       0.867   0.628  -2.638  1.00  0.00     0.138 C 
BRANCH  24  25
ATOM     25  C   UNL     1       1.100  -0.796  -2.101  1.00  0.00     0.269 C 
BRANCH  25  26
ATOM     26  N   UNL     1       0.272  -1.347  -1.009  1.00  0.00    -0.339 N 
ATOM     27  C   UNL     1       0.637  -0.836   0.308  1.00  0.00     0.332 C 
ATOM     28  C   UNL     1      -1.162  -1.207  -1.234  1.00  0.00     0.332 C 
ATOM     29  H   UNL     1       0.482  -2.345  -1.021  1.00  0.00     0.347 HD
ENDBRANCH  25  26
ENDBRANCH  24  25
ENDBRANCH  15  24
ENDBRANCH  12  14
ENDBRANCH   7  12
BRANCH  11  30
ATOM     30  O   UNL     1      -2.529   6.621  -6.041  1.00  0.00    -0.507 OA
ATOM     31  H   UNL     1      -3.369   6.210  -6.080  1.00  0.00     0.293 HD
ENDBRANCH  11  30
ENDBRANCH   3   6
ENDBRANCH   1   2
BRANCH   1  32
ATOM     32  C   UNL     1      -1.994   8.132  -8.375  1.00  0.00     0.042 C 
BRANCH  32  33
ATOM     33  C   UNL     1      -1.746   9.309  -9.310  1.00  0.00     0.118 C 
BRANCH  33  34
ATOM     34  N   UNL     1      -1.625   8.879 -10.694  1.00  0.00    -0.352 N 
ATOM     35  C   UNL     1      -2.394   9.206 -11.784  1.00  0.00     0.251 C 
ATOM     36  H   UNL     1      -0.881   8.261 -10.877  1.00  0.00     0.163 HD
ATOM     37  O   UNL     1      -2.293   8.532 -12.806  1.00  0.00    -0.269 OA
BRANCH  35  38
ATOM     38  C   UNL     1      -3.342  10.344 -11.733  1.00  0.00     0.039 A 
ATOM     39  C   UNL     1      -4.572  10.224 -12.389  1.00  0.00     0.014 A 
ATOM     40  C   UNL     1      -3.011  11.544 -11.096  1.00  0.00     0.014 A 
ATOM     41  C   UNL     1      -5.481  11.285 -12.369  1.00  0.00     0.010 A 
ATOM     42  C   UNL     1      -3.947  12.575 -11.017  1.00  0.00     0.010 A 
ATOM     43  C   UNL     1      -5.187  12.461 -11.661  1.00  0.00    -0.014 A 
BRANCH  43  44
ATOM     44  C   UNL     1      -6.157  13.588 -11.601  1.00  0.00     0.031 A 
ATOM     45  C   UNL     1      -5.808  14.915 -12.221  1.00  0.00     0.074 A 
ATOM     46  C   UNL     1      -7.318  13.433 -10.934  1.00  0.00     0.049 A 
ATOM     47  N   UNL     1      -6.476  16.040 -12.199  1.00  0.00    -0.248 NA
ATOM     48  C   UNL     1      -4.524  14.994 -12.935  1.00  0.00     0.031 C 
ATOM     49  C   UNL     1      -7.745  12.206 -10.258  1.00  0.00     0.029 A 
ATOM     50  N   UNL     1      -8.345  14.313 -10.700  1.00  0.00    -0.354 N 
ATOM     51  C   UNL     1      -5.685  16.966 -12.873  1.00  0.00     0.074 A 
ATOM     52  C   UNL     1      -4.468  16.280 -13.251  1.00  0.00     0.031 C 
ATOM     53  C   UNL     1      -8.947  12.409  -9.695  1.00  0.00     0.029 A 
ATOM     54  C   UNL     1      -9.358  13.789  -9.930  1.00  0.00     0.049 A 
ATOM     55  H   UNL     1      -8.356  15.233 -11.050  1.00  0.00     0.167 HD
ATOM     56  C   UNL     1      -5.957  18.263 -13.161  1.00  0.00     0.034 A 
ATOM     57  C   UNL     1     -10.482  14.361  -9.452  1.00  0.00     0.034 A 
ATOM     58  C   UNL     1      -7.188  18.922 -12.799  1.00  0.00     0.049 A 
ATOM     59  C   UNL     1     -10.765  15.802  -9.793  1.00  0.00     0.074 A 
ATOM     60  C   UNL     1      -7.600  20.208 -13.106  1.00  0.00     0.029 A 
ATOM     61  N   UNL     1      -8.204  18.351 -12.043  1.00  0.00    -0.354 N 
ATOM     62  N   UNL     1     -10.033  16.645 -10.486  1.00  0.00    -0.248 NA
ATOM     63  C   UNL     1     -12.030  16.364  -9.303  1.00  0.00     0.031 C 
ATOM     64  C   UNL     1      -8.831  20.435 -12.482  1.00  0.00     0.029 A 
ATOM     65  C   UNL     1      -9.226  19.268 -11.849  1.00  0.00     0.049 A 
ATOM     66  H   UNL     1      -8.200  17.430 -11.696  1.00  0.00     0.167 HD
ATOM     67  C   UNL     1     -10.766  17.827 -10.539  1.00  0.00     0.074 A 
ATOM     68  C   UNL     1     -12.002  17.582  -9.824  1.00  0.00     0.031 C 
ATOM     69  C   UNL     1     -10.450  19.009 -11.128  1.00  0.00     0.034 A 
BRANCH  56  70
ATOM     70  C   UNL     1      -4.894  19.061 -13.877  1.00  0.00     0.023 A 
ATOM     71  C   UNL     1      -4.479  18.745 -15.183  1.00  0.00     0.031 A 
ATOM     72  C   UNL     1      -4.282  20.157 -13.240  1.00  0.00     0.131 A 
ATOM     73  C   UNL     1      -3.442  19.474 -15.785  1.00  0.00     0.055 A 
ATOM     74  C   UNL     1      -3.303  20.925 -13.873  1.00  0.00     0.041 A 
ATOM     75  F   UNL     1      -4.622  20.495 -11.987  1.00  0.00    -0.206 F 
ATOM     76  C   UNL     1      -2.868  20.577 -15.149  1.00  0.00     0.022 A 
BRANCH  73  77
ATOM     77  S   UNL     1      -2.770  18.886 -17.363  1.00  0.00     0.124 S 
ATOM     78  O   UNL     1      -2.290  17.554 -17.001  1.00  0.00    -0.237 OA
ATOM     79  O   UNL     1      -3.935  18.929 -18.239  1.00  0.00    -0.237 OA
ATOM     80  O   UNL     1      -1.720  19.855 -17.672  1.00  0.00    -0.744 OA
ENDBRANCH  73  77
ENDBRANCH  56  70
BRANCH  57  81
ATOM     81  C   UNL     1     -11.415  13.586  -8.583  1.00  0.00     0.023 A 
ATOM     82  C   UNL     1     -12.728  13.307  -8.995  1.00  0.00     0.031 A 
ATOM     83  C   UNL     1     -11.021  13.156  -7.303  1.00  0.00     0.131 A 
ATOM     84  C   UNL     1     -13.616  12.665  -8.116  1.00  0.00     0.055 A 
ATOM     85  C   UNL     1     -11.891  12.469  -6.454  1.00  0.00     0.041 A 
ATOM     86  F   UNL     1      -9.775  13.391  -6.861  1.00  0.00    -0.206 F 
ATOM     87  C   UNL     1     -13.203  12.234  -6.854  1.00  0.00     0.022 A 
BRANCH  84  88
ATOM     88  S   UNL     1     -15.352  12.490  -8.612  1.00  0.00     0.124 S 
ATOM     89  O   UNL     1     -15.724  13.873  -8.887  1.00  0.00    -0.237 OA
ATOM     90  O   UNL     1     -15.247  11.610  -9.771  1.00  0.00    -0.237 OA
ATOM     91  O   UNL     1     -15.983  11.896  -7.435  1.00  0.00    -0.744 OA
ENDBRANCH  84  88
ENDBRANCH  57  81
BRANCH  69  92
ATOM     92  C   UNL     1     -11.483  20.106 -11.061  1.00  0.00     0.023 A 
ATOM     93  C   UNL     1     -11.829  20.725  -9.848  1.00  0.00     0.031 A 
ATOM     94  C   UNL     1     -12.138  20.529 -12.232  1.00  0.00     0.131 A 
ATOM     95  C   UNL     1     -12.842  21.695  -9.823  1.00  0.00     0.055 A 
ATOM     96  C   UNL     1     -13.102  21.537 -12.210  1.00  0.00     0.041 A 
ATOM     97  F   UNL     1     -11.847  19.970 -13.418  1.00  0.00    -0.206 F 
ATOM     98  C   UNL     1     -13.468  22.117 -10.999  1.00  0.00     0.022 A 
BRANCH  95  99
ATOM     99  S   UNL     1     -13.394  22.338  -8.220  1.00  0.00     0.124 S 
ATOM    100  O   UNL     1     -13.830  21.123  -7.540  1.00  0.00    -0.237 OA
ATOM    101  O   UNL     1     -12.181  22.960  -7.698  1.00  0.00    -0.237 OA
ATOM    102  O   UNL     1     -14.464  23.270  -8.573  1.00  0.00    -0.744 OA
ENDBRANCH  95  99
ENDBRANCH  69  92
ENDBRANCH  43  44
ENDBRANCH  35  38
ENDBRANCH  33  34
ENDBRANCH  32  33
ENDBRANCH   1  32
TORSDOF 19
