REMARK SMILES C[C@H]1C[C@H]1C(=O)Nc1cc(C(F)(F)F)ccc1C(=O)NCCCNC(=O)c1ccc(-c2c3nc(c(-c4cc(S(=O)(=O)[O-])ccc4F)c4ccc([nH]4)c(-c4cc(S(=O)(=O)[O-])ccc4F)c4nc(c(-c5cc(S(=O)(=O)[O-])ccc5F)c5ccc2[nH]5)C=C4)C=C3)cc1
REMARK SMILES IDX 22 1 21 2 20 3 18 4 19 5 17 7 8 8 9 9 10 10 16 11 15 12 7 13
REMARK SMILES IDX 5 14 6 15 4 17 1 18 2 19 3 20 11 21 12 22 13 23 14 24 23 25
REMARK SMILES IDX 24 26 25 27 26 29 27 30 28 31 89 32 29 33 88 34 30 35 31 36
REMARK SMILES IDX 32 37 82 38 33 39 87 40 81 41 83 42 34 43 86 44 80 45 79 46
REMARK SMILES IDX 35 48 67 49 47 50 66 51 48 52 51 53 65 54 84 55 49 56 50 57
REMARK SMILES IDX 64 59 85 60 52 61 36 62 37 63 45 64 38 65 44 66 46 67 43 68
REMARK SMILES IDX 39 69 40 70 41 71 42 72 68 73 69 74 77 75 70 76 76 77 78 78
REMARK SMILES IDX 75 79 71 80 72 81 73 82 74 83 53 84 54 85 62 86 55 87 61 88
REMARK SMILES IDX 63 89 60 90 56 91 57 92 58 93 59 94
REMARK H PARENT 20 6 7 16 24 28 83 47 51 58
REMARK Flexibility Score: inf
ROOT
ATOM      1  C   UNL     1      -1.839   4.874  -1.673  1.00  0.00     0.042 C 
ENDROOT
BRANCH   1   2
ATOM      2  C   UNL     1      -1.292   3.591  -2.275  1.00  0.00     0.118 C 
BRANCH   2   3
ATOM      3  N   UNL     1      -1.534   2.438  -1.427  1.00  0.00    -0.352 N 
ATOM      4  C   UNL     1      -1.841   1.138  -1.706  1.00  0.00     0.253 C 
ATOM      5  O   UNL     1      -2.173   0.437  -0.747  1.00  0.00    -0.269 OA
ATOM      6  H   UNL     1      -1.463   2.631  -0.465  1.00  0.00     0.163 HD
BRANCH   4   7
ATOM      7  C   UNL     1      -1.887   0.558  -3.076  1.00  0.00     0.063 A 
ATOM      8  C   UNL     1      -1.138   0.925  -4.196  1.00  0.00     0.054 A 
ATOM      9  C   UNL     1      -1.545   0.464  -5.468  1.00  0.00     0.040 A 
ATOM     10  C   UNL     1      -2.538  -0.509  -5.631  1.00  0.00     0.058 A 
ATOM     11  C   UNL     1      -2.865  -0.452  -3.240  1.00  0.00     0.016 A 
ATOM     12  C   UNL     1      -3.170  -0.998  -4.491  1.00  0.00     0.014 A 
BRANCH   8  13
ATOM     13  N   UNL     1       0.014   1.708  -4.269  1.00  0.00    -0.325 N 
ATOM     14  C   UNL     1       1.125   1.900  -3.507  1.00  0.00     0.227 C 
ATOM     15  O   UNL     1       1.913   2.750  -3.932  1.00  0.00    -0.274 OA
ATOM     16  H   UNL     1       0.027   2.265  -5.081  1.00  0.00     0.169 HD
BRANCH  14  17
ATOM     17  C   UNL     1       1.529   1.185  -2.278  1.00  0.00     0.082 C 
ATOM     18  C   UNL     1       0.456  -1.248  -1.748  1.00  0.00     0.008 C 
ATOM     19  C   UNL     1       1.444  -0.160  -1.598  1.00  0.00    -0.001 C 
ATOM     20  C   UNL     1       2.490   0.033  -2.632  1.00  0.00     0.018 C 
ENDBRANCH  14  17
ENDBRANCH   8  13
BRANCH  10  21
ATOM     21  C   UNL     1      -2.908  -0.993  -7.011  1.00  0.00     0.416 C 
ATOM     22  F   UNL     1      -3.916  -0.265  -7.561  1.00  0.00    -0.166 F 
ATOM     23  F   UNL     1      -1.871  -0.920  -7.893  1.00  0.00    -0.166 F 
ATOM     24  F   UNL     1      -3.321  -2.289  -7.032  1.00  0.00    -0.166 F 
ENDBRANCH  10  21
ENDBRANCH   4   7
ENDBRANCH   2   3
ENDBRANCH   1   2
BRANCH   1  25
ATOM     25  C   UNL     1      -1.161   5.263  -0.365  1.00  0.00     0.118 C 
BRANCH  25  26
ATOM     26  N   UNL     1       0.212   5.732  -0.530  1.00  0.00    -0.352 N 
ATOM     27  C   UNL     1       0.737   7.002  -0.438  1.00  0.00     0.251 C 
ATOM     28  H   UNL     1       0.868   5.028  -0.741  1.00  0.00     0.163 HD
ATOM     29  O   UNL     1       1.912   7.204  -0.734  1.00  0.00    -0.269 OA
BRANCH  27  30
ATOM     30  C   UNL     1      -0.133   8.126  -0.035  1.00  0.00     0.039 A 
ATOM     31  C   UNL     1      -0.109   9.312  -0.771  1.00  0.00     0.014 A 
ATOM     32  C   UNL     1      -1.023   7.981   1.028  1.00  0.00     0.014 A 
ATOM     33  C   UNL     1      -1.061  10.301  -0.512  1.00  0.00     0.010 A 
ATOM     34  C   UNL     1      -2.054   8.896   1.185  1.00  0.00     0.010 A 
ATOM     35  C   UNL     1      -2.086  10.073   0.422  1.00  0.00    -0.014 A 
BRANCH  35  36
ATOM     36  C   UNL     1      -3.190  11.047   0.637  1.00  0.00     0.031 A 
ATOM     37  C   UNL     1      -3.443  11.595   2.018  1.00  0.00     0.074 A 
ATOM     38  C   UNL     1      -4.018  11.364  -0.381  1.00  0.00     0.049 A 
ATOM     39  N   UNL     1      -4.425  12.345   2.448  1.00  0.00    -0.248 NA
ATOM     40  C   UNL     1      -2.491  11.199   3.069  1.00  0.00     0.031 C 
ATOM     41  C   UNL     1      -3.921  10.845  -1.748  1.00  0.00     0.029 A 
ATOM     42  N   UNL     1      -5.111  12.194  -0.425  1.00  0.00    -0.354 N 
ATOM     43  C   UNL     1      -4.226  12.478   3.819  1.00  0.00     0.074 A 
ATOM     44  C   UNL     1      -3.083  11.661   4.158  1.00  0.00     0.031 C 
ATOM     45  C   UNL     1      -4.882  11.402  -2.503  1.00  0.00     0.029 A 
ATOM     46  C   UNL     1      -5.698  12.275  -1.667  1.00  0.00     0.049 A 
ATOM     47  H   UNL     1      -5.444  12.686   0.360  1.00  0.00     0.167 HD
ATOM     48  C   UNL     1      -4.910  13.241   4.708  1.00  0.00     0.034 A 
ATOM     49  C   UNL     1      -6.776  12.969  -2.083  1.00  0.00     0.034 A 
ATOM     50  C   UNL     1      -6.019  14.085   4.340  1.00  0.00     0.049 A 
ATOM     51  C   UNL     1      -7.510  13.827  -1.083  1.00  0.00     0.074 A 
ATOM     52  C   UNL     1      -6.741  14.956   5.135  1.00  0.00     0.029 A 
ATOM     53  N   UNL     1      -6.564  14.165   3.064  1.00  0.00    -0.354 N 
ATOM     54  N   UNL     1      -7.274  13.986   0.199  1.00  0.00    -0.248 NA
ATOM     55  C   UNL     1      -8.647  14.606  -1.588  1.00  0.00     0.031 C 
ATOM     56  C   UNL     1      -7.760  15.516   4.357  1.00  0.00     0.029 A 
ATOM     57  C   UNL     1      -7.628  15.053   3.057  1.00  0.00     0.049 A 
ATOM     58  H   UNL     1      -6.242  13.664   2.280  1.00  0.00     0.167 HD
ATOM     59  C   UNL     1      -8.217  14.908   0.646  1.00  0.00     0.074 A 
ATOM     60  C   UNL     1      -9.009  15.281  -0.508  1.00  0.00     0.031 C 
ATOM     61  C   UNL     1      -8.411  15.404   1.895  1.00  0.00     0.034 A 
BRANCH  48  62
ATOM     62  C   UNL     1      -4.474  13.181   6.154  1.00  0.00     0.023 A 
ATOM     63  C   UNL     1      -3.179  13.558   6.552  1.00  0.00     0.031 A 
ATOM     64  C   UNL     1      -5.347  12.695   7.144  1.00  0.00     0.131 A 
ATOM     65  C   UNL     1      -2.763  13.355   7.876  1.00  0.00     0.055 A 
ATOM     66  C   UNL     1      -4.956  12.584   8.481  1.00  0.00     0.041 A 
ATOM     67  F   UNL     1      -6.590  12.300   6.827  1.00  0.00    -0.206 F 
ATOM     68  C   UNL     1      -3.651  12.896   8.850  1.00  0.00     0.022 A 
BRANCH  65  69
ATOM     69  S   UNL     1      -1.001  13.543   8.266  1.00  0.00     0.124 S 
ATOM     70  O   UNL     1      -0.397  12.551   7.378  1.00  0.00    -0.237 OA
ATOM     71  O   UNL     1      -0.750  14.939   7.928  1.00  0.00    -0.237 OA
ATOM     72  O   UNL     1      -0.928  13.221   9.689  1.00  0.00    -0.744 OA
ENDBRANCH  65  69
ENDBRANCH  48  62
BRANCH  49  73
ATOM     73  C   UNL     1      -7.228  12.895  -3.504  1.00  0.00     0.023 A 
ATOM     74  C   UNL     1      -7.194  14.029  -4.332  1.00  0.00     0.031 A 
ATOM     75  C   UNL     1      -7.737  11.701  -4.045  1.00  0.00     0.131 A 
ATOM     76  C   UNL     1      -7.705  13.960  -5.638  1.00  0.00     0.055 A 
ATOM     77  C   UNL     1      -8.195  11.623  -5.362  1.00  0.00     0.041 A 
ATOM     78  F   UNL     1      -7.786  10.585  -3.301  1.00  0.00    -0.206 F 
ATOM     79  C   UNL     1      -8.193  12.761  -6.163  1.00  0.00     0.022 A 
BRANCH  76  80
ATOM     80  S   UNL     1      -7.801  15.485  -6.616  1.00  0.00     0.124 S 
ATOM     81  O   UNL     1      -8.623  16.334  -5.763  1.00  0.00    -0.237 OA
ATOM     82  O   UNL     1      -6.395  15.859  -6.732  1.00  0.00    -0.237 OA
ATOM     83  O   UNL     1      -8.432  15.051  -7.861  1.00  0.00    -0.744 OA
ENDBRANCH  76  80
ENDBRANCH  49  73
BRANCH  61  84
ATOM     84  C   UNL     1      -9.497  16.438   2.058  1.00  0.00     0.023 A 
ATOM     85  C   UNL     1     -10.854  16.116   1.890  1.00  0.00     0.031 A 
ATOM     86  C   UNL     1      -9.165  17.766   2.380  1.00  0.00     0.131 A 
ATOM     87  C   UNL     1     -11.827  17.121   1.986  1.00  0.00     0.055 A 
ATOM     88  C   UNL     1     -10.142  18.749   2.537  1.00  0.00     0.041 A 
ATOM     89  F   UNL     1      -7.883  18.128   2.550  1.00  0.00    -0.206 F 
ATOM     90  C   UNL     1     -11.481  18.432   2.326  1.00  0.00     0.022 A 
BRANCH  87  91
ATOM     91  S   UNL     1     -13.543  16.713   1.567  1.00  0.00     0.124 S 
ATOM     92  O   UNL     1     -13.415  16.242   0.192  1.00  0.00    -0.237 OA
ATOM     93  O   UNL     1     -13.874  15.698   2.561  1.00  0.00    -0.237 OA
ATOM     94  O   UNL     1     -14.246  17.985   1.724  1.00  0.00    -0.744 OA
ENDBRANCH  87  91
ENDBRANCH  61  84
ENDBRANCH  35  36
ENDBRANCH  27  30
ENDBRANCH  25  26
ENDBRANCH   1  25
TORSDOF 16
