REMARK SMILES O=C(NCCCNC(=O)[C@@H](O)c1cscc1Br)c1ccc(-c2c3nc(c(-c4cc(S(=O)(=O)[O-])ccc4F)c4ccc([nH]4)c(-c4cc(S(=O)(=O)[O-])ccc4F)c4nc(c(-c5cc(S(=O)(=O)[O-])ccc5F)c5ccc2[nH]5)C=C4)C=C3)cc1
REMARK SMILES IDX 4 1 3 2 1 3 2 4 18 6 19 7 80 8 20 9 79 10 21 11 22 12 23 13
REMARK SMILES IDX 73 14 24 15 78 16 72 17 74 18 25 19 77 20 71 21 70 22 26 24
REMARK SMILES IDX 58 25 38 26 57 27 39 28 42 29 56 30 75 31 40 32 41 33 55 35
REMARK SMILES IDX 76 36 43 37 27 38 28 39 36 40 29 41 35 42 37 43 34 44 30 45
REMARK SMILES IDX 31 46 32 47 33 48 59 49 60 50 68 51 61 52 67 53 69 54 66 55
REMARK SMILES IDX 62 56 63 57 64 58 65 59 44 60 45 61 53 62 46 63 52 64 54 65
REMARK SMILES IDX 51 66 47 67 48 68 49 69 50 70 5 71 6 72 7 73 8 74 9 76 10 77
REMARK SMILES IDX 11 78 12 80 13 81 16 82 14 83 15 84 17 85
REMARK H PARENT 3 5 74 23 42 34 7 75 11 79
REMARK Flexibility Score: inf
ROOT
ATOM      1  C   UNL     1       4.595  -0.758   0.942  1.00  0.00     0.118 C 
ENDROOT
BRANCH   1   2
ATOM      2  N   UNL     1       3.154  -0.806   0.733  1.00  0.00    -0.352 N 
ATOM      3  O   UNL     1       1.151  -0.160  -0.061  1.00  0.00    -0.269 OA
ATOM      4  C   UNL     1       2.376  -0.129  -0.172  1.00  0.00     0.251 C 
ATOM      5  H   UNL     1       2.665  -1.417   1.330  1.00  0.00     0.163 HD
BRANCH   4   6
ATOM      6  C   UNL     1       3.003   0.642  -1.266  1.00  0.00     0.039 A 
ATOM      7  C   UNL     1       4.075   0.114  -1.992  1.00  0.00     0.014 A 
ATOM      8  C   UNL     1       2.491   1.901  -1.590  1.00  0.00     0.014 A 
ATOM      9  C   UNL     1       4.721   0.894  -2.943  1.00  0.00     0.010 A 
ATOM     10  C   UNL     1       3.086   2.647  -2.609  1.00  0.00     0.010 A 
ATOM     11  C   UNL     1       4.221   2.160  -3.278  1.00  0.00    -0.014 A 
BRANCH  11  12
ATOM     12  C   UNL     1       4.851   2.945  -4.369  1.00  0.00     0.031 A 
ATOM     13  C   UNL     1       5.483   4.278  -4.088  1.00  0.00     0.074 A 
ATOM     14  C   UNL     1       4.819   2.461  -5.625  1.00  0.00     0.049 A 
ATOM     15  N   UNL     1       5.982   5.150  -4.926  1.00  0.00    -0.248 NA
ATOM     16  C   UNL     1       5.546   4.689  -2.679  1.00  0.00     0.031 C 
ATOM     17  C   UNL     1       4.235   1.174  -6.014  1.00  0.00     0.029 A 
ATOM     18  N   UNL     1       5.268   2.993  -6.807  1.00  0.00    -0.354 N 
ATOM     19  C   UNL     1       6.399   6.227  -4.151  1.00  0.00     0.074 A 
ATOM     20  C   UNL     1       6.057   5.907  -2.780  1.00  0.00     0.031 C 
ATOM     21  C   UNL     1       4.365   1.016  -7.338  1.00  0.00     0.029 A 
ATOM     22  C   UNL     1       4.966   2.219  -7.902  1.00  0.00     0.049 A 
ATOM     23  H   UNL     1       5.758   3.844  -6.865  1.00  0.00     0.167 HD
ATOM     24  C   UNL     1       7.013   7.369  -4.552  1.00  0.00     0.034 A 
ATOM     25  C   UNL     1       5.104   2.466  -9.219  1.00  0.00     0.034 A 
ATOM     26  C   UNL     1       7.328   7.665  -5.931  1.00  0.00     0.049 A 
ATOM     27  C   UNL     1       5.718   3.768  -9.653  1.00  0.00     0.074 A 
ATOM     28  C   UNL     1       7.983   8.769  -6.449  1.00  0.00     0.029 A 
ATOM     29  N   UNL     1       6.987   6.864  -7.017  1.00  0.00    -0.354 N 
ATOM     30  N   UNL     1       6.131   4.769  -8.910  1.00  0.00    -0.248 NA
ATOM     31  C   UNL     1       5.890   3.975 -11.095  1.00  0.00     0.031 C 
ATOM     32  C   UNL     1       7.958   8.680  -7.845  1.00  0.00     0.029 A 
ATOM     33  C   UNL     1       7.378   7.473  -8.201  1.00  0.00     0.049 A 
ATOM     34  H   UNL     1       6.534   5.993  -6.954  1.00  0.00     0.167 HD
ATOM     35  C   UNL     1       6.640   5.714  -9.796  1.00  0.00     0.074 A 
ATOM     36  C   UNL     1       6.479   5.163 -11.127  1.00  0.00     0.031 C 
ATOM     37  C   UNL     1       7.203   6.920  -9.527  1.00  0.00     0.034 A 
BRANCH  24  38
ATOM     38  C   UNL     1       7.319   8.402  -3.490  1.00  0.00     0.023 A 
ATOM     39  C   UNL     1       8.158   8.119  -2.398  1.00  0.00     0.031 A 
ATOM     40  C   UNL     1       6.715   9.672  -3.538  1.00  0.00     0.131 A 
ATOM     41  C   UNL     1       8.284   9.045  -1.351  1.00  0.00     0.055 A 
ATOM     42  C   UNL     1       6.925  10.628  -2.541  1.00  0.00     0.041 A 
ATOM     43  F   UNL     1       5.888  10.000  -4.543  1.00  0.00    -0.206 F 
ATOM     44  C   UNL     1       7.694  10.308  -1.427  1.00  0.00     0.022 A 
BRANCH  41  45
ATOM     45  S   UNL     1       9.061   8.497   0.195  1.00  0.00     0.124 S 
ATOM     46  O   UNL     1       8.273   7.308   0.518  1.00  0.00    -0.237 OA
ATOM     47  O   UNL     1      10.440   8.257  -0.213  1.00  0.00    -0.237 OA
ATOM     48  O   UNL     1       8.862   9.628   1.099  1.00  0.00    -0.744 OA
ENDBRANCH  41  45
ENDBRANCH  24  38
BRANCH  25  49
ATOM     49  C   UNL     1       4.592   1.475 -10.205  1.00  0.00     0.023 A 
ATOM     50  C   UNL     1       5.460   0.754 -11.037  1.00  0.00     0.031 A 
ATOM     51  C   UNL     1       3.212   1.212 -10.301  1.00  0.00     0.131 A 
ATOM     52  C   UNL     1       4.938  -0.182 -11.944  1.00  0.00     0.055 A 
ATOM     53  C   UNL     1       2.702   0.245 -11.167  1.00  0.00     0.041 A 
ATOM     54  F   UNL     1       2.340   1.870  -9.519  1.00  0.00    -0.206 F 
ATOM     55  C   UNL     1       3.568  -0.454 -12.001  1.00  0.00     0.022 A 
BRANCH  52  56
ATOM     56  S   UNL     1       6.074  -1.012 -13.087  1.00  0.00     0.124 S 
ATOM     57  O   UNL     1       6.632   0.117 -13.822  1.00  0.00    -0.237 OA
ATOM     58  O   UNL     1       6.981  -1.695 -12.171  1.00  0.00    -0.237 OA
ATOM     59  O   UNL     1       5.197  -1.889 -13.860  1.00  0.00    -0.744 OA
ENDBRANCH  52  56
ENDBRANCH  25  49
BRANCH  37  60
ATOM     60  C   UNL     1       7.749   7.707 -10.693  1.00  0.00     0.023 A 
ATOM     61  C   UNL     1       6.914   8.293 -11.659  1.00  0.00     0.031 A 
ATOM     62  C   UNL     1       9.137   7.903 -10.809  1.00  0.00     0.131 A 
ATOM     63  C   UNL     1       7.479   9.025 -12.716  1.00  0.00     0.055 A 
ATOM     64  C   UNL     1       9.688   8.678 -11.830  1.00  0.00     0.041 A 
ATOM     65  F   UNL     1       9.981   7.359  -9.917  1.00  0.00    -0.206 F 
ATOM     66  C   UNL     1       8.858   9.239 -12.794  1.00  0.00     0.022 A 
BRANCH  63  67
ATOM     67  S   UNL     1       6.393   9.654 -14.027  1.00  0.00     0.124 S 
ATOM     68  O   UNL     1       5.827   8.422 -14.567  1.00  0.00    -0.237 OA
ATOM     69  O   UNL     1       5.471  10.510 -13.288  1.00  0.00    -0.237 OA
ATOM     70  O   UNL     1       7.309  10.359 -14.922  1.00  0.00    -0.744 OA
ENDBRANCH  63  67
ENDBRANCH  37  60
ENDBRANCH  11  12
ENDBRANCH   4   6
ENDBRANCH   1   2
BRANCH   1  71
ATOM     71  C   UNL     1       4.971  -0.154   2.287  1.00  0.00     0.042 C 
BRANCH  71  72
ATOM     72  C   UNL     1       4.483  -0.958   3.482  1.00  0.00     0.117 C 
BRANCH  72  73
ATOM     73  N   UNL     1       5.072  -2.286   3.528  1.00  0.00    -0.353 N 
ATOM     74  C   UNL     1       5.863  -2.845   4.490  1.00  0.00     0.253 C 
ATOM     75  H   UNL     1       4.872  -2.864   2.757  1.00  0.00     0.163 HD
ATOM     76  O   UNL     1       6.324  -3.970   4.274  1.00  0.00    -0.272 OA
BRANCH  74  77
ATOM     77  C   UNL     1       6.213  -2.076   5.786  1.00  0.00     0.235 C 
BRANCH  77  78
ATOM     78  O   UNL     1       7.004  -0.927   5.465  1.00  0.00    -0.378 OA
ATOM     79  H   UNL     1       6.491  -0.331   4.897  1.00  0.00     0.212 HD
ENDBRANCH  77  78
BRANCH  77  80
ATOM     80  C   UNL     1       4.988  -1.712   6.601  1.00  0.00     0.015 A 
ATOM     81  C   UNL     1       4.683  -0.418   7.005  1.00  0.00     0.073 A 
ATOM     82  C   UNL     1       3.974  -2.606   7.077  1.00  0.00     0.035 A 
ATOM     83  S   UNL     1       3.187  -0.291   7.819  1.00  0.00    -0.151 S 
ATOM     84  C   UNL     1       2.934  -1.975   7.716  1.00  0.00     0.080 A 
ATOM     85  Br  UNL     1       4.023  -4.484   6.851  1.00  0.00    -0.050 Br
ENDBRANCH  77  80
ENDBRANCH  74  77
ENDBRANCH  72  73
ENDBRANCH  71  72
ENDBRANCH   1  71
TORSDOF 15
