REMARK SMILES CN1C(=O)Cc2cc([C@@H](O)CCCCC(=O)NCCCNC(=O)c3ccc(-c4c5nc(c(-c6cc(S(=O)(=O)[O-])ccc6F)c6ccc([nH]6)c(-c6cc(S(=O)(=O)[O-])ccc6F)c6nc(c(-c7cc(S(=O)(=O)[O-])ccc7F)c7ccc4[nH]7)C=C6)C=C5)cc3)ccc21
REMARK SMILES IDX 18 1 17 2 15 3 16 4 14 6 13 7 12 8 11 9 9 10 8 11 1 12 2 13
REMARK SMILES IDX 3 14 89 15 4 16 5 17 6 18 88 19 7 20 87 21 10 22 19 24 20 25
REMARK SMILES IDX 21 26 22 27 23 29 24 30 25 31 86 32 26 33 85 34 27 35 28 36
REMARK SMILES IDX 29 37 79 38 30 39 84 40 78 41 80 42 31 43 83 44 77 45 76 46
REMARK SMILES IDX 32 48 64 49 44 50 63 51 45 52 48 53 62 54 81 55 46 56 47 57
REMARK SMILES IDX 61 59 82 60 49 61 33 62 34 63 42 64 35 65 41 66 43 67 40 68
REMARK SMILES IDX 36 69 37 70 38 71 39 72 65 73 66 74 74 75 67 76 73 77 75 78
REMARK SMILES IDX 72 79 68 80 69 81 70 82 71 83 50 84 51 85 59 86 52 87 58 88
REMARK SMILES IDX 60 89 57 90 53 91 54 92 55 93 56 94
REMARK H PARENT 17 5 10 23 21 28 80 47 48 58
REMARK Flexibility Score: inf
ROOT
ATOM      1  C   UNL     1       5.774   3.174   3.531  1.00  0.00     0.117 C 
ENDROOT
BRANCH   1   2
ATOM      2  N   UNL     1       6.490   2.228   4.369  1.00  0.00    -0.356 N 
ATOM      3  C   UNL     1       6.989   0.995   4.084  1.00  0.00     0.219 C 
ATOM      4  O   UNL     1       7.518   0.357   4.997  1.00  0.00    -0.275 OA
ATOM      5  H   UNL     1       6.638   2.529   5.295  1.00  0.00     0.163 HD
BRANCH   3   6
ATOM      6  C   UNL     1       6.935   0.427   2.678  1.00  0.00     0.100 C 
BRANCH   6   7
ATOM      7  C   UNL     1       5.703  -0.430   2.381  1.00  0.00     0.010 C 
BRANCH   7   8
ATOM      8  C   UNL     1       4.427   0.324   2.017  1.00  0.00     0.004 C 
BRANCH   8   9
ATOM      9  C   UNL     1       4.528   1.265   0.806  1.00  0.00     0.037 C 
BRANCH   9  10
ATOM     10  C   UNL     1       4.148   0.619  -0.527  1.00  0.00     0.144 C 
BRANCH  10  11
ATOM     11  C   UNL     1       2.694   0.200  -0.535  1.00  0.00    -0.019 A 
ATOM     12  C   UNL     1      -1.948  -2.079   0.058  1.00  0.00     0.153 C 
ATOM     13  N   UNL     1      -1.298  -0.803  -0.056  1.00  0.00    -0.315 N 
ATOM     14  C   UNL     1      -1.957   0.429   0.003  1.00  0.00     0.231 C 
ATOM     15  C   UNL     1       0.075  -0.635  -0.232  1.00  0.00     0.047 A 
ATOM     16  O   UNL     1      -3.153   0.616   0.128  1.00  0.00    -0.274 OA
ATOM     17  C   UNL     1      -0.889   1.521  -0.125  1.00  0.00     0.138 C 
ATOM     18  C   UNL     1       0.369   0.725  -0.298  1.00  0.00    -0.014 A 
ATOM     19  C   UNL     1       1.056  -1.602  -0.326  1.00  0.00     0.027 A 
ATOM     20  C   UNL     1       1.670   1.162  -0.459  1.00  0.00     0.012 A 
ATOM     21  C   UNL     1       2.374  -1.176  -0.484  1.00  0.00     0.008 A 
ENDBRANCH  10  11
BRANCH  10  22
ATOM     22  O   UNL     1       4.399   1.558  -1.573  1.00  0.00    -0.388 OA
ATOM     23  H   UNL     1       3.861   2.352  -1.430  1.00  0.00     0.211 HD
ENDBRANCH  10  22
ENDBRANCH   9  10
ENDBRANCH   8   9
ENDBRANCH   7   8
ENDBRANCH   6   7
ENDBRANCH   3   6
ENDBRANCH   1   2
BRANCH   1  24
ATOM     24  C   UNL     1       4.299   3.251   3.915  1.00  0.00     0.042 C 
BRANCH  24  25
ATOM     25  C   UNL     1       4.008   4.213   5.051  1.00  0.00     0.118 C 
BRANCH  25  26
ATOM     26  N   UNL     1       4.088   5.601   4.631  1.00  0.00    -0.352 N 
ATOM     27  C   UNL     1       3.131   6.586   4.660  1.00  0.00     0.251 C 
ATOM     28  H   UNL     1       4.962   5.878   4.270  1.00  0.00     0.163 HD
ATOM     29  O   UNL     1       3.345   7.637   4.059  1.00  0.00    -0.269 OA
BRANCH  27  30
ATOM     30  C   UNL     1       1.847   6.382   5.375  1.00  0.00     0.039 A 
ATOM     31  C   UNL     1       0.683   6.942   4.841  1.00  0.00     0.014 A 
ATOM     32  C   UNL     1       1.780   5.667   6.573  1.00  0.00     0.014 A 
ATOM     33  C   UNL     1      -0.543   6.743   5.480  1.00  0.00     0.010 A 
ATOM     34  C   UNL     1       0.546   5.373   7.145  1.00  0.00     0.010 A 
ATOM     35  C   UNL     1      -0.629   5.928   6.620  1.00  0.00    -0.014 A 
BRANCH  35  36
ATOM     36  C   UNL     1      -1.929   5.680   7.298  1.00  0.00     0.031 A 
ATOM     37  C   UNL     1      -2.125   6.101   8.731  1.00  0.00     0.074 A 
ATOM     38  C   UNL     1      -2.911   5.028   6.645  1.00  0.00     0.049 A 
ATOM     39  N   UNL     1      -3.158   5.925   9.515  1.00  0.00    -0.248 NA
ATOM     40  C   UNL     1      -0.991   6.776   9.379  1.00  0.00     0.031 C 
ATOM     41  C   UNL     1      -2.820   4.525   5.273  1.00  0.00     0.029 A 
ATOM     42  N   UNL     1      -4.173   4.671   7.045  1.00  0.00    -0.354 N 
ATOM     43  C   UNL     1      -2.789   6.449  10.751  1.00  0.00     0.074 A 
ATOM     44  C   UNL     1      -1.412   6.873  10.629  1.00  0.00     0.031 C 
ATOM     45  C   UNL     1      -3.986   3.955   4.935  1.00  0.00     0.029 A 
ATOM     46  C   UNL     1      -4.890   4.002   6.081  1.00  0.00     0.049 A 
ATOM     47  H   UNL     1      -4.533   4.875   7.939  1.00  0.00     0.167 HD
ATOM     48  C   UNL     1      -3.539   6.588  11.873  1.00  0.00     0.034 A 
ATOM     49  C   UNL     1      -6.129   3.472   6.117  1.00  0.00     0.034 A 
ATOM     50  C   UNL     1      -4.915   6.162  11.967  1.00  0.00     0.049 A 
ATOM     51  C   UNL     1      -6.942   3.616   7.377  1.00  0.00     0.074 A 
ATOM     52  C   UNL     1      -5.794   6.311  13.025  1.00  0.00     0.029 A 
ATOM     53  N   UNL     1      -5.609   5.486  10.969  1.00  0.00    -0.354 N 
ATOM     54  N   UNL     1      -6.606   4.175   8.518  1.00  0.00    -0.248 NA
ATOM     55  C   UNL     1      -8.303   3.070   7.352  1.00  0.00     0.031 C 
ATOM     56  C   UNL     1      -6.984   5.650  12.702  1.00  0.00     0.029 A 
ATOM     57  C   UNL     1      -6.888   5.171  11.404  1.00  0.00     0.049 A 
ATOM     58  H   UNL     1      -5.245   5.263  10.082  1.00  0.00     0.167 HD
ATOM     59  C   UNL     1      -7.726   4.070   9.338  1.00  0.00     0.074 A 
ATOM     60  C   UNL     1      -8.749   3.409   8.553  1.00  0.00     0.031 C 
ATOM     61  C   UNL     1      -7.894   4.489  10.620  1.00  0.00     0.034 A 
BRANCH  48  62
ATOM     62  C   UNL     1      -2.864   7.188  13.088  1.00  0.00     0.023 A 
ATOM     63  C   UNL     1      -2.292   8.474  13.061  1.00  0.00     0.031 A 
ATOM     64  C   UNL     1      -2.731   6.441  14.273  1.00  0.00     0.131 A 
ATOM     65  C   UNL     1      -1.523   8.925  14.145  1.00  0.00     0.055 A 
ATOM     66  C   UNL     1      -2.053   6.939  15.388  1.00  0.00     0.041 A 
ATOM     67  F   UNL     1      -3.235   5.200  14.360  1.00  0.00    -0.206 F 
ATOM     68  C   UNL     1      -1.424   8.178  15.321  1.00  0.00     0.022 A 
BRANCH  65  69
ATOM     69  S   UNL     1      -0.494  10.402  13.918  1.00  0.00     0.124 S 
ATOM     70  O   UNL     1       0.301  10.030  12.749  1.00  0.00    -0.237 OA
ATOM     71  O   UNL     1      -1.486  11.449  13.709  1.00  0.00    -0.237 OA
ATOM     72  O   UNL     1       0.258  10.492  15.168  1.00  0.00    -0.744 OA
ENDBRANCH  65  69
ENDBRANCH  48  62
BRANCH  49  73
ATOM     73  C   UNL     1      -6.664   2.751   4.926  1.00  0.00     0.023 A 
ATOM     74  C   UNL     1      -7.758   3.250   4.200  1.00  0.00     0.031 A 
ATOM     75  C   UNL     1      -6.075   1.550   4.488  1.00  0.00     0.131 A 
ATOM     76  C   UNL     1      -8.245   2.538   3.093  1.00  0.00     0.055 A 
ATOM     77  C   UNL     1      -6.528   0.875   3.354  1.00  0.00     0.041 A 
ATOM     78  F   UNL     1      -5.026   1.030   5.146  1.00  0.00    -0.206 F 
ATOM     79  C   UNL     1      -7.627   1.365   2.654  1.00  0.00     0.022 A 
BRANCH  76  80
ATOM     80  S   UNL     1      -9.744   3.136   2.264  1.00  0.00     0.124 S 
ATOM     81  O   UNL     1     -10.716   3.110   3.351  1.00  0.00    -0.237 OA
ATOM     82  O   UNL     1      -9.332   4.459   1.805  1.00  0.00    -0.237 OA
ATOM     83  O   UNL     1      -9.967   2.153   1.206  1.00  0.00    -0.744 OA
ENDBRANCH  76  80
ENDBRANCH  49  73
BRANCH  61  84
ATOM     84  C   UNL     1      -9.255   4.275  11.240  1.00  0.00     0.023 A 
ATOM     85  C   UNL     1      -9.767   2.988  11.484  1.00  0.00     0.031 A 
ATOM     86  C   UNL     1     -10.054   5.379  11.588  1.00  0.00     0.131 A 
ATOM     87  C   UNL     1     -11.063   2.838  12.002  1.00  0.00     0.055 A 
ATOM     88  C   UNL     1     -11.313   5.224  12.169  1.00  0.00     0.041 A 
ATOM     89  F   UNL     1      -9.621   6.632  11.373  1.00  0.00    -0.206 F 
ATOM     90  C   UNL     1     -11.830   3.947  12.367  1.00  0.00     0.022 A 
BRANCH  87  91
ATOM     91  S   UNL     1     -11.777   1.173  12.095  1.00  0.00     0.124 S 
ATOM     92  O   UNL     1     -11.701   0.734  10.705  1.00  0.00    -0.237 OA
ATOM     93  O   UNL     1     -10.879   0.499  13.027  1.00  0.00    -0.237 OA
ATOM     94  O   UNL     1     -13.129   1.407  12.598  1.00  0.00    -0.744 OA
ENDBRANCH  87  91
ENDBRANCH  61  84
ENDBRANCH  35  36
ENDBRANCH  27  30
ENDBRANCH  25  26
ENDBRANCH  24  25
ENDBRANCH   1  24
TORSDOF 19
