REMARK SMILES Cc1noc(C)c1[C@@H](C)NC(=O)N(CC(=O)NCCCNC(=O)c1ccc(-c2c3nc(c(-c4cc(S(=O)(=O)[O-])ccc4F)c4ccc([nH]4)c(-c4cc(S(=O)(=O)[O-])ccc4F)c4nc(c(-c5cc(S(=O)(=O)[O-])ccc5F)c5ccc2[nH]5)C=C4)C=C3)cc1)C(C)C
REMARK SMILES IDX 18 1 17 2 15 3 16 4 14 6 13 7 11 8 10 9 12 11 8 12 9 13 7 14
REMARK SMILES IDX 1 15 2 16 3 17 4 18 5 19 6 20 87 21 88 22 89 23 19 24 20 25
REMARK SMILES IDX 21 26 22 27 23 29 24 30 25 31 86 32 26 33 85 34 27 35 28 36
REMARK SMILES IDX 29 37 79 38 30 39 84 40 78 41 80 42 31 43 83 44 77 45 76 46
REMARK SMILES IDX 32 48 64 49 44 50 63 51 45 52 48 53 62 54 81 55 46 56 47 57
REMARK SMILES IDX 61 59 82 60 49 61 33 62 34 63 42 64 35 65 41 66 43 67 40 68
REMARK SMILES IDX 36 69 37 70 38 71 39 72 65 73 66 74 74 75 67 76 73 77 75 78
REMARK SMILES IDX 72 79 68 80 69 81 70 82 71 83 50 84 51 85 59 86 52 87 58 88
REMARK SMILES IDX 60 89 57 90 53 91 54 92 55 93 56 94
REMARK H PARENT 17 5 10 10 21 28 80 47 48 58
REMARK Flexibility Score: inf
ROOT
ATOM      1  C   UNL     1       0.526   5.901  -0.636  1.00  0.00     0.117 C 
ENDROOT
BRANCH   1   2
ATOM      2  N   UNL     1       1.948   6.111  -0.495  1.00  0.00    -0.354 N 
ATOM      3  C   UNL     1       2.886   5.295   0.067  1.00  0.00     0.239 C 
ATOM      4  O   UNL     1       4.070   5.529  -0.198  1.00  0.00    -0.273 OA
ATOM      5  H   UNL     1       2.288   6.963  -0.855  1.00  0.00     0.163 HD
BRANCH   3   6
ATOM      6  C   UNL     1       2.509   4.030   0.861  1.00  0.00     0.221 C 
BRANCH   6   7
ATOM      7  N   UNL     1       1.544   4.197   1.949  1.00  0.00    -0.313 N 
BRANCH   7   8
ATOM      8  C   UNL     1       0.269   3.713   2.041  1.00  0.00     0.318 C 
ATOM      9  N   UNL     1      -0.356   2.947   1.133  1.00  0.00    -0.331 N 
ATOM     10  H   UNL     1      -1.249   2.712   1.474  1.00  0.00     0.165 HD
ATOM     11  O   UNL     1      -0.444   3.962   3.020  1.00  0.00    -0.249 OA
BRANCH   9  12
ATOM     12  C   UNL     1      -0.174   2.339  -0.184  1.00  0.00     0.116 C 
ATOM     13  C   UNL     1      -1.281   2.787  -1.148  1.00  0.00     0.036 C 
BRANCH  12  14
ATOM     14  C   UNL     1      -0.118   0.854  -0.009  1.00  0.00     0.040 A 
ATOM     15  C   UNL     1      -2.646   0.122   0.148  1.00  0.00     0.071 C 
ATOM     16  C   UNL     1      -1.179  -0.097   0.123  1.00  0.00     0.086 A 
ATOM     17  N   UNL     1      -0.709  -1.346   0.219  1.00  0.00    -0.085 NA
ATOM     18  O   UNL     1       0.662  -1.239   0.183  1.00  0.00    -0.361 OA
ATOM     19  C   UNL     1       1.015   0.064   0.051  1.00  0.00     0.139 A 
ATOM     20  C   UNL     1       2.465   0.333   0.005  1.00  0.00     0.091 C 
ENDBRANCH  12  14
ENDBRANCH   9  12
ENDBRANCH   7   8
BRANCH   7  21
ATOM     21  C   UNL     1       2.102   4.959   3.107  1.00  0.00     0.081 C 
ATOM     22  C   UNL     1       1.478   6.340   3.307  1.00  0.00     0.031 C 
ATOM     23  C   UNL     1       2.116   4.159   4.415  1.00  0.00     0.031 C 
ENDBRANCH   7  21
ENDBRANCH   6   7
ENDBRANCH   3   6
ENDBRANCH   1   2
BRANCH   1  24
ATOM     24  C   UNL     1      -0.349   6.894   0.109  1.00  0.00     0.042 C 
BRANCH  24  25
ATOM     25  C   UNL     1      -0.275   8.308  -0.441  1.00  0.00     0.118 C 
BRANCH  25  26
ATOM     26  N   UNL     1      -0.895   8.414  -1.752  1.00  0.00    -0.352 N 
ATOM     27  C   UNL     1      -1.836   9.306  -2.206  1.00  0.00     0.251 C 
ATOM     28  H   UNL     1      -0.596   7.748  -2.412  1.00  0.00     0.163 HD
ATOM     29  O   UNL     1      -2.388   9.087  -3.280  1.00  0.00    -0.269 OA
BRANCH  27  30
ATOM     30  C   UNL     1      -2.197  10.501  -1.406  1.00  0.00     0.039 A 
ATOM     31  C   UNL     1      -3.527  10.928  -1.407  1.00  0.00     0.014 A 
ATOM     32  C   UNL     1      -1.238  11.222  -0.689  1.00  0.00     0.014 A 
ATOM     33  C   UNL     1      -3.898  12.049  -0.660  1.00  0.00     0.010 A 
ATOM     34  C   UNL     1      -1.624  12.287   0.123  1.00  0.00     0.010 A 
ATOM     35  C   UNL     1      -2.955  12.725   0.132  1.00  0.00    -0.014 A 
BRANCH  35  36
ATOM     36  C   UNL     1      -3.355  13.898   0.953  1.00  0.00     0.031 A 
ATOM     37  C   UNL     1      -2.775  15.260   0.667  1.00  0.00     0.074 A 
ATOM     38  C   UNL     1      -4.216  13.728   1.976  1.00  0.00     0.049 A 
ATOM     39  N   UNL     1      -3.005  16.399   1.268  1.00  0.00    -0.248 NA
ATOM     40  C   UNL     1      -1.780  15.346  -0.414  1.00  0.00     0.031 C 
ATOM     41  C   UNL     1      -4.788  12.445   2.393  1.00  0.00     0.029 A 
ATOM     42  N   UNL     1      -4.762  14.632   2.852  1.00  0.00    -0.354 N 
ATOM     43  C   UNL     1      -2.176  17.331   0.651  1.00  0.00     0.074 A 
ATOM     44  C   UNL     1      -1.395  16.611  -0.330  1.00  0.00     0.031 C 
ATOM     45  C   UNL     1      -5.627  12.650   3.421  1.00  0.00     0.029 A 
ATOM     46  C   UNL     1      -5.628  14.069   3.761  1.00  0.00     0.049 A 
ATOM     47  H   UNL     1      -4.553  15.594   2.833  1.00  0.00     0.167 HD
ATOM     48  C   UNL     1      -2.091  18.667   0.869  1.00  0.00     0.034 A 
ATOM     49  C   UNL     1      -6.344  14.632   4.754  1.00  0.00     0.034 A 
ATOM     50  C   UNL     1      -2.899  19.374   1.833  1.00  0.00     0.049 A 
ATOM     51  C   UNL     1      -6.264  16.126   4.944  1.00  0.00     0.074 A 
ATOM     52  C   UNL     1      -2.953  20.735   2.080  1.00  0.00     0.029 A 
ATOM     53  N   UNL     1      -3.792  18.777   2.713  1.00  0.00    -0.354 N 
ATOM     54  N   UNL     1      -5.537  17.005   4.293  1.00  0.00    -0.248 NA
ATOM     55  C   UNL     1      -7.121  16.705   5.985  1.00  0.00     0.031 C 
ATOM     56  C   UNL     1      -3.826  20.953   3.151  1.00  0.00     0.029 A 
ATOM     57  C   UNL     1      -4.379  19.738   3.523  1.00  0.00     0.049 A 
ATOM     58  H   UNL     1      -3.981  17.811   2.756  1.00  0.00     0.167 HD
ATOM     59  C   UNL     1      -5.869  18.244   4.832  1.00  0.00     0.074 A 
ATOM     60  C   UNL     1      -6.886  17.999   5.834  1.00  0.00     0.031 C 
ATOM     61  C   UNL     1      -5.378  19.475   4.532  1.00  0.00     0.034 A 
BRANCH  48  62
ATOM     62  C   UNL     1      -1.075  19.446   0.065  1.00  0.00     0.023 A 
ATOM     63  C   UNL     1      -1.163  19.561  -1.334  1.00  0.00     0.031 A 
ATOM     64  C   UNL     1       0.001  20.082   0.709  1.00  0.00     0.131 A 
ATOM     65  C   UNL     1      -0.162  20.238  -2.047  1.00  0.00     0.055 A 
ATOM     66  C   UNL     1       0.953  20.819   0.001  1.00  0.00     0.041 A 
ATOM     67  F   UNL     1       0.151  19.992   2.040  1.00  0.00    -0.206 F 
ATOM     68  C   UNL     1       0.882  20.890  -1.387  1.00  0.00     0.022 A 
BRANCH  65  69
ATOM     69  S   UNL     1      -0.176  20.153  -3.859  1.00  0.00     0.124 S 
ATOM     70  O   UNL     1      -0.049  18.715  -4.087  1.00  0.00    -0.237 OA
ATOM     71  O   UNL     1      -1.467  20.741  -4.193  1.00  0.00    -0.237 OA
ATOM     72  O   UNL     1       0.990  20.943  -4.249  1.00  0.00    -0.744 OA
ENDBRANCH  65  69
ENDBRANCH  48  62
BRANCH  49  73
ATOM     73  C   UNL     1      -7.198  13.794   5.646  1.00  0.00     0.023 A 
ATOM     74  C   UNL     1      -8.592  13.956   5.680  1.00  0.00     0.031 A 
ATOM     75  C   UNL     1      -6.623  12.856   6.521  1.00  0.00     0.131 A 
ATOM     76  C   UNL     1      -9.359  13.236   6.610  1.00  0.00     0.055 A 
ATOM     77  C   UNL     1      -7.396  12.100   7.404  1.00  0.00     0.041 A 
ATOM     78  F   UNL     1      -5.295  12.655   6.525  1.00  0.00    -0.206 F 
ATOM     79  C   UNL     1      -8.771  12.300   7.464  1.00  0.00     0.022 A 
BRANCH  76  80
ATOM     80  S   UNL     1     -11.127  13.615   6.757  1.00  0.00     0.124 S 
ATOM     81  O   UNL     1     -11.103  15.050   7.018  1.00  0.00    -0.237 OA
ATOM     82  O   UNL     1     -11.633  13.209   5.450  1.00  0.00    -0.237 OA
ATOM     83  O   UNL     1     -11.561  12.784   7.878  1.00  0.00    -0.744 OA
ENDBRANCH  76  80
ENDBRANCH  49  73
BRANCH  61  84
ATOM     84  C   UNL     1      -5.969  20.642   5.284  1.00  0.00     0.023 A 
ATOM     85  C   UNL     1      -5.816  20.775   6.676  1.00  0.00     0.031 A 
ATOM     86  C   UNL     1      -6.736  21.608   4.610  1.00  0.00     0.131 A 
ATOM     87  C   UNL     1      -6.488  21.799   7.359  1.00  0.00     0.055 A 
ATOM     88  C   UNL     1      -7.343  22.668   5.286  1.00  0.00     0.041 A 
ATOM     89  F   UNL     1      -6.918  21.533   3.281  1.00  0.00    -0.206 F 
ATOM     90  C   UNL     1      -7.238  22.756   6.671  1.00  0.00     0.022 A 
BRANCH  87  91
ATOM     91  S   UNL     1      -6.478  21.782   9.173  1.00  0.00     0.124 S 
ATOM     92  O   UNL     1      -6.993  20.449   9.467  1.00  0.00    -0.237 OA
ATOM     93  O   UNL     1      -5.068  22.003   9.478  1.00  0.00    -0.237 OA
ATOM     94  O   UNL     1      -7.370  22.884   9.530  1.00  0.00    -0.744 OA
ENDBRANCH  87  91
ENDBRANCH  61  84
ENDBRANCH  35  36
ENDBRANCH  27  30
ENDBRANCH  25  26
ENDBRANCH  24  25
ENDBRANCH   1  24
TORSDOF 18
