REMARK SMILES Cc1c(NC(=O)c2ccccc2NC(=O)[C@@H]2CCCO2)cccc1C(=O)NCCCNC(=O)c1ccc(-c2c3nc(c(-c4cc(S(=O)(=O)[O-])ccc4F)c4ccc([nH]4)c(-c4cc(S(=O)(=O)[O-])ccc4F)c4nc(c(-c5cc(S(=O)(=O)[O-])ccc5F)c5ccc2[nH]5)C=C4)C=C3)cc1
REMARK SMILES IDX 28 1 27 2 25 3 26 4 24 6 1 7 2 8 3 9 21 10 23 11 22 12 4 13
REMARK SMILES IDX 5 14 6 16 7 17 8 18 12 19 9 20 11 21 10 22 13 23 14 24 15 26
REMARK SMILES IDX 16 27 17 28 20 29 18 30 19 31 29 32 30 33 31 34 32 35 33 37
REMARK SMILES IDX 34 38 35 39 96 40 36 41 95 42 37 43 38 44 39 45 89 46 40 47
REMARK SMILES IDX 94 48 88 49 90 50 41 51 93 52 87 53 86 54 42 56 74 57 54 58
REMARK SMILES IDX 73 59 55 60 58 61 72 62 91 63 56 64 57 65 71 67 92 68 59 69
REMARK SMILES IDX 43 70 44 71 52 72 45 73 51 74 53 75 50 76 46 77 47 78 48 79
REMARK SMILES IDX 49 80 75 81 76 82 84 83 77 84 83 85 85 86 82 87 78 88 79 89
REMARK SMILES IDX 80 90 81 91 60 92 61 93 69 94 62 95 68 96 70 97 67 98 63 99
REMARK SMILES IDX 64 100 65 101 66 102
REMARK H PARENT 27 5 4 15 13 25 31 36 90 55 58 66
REMARK Flexibility Score: inf
ROOT
ATOM      1  C   UNL     1       3.420   1.801  -0.015  1.00  0.00     0.118 C 
ENDROOT
BRANCH   1   2
ATOM      2  N   UNL     1       2.184   2.467  -0.417  1.00  0.00    -0.352 N 
ATOM      3  C   UNL     1       0.841   2.203  -0.339  1.00  0.00     0.251 C 
ATOM      4  O   UNL     1       0.116   3.148  -0.679  1.00  0.00    -0.269 OA
ATOM      5  H   UNL     1       2.361   3.329  -0.860  1.00  0.00     0.163 HD
BRANCH   3   6
ATOM      6  C   UNL     1       0.151   0.938   0.125  1.00  0.00     0.044 A 
ATOM      7  C   UNL     1       1.929  -0.795  -0.455  1.00  0.00     0.047 C 
ATOM      8  C   UNL     1       0.624  -0.390   0.150  1.00  0.00    -0.015 A 
ATOM      9  C   UNL     1      -0.227  -1.454   0.559  1.00  0.00     0.045 A 
ATOM     10  C   UNL     1      -1.571  -1.237   0.835  1.00  0.00     0.026 A 
ATOM     11  C   UNL     1      -1.219   1.118   0.428  1.00  0.00     0.014 A 
ATOM     12  C   UNL     1      -2.071   0.055   0.753  1.00  0.00     0.003 A 
BRANCH   9  13
ATOM     13  N   UNL     1       0.340  -2.739   0.596  1.00  0.00    -0.322 N 
ATOM     14  C   UNL     1      -0.012  -3.914  -0.020  1.00  0.00     0.257 C 
ATOM     15  H   UNL     1       1.136  -2.810   1.170  1.00  0.00     0.170 HD
ATOM     16  O   UNL     1       0.711  -4.900   0.150  1.00  0.00    -0.269 OA
BRANCH  14  17
ATOM     17  C   UNL     1      -1.199  -4.065  -0.903  1.00  0.00     0.063 A 
ATOM     18  C   UNL     1      -1.857  -5.301  -0.740  1.00  0.00     0.016 A 
ATOM     19  C   UNL     1      -1.654  -3.150  -1.883  1.00  0.00     0.054 A 
ATOM     20  C   UNL     1      -3.017  -5.594  -1.441  1.00  0.00     0.001 A 
ATOM     21  C   UNL     1      -2.897  -3.413  -2.466  1.00  0.00     0.027 A 
ATOM     22  C   UNL     1      -3.564  -4.625  -2.264  1.00  0.00     0.002 A 
BRANCH  19  23
ATOM     23  N   UNL     1      -0.827  -2.075  -2.281  1.00  0.00    -0.323 N 
ATOM     24  C   UNL     1      -0.862  -1.061  -3.198  1.00  0.00     0.253 C 
ATOM     25  H   UNL     1       0.004  -2.050  -1.753  1.00  0.00     0.170 HD
ATOM     26  O   UNL     1       0.113  -0.301  -3.218  1.00  0.00    -0.272 OA
BRANCH  24  27
ATOM     27  C   UNL     1      -1.994  -0.908  -4.213  1.00  0.00     0.207 C 
ATOM     28  C   UNL     1      -1.848  -1.976  -5.289  1.00  0.00     0.044 C 
ATOM     29  O   UNL     1      -2.016   0.342  -4.924  1.00  0.00    -0.368 OA
ATOM     30  C   UNL     1      -2.591  -1.365  -6.444  1.00  0.00     0.032 C 
ATOM     31  C   UNL     1      -2.186   0.085  -6.322  1.00  0.00     0.161 C 
ENDBRANCH  24  27
ENDBRANCH  19  23
ENDBRANCH  14  17
ENDBRANCH   9  13
ENDBRANCH   3   6
ENDBRANCH   1   2
BRANCH   1  32
ATOM     32  C   UNL     1       4.082   1.074  -1.195  1.00  0.00     0.042 C 
BRANCH  32  33
ATOM     33  C   UNL     1       5.446   1.577  -1.601  1.00  0.00     0.118 C 
BRANCH  33  34
ATOM     34  N   UNL     1       6.570   0.734  -1.181  1.00  0.00    -0.352 N 
ATOM     35  C   UNL     1       7.909   0.832  -1.540  1.00  0.00     0.251 C 
ATOM     36  H   UNL     1       6.346   0.002  -0.562  1.00  0.00     0.163 HD
ATOM     37  O   UNL     1       8.756   0.056  -1.111  1.00  0.00    -0.269 OA
BRANCH  35  38
ATOM     38  C   UNL     1       8.342   2.017  -2.329  1.00  0.00     0.039 A 
ATOM     39  C   UNL     1       9.161   2.906  -1.625  1.00  0.00     0.014 A 
ATOM     40  C   UNL     1       7.513   2.468  -3.345  1.00  0.00     0.014 A 
ATOM     41  C   UNL     1       8.825   4.250  -1.624  1.00  0.00     0.010 A 
ATOM     42  C   UNL     1       7.080   3.770  -3.242  1.00  0.00     0.010 A 
ATOM     43  C   UNL     1       7.676   4.627  -2.310  1.00  0.00    -0.014 A 
BRANCH  43  44
ATOM     44  C   UNL     1       7.061   5.932  -2.180  1.00  0.00     0.031 A 
ATOM     45  C   UNL     1       7.435   6.910  -3.206  1.00  0.00     0.074 A 
ATOM     46  C   UNL     1       6.187   6.214  -1.189  1.00  0.00     0.049 A 
ATOM     47  N   UNL     1       7.476   8.178  -3.029  1.00  0.00    -0.248 NA
ATOM     48  C   UNL     1       7.915   6.493  -4.520  1.00  0.00     0.031 C 
ATOM     49  C   UNL     1       5.361   7.408  -1.039  1.00  0.00     0.029 A 
ATOM     50  N   UNL     1       6.022   5.532   0.015  1.00  0.00    -0.354 N 
ATOM     51  C   UNL     1       7.688   8.754  -4.261  1.00  0.00     0.074 A 
ATOM     52  C   UNL     1       8.086   7.670  -5.118  1.00  0.00     0.031 C 
ATOM     53  C   UNL     1       4.978   7.516   0.245  1.00  0.00     0.029 A 
ATOM     54  C   UNL     1       5.663   6.480   0.998  1.00  0.00     0.049 A 
ATOM     55  H   UNL     1       6.136   4.564   0.155  1.00  0.00     0.167 HD
ATOM     56  C   UNL     1       7.340  10.057  -4.437  1.00  0.00     0.034 A 
ATOM     57  C   UNL     1       6.503   6.703   2.055  1.00  0.00     0.034 A 
ATOM     58  C   UNL     1       6.901  10.636  -3.159  1.00  0.00     0.049 A 
ATOM     59  C   UNL     1       7.206   8.054   1.977  1.00  0.00     0.074 A 
ATOM     60  C   UNL     1       5.659  10.859  -2.587  1.00  0.00     0.029 A 
ATOM     61  N   UNL     1       7.814  10.710  -2.116  1.00  0.00    -0.354 N 
ATOM     62  N   UNL     1       7.051   8.931   1.019  1.00  0.00    -0.248 NA
ATOM     63  C   UNL     1       8.209   8.474   2.950  1.00  0.00     0.031 C 
ATOM     64  C   UNL     1       5.842  11.011  -1.177  1.00  0.00     0.029 A 
ATOM     65  C   UNL     1       7.195  10.937  -0.899  1.00  0.00     0.049 A 
ATOM     66  H   UNL     1       8.787  10.613  -2.229  1.00  0.00     0.167 HD
ATOM     67  C   UNL     1       7.930   9.973   1.186  1.00  0.00     0.074 A 
ATOM     68  C   UNL     1       8.648   9.621   2.405  1.00  0.00     0.031 C 
ATOM     69  C   UNL     1       8.024  11.021   0.301  1.00  0.00     0.034 A 
BRANCH  56  70
ATOM     70  C   UNL     1       7.106  10.698  -5.789  1.00  0.00     0.023 A 
ATOM     71  C   UNL     1       6.272  11.831  -5.853  1.00  0.00     0.031 A 
ATOM     72  C   UNL     1       7.588  10.247  -7.038  1.00  0.00     0.131 A 
ATOM     73  C   UNL     1       5.883  12.394  -7.084  1.00  0.00     0.055 A 
ATOM     74  C   UNL     1       7.162  10.772  -8.266  1.00  0.00     0.041 A 
ATOM     75  F   UNL     1       8.542   9.318  -7.147  1.00  0.00    -0.206 F 
ATOM     76  C   UNL     1       6.297  11.849  -8.295  1.00  0.00     0.022 A 
BRANCH  73  77
ATOM     77  S   UNL     1       4.825  13.862  -7.079  1.00  0.00     0.124 S 
ATOM     78  O   UNL     1       3.617  13.367  -6.429  1.00  0.00    -0.237 OA
ATOM     79  O   UNL     1       5.626  14.816  -6.320  1.00  0.00    -0.237 OA
ATOM     80  O   UNL     1       4.677  14.177  -8.499  1.00  0.00    -0.744 OA
ENDBRANCH  73  77
ENDBRANCH  56  70
BRANCH  57  81
ATOM     81  C   UNL     1       7.120   5.420   2.530  1.00  0.00     0.023 A 
ATOM     82  C   UNL     1       6.248   4.432   3.049  1.00  0.00     0.031 A 
ATOM     83  C   UNL     1       8.341   4.998   1.986  1.00  0.00     0.131 A 
ATOM     84  C   UNL     1       6.501   3.074   2.792  1.00  0.00     0.055 A 
ATOM     85  C   UNL     1       8.594   3.643   1.760  1.00  0.00     0.041 A 
ATOM     86  F   UNL     1       9.224   5.888   1.510  1.00  0.00    -0.206 F 
ATOM     87  C   UNL     1       7.641   2.683   2.089  1.00  0.00     0.022 A 
BRANCH  84  88
ATOM     88  S   UNL     1       5.231   1.826   3.157  1.00  0.00     0.124 S 
ATOM     89  O   UNL     1       5.609   1.381   4.492  1.00  0.00    -0.237 OA
ATOM     90  O   UNL     1       3.989   2.586   3.066  1.00  0.00    -0.237 OA
ATOM     91  O   UNL     1       5.414   0.843   2.087  1.00  0.00    -0.744 OA
ENDBRANCH  84  88
ENDBRANCH  57  81
BRANCH  69  92
ATOM     92  C   UNL     1       8.956  12.214   0.467  1.00  0.00     0.023 A 
ATOM     93  C   UNL     1       9.474  12.594   1.711  1.00  0.00     0.031 A 
ATOM     94  C   UNL     1       9.327  13.056  -0.614  1.00  0.00     0.131 A 
ATOM     95  C   UNL     1      10.434  13.615   1.826  1.00  0.00     0.055 A 
ATOM     96  C   UNL     1      10.223  14.122  -0.487  1.00  0.00     0.041 A 
ATOM     97  F   UNL     1       8.849  12.892  -1.853  1.00  0.00    -0.206 F 
ATOM     98  C   UNL     1      10.812  14.387   0.734  1.00  0.00     0.022 A 
BRANCH  95  99
ATOM     99  S   UNL     1      11.220  13.857   3.437  1.00  0.00     0.124 S 
ATOM    100  O   UNL     1      10.079  14.020   4.326  1.00  0.00    -0.237 OA
ATOM    101  O   UNL     1      11.973  12.616   3.587  1.00  0.00    -0.237 OA
ATOM    102  O   UNL     1      12.037  15.059   3.242  1.00  0.00    -0.744 OA
ENDBRANCH  95  99
ENDBRANCH  69  92
ENDBRANCH  43  44
ENDBRANCH  35  38
ENDBRANCH  33  34
ENDBRANCH  32  33
ENDBRANCH   1  32
TORSDOF 17
