REMARK SMILES O=C(COc1ccc(N2C[C@@H](C(=O)NCCCNC(=O)c3ccc(-c4c5nc(c(-c6cc(S(=O)(=O)[O-])ccc6F)c6ccc([nH]6)c(-c6cc(S(=O)(=O)[O-])ccc6F)c6nc(c(-c7cc(S(=O)(=O)[O-])ccc7F)c7ccc4[nH]7)C=C6)C=C5)cc3)CC2=O)cc1)Nc1ccc(Cl)cc1Cl
REMARK SMILES IDX 15 1 14 2 12 3 13 4 11 6 9 7 10 8 85 9 84 10 86 11 8 12 5 13
REMARK SMILES IDX 6 14 88 15 7 16 87 17 4 18 3 19 2 20 1 21 89 22 90 24 91 25
REMARK SMILES IDX 96 26 92 27 95 28 97 29 93 30 94 31 16 32 17 33 18 34 19 35
REMARK SMILES IDX 20 37 21 38 22 39 83 40 23 41 82 42 24 43 25 44 26 45 76 46
REMARK SMILES IDX 27 47 81 48 75 49 77 50 28 51 80 52 74 53 73 54 29 56 61 57
REMARK SMILES IDX 41 58 60 59 42 60 45 61 59 62 78 63 43 64 44 65 58 67 79 68
REMARK SMILES IDX 46 69 30 70 31 71 39 72 32 73 38 74 40 75 37 76 33 77 34 78
REMARK SMILES IDX 35 79 36 80 62 81 63 82 71 83 64 84 70 85 72 86 69 87 65 88
REMARK SMILES IDX 66 89 67 90 68 91 47 92 48 93 56 94 49 95 55 96 57 97 54 98
REMARK SMILES IDX 50 99 51 100 52 101 53 102
REMARK H PARENT 14 5 89 23 18 36 77 55 45 66
REMARK Flexibility Score: inf
ROOT
ATOM      1  C   UNL     1      -1.444   7.258   1.878  1.00  0.00     0.117 C 
ENDROOT
BRANCH   1   2
ATOM      2  N   UNL     1      -1.057   8.651   1.712  1.00  0.00    -0.356 N 
ATOM      3  C   UNL     1       0.149   9.272   1.733  1.00  0.00     0.225 C 
ATOM      4  O   UNL     1       0.165  10.484   1.500  1.00  0.00    -0.275 OA
ATOM      5  H   UNL     1      -1.815   9.259   1.555  1.00  0.00     0.163 HD
BRANCH   3   6
ATOM      6  C   UNL     1       1.452   8.552   2.011  1.00  0.00     0.107 C 
ATOM      7  N   UNL     1       2.154   6.331   1.670  1.00  0.00    -0.312 N 
ATOM      8  C   UNL     1       1.823   7.532   0.948  1.00  0.00     0.139 C 
ATOM      9  C   UNL     1       1.974   6.456   3.047  1.00  0.00     0.227 C 
ATOM     10  C   UNL     1       1.492   7.843   3.354  1.00  0.00     0.116 C 
ATOM     11  O   UNL     1       2.191   5.622   3.916  1.00  0.00    -0.274 OA
BRANCH   7  12
ATOM     12  C   UNL     1       2.542   5.131   1.033  1.00  0.00     0.044 A 
ATOM     13  C   UNL     1       3.416   2.696  -0.076  1.00  0.00     0.120 A 
ATOM     14  C   UNL     1       3.837   3.908  -0.623  1.00  0.00     0.048 A 
ATOM     15  C   UNL     1       2.544   2.703   1.006  1.00  0.00     0.048 A 
ATOM     16  C   UNL     1       3.373   5.124  -0.093  1.00  0.00     0.030 A 
ATOM     17  C   UNL     1       2.120   3.909   1.559  1.00  0.00     0.030 A 
BRANCH  13  18
ATOM     18  O   UNL     1       4.002   1.541  -0.526  1.00  0.00    -0.484 OA
BRANCH  18  19
ATOM     19  C   UNL     1       3.084   0.618  -1.110  1.00  0.00     0.329 C 
BRANCH  19  20
ATOM     20  C   UNL     1       2.200  -0.173  -0.139  1.00  0.00     0.262 C 
ATOM     21  O   UNL     1       0.994  -0.279  -0.337  1.00  0.00    -0.271 OA
ATOM     22  N   UNL     1       2.898  -0.632   0.971  1.00  0.00    -0.322 N 
ATOM     23  H   UNL     1       3.873  -0.494   0.981  1.00  0.00     0.170 HD
BRANCH  22  24
ATOM     24  C   UNL     1       2.321  -1.283   2.089  1.00  0.00     0.060 A 
ATOM     25  C   UNL     1       2.850  -0.918   3.339  1.00  0.00     0.029 A 
ATOM     26  C   UNL     1       1.278  -2.229   2.051  1.00  0.00     0.066 A 
ATOM     27  C   UNL     1       2.299  -1.414   4.524  1.00  0.00     0.023 A 
ATOM     28  C   UNL     1       0.721  -2.714   3.242  1.00  0.00     0.043 A 
ATOM     29  Cl  UNL     1       0.760  -3.017   0.599  1.00  0.00    -0.082 Cl
ATOM     30  C   UNL     1       1.225  -2.296   4.469  1.00  0.00     0.042 A 
ATOM     31  Cl  UNL     1       0.547  -2.906   5.927  1.00  0.00    -0.084 Cl
ENDBRANCH  22  24
ENDBRANCH  19  20
ENDBRANCH  18  19
ENDBRANCH  13  18
ENDBRANCH   7  12
ENDBRANCH   3   6
ENDBRANCH   1   2
BRANCH   1  32
ATOM     32  C   UNL     1      -2.274   7.019   3.135  1.00  0.00     0.042 C 
BRANCH  32  33
ATOM     33  C   UNL     1      -3.612   7.753   3.167  1.00  0.00     0.118 C 
BRANCH  33  34
ATOM     34  N   UNL     1      -4.520   7.324   2.114  1.00  0.00    -0.352 N 
ATOM     35  C   UNL     1      -5.762   6.740   2.194  1.00  0.00     0.251 C 
ATOM     36  H   UNL     1      -4.192   7.476   1.198  1.00  0.00     0.163 HD
ATOM     37  O   UNL     1      -6.274   6.293   1.170  1.00  0.00    -0.269 OA
BRANCH  35  38
ATOM     38  C   UNL     1      -6.469   6.623   3.490  1.00  0.00     0.039 A 
ATOM     39  C   UNL     1      -7.163   5.444   3.776  1.00  0.00     0.014 A 
ATOM     40  C   UNL     1      -6.477   7.672   4.413  1.00  0.00     0.014 A 
ATOM     41  C   UNL     1      -7.800   5.291   5.011  1.00  0.00     0.010 A 
ATOM     42  C   UNL     1      -7.040   7.487   5.675  1.00  0.00     0.010 A 
ATOM     43  C   UNL     1      -7.710   6.295   5.989  1.00  0.00    -0.014 A 
BRANCH  43  44
ATOM     44  C   UNL     1      -8.310   6.116   7.340  1.00  0.00     0.031 A 
ATOM     45  C   UNL     1      -9.404   7.038   7.812  1.00  0.00     0.074 A 
ATOM     46  C   UNL     1      -7.831   5.162   8.164  1.00  0.00     0.049 A 
ATOM     47  N   UNL     1      -9.994   7.095   8.979  1.00  0.00    -0.248 NA
ATOM     48  C   UNL     1      -9.874   8.048   6.853  1.00  0.00     0.031 C 
ATOM     49  C   UNL     1      -6.750   4.229   7.837  1.00  0.00     0.029 A 
ATOM     50  N   UNL     1      -8.182   4.822   9.447  1.00  0.00    -0.354 N 
ATOM     51  C   UNL     1     -10.897   8.150   8.898  1.00  0.00     0.074 A 
ATOM     52  C   UNL     1     -10.724   8.746   7.590  1.00  0.00     0.031 C 
ATOM     53  C   UNL     1      -6.548   3.406   8.878  1.00  0.00     0.029 A 
ATOM     54  C   UNL     1      -7.443   3.784   9.967  1.00  0.00     0.049 A 
ATOM     55  H   UNL     1      -8.895   5.279   9.949  1.00  0.00     0.167 HD
ATOM     56  C   UNL     1     -11.802   8.569   9.818  1.00  0.00     0.034 A 
ATOM     57  C   UNL     1      -7.472   3.209  11.187  1.00  0.00     0.034 A 
ATOM     58  C   UNL     1     -11.966   7.959  11.116  1.00  0.00     0.049 A 
ATOM     59  C   UNL     1      -8.460   3.717  12.208  1.00  0.00     0.074 A 
ATOM     60  C   UNL     1     -12.882   8.274  12.106  1.00  0.00     0.029 A 
ATOM     61  N   UNL     1     -11.194   6.915  11.610  1.00  0.00    -0.354 N 
ATOM     62  N   UNL     1      -9.336   4.689  12.099  1.00  0.00    -0.248 NA
ATOM     63  C   UNL     1      -8.468   3.044  13.513  1.00  0.00     0.031 C 
ATOM     64  C   UNL     1     -12.616   7.473  13.222  1.00  0.00     0.029 A 
ATOM     65  C   UNL     1     -11.591   6.597  12.901  1.00  0.00     0.049 A 
ATOM     66  H   UNL     1     -10.471   6.465  11.116  1.00  0.00     0.167 HD
ATOM     67  C   UNL     1     -10.023   4.717  13.310  1.00  0.00     0.074 A 
ATOM     68  C   UNL     1      -9.470   3.656  14.126  1.00  0.00     0.031 C 
ATOM     69  C   UNL     1     -11.025   5.542  13.710  1.00  0.00     0.034 A 
BRANCH  56  70
ATOM     70  C   UNL     1     -12.662   9.758   9.457  1.00  0.00     0.023 A 
ATOM     71  C   UNL     1     -13.552   9.723   8.369  1.00  0.00     0.031 A 
ATOM     72  C   UNL     1     -12.576  10.953  10.195  1.00  0.00     0.131 A 
ATOM     73  C   UNL     1     -14.257  10.879   8.001  1.00  0.00     0.055 A 
ATOM     74  C   UNL     1     -13.347  12.073   9.877  1.00  0.00     0.041 A 
ATOM     75  F   UNL     1     -11.731  11.057  11.232  1.00  0.00    -0.206 F 
ATOM     76  C   UNL     1     -14.182  12.046   8.764  1.00  0.00     0.022 A 
BRANCH  73  77
ATOM     77  S   UNL     1     -15.153  10.880   6.424  1.00  0.00     0.124 S 
ATOM     78  O   UNL     1     -14.081  10.585   5.476  1.00  0.00    -0.237 OA
ATOM     79  O   UNL     1     -16.141   9.826   6.621  1.00  0.00    -0.237 OA
ATOM     80  O   UNL     1     -15.694  12.236   6.338  1.00  0.00    -0.744 OA
ENDBRANCH  73  77
ENDBRANCH  56  70
BRANCH  57  81
ATOM     81  C   UNL     1      -6.536   2.096  11.524  1.00  0.00     0.023 A 
ATOM     82  C   UNL     1      -7.019   0.816  11.836  1.00  0.00     0.031 A 
ATOM     83  C   UNL     1      -5.148   2.310  11.588  1.00  0.00     0.131 A 
ATOM     84  C   UNL     1      -6.128  -0.187  12.250  1.00  0.00     0.055 A 
ATOM     85  C   UNL     1      -4.260   1.292  11.941  1.00  0.00     0.041 A 
ATOM     86  F   UNL     1      -4.631   3.515  11.298  1.00  0.00    -0.206 F 
ATOM     87  C   UNL     1      -4.751   0.038  12.290  1.00  0.00     0.022 A 
BRANCH  84  88
ATOM     88  S   UNL     1      -6.808  -1.764  12.834  1.00  0.00     0.124 S 
ATOM     89  O   UNL     1      -7.676  -1.329  13.922  1.00  0.00    -0.237 OA
ATOM     90  O   UNL     1      -7.479  -2.265  11.639  1.00  0.00    -0.237 OA
ATOM     91  O   UNL     1      -5.623  -2.515  13.242  1.00  0.00    -0.744 OA
ENDBRANCH  84  88
ENDBRANCH  57  81
BRANCH  69  92
ATOM     92  C   UNL     1     -11.620   5.290  15.075  1.00  0.00     0.023 A 
ATOM     93  C   UNL     1     -10.876   5.470  16.255  1.00  0.00     0.031 A 
ATOM     94  C   UNL     1     -12.950   4.848  15.195  1.00  0.00     0.131 A 
ATOM     95  C   UNL     1     -11.447   5.152  17.497  1.00  0.00     0.055 A 
ATOM     96  C   UNL     1     -13.534   4.597  16.437  1.00  0.00     0.041 A 
ATOM     97  F   UNL     1     -13.707   4.655  14.102  1.00  0.00    -0.206 F 
ATOM     98  C   UNL     1     -12.777   4.734  17.597  1.00  0.00     0.022 A 
BRANCH  95  99
ATOM     99  S   UNL     1     -10.397   5.194  18.975  1.00  0.00     0.124 S 
ATOM    100  O   UNL     1      -9.339   4.252  18.624  1.00  0.00    -0.237 OA
ATOM    101  O   UNL     1     -10.004   6.598  19.039  1.00  0.00    -0.237 OA
ATOM    102  O   UNL     1     -11.291   4.753  20.044  1.00  0.00    -0.744 OA
ENDBRANCH  95  99
ENDBRANCH  69  92
ENDBRANCH  43  44
ENDBRANCH  35  38
ENDBRANCH  33  34
ENDBRANCH  32  33
ENDBRANCH   1  32
TORSDOF 18
