REMARK SMILES C[N@@H+]1CCC[C@@H](C[NH2+]CC(=O)NCCCNC(=O)c2ccc(-c3c4nc(c(-c5cc(S(=O)(=O)[O-])ccc5F)c5ccc([nH]5)c(-c5cc(S(=O)(=O)[O-])ccc5F)c5nc(c(-c6cc(S(=O)(=O)[O-])ccc6F)c6ccc3[nH]6)C=C5)C=C4)cc2)C1
REMARK SMILES IDX 14 1 13 2 12 3 10 4 11 5 9 7 8 8 7 11 6 12 1 13 2 14 3 15
REMARK SMILES IDX 82 16 4 18 5 19 15 20 16 21 17 22 18 24 19 25 20 26 81 27
REMARK SMILES IDX 21 28 80 29 22 30 23 31 24 32 74 33 25 34 79 35 73 36 75 37
REMARK SMILES IDX 26 38 78 39 72 40 71 41 27 43 59 44 39 45 58 46 40 47 43 48
REMARK SMILES IDX 57 49 76 50 41 51 42 52 56 54 77 55 44 56 28 57 29 58 37 59
REMARK SMILES IDX 30 60 36 61 38 62 35 63 31 64 32 65 33 66 34 67 60 68 61 69
REMARK SMILES IDX 69 70 62 71 68 72 70 73 67 74 63 75 64 76 65 77 66 78 45 79
REMARK SMILES IDX 46 80 54 81 47 82 53 83 55 84 52 85 48 86 49 87 50 88 51 89
REMARK H PARENT 12 6 8 9 8 10 2 17 16 23 75 42 43 53
REMARK Flexibility Score: inf
ROOT
ATOM      1  C   UNL     1       1.437   1.571   2.917  1.00  0.00     0.042 C 
ENDROOT
BRANCH   1   2
ATOM      2  C   UNL     1       1.682   0.551   4.031  1.00  0.00     0.118 C 
BRANCH   2   3
ATOM      3  N   UNL     1       0.455  -0.142   4.400  1.00  0.00    -0.351 N 
ATOM      4  C   UNL     1       0.039  -1.413   4.122  1.00  0.00     0.275 C 
ATOM      5  O   UNL     1      -1.122  -1.713   4.417  1.00  0.00    -0.269 OA
ATOM      6  H   UNL     1      -0.175   0.392   4.936  1.00  0.00     0.163 HD
BRANCH   4   7
ATOM      7  C   UNL     1       0.976  -2.444   3.474  1.00  0.00     0.361 C 
BRANCH   7   8
ATOM      8  N   UNL     1       0.659  -2.665   2.046  1.00  0.00    -0.338 N 
ATOM      9  H   UNL     1       1.011  -3.581   1.765  1.00  0.00     0.346 HD
ATOM     10  H   UNL     1      -0.353  -2.616   1.929  1.00  0.00     0.346 HD
BRANCH   8  11
ATOM     11  C   UNL     1       1.273  -1.639   1.200  1.00  0.00     0.270 C 
BRANCH  11  12
ATOM     12  C   UNL     1       0.894  -1.702  -0.295  1.00  0.00     0.099 C 
ATOM     13  C   UNL     1      -2.481   0.005  -0.272  1.00  0.00     0.332 C 
ATOM     14  N   UNL     1      -1.027  -0.132  -0.158  1.00  0.00    -0.337 N 
ATOM     15  C   UNL     1      -0.357   0.870  -1.004  1.00  0.00     0.262 C 
ATOM     16  C   UNL     1      -0.609  -1.489  -0.548  1.00  0.00     0.271 C 
ATOM     17  H   UNL     1      -0.759   0.024   0.814  1.00  0.00     0.347 HD
ATOM     18  C   UNL     1       1.165   0.777  -0.882  1.00  0.00     0.062 C 
ATOM     19  C   UNL     1       1.685  -0.646  -1.098  1.00  0.00     0.021 C 
ENDBRANCH  11  12
ENDBRANCH   8  11
ENDBRANCH   7   8
ENDBRANCH   4   7
ENDBRANCH   2   3
ENDBRANCH   1   2
BRANCH   1  20
ATOM     20  C   UNL     1       0.826   2.886   3.383  1.00  0.00     0.118 C 
BRANCH  20  21
ATOM     21  N   UNL     1       1.828   3.922   3.557  1.00  0.00    -0.352 N 
ATOM     22  C   UNL     1       2.333   4.871   2.699  1.00  0.00     0.251 C 
ATOM     23  H   UNL     1       2.220   3.951   4.459  1.00  0.00     0.163 HD
ATOM     24  O   UNL     1       3.350   5.467   3.058  1.00  0.00    -0.269 OA
BRANCH  22  25
ATOM     25  C   UNL     1       1.737   5.192   1.370  1.00  0.00     0.039 A 
ATOM     26  C   UNL     1       2.600   5.649   0.362  1.00  0.00     0.014 A 
ATOM     27  C   UNL     1       0.365   5.178   1.111  1.00  0.00     0.014 A 
ATOM     28  C   UNL     1       2.102   6.051  -0.886  1.00  0.00     0.010 A 
ATOM     29  C   UNL     1      -0.127   5.508  -0.161  1.00  0.00     0.010 A 
ATOM     30  C   UNL     1       0.732   5.964  -1.171  1.00  0.00    -0.014 A 
BRANCH  30  31
ATOM     31  C   UNL     1       0.186   6.378  -2.497  1.00  0.00     0.031 A 
ATOM     32  C   UNL     1      -0.757   7.550  -2.607  1.00  0.00     0.074 A 
ATOM     33  C   UNL     1       0.508   5.686  -3.608  1.00  0.00     0.049 A 
ATOM     34  N   UNL     1      -1.401   8.004  -3.655  1.00  0.00    -0.248 NA
ATOM     35  C   UNL     1      -1.024   8.295  -1.370  1.00  0.00     0.031 C 
ATOM     36  C   UNL     1       1.410   4.534  -3.656  1.00  0.00     0.029 A 
ATOM     37  N   UNL     1       0.108   5.848  -4.913  1.00  0.00    -0.354 N 
ATOM     38  C   UNL     1      -2.157   9.082  -3.202  1.00  0.00     0.074 A 
ATOM     39  C   UNL     1      -1.930   9.173  -1.774  1.00  0.00     0.031 C 
ATOM     40  C   UNL     1       1.513   4.109  -4.925  1.00  0.00     0.029 A 
ATOM     41  C   UNL     1       0.646   4.921  -5.776  1.00  0.00     0.049 A 
ATOM     42  H   UNL     1      -0.506   6.560  -5.204  1.00  0.00     0.167 HD
ATOM     43  C   UNL     1      -2.950   9.929  -3.908  1.00  0.00     0.034 A 
ATOM     44  C   UNL     1       0.452   4.730  -7.096  1.00  0.00     0.034 A 
ATOM     45  C   UNL     1      -3.167   9.842  -5.334  1.00  0.00     0.049 A 
ATOM     46  C   UNL     1      -0.494   5.630  -7.847  1.00  0.00     0.074 A 
ATOM     47  C   UNL     1      -3.911  10.681  -6.148  1.00  0.00     0.029 A 
ATOM     48  N   UNL     1      -2.649   8.853  -6.159  1.00  0.00    -0.354 N 
ATOM     49  N   UNL     1      -1.193   6.648  -7.403  1.00  0.00    -0.248 NA
ATOM     50  C   UNL     1      -0.679   5.349  -9.277  1.00  0.00     0.031 C 
ATOM     51  C   UNL     1      -3.894  10.164  -7.449  1.00  0.00     0.029 A 
ATOM     52  C   UNL     1      -3.087   9.039  -7.463  1.00  0.00     0.049 A 
ATOM     53  H   UNL     1      -2.056   8.125  -5.862  1.00  0.00     0.167 HD
ATOM     54  C   UNL     1      -1.881   7.144  -8.508  1.00  0.00     0.074 A 
ATOM     55  C   UNL     1      -1.510   6.317  -9.637  1.00  0.00     0.031 C 
ATOM     56  C   UNL     1      -2.735   8.196  -8.581  1.00  0.00     0.034 A 
BRANCH  43  57
ATOM     57  C   UNL     1      -3.670  11.008  -3.132  1.00  0.00     0.023 A 
ATOM     58  C   UNL     1      -2.968  12.016  -2.447  1.00  0.00     0.031 A 
ATOM     59  C   UNL     1      -5.073  11.007  -3.041  1.00  0.00     0.131 A 
ATOM     60  C   UNL     1      -3.662  12.925  -1.634  1.00  0.00     0.055 A 
ATOM     61  C   UNL     1      -5.764  11.966  -2.296  1.00  0.00     0.041 A 
ATOM     62  F   UNL     1      -5.797  10.061  -3.659  1.00  0.00    -0.206 F 
ATOM     63  C   UNL     1      -5.057  12.921  -1.572  1.00  0.00     0.022 A 
BRANCH  60  64
ATOM     64  S   UNL     1      -2.705  14.005  -0.535  1.00  0.00     0.124 S 
ATOM     65  O   UNL     1      -1.926  13.033   0.229  1.00  0.00    -0.237 OA
ATOM     66  O   UNL     1      -1.957  14.828  -1.474  1.00  0.00    -0.237 OA
ATOM     67  O   UNL     1      -3.732  14.707   0.234  1.00  0.00    -0.744 OA
ENDBRANCH  60  64
ENDBRANCH  43  57
BRANCH  44  68
ATOM     68  C   UNL     1       1.149   3.618  -7.801  1.00  0.00     0.023 A 
ATOM     69  C   UNL     1       2.131   3.882  -8.767  1.00  0.00     0.031 A 
ATOM     70  C   UNL     1       0.817   2.277  -7.540  1.00  0.00     0.131 A 
ATOM     71  C   UNL     1       2.728   2.820  -9.462  1.00  0.00     0.055 A 
ATOM     72  C   UNL     1       1.443   1.222  -8.205  1.00  0.00     0.041 A 
ATOM     73  F   UNL     1      -0.114   1.974  -6.620  1.00  0.00    -0.206 F 
ATOM     74  C   UNL     1       2.399   1.492  -9.180  1.00  0.00     0.022 A 
BRANCH  71  75
ATOM     75  S   UNL     1       3.907   3.202 -10.786  1.00  0.00     0.124 S 
ATOM     76  O   UNL     1       3.078   3.964 -11.712  1.00  0.00    -0.237 OA
ATOM     77  O   UNL     1       4.932   3.955 -10.070  1.00  0.00    -0.237 OA
ATOM     78  O   UNL     1       4.325   1.884 -11.260  1.00  0.00    -0.744 OA
ENDBRANCH  71  75
ENDBRANCH  44  68
BRANCH  56  79
ATOM     79  C   UNL     1      -3.295   8.528  -9.941  1.00  0.00     0.023 A 
ATOM     80  C   UNL     1      -4.230   7.694 -10.579  1.00  0.00     0.031 A 
ATOM     81  C   UNL     1      -2.872   9.688 -10.615  1.00  0.00     0.131 A 
ATOM     82  C   UNL     1      -4.677   8.008 -11.872  1.00  0.00     0.055 A 
ATOM     83  C   UNL     1      -3.356  10.019 -11.881  1.00  0.00     0.041 A 
ATOM     84  F   UNL     1      -1.979  10.517 -10.052  1.00  0.00    -0.206 F 
ATOM     85  C   UNL     1      -4.257   9.172 -12.521  1.00  0.00     0.022 A 
BRANCH  82  86
ATOM     86  S   UNL     1      -5.768   6.837 -12.728  1.00  0.00     0.124 S 
ATOM     87  O   UNL     1      -4.932   5.643 -12.803  1.00  0.00    -0.237 OA
ATOM     88  O   UNL     1      -6.913   6.759 -11.827  1.00  0.00    -0.237 OA
ATOM     89  O   UNL     1      -6.034   7.489 -14.010  1.00  0.00    -0.744 OA
ENDBRANCH  82  86
ENDBRANCH  56  79
ENDBRANCH  30  31
ENDBRANCH  22  25
ENDBRANCH  20  21
ENDBRANCH   1  20
TORSDOF 16
