REMARK SMILES NC(=O)C[C@H](NC(=O)C1(c2ccccc2)CCN(C(=O)[C@@H]2CCC[NH2+]2)CC1)C(=O)OCCOC(=O)c1ccc(-c2c3nc(c(-c4cc(S(=O)(=O)[O-])ccc4F)c4ccc([nH]4)c(-c4cc(S(=O)(=O)[O-])ccc4F)c4nc(c(-c5cc(S(=O)(=O)[O-])ccc5F)c5ccc2[nH]5)C=C4)C=C3)cc1
REMARK SMILES IDX 31 1 30 2 28 3 29 4 5 5 4 6 2 7 1 8 3 11 6 12 7 13 8 15 9 16
REMARK SMILES IDX 16 17 27 18 17 19 26 20 18 21 19 22 20 23 10 24 11 25 15 26
REMARK SMILES IDX 12 27 14 28 13 29 21 30 22 31 25 32 23 33 24 34 32 37 33 38
REMARK SMILES IDX 34 39 35 40 36 41 37 42 98 43 38 44 97 45 39 46 40 47 41 48
REMARK SMILES IDX 91 49 42 50 96 51 90 52 92 53 43 54 95 55 89 56 88 57 44 59
REMARK SMILES IDX 76 60 56 61 75 62 57 63 60 64 74 65 93 66 58 67 59 68 73 70
REMARK SMILES IDX 94 71 61 72 45 73 46 74 54 75 47 76 53 77 55 78 52 79 48 80
REMARK SMILES IDX 49 81 50 82 51 83 77 84 78 85 86 86 79 87 85 88 87 89 84 90
REMARK SMILES IDX 80 91 81 92 82 93 83 94 62 95 63 96 71 97 64 98 70 99 72 100
REMARK SMILES IDX 69 101 65 102 66 103 67 104 68 105
REMARK H PARENT 1 9 1 10 6 14 25 35 25 36 92 58 60 69
REMARK Flexibility Score: inf
ROOT
ATOM      1  C   UNL     1       4.682  -1.214  -5.925  1.00  0.00     0.274 C 
ENDROOT
BRANCH   1   2
ATOM      2  O   UNL     1       4.532  -0.858  -4.452  1.00  0.00    -0.461 OA
BRANCH   2   3
ATOM      3  C   UNL     1       4.255  -1.720  -3.381  1.00  0.00     0.329 C 
ATOM      4  O   UNL     1       4.532  -2.913  -3.402  1.00  0.00    -0.250 OA
BRANCH   3   5
ATOM      5  C   UNL     1       3.295  -1.049  -2.234  1.00  0.00     0.201 C 
BRANCH   5   6
ATOM      6  C   UNL     1       3.870  -0.389  -0.968  1.00  0.00     0.136 C 
BRANCH   6   7
ATOM      7  C   UNL     1       3.043  -0.572   0.305  1.00  0.00     0.220 C 
ATOM      8  N   UNL     1       1.916   0.205   0.426  1.00  0.00    -0.370 N 
ATOM      9  H   UNL     1       1.347   0.127   1.225  1.00  0.00     0.159 HD
ATOM     10  H   UNL     1       1.677   0.841  -0.288  1.00  0.00     0.159 HD
ATOM     11  O   UNL     1       3.335  -1.368   1.164  1.00  0.00    -0.275 OA
ENDBRANCH   6   7
ENDBRANCH   5   6
BRANCH   5  12
ATOM     12  N   UNL     1       2.036  -1.758  -2.047  1.00  0.00    -0.342 N 
ATOM     13  C   UNL     1       0.848  -1.426  -2.643  1.00  0.00     0.231 C 
ATOM     14  H   UNL     1       2.039  -2.537  -1.445  1.00  0.00     0.164 HD
ATOM     15  O   UNL     1      -0.177  -1.772  -2.046  1.00  0.00    -0.274 OA
BRANCH  13  16
ATOM     16  C   UNL     1       0.757  -0.761  -4.072  1.00  0.00     0.077 C 
ATOM     17  C   UNL     1       1.978  -0.427  -4.900  1.00  0.00     0.043 C 
ATOM     18  C   UNL     1       0.030   0.615  -3.957  1.00  0.00     0.043 C 
ATOM     19  C   UNL     1       2.840   0.835  -4.658  1.00  0.00     0.121 C 
ATOM     20  C   UNL     1       0.912   1.953  -3.838  1.00  0.00     0.121 C 
ATOM     21  N   UNL     1       2.171   2.062  -4.617  1.00  0.00    -0.337 N 
ATOM     22  C   UNL     1       3.161   3.086  -4.491  1.00  0.00     0.280 C 
ATOM     23  O   UNL     1       3.776   3.175  -3.417  1.00  0.00    -0.268 OA
BRANCH  16  24
ATOM     24  C   UNL     1       0.180  -1.949  -5.004  1.00  0.00    -0.032 A 
ATOM     25  C   UNL     1      -0.540  -1.714  -6.186  1.00  0.00     0.005 A 
ATOM     26  C   UNL     1       0.679  -3.276  -4.826  1.00  0.00     0.005 A 
ATOM     27  C   UNL     1      -0.729  -2.737  -7.138  1.00  0.00     0.000 A 
ATOM     28  C   UNL     1       0.473  -4.295  -5.766  1.00  0.00     0.000 A 
ATOM     29  C   UNL     1      -0.226  -4.021  -6.931  1.00  0.00     0.000 A 
ENDBRANCH  16  24
BRANCH  22  30
ATOM     30  C   UNL     1       3.641   4.020  -5.709  1.00  0.00     0.272 C 
ATOM     31  C   UNL     1       2.839   5.295  -5.749  1.00  0.00     0.081 C 
ATOM     32  N   UNL     1       3.720   3.511  -7.097  1.00  0.00    -0.336 N 
ATOM     33  C   UNL     1       2.576   5.641  -7.202  1.00  0.00     0.068 C 
ATOM     34  C   UNL     1       3.126   4.492  -8.020  1.00  0.00     0.261 C 
ATOM     35  H   UNL     1       3.209   2.630  -7.164  1.00  0.00     0.346 HD
ATOM     36  H   UNL     1       4.697   3.360  -7.346  1.00  0.00     0.346 HD
ENDBRANCH  22  30
ENDBRANCH  13  16
ENDBRANCH   5  12
ENDBRANCH   3   5
ENDBRANCH   2   3
ENDBRANCH   1   2
BRANCH   1  37
ATOM     37  C   UNL     1       3.725  -0.583  -7.281  1.00  0.00     0.275 C 
BRANCH  37  38
ATOM     38  O   UNL     1       2.775   0.641  -7.347  1.00  0.00    -0.458 OA
BRANCH  38  39
ATOM     39  C   UNL     1       1.653   0.710  -8.226  1.00  0.00     0.338 C 
ATOM     40  O   UNL     1       1.476  -0.130  -9.099  1.00  0.00    -0.246 OA
BRANCH  39  41
ATOM     41  C   UNL     1       0.581   1.876  -8.021  1.00  0.00     0.060 A 
ATOM     42  C   UNL     1       0.672   2.712  -6.942  1.00  0.00     0.016 A 
ATOM     43  C   UNL     1      -0.546   2.212  -8.787  1.00  0.00     0.016 A 
ATOM     44  C   UNL     1      -0.221   3.740  -6.536  1.00  0.00     0.010 A 
ATOM     45  C   UNL     1      -1.431   3.354  -8.452  1.00  0.00     0.010 A 
ATOM     46  C   UNL     1      -1.270   4.172  -7.303  1.00  0.00    -0.014 A 
BRANCH  46  47
ATOM     47  C   UNL     1      -2.088   5.415  -6.874  1.00  0.00     0.031 A 
ATOM     48  C   UNL     1      -3.595   5.370  -6.919  1.00  0.00     0.074 A 
ATOM     49  C   UNL     1      -1.601   6.569  -6.317  1.00  0.00     0.049 A 
ATOM     50  N   UNL     1      -4.468   6.345  -6.949  1.00  0.00    -0.248 NA
ATOM     51  C   UNL     1      -4.188   4.031  -6.836  1.00  0.00     0.031 C 
ATOM     52  C   UNL     1      -0.288   6.767  -5.724  1.00  0.00     0.029 A 
ATOM     53  N   UNL     1      -2.145   7.841  -6.166  1.00  0.00    -0.354 N 
ATOM     54  C   UNL     1      -5.721   5.739  -6.941  1.00  0.00     0.074 A 
ATOM     55  C   UNL     1      -5.483   4.309  -6.898  1.00  0.00     0.031 C 
ATOM     56  C   UNL     1      -0.040   8.053  -5.459  1.00  0.00     0.029 A 
ATOM     57  C   UNL     1      -1.202   8.815  -5.845  1.00  0.00     0.049 A 
ATOM     58  H   UNL     1      -3.104   8.034  -6.276  1.00  0.00     0.167 HD
ATOM     59  C   UNL     1      -6.947   6.326  -6.970  1.00  0.00     0.034 A 
ATOM     60  C   UNL     1      -1.216  10.165  -5.876  1.00  0.00     0.034 A 
ATOM     61  C   UNL     1      -7.154   7.757  -6.980  1.00  0.00     0.049 A 
ATOM     62  C   UNL     1      -2.521  10.825  -6.188  1.00  0.00     0.074 A 
ATOM     63  C   UNL     1      -8.335   8.465  -7.131  1.00  0.00     0.029 A 
ATOM     64  N   UNL     1      -6.149   8.706  -6.815  1.00  0.00    -0.354 N 
ATOM     65  N   UNL     1      -3.680  10.251  -6.401  1.00  0.00    -0.248 NA
ATOM     66  C   UNL     1      -2.545  12.290  -6.230  1.00  0.00     0.031 C 
ATOM     67  C   UNL     1      -8.034   9.834  -7.129  1.00  0.00     0.029 A 
ATOM     68  C   UNL     1      -6.676   9.987  -6.899  1.00  0.00     0.049 A 
ATOM     69  H   UNL     1      -5.199   8.497  -6.660  1.00  0.00     0.167 HD
ATOM     70  C   UNL     1      -4.588  11.287  -6.547  1.00  0.00     0.074 A 
ATOM     71  C   UNL     1      -3.838  12.521  -6.405  1.00  0.00     0.031 C 
ATOM     72  C   UNL     1      -5.924  11.213  -6.760  1.00  0.00     0.034 A 
BRANCH  59  73
ATOM     73  C   UNL     1      -8.130   5.400  -7.134  1.00  0.00     0.023 A 
ATOM     74  C   UNL     1      -8.491   4.460  -6.153  1.00  0.00     0.031 A 
ATOM     75  C   UNL     1      -8.828   5.374  -8.356  1.00  0.00     0.131 A 
ATOM     76  C   UNL     1      -9.432   3.462  -6.458  1.00  0.00     0.055 A 
ATOM     77  C   UNL     1      -9.829   4.437  -8.617  1.00  0.00     0.041 A 
ATOM     78  F   UNL     1      -8.516   6.234  -9.339  1.00  0.00    -0.206 F 
ATOM     79  C   UNL     1     -10.119   3.456  -7.674  1.00  0.00     0.022 A 
BRANCH  76  80
ATOM     80  S   UNL     1      -9.591   2.051  -5.327  1.00  0.00     0.124 S 
ATOM     81  O   UNL     1      -8.237   1.502  -5.357  1.00  0.00    -0.237 OA
ATOM     82  O   UNL     1      -9.996   2.689  -4.080  1.00  0.00    -0.237 OA
ATOM     83  O   UNL     1     -10.609   1.216  -5.961  1.00  0.00    -0.744 OA
ENDBRANCH  76  80
ENDBRANCH  59  73
BRANCH  60  84
ATOM     84  C   UNL     1       0.042  10.972  -5.699  1.00  0.00     0.023 A 
ATOM     85  C   UNL     1       0.198  11.919  -4.671  1.00  0.00     0.031 A 
ATOM     86  C   UNL     1       1.098  10.848  -6.626  1.00  0.00     0.131 A 
ATOM     87  C   UNL     1       1.354  12.725  -4.620  1.00  0.00     0.055 A 
ATOM     88  C   UNL     1       2.260  11.622  -6.548  1.00  0.00     0.041 A 
ATOM     89  F   UNL     1       1.016   9.965  -7.635  1.00  0.00    -0.206 F 
ATOM     90  C   UNL     1       2.387  12.578  -5.548  1.00  0.00     0.022 A 
BRANCH  87  91
ATOM     91  S   UNL     1       1.459  14.037  -3.366  1.00  0.00     0.124 S 
ATOM     92  O   UNL     1       0.236  14.790  -3.616  1.00  0.00    -0.237 OA
ATOM     93  O   UNL     1       1.498  13.265  -2.129  1.00  0.00    -0.237 OA
ATOM     94  O   UNL     1       2.700  14.733  -3.703  1.00  0.00    -0.744 OA
ENDBRANCH  87  91
ENDBRANCH  60  84
BRANCH  72  95
ATOM     95  C   UNL     1      -6.666  12.519  -6.790  1.00  0.00     0.023 A 
ATOM     96  C   UNL     1      -6.470  13.453  -7.820  1.00  0.00     0.031 A 
ATOM     97  C   UNL     1      -7.557  12.845  -5.753  1.00  0.00     0.131 A 
ATOM     98  C   UNL     1      -7.113  14.697  -7.761  1.00  0.00     0.055 A 
ATOM     99  C   UNL     1      -8.245  14.057  -5.735  1.00  0.00     0.041 A 
ATOM    100  F   UNL     1      -7.766  11.991  -4.739  1.00  0.00    -0.206 F 
ATOM    101  C   UNL     1      -8.015  14.997  -6.737  1.00  0.00     0.022 A 
BRANCH  98 102
ATOM    102  S   UNL     1      -6.678  15.953  -8.992  1.00  0.00     0.124 S 
ATOM    103  O   UNL     1      -5.253  16.141  -8.740  1.00  0.00    -0.237 OA
ATOM    104  O   UNL     1      -7.021  15.292 -10.248  1.00  0.00    -0.237 OA
ATOM    105  O   UNL     1      -7.528  17.088  -8.638  1.00  0.00    -0.744 OA
ENDBRANCH  98 102
ENDBRANCH  72  95
ENDBRANCH  46  47
ENDBRANCH  39  41
ENDBRANCH  38  39
ENDBRANCH  37  38
ENDBRANCH   1  37
TORSDOF 20
