REMARK SMILES Cc1nc(Nc2ccc(F)cc2)nc(OCC(=O)OCCOC(=O)c2ccc(-c3c4nc(c(-c5cc(S(=O)(=O)[O-])ccc5F)c5ccc([nH]5)c(-c5cc(S(=O)(=O)[O-])ccc5F)c5nc(c(-c6cc(S(=O)(=O)[O-])ccc6F)c6ccc3[nH]6)C=C5)C=C4)cc2)c1CCO
REMARK SMILES IDX 20 1 19 2 17 3 18 4 16 5 15 6 14 7 1 8 2 9 3 10 88 11 4 12
REMARK SMILES IDX 13 13 89 14 90 15 91 16 5 18 6 20 7 21 12 22 8 23 11 24 9 25
REMARK SMILES IDX 10 26 21 27 22 28 23 29 24 30 25 31 26 32 87 33 27 34 86 35
REMARK SMILES IDX 28 36 29 37 30 38 80 39 31 40 85 41 79 42 81 43 32 44 84 45
REMARK SMILES IDX 78 46 77 47 33 49 65 50 45 51 64 52 46 53 49 54 63 55 82 56
REMARK SMILES IDX 47 57 48 58 62 60 83 61 50 62 34 63 35 64 43 65 36 66 42 67
REMARK SMILES IDX 44 68 41 69 37 70 38 71 39 72 40 73 66 74 67 75 75 76 68 77
REMARK SMILES IDX 74 78 76 79 73 80 69 81 70 82 71 83 72 84 51 85 52 86 60 87
REMARK SMILES IDX 53 88 59 89 61 90 58 91 54 92 55 93 56 94 57 95
REMARK H PARENT 91 17 5 19 81 48 49 59
REMARK Flexibility Score: inf
ROOT
ATOM      1  C   UNL     1       0.344  -3.611   3.675  1.00  0.00     0.274 C 
ENDROOT
BRANCH   1   2
ATOM      2  O   UNL     1       1.102  -2.976   2.621  1.00  0.00    -0.460 OA
BRANCH   2   3
ATOM      3  C   UNL     1       1.161  -3.677   1.458  1.00  0.00     0.344 C 
ATOM      4  O   UNL     1       0.543  -4.715   1.242  1.00  0.00    -0.248 OA
BRANCH   3   5
ATOM      5  C   UNL     1       2.211  -3.138   0.479  1.00  0.00     0.353 C 
BRANCH   5   6
ATOM      6  O   UNL     1       2.523  -1.796   0.198  1.00  0.00    -0.465 OA
BRANCH   6   7
ATOM      7  C   UNL     1       1.569  -0.841   0.067  1.00  0.00     0.222 A 
ATOM      8  C   UNL     1      -1.915   0.259  -0.828  1.00  0.00     0.067 C 
ATOM      9  C   UNL     1      -0.496   0.150  -0.361  1.00  0.00     0.050 A 
ATOM     10  N   UNL     1      -0.036   1.307   0.138  1.00  0.00    -0.218 NA
ATOM     11  C   UNL     1       0.320  -0.967  -0.522  1.00  0.00     0.038 A 
ATOM     12  C   UNL     1       1.257   1.407   0.427  1.00  0.00     0.230 A 
ATOM     13  N   UNL     1       2.066   0.350   0.464  1.00  0.00    -0.177 NA
BRANCH  11  14
ATOM     14  C   UNL     1      -0.104  -2.117  -1.396  1.00  0.00     0.071 C 
BRANCH  14  15
ATOM     15  C   UNL     1       0.584  -2.169  -2.761  1.00  0.00     0.161 C 
BRANCH  15  16
ATOM     16  O   UNL     1       1.956  -2.521  -2.647  1.00  0.00    -0.396 OA
ATOM     17  H   UNL     1       2.417  -1.854  -2.114  1.00  0.00     0.210 HD
ENDBRANCH  15  16
ENDBRANCH  14  15
ENDBRANCH  11  14
BRANCH  12  18
ATOM     18  N   UNL     1       1.823   2.681   0.532  1.00  0.00    -0.324 N 
ATOM     19  H   UNL     1       2.783   2.737   0.744  1.00  0.00     0.170 HD
BRANCH  18  20
ATOM     20  C   UNL     1       1.125   3.886   0.358  1.00  0.00     0.041 A 
ATOM     21  C   UNL     1       0.067   4.216   1.219  1.00  0.00     0.029 A 
ATOM     22  C   UNL     1       1.351   4.689  -0.768  1.00  0.00     0.029 A 
ATOM     23  C   UNL     1      -0.728   5.337   0.984  1.00  0.00     0.041 A 
ATOM     24  C   UNL     1       0.542   5.804  -1.018  1.00  0.00     0.041 A 
ATOM     25  C   UNL     1      -0.485   6.120  -0.136  1.00  0.00     0.123 A 
ATOM     26  F   UNL     1      -1.260   7.187  -0.373  1.00  0.00    -0.207 F 
ENDBRANCH  18  20
ENDBRANCH  12  18
ENDBRANCH   6   7
ENDBRANCH   5   6
ENDBRANCH   3   5
ENDBRANCH   2   3
ENDBRANCH   1   2
BRANCH   1  27
ATOM     27  C   UNL     1      -1.097  -3.112   3.730  1.00  0.00     0.275 C 
BRANCH  27  28
ATOM     28  O   UNL     1      -1.790  -3.463   2.521  1.00  0.00    -0.458 OA
BRANCH  28  29
ATOM     29  C   UNL     1      -2.689  -2.549   2.086  1.00  0.00     0.338 C 
ATOM     30  O   UNL     1      -2.982  -1.508   2.651  1.00  0.00    -0.246 OA
BRANCH  29  31
ATOM     31  C   UNL     1      -3.279  -2.945   0.781  1.00  0.00     0.060 A 
ATOM     32  C   UNL     1      -2.639  -3.828  -0.091  1.00  0.00     0.016 A 
ATOM     33  C   UNL     1      -4.449  -2.299   0.362  1.00  0.00     0.016 A 
ATOM     34  C   UNL     1      -3.098  -3.964  -1.408  1.00  0.00     0.010 A 
ATOM     35  C   UNL     1      -4.949  -2.501  -0.930  1.00  0.00     0.010 A 
ATOM     36  C   UNL     1      -4.259  -3.304  -1.850  1.00  0.00    -0.014 A 
BRANCH  36  37
ATOM     37  C   UNL     1      -4.765  -3.446  -3.249  1.00  0.00     0.031 A 
ATOM     38  C   UNL     1      -5.006  -2.234  -4.121  1.00  0.00     0.074 A 
ATOM     39  C   UNL     1      -5.039  -4.667  -3.751  1.00  0.00     0.049 A 
ATOM     40  N   UNL     1      -5.673  -2.139  -5.244  1.00  0.00    -0.248 NA
ATOM     41  C   UNL     1      -4.418  -0.963  -3.673  1.00  0.00     0.031 C 
ATOM     42  C   UNL     1      -4.804  -5.940  -3.067  1.00  0.00     0.029 A 
ATOM     43  N   UNL     1      -5.582  -5.037  -4.957  1.00  0.00    -0.354 N 
ATOM     44  C   UNL     1      -5.624  -0.797  -5.613  1.00  0.00     0.074 A 
ATOM     45  C   UNL     1      -4.850  -0.114  -4.597  1.00  0.00     0.031 C 
ATOM     46  C   UNL     1      -5.164  -6.947  -3.873  1.00  0.00     0.029 A 
ATOM     47  C   UNL     1      -5.765  -6.393  -5.081  1.00  0.00     0.049 A 
ATOM     48  H   UNL     1      -5.817  -4.393  -5.664  1.00  0.00     0.167 HD
ATOM     49  C   UNL     1      -6.183  -0.191  -6.690  1.00  0.00     0.034 A 
ATOM     50  C   UNL     1      -6.407  -7.121  -6.015  1.00  0.00     0.034 A 
ATOM     51  C   UNL     1      -6.926  -0.881  -7.716  1.00  0.00     0.049 A 
ATOM     52  C   UNL     1      -7.106  -6.425  -7.144  1.00  0.00     0.074 A 
ATOM     53  C   UNL     1      -7.525  -0.352  -8.849  1.00  0.00     0.029 A 
ATOM     54  N   UNL     1      -7.169  -2.246  -7.742  1.00  0.00    -0.354 N 
ATOM     55  N   UNL     1      -7.169  -5.142  -7.405  1.00  0.00    -0.248 NA
ATOM     56  C   UNL     1      -7.853  -7.274  -8.082  1.00  0.00     0.031 C 
ATOM     57  C   UNL     1      -8.172  -1.389  -9.531  1.00  0.00     0.029 A 
ATOM     58  C   UNL     1      -7.927  -2.573  -8.856  1.00  0.00     0.049 A 
ATOM     59  H   UNL     1      -6.849  -2.888  -7.069  1.00  0.00     0.167 HD
ATOM     60  C   UNL     1      -7.970  -5.028  -8.536  1.00  0.00     0.074 A 
ATOM     61  C   UNL     1      -8.355  -6.372  -8.914  1.00  0.00     0.031 C 
ATOM     62  C   UNL     1      -8.347  -3.908  -9.200  1.00  0.00     0.034 A 
BRANCH  49  63
ATOM     63  C   UNL     1      -6.073   1.308  -6.799  1.00  0.00     0.023 A 
ATOM     64  C   UNL     1      -4.878   1.945  -7.170  1.00  0.00     0.031 A 
ATOM     65  C   UNL     1      -7.214   2.106  -6.592  1.00  0.00     0.131 A 
ATOM     66  C   UNL     1      -4.847   3.343  -7.306  1.00  0.00     0.055 A 
ATOM     67  C   UNL     1      -7.189   3.489  -6.774  1.00  0.00     0.041 A 
ATOM     68  F   UNL     1      -8.377   1.545  -6.224  1.00  0.00    -0.206 F 
ATOM     69  C   UNL     1      -6.000   4.116  -7.131  1.00  0.00     0.022 A 
BRANCH  66  70
ATOM     70  S   UNL     1      -3.267   4.153  -7.676  1.00  0.00     0.124 S 
ATOM     71  O   UNL     1      -2.489   3.842  -6.480  1.00  0.00    -0.237 OA
ATOM     72  O   UNL     1      -2.847   3.484  -8.902  1.00  0.00    -0.237 OA
ATOM     73  O   UNL     1      -3.629   5.561  -7.829  1.00  0.00    -0.744 OA
ENDBRANCH  66  70
ENDBRANCH  49  63
BRANCH  50  74
ATOM     74  C   UNL     1      -6.503  -8.594  -5.843  1.00  0.00     0.023 A 
ATOM     75  C   UNL     1      -5.766  -9.465  -6.655  1.00  0.00     0.031 A 
ATOM     76  C   UNL     1      -7.298  -9.142  -4.819  1.00  0.00     0.131 A 
ATOM     77  C   UNL     1      -5.835 -10.848  -6.426  1.00  0.00     0.055 A 
ATOM     78  C   UNL     1      -7.334 -10.513  -4.572  1.00  0.00     0.041 A 
ATOM     79  F   UNL     1      -8.010  -8.340  -4.011  1.00  0.00    -0.206 F 
ATOM     80  C   UNL     1      -6.599 -11.375  -5.380  1.00  0.00     0.022 A 
BRANCH  77  81
ATOM     81  S   UNL     1      -4.899 -11.959  -7.511  1.00  0.00     0.124 S 
ATOM     82  O   UNL     1      -5.612 -11.808  -8.775  1.00  0.00    -0.237 OA
ATOM     83  O   UNL     1      -3.559 -11.385  -7.458  1.00  0.00    -0.237 OA
ATOM     84  O   UNL     1      -5.040 -13.261  -6.864  1.00  0.00    -0.744 OA
ENDBRANCH  77  81
ENDBRANCH  50  74
BRANCH  62  85
ATOM     85  C   UNL     1      -9.215  -4.096 -10.413  1.00  0.00     0.023 A 
ATOM     86  C   UNL     1     -10.573  -4.433 -10.293  1.00  0.00     0.031 A 
ATOM     87  C   UNL     1      -8.675  -3.945 -11.701  1.00  0.00     0.131 A 
ATOM     88  C   UNL     1     -11.341  -4.646 -11.447  1.00  0.00     0.055 A 
ATOM     89  C   UNL     1      -9.453  -4.117 -12.845  1.00  0.00     0.041 A 
ATOM     90  F   UNL     1      -7.381  -3.625 -11.865  1.00  0.00    -0.206 F 
ATOM     91  C   UNL     1     -10.793  -4.477 -12.722  1.00  0.00     0.022 A 
BRANCH  88  92
ATOM     92  S   UNL     1     -13.062  -5.190 -11.265  1.00  0.00     0.124 S 
ATOM     93  O   UNL     1     -12.897  -6.517 -10.680  1.00  0.00    -0.237 OA
ATOM     94  O   UNL     1     -13.626  -4.171 -10.386  1.00  0.00    -0.237 OA
ATOM     95  O   UNL     1     -13.573  -5.175 -12.634  1.00  0.00    -0.744 OA
ENDBRANCH  88  92
ENDBRANCH  62  85
ENDBRANCH  36  37
ENDBRANCH  29  31
ENDBRANCH  28  29
ENDBRANCH  27  28
ENDBRANCH   1  27
TORSDOF 21
