REMARK SMILES O=C(OCCOC(=O)c1ccc(-c2c3nc(c(-c4cc(S(=O)(=O)[O-])ccc4F)c4ccc([nH]4)c(-c4cc(S(=O)(=O)[O-])ccc4F)c4nc(c(-c5cc(S(=O)(=O)[O-])ccc5F)c5ccc2[nH]5)C=C4)C=C3)cc1)C1=Cc2cc(S(F)(F)(F)(F)F)cc(Br)c2O[C@@H]1C(F)(F)F
REMARK SMILES IDX 5 1 4 2 3 3 2 4 1 5 72 6 73 7 88 8 74 9 87 10 75 11 86 12
REMARK SMILES IDX 76 13 84 14 83 15 85 16 89 17 90 18 91 19 92 20 77 21 78 22
REMARK SMILES IDX 79 23 80 24 81 25 82 26 6 27 7 28 8 29 9 30 10 31 71 32
REMARK SMILES IDX 11 33 70 34 12 35 13 36 14 37 64 38 15 39 69 40 63 41 65 42
REMARK SMILES IDX 16 43 68 44 62 45 61 46 17 48 49 49 29 50 48 51 30 52 33 53
REMARK SMILES IDX 47 54 66 55 31 56 32 57 46 59 67 60 34 61 18 62 19 63 27 64
REMARK SMILES IDX 20 65 26 66 28 67 25 68 21 69 22 70 23 71 24 72 50 73 51 74
REMARK SMILES IDX 59 75 52 76 58 77 60 78 57 79 53 80 54 81 55 82 56 83 35 84
REMARK SMILES IDX 36 85 44 86 37 87 43 88 45 89 42 90 38 91 39 92 40 93 41 94
REMARK H PARENT 65 47 33 58
REMARK Flexibility Score: inf
ROOT
ATOM      1  C   UNL     1       4.853   0.596  -1.289  1.00  0.00     0.275 C 
ENDROOT
BRANCH   1   2
ATOM      2  C   UNL     1       4.346  -0.794  -0.940  1.00  0.00     0.275 C 
BRANCH   2   3
ATOM      3  O   UNL     1       2.926  -0.794  -0.940  1.00  0.00    -0.459 OA
BRANCH   3   4
ATOM      4  C   UNL     1       2.216   0.061  -0.057  1.00  0.00     0.338 C 
ATOM      5  O   UNL     1       0.946   0.061  -0.057  1.00  0.00    -0.246 OA
BRANCH   4   6
ATOM      6  C   UNL     1       2.977   0.977   0.888  1.00  0.00     0.087 C 
ATOM      7  C   UNL     1       4.337   0.977   0.888  1.00  0.00     0.027 C 
ATOM      8  C   UNL     1       2.216   1.893   1.834  1.00  0.00     0.316 C 
ATOM      9  C   UNL     1       5.097   0.061  -0.057  1.00  0.00     0.020 A 
ATOM     10  O   UNL     1       3.660   0.601  -1.871  1.00  0.00    -0.474 OA
ATOM     11  C   UNL     1       6.085  -0.709   0.534  1.00  0.00     0.036 A 
ATOM     12  C   UNL     1       4.782  -0.087  -1.339  1.00  0.00     0.142 A 
ATOM     13  C   UNL     1       6.890  -1.416  -0.390  1.00  0.00     0.109 A 
ATOM     14  C   UNL     1       5.531  -0.901  -2.153  1.00  0.00     0.062 A 
ATOM     15  C   UNL     1       6.560  -1.646  -1.648  1.00  0.00     0.044 A 
ATOM     16  Br  UNL     1       5.119  -0.995  -4.067  1.00  0.00    -0.047 Br
BRANCH   8  17
ATOM     17  C   UNL     1       2.584   3.339   1.542  1.00  0.00     0.430 C 
ATOM     18  F   UNL     1       2.262   3.634   0.286  1.00  0.00    -0.167 F 
ATOM     19  F   UNL     1       1.919   4.141   2.370  1.00  0.00    -0.167 F 
ATOM     20  F   UNL     1       3.891   3.508   1.717  1.00  0.00    -0.167 F 
ENDBRANCH   8  17
BRANCH  13  21
ATOM     21  S   UNL     1       8.482  -2.049   0.192  1.00  0.00     0.310 S 
ATOM     22  F   UNL     1       7.999  -2.008   1.702  1.00  0.00    -0.094 F 
ATOM     23  F   UNL     1       8.986  -0.569   0.385  1.00  0.00    -0.094 F 
ATOM     24  F   UNL     1       9.839  -2.608   0.706  1.00  0.00    -0.094 F 
ATOM     25  F   UNL     1       7.912  -3.520   0.125  1.00  0.00    -0.094 F 
ATOM     26  F   UNL     1       7.062  -1.494  -0.224  1.00  0.00    -0.094 F 
ENDBRANCH  13  21
ENDBRANCH   4   6
ENDBRANCH   3   4
ENDBRANCH   2   3
ENDBRANCH   1   2
BRANCH   1  27
ATOM     27  O   UNL     1       4.380   1.527  -0.328  1.00  0.00    -0.458 OA
BRANCH  27  28
ATOM     28  C   UNL     1       2.984   1.708  -0.141  1.00  0.00     0.338 C 
ATOM     29  O   UNL     1       2.158   1.036  -0.835  1.00  0.00    -0.246 OA
BRANCH  28  30
ATOM     30  C   UNL     1       2.477   2.705   0.888  1.00  0.00     0.060 A 
ATOM     31  C   UNL     1       1.333   2.376   1.597  1.00  0.00     0.016 A 
ATOM     32  C   UNL     1       3.016   3.915   0.973  1.00  0.00     0.016 A 
ATOM     33  C   UNL     1       0.662   3.491   2.151  1.00  0.00     0.010 A 
ATOM     34  C   UNL     1       2.370   4.923   1.647  1.00  0.00     0.010 A 
ATOM     35  C   UNL     1       1.204   4.684   2.321  1.00  0.00    -0.014 A 
BRANCH  35  36
ATOM     36  C   UNL     1       0.567   5.733   3.217  1.00  0.00     0.031 A 
ATOM     37  C   UNL     1       0.164   6.974   2.721  1.00  0.00     0.074 A 
ATOM     38  C   UNL     1       0.301   5.290   4.502  1.00  0.00     0.049 A 
ATOM     39  N   UNL     1      -0.549   7.909   3.350  1.00  0.00    -0.248 NA
ATOM     40  C   UNL     1       0.475   7.461   1.369  1.00  0.00     0.031 C 
ATOM     41  C   UNL     1       0.697   4.036   5.007  1.00  0.00     0.029 A 
ATOM     42  N   UNL     1      -0.372   5.954   5.502  1.00  0.00    -0.354 N 
ATOM     43  C   UNL     1      -0.753   8.953   2.544  1.00  0.00     0.074 A 
ATOM     44  C   UNL     1      -0.092   8.682   1.260  1.00  0.00     0.031 C 
ATOM     45  C   UNL     1       0.278   3.950   6.297  1.00  0.00     0.029 A 
ATOM     46  C   UNL     1      -0.387   5.148   6.619  1.00  0.00     0.049 A 
ATOM     47  H   UNL     1      -0.774   6.850   5.432  1.00  0.00     0.167 HD
ATOM     48  C   UNL     1      -1.466  10.119   2.829  1.00  0.00     0.034 A 
ATOM     49  C   UNL     1      -0.942   5.425   7.859  1.00  0.00     0.034 A 
ATOM     50  C   UNL     1      -2.059  10.377   4.054  1.00  0.00     0.049 A 
ATOM     51  C   UNL     1      -1.605   6.616   8.162  1.00  0.00     0.074 A 
ATOM     52  C   UNL     1      -2.788  11.544   4.355  1.00  0.00     0.029 A 
ATOM     53  N   UNL     1      -2.052   9.582   5.179  1.00  0.00    -0.354 N 
ATOM     54  N   UNL     1      -1.843   7.643   7.344  1.00  0.00    -0.248 NA
ATOM     55  C   UNL     1      -2.169   6.934   9.481  1.00  0.00     0.031 C 
ATOM     56  C   UNL     1      -3.207  11.458   5.646  1.00  0.00     0.029 A 
ATOM     57  C   UNL     1      -2.746  10.236   6.173  1.00  0.00     0.049 A 
ATOM     58  H   UNL     1      -1.625   8.698   5.258  1.00  0.00     0.167 HD
ATOM     59  C   UNL     1      -2.521   8.595   7.987  1.00  0.00     0.074 A 
ATOM     60  C   UNL     1      -2.734   8.156   9.373  1.00  0.00     0.031 C 
ATOM     61  C   UNL     1      -2.974   9.811   7.472  1.00  0.00     0.034 A 
BRANCH  48  62
ATOM     62  C   UNL     1      -1.601  11.163   1.732  1.00  0.00     0.023 A 
ATOM     63  C   UNL     1      -2.284  10.775   0.592  1.00  0.00     0.031 A 
ATOM     64  C   UNL     1      -1.143  12.402   1.873  1.00  0.00     0.131 A 
ATOM     65  C   UNL     1      -2.184  11.695  -0.478  1.00  0.00     0.055 A 
ATOM     66  C   UNL     1      -1.200  13.291   0.828  1.00  0.00     0.041 A 
ATOM     67  F   UNL     1      -0.625  12.784   3.037  1.00  0.00    -0.206 F 
ATOM     68  C   UNL     1      -1.809  12.955  -0.349  1.00  0.00     0.022 A 
BRANCH  65  69
ATOM     69  S   UNL     1      -2.597  11.105  -2.138  1.00  0.00     0.124 S 
ATOM     70  O   UNL     1      -1.668   9.949  -2.515  1.00  0.00    -0.237 OA
ATOM     71  O   UNL     1      -4.049  10.621  -2.161  1.00  0.00    -0.237 OA
ATOM     72  O   UNL     1      -2.404  12.381  -3.261  1.00  0.00    -0.744 OA
ENDBRANCH  65  69
ENDBRANCH  48  62
BRANCH  49  73
ATOM     73  C   UNL     1      -0.822   4.373   8.949  1.00  0.00     0.023 A 
ATOM     74  C   UNL     1      -1.939   3.855   9.583  1.00  0.00     0.031 A 
ATOM     75  C   UNL     1       0.404   4.017   9.314  1.00  0.00     0.131 A 
ATOM     76  C   UNL     1      -1.651   3.181  10.793  1.00  0.00     0.055 A 
ATOM     77  C   UNL     1       0.604   3.243  10.432  1.00  0.00     0.041 A 
ATOM     78  F   UNL     1       1.448   4.413   8.592  1.00  0.00    -0.206 F 
ATOM     79  C   UNL     1      -0.454   2.745  11.141  1.00  0.00     0.022 A 
BRANCH  76  80
ATOM     80  S   UNL     1      -3.018   2.895  11.944  1.00  0.00     0.124 S 
ATOM     81  O   UNL     1      -3.619   4.238  12.367  1.00  0.00    -0.237 OA
ATOM     82  O   UNL     1      -4.093   2.048  11.259  1.00  0.00    -0.237 OA
ATOM     83  O   UNL     1      -2.438   2.071  13.326  1.00  0.00    -0.744 OA
ENDBRANCH  76  80
ENDBRANCH  49  73
BRANCH  61  84
ATOM     84  C   UNL     1      -3.767  10.725   8.393  1.00  0.00     0.023 A 
ATOM     85  C   UNL     1      -3.179  11.055   9.603  1.00  0.00     0.031 A 
ATOM     86  C   UNL     1      -5.012  11.090   8.110  1.00  0.00     0.131 A 
ATOM     87  C   UNL     1      -4.093  11.529  10.574  1.00  0.00     0.055 A 
ATOM     88  C   UNL     1      -5.806  11.672   9.069  1.00  0.00     0.041 A 
ATOM     89  F   UNL     1      -5.495  10.890   6.887  1.00  0.00    -0.206 F 
ATOM     90  C   UNL     1      -5.307  11.973  10.306  1.00  0.00     0.022 A 
BRANCH  87  91
ATOM     91  S   UNL     1      -3.560  11.526  12.304  1.00  0.00     0.124 S 
ATOM     92  O   UNL     1      -3.225  10.096  12.732  1.00  0.00    -0.237 OA
ATOM     93  O   UNL     1      -2.319  12.409  12.457  1.00  0.00    -0.237 OA
ATOM     94  O   UNL     1      -4.818  12.136  13.289  1.00  0.00    -0.744 OA
ENDBRANCH  87  91
ENDBRANCH  61  84
ENDBRANCH  35  36
ENDBRANCH  28  30
ENDBRANCH  27  28
ENDBRANCH   1  27
TORSDOF 16
