REMARK SMILES Cc1cccc(CC(=O)N2CCC3(CCC(=O)N([C@H](C)C(=O)OCCOC(=O)c4ccc(-c5c6nc(c(-c7cc(S(=O)(=O)[O-])ccc7F)c7ccc([nH]7)c(-c7cc(S(=O)(=O)[O-])ccc7F)c7nc(c(-c8cc(S(=O)(=O)[O-])ccc8F)c8ccc5[nH]8)C=C7)C=C6)cc4)C3)CC2)c1
REMARK SMILES IDX 24 1 23 2 21 3 22 4 19 5 20 6 18 7 8 8 9 9 10 10 11 11 94 12
REMARK SMILES IDX 12 13 93 14 13 15 14 16 92 17 15 18 16 19 17 20 7 21 6 22
REMARK SMILES IDX 1 23 2 24 3 25 95 26 4 27 5 28 25 29 26 30 27 31 28 32 29 33
REMARK SMILES IDX 30 34 91 35 31 36 90 37 32 38 33 39 34 40 84 41 35 42 89 43
REMARK SMILES IDX 83 44 85 45 36 46 88 47 82 48 81 49 37 51 69 52 49 53 68 54
REMARK SMILES IDX 50 55 53 56 67 57 86 58 51 59 52 60 66 62 87 63 54 64 38 65
REMARK SMILES IDX 39 66 47 67 40 68 46 69 48 70 45 71 41 72 42 73 43 74 44 75
REMARK SMILES IDX 70 76 71 77 79 78 72 79 78 80 80 81 77 82 73 83 74 84 75 85
REMARK SMILES IDX 76 86 55 87 56 88 64 89 57 90 63 91 65 92 62 93 58 94 59 95
REMARK SMILES IDX 60 96 61 97
REMARK H PARENT 85 50 53 61
REMARK Flexibility Score: inf
ROOT
ATOM      1  C   UNL     1      -3.045   4.897  -7.600  1.00  0.00     0.274 C 
ENDROOT
BRANCH   1   2
ATOM      2  O   UNL     1      -1.689   4.537  -7.330  1.00  0.00    -0.461 OA
BRANCH   2   3
ATOM      3  C   UNL     1      -0.750   5.192  -8.082  1.00  0.00     0.328 C 
ATOM      4  O   UNL     1      -1.006   5.889  -9.033  1.00  0.00    -0.250 OA
BRANCH   3   5
ATOM      5  C   UNL     1       0.643   5.033  -7.435  1.00  0.00     0.192 C 
ATOM      6  C   UNL     1       0.865   3.639  -6.850  1.00  0.00     0.044 C 
BRANCH   5   7
ATOM      7  N   UNL     1       1.724   5.435  -8.347  1.00  0.00    -0.329 N 
ATOM      8  C   UNL     1       8.036   5.317  -7.003  1.00  0.00     0.226 C 
ATOM      9  O   UNL     1       8.415   4.141  -6.931  1.00  0.00    -0.275 OA
ATOM     10  N   UNL     1       6.838   5.654  -7.625  1.00  0.00    -0.342 N 
ATOM     11  C   UNL     1       5.928   4.568  -7.946  1.00  0.00     0.120 C 
ATOM     12  C   UNL     1       6.499   6.948  -8.236  1.00  0.00     0.120 C 
ATOM     13  C   UNL     1       4.507   4.975  -7.607  1.00  0.00     0.030 C 
ATOM     14  C   UNL     1       5.041   7.371  -7.994  1.00  0.00     0.030 C 
ATOM     15  C   UNL     1       4.053   6.246  -8.370  1.00  0.00    -0.008 C 
ATOM     16  C   UNL     1       4.006   6.106  -9.904  1.00  0.00     0.019 C 
ATOM     17  C   UNL     1       2.603   6.553  -7.963  1.00  0.00     0.127 C 
ATOM     18  C   UNL     1       3.111   4.971 -10.354  1.00  0.00     0.101 C 
ATOM     19  C   UNL     1       1.857   4.744  -9.540  1.00  0.00     0.223 C 
ATOM     20  O   UNL     1       1.064   3.869  -9.893  1.00  0.00    -0.275 OA
BRANCH   8  21
ATOM     21  C   UNL     1       8.814   6.375  -6.236  1.00  0.00     0.135 C 
BRANCH  21  22
ATOM     22  C   UNL     1       9.375   7.511  -7.043  1.00  0.00    -0.038 A 
ATOM     23  C   UNL     1       8.791  11.265  -7.276  1.00  0.00     0.044 C 
ATOM     24  C   UNL     1       9.331   9.891  -7.551  1.00  0.00    -0.051 A 
ATOM     25  C   UNL     1      10.107   9.644  -8.688  1.00  0.00     0.003 A 
ATOM     26  C   UNL     1       9.009   8.826  -6.709  1.00  0.00     0.007 A 
ATOM     27  C   UNL     1      10.541   8.350  -8.985  1.00  0.00     0.001 A 
ATOM     28  C   UNL     1      10.174   7.282  -8.168  1.00  0.00     0.004 A 
ENDBRANCH  21  22
ENDBRANCH   8  21
ENDBRANCH   5   7
ENDBRANCH   3   5
ENDBRANCH   2   3
ENDBRANCH   1   2
BRANCH   1  29
ATOM     29  C   UNL     1      -3.836   4.971  -6.286  1.00  0.00     0.275 C 
BRANCH  29  30
ATOM     30  O   UNL     1      -3.064   5.090  -5.045  1.00  0.00    -0.458 OA
BRANCH  30  31
ATOM     31  C   UNL     1      -2.144   6.005  -4.627  1.00  0.00     0.338 C 
ATOM     32  O   UNL     1      -1.467   5.805  -3.622  1.00  0.00    -0.246 OA
BRANCH  31  33
ATOM     33  C   UNL     1      -1.816   7.154  -5.496  1.00  0.00     0.060 A 
ATOM     34  C   UNL     1      -0.503   7.657  -5.572  1.00  0.00     0.016 A 
ATOM     35  C   UNL     1      -2.787   7.659  -6.332  1.00  0.00     0.016 A 
ATOM     36  C   UNL     1      -0.148   8.527  -6.610  1.00  0.00     0.010 A 
ATOM     37  C   UNL     1      -2.400   8.310  -7.470  1.00  0.00     0.010 A 
ATOM     38  C   UNL     1      -1.097   8.794  -7.599  1.00  0.00    -0.014 A 
BRANCH  38  39
ATOM     39  C   UNL     1      -0.968   9.776  -8.672  1.00  0.00     0.031 A 
ATOM     40  C   UNL     1      -0.068   9.554  -9.816  1.00  0.00     0.074 A 
ATOM     41  C   UNL     1      -1.781  10.846  -8.520  1.00  0.00     0.049 A 
ATOM     42  N   UNL     1       0.932  10.297 -10.159  1.00  0.00    -0.248 NA
ATOM     43  C   UNL     1      -0.232   8.381 -10.678  1.00  0.00     0.031 C 
ATOM     44  C   UNL     1      -2.044  11.995  -9.361  1.00  0.00     0.029 A 
ATOM     45  N   UNL     1      -2.529  11.144  -7.394  1.00  0.00    -0.354 N 
ATOM     46  C   UNL     1       1.244   9.909 -11.454  1.00  0.00     0.074 A 
ATOM     47  C   UNL     1       0.695   8.585 -11.621  1.00  0.00     0.031 C 
ATOM     48  C   UNL     1      -2.568  12.973  -8.584  1.00  0.00     0.029 A 
ATOM     49  C   UNL     1      -2.596  12.504  -7.200  1.00  0.00     0.049 A 
ATOM     50  H   UNL     1      -2.955  10.474  -6.812  1.00  0.00     0.167 HD
ATOM     51  C   UNL     1       1.527  10.826 -12.427  1.00  0.00     0.034 A 
ATOM     52  C   UNL     1      -1.930  13.013  -6.117  1.00  0.00     0.034 A 
ATOM     53  C   UNL     1       1.219  12.165 -11.946  1.00  0.00     0.049 A 
ATOM     54  C   UNL     1      -0.663  13.699  -6.588  1.00  0.00     0.074 A 
ATOM     55  C   UNL     1       0.082  12.942 -12.104  1.00  0.00     0.029 A 
ATOM     56  N   UNL     1       1.918  12.702 -10.876  1.00  0.00    -0.354 N 
ATOM     57  N   UNL     1      -0.103  13.471  -7.748  1.00  0.00    -0.248 NA
ATOM     58  C   UNL     1       0.037  14.722  -5.822  1.00  0.00     0.031 C 
ATOM     59  C   UNL     1       0.045  13.877 -11.037  1.00  0.00     0.029 A 
ATOM     60  C   UNL     1       1.166  13.680 -10.250  1.00  0.00     0.049 A 
ATOM     61  H   UNL     1       2.822  12.426 -10.601  1.00  0.00     0.167 HD
ATOM     62  C   UNL     1       0.947  14.322  -7.929  1.00  0.00     0.074 A 
ATOM     63  C   UNL     1       0.997  15.087  -6.690  1.00  0.00     0.031 C 
ATOM     64  C   UNL     1       1.689  14.354  -9.077  1.00  0.00     0.034 A 
BRANCH  51  65
ATOM     65  C   UNL     1       1.638  10.467 -13.893  1.00  0.00     0.023 A 
ATOM     66  C   UNL     1       1.117  11.321 -14.888  1.00  0.00     0.031 A 
ATOM     67  C   UNL     1       2.281   9.302 -14.358  1.00  0.00     0.131 A 
ATOM     68  C   UNL     1       1.176  10.981 -16.253  1.00  0.00     0.055 A 
ATOM     69  C   UNL     1       2.321   8.951 -15.717  1.00  0.00     0.041 A 
ATOM     70  F   UNL     1       2.898   8.468 -13.504  1.00  0.00    -0.206 F 
ATOM     71  C   UNL     1       1.759   9.789 -16.673  1.00  0.00     0.022 A 
BRANCH  68  72
ATOM     72  S   UNL     1       0.493  12.138 -17.477  1.00  0.00     0.124 S 
ATOM     73  O   UNL     1      -0.919  12.173 -17.113  1.00  0.00    -0.237 OA
ATOM     74  O   UNL     1       1.256  13.354 -17.215  1.00  0.00    -0.237 OA
ATOM     75  O   UNL     1       0.786  11.492 -18.756  1.00  0.00    -0.744 OA
ENDBRANCH  68  72
ENDBRANCH  51  65
BRANCH  52  76
ATOM     76  C   UNL     1      -2.070  12.153  -4.877  1.00  0.00     0.023 A 
ATOM     77  C   UNL     1      -3.384  11.741  -4.534  1.00  0.00     0.031 A 
ATOM     78  C   UNL     1      -1.012  11.451  -4.282  1.00  0.00     0.131 A 
ATOM     79  C   UNL     1      -3.605  10.548  -3.825  1.00  0.00     0.055 A 
ATOM     80  C   UNL     1      -1.242  10.318  -3.481  1.00  0.00     0.041 A 
ATOM     81  F   UNL     1       0.262  11.775  -4.544  1.00  0.00    -0.206 F 
ATOM     82  C   UNL     1      -2.537   9.830  -3.293  1.00  0.00     0.022 A 
BRANCH  79  83
ATOM     83  S   UNL     1      -5.250   9.763  -3.925  1.00  0.00     0.124 S 
ATOM     84  O   UNL     1      -5.911  10.275  -2.732  1.00  0.00    -0.237 OA
ATOM     85  O   UNL     1      -5.760  10.252  -5.203  1.00  0.00    -0.237 OA
ATOM     86  O   UNL     1      -4.939   8.334  -3.921  1.00  0.00    -0.744 OA
ENDBRANCH  79  83
ENDBRANCH  52  76
BRANCH  64  87
ATOM     87  C   UNL     1       2.959  15.135  -9.218  1.00  0.00     0.023 A 
ATOM     88  C   UNL     1       3.759  15.428  -8.114  1.00  0.00     0.031 A 
ATOM     89  C   UNL     1       3.439  15.556 -10.479  1.00  0.00     0.131 A 
ATOM     90  C   UNL     1       4.876  16.254  -8.248  1.00  0.00     0.055 A 
ATOM     91  C   UNL     1       4.631  16.262 -10.626  1.00  0.00     0.041 A 
ATOM     92  F   UNL     1       2.767  15.304 -11.613  1.00  0.00    -0.206 F 
ATOM     93  C   UNL     1       5.341  16.651  -9.500  1.00  0.00     0.022 A 
BRANCH  90  94
ATOM     94  S   UNL     1       5.583  16.928  -6.730  1.00  0.00     0.124 S 
ATOM     95  O   UNL     1       4.443  17.650  -6.171  1.00  0.00    -0.237 OA
ATOM     96  O   UNL     1       5.984  15.724  -6.010  1.00  0.00    -0.237 OA
ATOM     97  O   UNL     1       6.679  17.768  -7.207  1.00  0.00    -0.744 OA
ENDBRANCH  90  94
ENDBRANCH  64  87
ENDBRANCH  38  39
ENDBRANCH  31  33
ENDBRANCH  30  31
ENDBRANCH  29  30
ENDBRANCH   1  29
TORSDOF 17
