REMARK SMILES CN(CC(C)(C)O)C(=O)N[C@H]1CC[C@H](C(=O)OCCOC(=O)c2ccc(-c3c4nc(c(-c5cc(S(=O)(=O)[O-])ccc5F)c5ccc([nH]5)c(-c5cc(S(=O)(=O)[O-])ccc5F)c5nc(c(-c6cc(S(=O)(=O)[O-])ccc6F)c6ccc3[nH]6)C=C5)C=C4)cc2)C1
REMARK SMILES IDX 18 1 17 2 15 3 16 4 14 5 11 6 12 7 86 8 13 9 10 10 8 11 9 12
REMARK SMILES IDX 2 14 1 15 3 16 4 17 5 18 6 19 7 20 19 22 20 23 21 24 22 25
REMARK SMILES IDX 23 26 24 27 85 28 25 29 84 30 26 31 27 32 28 33 78 34 29 35
REMARK SMILES IDX 83 36 77 37 79 38 30 39 82 40 76 41 75 42 31 44 63 45 43 46
REMARK SMILES IDX 62 47 44 48 47 49 61 50 80 51 45 52 46 53 60 55 81 56 48 57
REMARK SMILES IDX 32 58 33 59 41 60 34 61 40 62 42 63 39 64 35 65 36 66 37 67
REMARK SMILES IDX 38 68 64 69 65 70 73 71 66 72 72 73 74 74 71 75 67 76 68 77
REMARK SMILES IDX 69 78 70 79 49 80 50 81 58 82 51 83 57 84 59 85 56 86 52 87
REMARK SMILES IDX 53 88 54 89 55 90
REMARK H PARENT 10 13 7 21 79 43 47 54
REMARK Flexibility Score: inf
ROOT
ATOM      1  C   UNL     1      -2.764   3.430   1.102  1.00  0.00     0.274 C 
ENDROOT
BRANCH   1   2
ATOM      2  O   UNL     1      -2.733   2.214   1.871  1.00  0.00    -0.462 OA
BRANCH   2   3
ATOM      3  C   UNL     1      -1.641   2.073   2.656  1.00  0.00     0.309 C 
ATOM      4  O   UNL     1      -0.667   2.820   2.640  1.00  0.00    -0.252 OA
BRANCH   3   5
ATOM      5  C   UNL     1      -1.678   0.868   3.550  1.00  0.00     0.101 C 
ATOM      6  C   UNL     1      -1.062  -1.330   4.054  1.00  0.00     0.084 C 
ATOM      7  C   UNL     1      -2.582  -1.217   4.371  1.00  0.00     0.026 C 
ATOM      8  C   UNL     1      -0.968  -0.317   2.931  1.00  0.00     0.040 C 
ATOM      9  C   UNL     1      -2.988   0.229   3.995  1.00  0.00     0.017 C 
BRANCH   6  10
ATOM     10  N   UNL     1      -0.305  -1.091   5.301  1.00  0.00    -0.335 N 
ATOM     11  C   UNL     1       0.830  -0.699   5.880  1.00  0.00     0.317 C 
ATOM     12  O   UNL     1       0.842  -0.971   7.089  1.00  0.00    -0.249 OA
ATOM     13  H   UNL     1      -0.915  -1.329   6.037  1.00  0.00     0.165 HD
BRANCH  11  14
ATOM     14  N   UNL     1       1.885  -0.062   5.307  1.00  0.00    -0.325 N 
ATOM     15  C   UNL     1       2.900   0.454   6.234  1.00  0.00     0.148 C 
BRANCH  14  16
ATOM     16  C   UNL     1       2.134   0.286   3.909  1.00  0.00     0.155 C 
BRANCH  16  17
ATOM     17  C   UNL     1       2.727  -0.829   3.002  1.00  0.00     0.077 C 
ATOM     18  C   UNL     1       2.054  -2.198   3.074  1.00  0.00     0.043 C 
ATOM     19  C   UNL     1       2.736  -0.346   1.545  1.00  0.00     0.043 C 
BRANCH  17  20
ATOM     20  O   UNL     1       4.103  -1.033   3.369  1.00  0.00    -0.389 OA
ATOM     21  H   UNL     1       4.151  -1.340   4.287  1.00  0.00     0.211 HD
ENDBRANCH  17  20
ENDBRANCH  16  17
ENDBRANCH  14  16
ENDBRANCH  11  14
ENDBRANCH   6  10
ENDBRANCH   3   5
ENDBRANCH   2   3
ENDBRANCH   1   2
BRANCH   1  22
ATOM     22  C   UNL     1      -3.676   4.476   1.746  1.00  0.00     0.275 C 
BRANCH  22  23
ATOM     23  O   UNL     1      -3.257   4.830   3.078  1.00  0.00    -0.458 OA
BRANCH  23  24
ATOM     24  C   UNL     1      -3.847   4.111   4.062  1.00  0.00     0.338 C 
ATOM     25  O   UNL     1      -4.660   3.207   3.924  1.00  0.00    -0.246 OA
BRANCH  24  26
ATOM     26  C   UNL     1      -3.332   4.510   5.378  1.00  0.00     0.060 A 
ATOM     27  C   UNL     1      -2.421   3.671   6.021  1.00  0.00     0.016 A 
ATOM     28  C   UNL     1      -3.873   5.610   6.046  1.00  0.00     0.016 A 
ATOM     29  C   UNL     1      -2.082   3.894   7.353  1.00  0.00     0.010 A 
ATOM     30  C   UNL     1      -3.509   5.850   7.376  1.00  0.00     0.010 A 
ATOM     31  C   UNL     1      -2.636   4.975   8.049  1.00  0.00    -0.014 A 
BRANCH  31  32
ATOM     32  C   UNL     1      -2.369   5.130   9.503  1.00  0.00     0.031 A 
ATOM     33  C   UNL     1      -3.474   4.880  10.495  1.00  0.00     0.074 A 
ATOM     34  C   UNL     1      -1.137   5.458   9.935  1.00  0.00     0.049 A 
ATOM     35  N   UNL     1      -3.485   5.060  11.791  1.00  0.00    -0.248 NA
ATOM     36  C   UNL     1      -4.740   4.369   9.948  1.00  0.00     0.031 C 
ATOM     37  C   UNL     1       0.028   5.674   9.075  1.00  0.00     0.029 A 
ATOM     38  N   UNL     1      -0.659   5.665  11.204  1.00  0.00    -0.354 N 
ATOM     39  C   UNL     1      -4.764   4.714  12.213  1.00  0.00     0.074 A 
ATOM     40  C   UNL     1      -5.506   4.335  11.028  1.00  0.00     0.031 C 
ATOM     41  C   UNL     1       1.088   5.974   9.843  1.00  0.00     0.029 A 
ATOM     42  C   UNL     1       0.667   6.027  11.240  1.00  0.00     0.049 A 
ATOM     43  H   UNL     1      -1.212   5.564  12.012  1.00  0.00     0.167 HD
ATOM     44  C   UNL     1      -5.271   4.711  13.472  1.00  0.00     0.034 A 
ATOM     45  C   UNL     1       1.447   6.391  12.277  1.00  0.00     0.034 A 
ATOM     46  C   UNL     1      -4.511   5.073  14.645  1.00  0.00     0.049 A 
ATOM     47  C   UNL     1       0.853   6.421  13.661  1.00  0.00     0.074 A 
ATOM     48  C   UNL     1      -4.923   5.107  15.967  1.00  0.00     0.029 A 
ATOM     49  N   UNL     1      -3.176   5.461  14.639  1.00  0.00    -0.354 N 
ATOM     50  N   UNL     1      -0.373   6.139  14.040  1.00  0.00    -0.248 NA
ATOM     51  C   UNL     1       1.747   6.819  14.755  1.00  0.00     0.031 C 
ATOM     52  C   UNL     1      -3.856   5.565  16.750  1.00  0.00     0.029 A 
ATOM     53  C   UNL     1      -2.757   5.756  15.928  1.00  0.00     0.049 A 
ATOM     54  H   UNL     1      -2.610   5.518  13.835  1.00  0.00     0.167 HD
ATOM     55  C   UNL     1      -0.391   6.313  15.421  1.00  0.00     0.074 A 
ATOM     56  C   UNL     1       0.951   6.703  15.808  1.00  0.00     0.031 C 
ATOM     57  C   UNL     1      -1.421   6.164  16.292  1.00  0.00     0.034 A 
BRANCH  44  58
ATOM     58  C   UNL     1      -6.733   4.366  13.627  1.00  0.00     0.023 A 
ATOM     59  C   UNL     1      -7.234   3.087  13.325  1.00  0.00     0.031 A 
ATOM     60  C   UNL     1      -7.648   5.350  14.043  1.00  0.00     0.131 A 
ATOM     61  C   UNL     1      -8.617   2.849  13.375  1.00  0.00     0.055 A 
ATOM     62  C   UNL     1      -9.013   5.085  14.163  1.00  0.00     0.041 A 
ATOM     63  F   UNL     1      -7.231   6.595  14.324  1.00  0.00    -0.206 F 
ATOM     64  C   UNL     1      -9.507   3.832  13.813  1.00  0.00     0.022 A 
BRANCH  61  65
ATOM     65  S   UNL     1      -9.253   1.279  12.723  1.00  0.00     0.124 S 
ATOM     66  O   UNL     1      -8.777   1.318  11.342  1.00  0.00    -0.237 OA
ATOM     67  O   UNL     1      -8.617   0.295  13.591  1.00  0.00    -0.237 OA
ATOM     68  O   UNL     1     -10.701   1.404  12.878  1.00  0.00    -0.744 OA
ENDBRANCH  61  65
ENDBRANCH  44  58
BRANCH  45  69
ATOM     69  C   UNL     1       2.857   6.813  12.044  1.00  0.00     0.023 A 
ATOM     70  C   UNL     1       3.933   6.067  12.548  1.00  0.00     0.031 A 
ATOM     71  C   UNL     1       3.143   7.996  11.340  1.00  0.00     0.131 A 
ATOM     72  C   UNL     1       5.246   6.531  12.371  1.00  0.00     0.055 A 
ATOM     73  C   UNL     1       4.452   8.428  11.126  1.00  0.00     0.041 A 
ATOM     74  F   UNL     1       2.149   8.745  10.836  1.00  0.00    -0.206 F 
ATOM     75  C   UNL     1       5.513   7.699  11.653  1.00  0.00     0.022 A 
BRANCH  72  76
ATOM     76  S   UNL     1       6.605   5.619  13.155  1.00  0.00     0.124 S 
ATOM     77  O   UNL     1       6.222   5.665  14.562  1.00  0.00    -0.237 OA
ATOM     78  O   UNL     1       6.509   4.316  12.506  1.00  0.00    -0.237 OA
ATOM     79  O   UNL     1       7.787   6.402  12.804  1.00  0.00    -0.744 OA
ENDBRANCH  72  76
ENDBRANCH  45  69
BRANCH  57  80
ATOM     80  C   UNL     1      -1.112   6.395  17.750  1.00  0.00     0.023 A 
ATOM     81  C   UNL     1      -0.809   7.676  18.245  1.00  0.00     0.031 A 
ATOM     82  C   UNL     1      -1.088   5.313  18.647  1.00  0.00     0.131 A 
ATOM     83  C   UNL     1      -0.439   7.835  19.589  1.00  0.00     0.055 A 
ATOM     84  C   UNL     1      -0.769   5.485  19.995  1.00  0.00     0.041 A 
ATOM     85  F   UNL     1      -1.368   4.070  18.226  1.00  0.00    -0.206 F 
ATOM     86  C   UNL     1      -0.428   6.749  20.469  1.00  0.00     0.022 A 
BRANCH  83  87
ATOM     87  S   UNL     1       0.121   9.466  20.152  1.00  0.00     0.124 S 
ATOM     88  O   UNL     1       1.238   9.732  19.252  1.00  0.00    -0.237 OA
ATOM     89  O   UNL     1      -1.068  10.289  19.954  1.00  0.00    -0.237 OA
ATOM     90  O   UNL     1       0.491   9.239  21.548  1.00  0.00    -0.744 OA
ENDBRANCH  83  87
ENDBRANCH  57  80
ENDBRANCH  31  32
ENDBRANCH  24  26
ENDBRANCH  23  24
ENDBRANCH  22  23
ENDBRANCH   1  22
TORSDOF 19
