REMARK SMILES O=C(C[C@@H](NC(=O)C1CC=CC1)C1CC1)OCCOC(=O)c1ccc(-c2c3nc(c(-c4cc(S(=O)(=O)[O-])ccc4F)c4ccc([nH]4)c(-c4cc(S(=O)(=O)[O-])ccc4F)c4nc(c(-c5cc(S(=O)(=O)[O-])ccc5F)c5ccc2[nH]5)C=C4)C=C3)cc1
REMARK SMILES IDX 17 1 16 2 2 3 1 4 3 5 4 6 5 7 6 8 7 10 8 11 9 12 12 13 10 14
REMARK SMILES IDX 11 15 13 16 14 17 15 18 18 19 19 20 20 21 21 22 22 23 23 24
REMARK SMILES IDX 84 25 24 26 83 27 25 28 26 29 27 30 77 31 28 32 82 33 76 34
REMARK SMILES IDX 78 35 29 36 81 37 75 38 74 39 30 41 62 42 42 43 61 44 43 45
REMARK SMILES IDX 46 46 60 47 79 48 44 49 45 50 59 52 80 53 47 54 31 55 32 56
REMARK SMILES IDX 40 57 33 58 39 59 41 60 38 61 34 62 35 63 36 64 37 65 63 66
REMARK SMILES IDX 64 67 72 68 65 69 71 70 73 71 70 72 66 73 67 74 68 75 69 76
REMARK SMILES IDX 48 77 49 78 57 79 50 80 56 81 58 82 55 83 51 84 52 85 53 86
REMARK SMILES IDX 54 87
REMARK H PARENT 5 9 78 40 46 51
REMARK Flexibility Score: inf
ROOT
ATOM      1  C   UNL     1       4.200   0.054   1.270  1.00  0.00     0.274 C 
ENDROOT
BRANCH   1   2
ATOM      2  O   UNL     1       2.956   0.602   0.788  1.00  0.00    -0.462 OA
BRANCH   2   3
ATOM      3  C   UNL     1       2.722   0.883  -0.515  1.00  0.00     0.308 C 
ATOM      4  O   UNL     1       1.981   1.813  -0.826  1.00  0.00    -0.252 OA
BRANCH   3   5
ATOM      5  C   UNL     1       3.317  -0.018  -1.569  1.00  0.00     0.147 C 
BRANCH   5   6
ATOM      6  C   UNL     1       4.175   0.768  -2.563  1.00  0.00     0.096 C 
BRANCH   6   7
ATOM      7  N   UNL     1       5.358   1.338  -1.907  1.00  0.00    -0.352 N 
ATOM      8  C   UNL     1       6.575   0.865  -1.528  1.00  0.00     0.223 C 
ATOM      9  H   UNL     1       5.242   2.291  -1.688  1.00  0.00     0.163 HD
ATOM     10  O   UNL     1       7.141   1.513  -0.642  1.00  0.00    -0.275 OA
BRANCH   8  11
ATOM     11  C   UNL     1       7.229  -0.344  -2.193  1.00  0.00     0.086 C 
ATOM     12  C   UNL     1       8.745  -0.405  -1.891  1.00  0.00     0.040 C 
ATOM     13  C   UNL     1       6.660  -1.692  -1.737  1.00  0.00     0.040 C 
ATOM     14  C   UNL     1       8.934  -1.696  -1.167  1.00  0.00    -0.030 C 
ATOM     15  C   UNL     1       7.801  -2.395  -1.085  1.00  0.00    -0.030 C 
ENDBRANCH   8  11
ENDBRANCH   6   7
BRANCH   6  16
ATOM     16  C   UNL     1       4.518   0.050  -3.842  1.00  0.00     0.012 C 
ATOM     17  C   UNL     1       4.282  -1.426  -4.075  1.00  0.00     0.006 C 
ATOM     18  C   UNL     1       3.407  -0.416  -4.756  1.00  0.00     0.006 C 
ENDBRANCH   6  16
ENDBRANCH   5   6
ENDBRANCH   3   5
ENDBRANCH   2   3
ENDBRANCH   1   2
BRANCH   1  19
ATOM     19  C   UNL     1       4.017  -1.338   1.873  1.00  0.00     0.275 C 
BRANCH  19  20
ATOM     20  O   UNL     1       3.686  -2.291   0.848  1.00  0.00    -0.458 OA
BRANCH  20  21
ATOM     21  C   UNL     1       2.359  -2.518   0.668  1.00  0.00     0.338 C 
ATOM     22  O   UNL     1       1.452  -2.074   1.345  1.00  0.00    -0.246 OA
BRANCH  21  23
ATOM     23  C   UNL     1       2.158  -3.254  -0.605  1.00  0.00     0.060 A 
ATOM     24  C   UNL     1       0.985  -3.004  -1.331  1.00  0.00     0.016 A 
ATOM     25  C   UNL     1       3.110  -4.151  -1.101  1.00  0.00     0.016 A 
ATOM     26  C   UNL     1       0.754  -3.658  -2.544  1.00  0.00     0.010 A 
ATOM     27  C   UNL     1       2.876  -4.805  -2.313  1.00  0.00     0.010 A 
ATOM     28  C   UNL     1       1.689  -4.577  -3.033  1.00  0.00    -0.014 A 
BRANCH  28  29
ATOM     29  C   UNL     1       1.386  -5.424  -4.213  1.00  0.00     0.031 A 
ATOM     30  C   UNL     1       0.931  -6.835  -3.984  1.00  0.00     0.074 A 
ATOM     31  C   UNL     1       1.574  -4.973  -5.466  1.00  0.00     0.049 A 
ATOM     32  N   UNL     1       0.737  -7.796  -4.848  1.00  0.00    -0.248 NA
ATOM     33  C   UNL     1       0.673  -7.207  -2.587  1.00  0.00     0.031 C 
ATOM     34  C   UNL     1       1.978  -3.617  -5.817  1.00  0.00     0.029 A 
ATOM     35  N   UNL     1       1.489  -5.621  -6.673  1.00  0.00    -0.354 N 
ATOM     36  C   UNL     1       0.328  -8.893  -4.099  1.00  0.00     0.074 A 
ATOM     37  C   UNL     1       0.360  -8.487  -2.708  1.00  0.00     0.031 C 
ATOM     38  C   UNL     1       2.177  -3.547  -7.144  1.00  0.00     0.029 A 
ATOM     39  C   UNL     1       1.923  -4.860  -7.733  1.00  0.00     0.049 A 
ATOM     40  H   UNL     1       1.151  -6.540  -6.770  1.00  0.00     0.167 HD
ATOM     41  C   UNL     1      -0.055 -10.119  -4.533  1.00  0.00     0.034 A 
ATOM     42  C   UNL     1       2.127  -5.193  -9.023  1.00  0.00     0.034 A 
ATOM     43  C   UNL     1      -0.050 -10.515  -5.919  1.00  0.00     0.049 A 
ATOM     44  C   UNL     1       1.795  -6.589  -9.482  1.00  0.00     0.074 A 
ATOM     45  C   UNL     1      -0.444 -11.719  -6.476  1.00  0.00     0.029 A 
ATOM     46  N   UNL     1       0.397  -9.721  -6.969  1.00  0.00    -0.354 N 
ATOM     47  N   UNL     1       1.364  -7.608  -8.774  1.00  0.00    -0.248 NA
ATOM     48  C   UNL     1       1.956  -6.876 -10.914  1.00  0.00     0.031 C 
ATOM     49  C   UNL     1      -0.170 -11.678  -7.848  1.00  0.00     0.029 A 
ATOM     50  C   UNL     1       0.326 -10.422  -8.162  1.00  0.00     0.049 A 
ATOM     51  H   UNL     1       0.718  -8.795  -6.877  1.00  0.00     0.167 HD
ATOM     52  C   UNL     1       1.167  -8.646  -9.682  1.00  0.00     0.074 A 
ATOM     53  C   UNL     1       1.534  -8.131 -10.986  1.00  0.00     0.031 C 
ATOM     54  C   UNL     1       0.704  -9.902  -9.457  1.00  0.00     0.034 A 
BRANCH  41  55
ATOM     55  C   UNL     1      -0.451 -11.116  -3.472  1.00  0.00     0.023 A 
ATOM     56  C   UNL     1      -1.544 -10.881  -2.619  1.00  0.00     0.031 A 
ATOM     57  C   UNL     1       0.328 -12.263  -3.246  1.00  0.00     0.131 A 
ATOM     58  C   UNL     1      -1.759 -11.717  -1.514  1.00  0.00     0.055 A 
ATOM     59  C   UNL     1       0.051 -13.143  -2.198  1.00  0.00     0.041 A 
ATOM     60  F   UNL     1       1.397 -12.527  -4.014  1.00  0.00    -0.206 F 
ATOM     61  C   UNL     1      -0.984 -12.860  -1.310  1.00  0.00     0.022 A 
BRANCH  58  62
ATOM     62  S   UNL     1      -2.932 -11.174  -0.240  1.00  0.00     0.124 S 
ATOM     63  O   UNL     1      -2.402  -9.857   0.107  1.00  0.00    -0.237 OA
ATOM     64  O   UNL     1      -4.202 -11.184  -0.957  1.00  0.00    -0.237 OA
ATOM     65  O   UNL     1      -2.795 -12.185   0.805  1.00  0.00    -0.744 OA
ENDBRANCH  58  62
ENDBRANCH  41  55
BRANCH  42  66
ATOM     66  C   UNL     1       2.720  -4.200  -9.961  1.00  0.00     0.023 A 
ATOM     67  C   UNL     1       1.969  -3.636 -11.002  1.00  0.00     0.031 A 
ATOM     68  C   UNL     1       4.067  -3.815  -9.829  1.00  0.00     0.131 A 
ATOM     69  C   UNL     1       2.579  -2.738 -11.893  1.00  0.00     0.055 A 
ATOM     70  C   UNL     1       4.659  -2.895 -10.695  1.00  0.00     0.041 A 
ATOM     71  F   UNL     1       4.823  -4.320  -8.841  1.00  0.00    -0.206 F 
ATOM     72  C   UNL     1       3.915  -2.357 -11.741  1.00  0.00     0.022 A 
BRANCH  69  73
ATOM     73  S   UNL     1       1.609  -2.098 -13.286  1.00  0.00     0.124 S 
ATOM     74  O   UNL     1       1.305  -3.320 -14.021  1.00  0.00    -0.237 OA
ATOM     75  O   UNL     1       0.486  -1.461 -12.605  1.00  0.00    -0.237 OA
ATOM     76  O   UNL     1       2.532  -1.181 -13.951  1.00  0.00    -0.744 OA
ENDBRANCH  69  73
ENDBRANCH  42  66
BRANCH  54  77
ATOM     77  C   UNL     1       0.510 -10.793 -10.658  1.00  0.00     0.023 A 
ATOM     78  C   UNL     1       1.594 -11.322 -11.378  1.00  0.00     0.031 A 
ATOM     79  C   UNL     1      -0.791 -11.133 -11.072  1.00  0.00     0.131 A 
ATOM     80  C   UNL     1       1.357 -12.140 -12.494  1.00  0.00     0.055 A 
ATOM     81  C   UNL     1      -1.020 -11.984 -12.153  1.00  0.00     0.041 A 
ATOM     82  F   UNL     1      -1.862 -10.652 -10.420  1.00  0.00    -0.206 F 
ATOM     83  C   UNL     1       0.058 -12.487 -12.875  1.00  0.00     0.022 A 
BRANCH  80  84
ATOM     84  S   UNL     1       2.770 -12.708 -13.480  1.00  0.00     0.124 S 
ATOM     85  O   UNL     1       3.335 -11.449 -13.954  1.00  0.00    -0.237 OA
ATOM     86  O   UNL     1       3.567 -13.434 -12.496  1.00  0.00    -0.237 OA
ATOM     87  O   UNL     1       2.156 -13.540 -14.513  1.00  0.00    -0.744 OA
ENDBRANCH  80  84
ENDBRANCH  54  77
ENDBRANCH  28  29
ENDBRANCH  21  23
ENDBRANCH  20  21
ENDBRANCH  19  20
ENDBRANCH   1  19
TORSDOF 18
