REMARK SMILES CC1=C(C(=O)OCC(C)C)[C@@H](c2ccc(C(=O)OCCOC(=O)c3ccc(-c4c5nc(c(-c6cc(S(=O)(=O)[O-])ccc6F)c6ccc([nH]6)c(-c6cc(S(=O)(=O)[O-])ccc6F)c6nc(c(-c7cc(S(=O)(=O)[O-])ccc7F)c7ccc4[nH]7)C=C6)C=C5)cc3)cc2)c2c(n(C)c(=O)n(C)c2=O)N1
REMARK SMILES IDX 19 1 18 2 16 3 17 4 15 5 12 6 13 7 88 8 14 9 87 10 11 11
REMARK SMILES IDX 1 12 2 13 3 14 99 15 90 16 89 18 91 19 97 20 92 21 93 22
REMARK SMILES IDX 95 23 98 24 94 25 96 26 4 27 5 28 6 29 7 30 8 31 9 32 10 33
REMARK SMILES IDX 20 34 21 35 22 36 23 37 24 38 25 39 86 40 26 41 85 42 27 43
REMARK SMILES IDX 28 44 29 45 79 46 30 47 84 48 78 49 80 50 31 51 83 52 77 53
REMARK SMILES IDX 76 54 32 56 64 57 44 58 63 59 45 60 48 61 62 62 81 63 46 64
REMARK SMILES IDX 47 65 61 67 82 68 49 69 33 70 34 71 42 72 35 73 41 74 43 75
REMARK SMILES IDX 40 76 36 77 37 78 38 79 39 80 65 81 66 82 74 83 67 84 73 85
REMARK SMILES IDX 75 86 72 87 68 88 69 89 70 90 71 91 50 92 51 93 59 94 52 95
REMARK SMILES IDX 58 96 60 97 57 98 53 99 54 100 55 101 56 102
REMARK H PARENT 99 17 80 55 48 66
REMARK Flexibility Score: inf
ROOT
ATOM      1  C   UNL     1      -4.329   8.583   1.915  1.00  0.00     0.275 C 
ENDROOT
BRANCH   1   2
ATOM      2  O   UNL     1      -3.245   7.645   2.082  1.00  0.00    -0.458 OA
BRANCH   2   3
ATOM      3  C   UNL     1      -3.575   6.490   2.709  1.00  0.00     0.338 C 
ATOM      4  O   UNL     1      -4.665   6.207   3.184  1.00  0.00    -0.246 OA
BRANCH   3   5
ATOM      5  C   UNL     1      -2.453   5.530   2.674  1.00  0.00     0.060 A 
ATOM      6  C   UNL     1      -0.458   3.558   2.814  1.00  0.00    -0.035 A 
ATOM      7  C   UNL     1      -1.742   3.237   2.355  1.00  0.00     0.005 A 
ATOM      8  C   UNL     1      -0.172   4.894   3.153  1.00  0.00     0.005 A 
ATOM      9  C   UNL     1      -2.733   4.208   2.321  1.00  0.00     0.016 A 
ATOM     10  C   UNL     1      -1.163   5.882   3.073  1.00  0.00     0.016 A 
BRANCH   6  11
ATOM     11  C   UNL     1       0.577   2.441   3.018  1.00  0.00     0.098 C 
ATOM     12  C   UNL     1       0.998  -0.176   0.112  1.00  0.00     0.065 C 
ATOM     13  C   UNL     1       0.658   0.527   1.404  1.00  0.00     0.025 C 
ATOM     14  C   UNL     1       0.960   1.817   1.679  1.00  0.00     0.068 C 
ATOM     15  N   UNL     1       0.024  -0.246   2.365  1.00  0.00    -0.344 N 
ATOM     16  C   UNL     1      -0.255   0.146   3.663  1.00  0.00     0.123 A 
ATOM     17  H   UNL     1      -0.253  -1.153   2.100  1.00  0.00     0.168 HD
ATOM     18  C   UNL     1       0.031   1.415   4.012  1.00  0.00     0.071 A 
ATOM     19  N   UNL     1      -0.810  -0.716   4.597  1.00  0.00    -0.282 N 
ATOM     20  C   UNL     1      -0.218   1.870   5.394  1.00  0.00     0.262 A 
ATOM     21  C   UNL     1      -1.056  -2.109   4.238  1.00  0.00     0.157 C 
ATOM     22  C   UNL     1      -1.185  -0.309   5.875  1.00  0.00     0.332 A 
ATOM     23  N   UNL     1      -0.965   1.024   6.181  1.00  0.00    -0.263 N 
ATOM     24  O   UNL     1       0.243   2.940   5.789  1.00  0.00    -0.269 OA
ATOM     25  O   UNL     1      -1.656  -1.085   6.709  1.00  0.00    -0.247 OA
ATOM     26  C   UNL     1      -1.415   1.486   7.478  1.00  0.00     0.158 C 
BRANCH  14  27
ATOM     27  C   UNL     1       1.687   2.722   0.758  1.00  0.00     0.336 C 
ATOM     28  O   UNL     1       2.503   3.546   1.143  1.00  0.00    -0.246 OA
BRANCH  27  29
ATOM     29  O   UNL     1       1.266   2.544  -0.515  1.00  0.00    -0.462 OA
BRANCH  29  30
ATOM     30  C   UNL     1       1.883   3.344  -1.534  1.00  0.00     0.236 C 
BRANCH  30  31
ATOM     31  C   UNL     1       0.882   4.372  -2.076  1.00  0.00     0.021 C 
ATOM     32  C   UNL     1       0.416   5.339  -0.987  1.00  0.00     0.011 C 
ATOM     33  C   UNL     1       1.499   5.143  -3.242  1.00  0.00     0.011 C 
ENDBRANCH  30  31
ENDBRANCH  29  30
ENDBRANCH  27  29
ENDBRANCH  14  27
ENDBRANCH   6  11
ENDBRANCH   3   5
ENDBRANCH   2   3
ENDBRANCH   1   2
BRANCH   1  34
ATOM     34  C   UNL     1      -4.876   8.531   0.489  1.00  0.00     0.275 C 
BRANCH  34  35
ATOM     35  O   UNL     1      -5.512   7.261   0.258  1.00  0.00    -0.458 OA
BRANCH  35  36
ATOM     36  C   UNL     1      -4.989   6.512  -0.741  1.00  0.00     0.338 C 
ATOM     37  O   UNL     1      -4.098   6.829  -1.510  1.00  0.00    -0.246 OA
BRANCH  36  38
ATOM     38  C   UNL     1      -5.648   5.192  -0.781  1.00  0.00     0.060 A 
ATOM     39  C   UNL     1      -5.719   4.420   0.374  1.00  0.00     0.016 A 
ATOM     40  C   UNL     1      -6.057   4.651  -1.999  1.00  0.00     0.016 A 
ATOM     41  C   UNL     1      -6.033   3.065   0.287  1.00  0.00     0.010 A 
ATOM     42  C   UNL     1      -6.519   3.329  -2.054  1.00  0.00     0.010 A 
ATOM     43  C   UNL     1      -6.454   2.494  -0.924  1.00  0.00    -0.014 A 
BRANCH  43  44
ATOM     44  C   UNL     1      -6.771   1.031  -1.006  1.00  0.00     0.031 A 
ATOM     45  C   UNL     1      -6.094   0.154  -2.038  1.00  0.00     0.074 A 
ATOM     46  C   UNL     1      -7.632   0.464  -0.132  1.00  0.00     0.049 A 
ATOM     47  N   UNL     1      -6.336  -1.095  -2.349  1.00  0.00    -0.248 NA
ATOM     48  C   UNL     1      -5.017   0.763  -2.836  1.00  0.00     0.031 C 
ATOM     49  C   UNL     1      -8.337   1.169   0.942  1.00  0.00     0.029 A 
ATOM     50  N   UNL     1      -8.044  -0.840   0.015  1.00  0.00    -0.354 N 
ATOM     51  C   UNL     1      -5.489  -1.400  -3.410  1.00  0.00     0.074 A 
ATOM     52  C   UNL     1      -4.736  -0.201  -3.703  1.00  0.00     0.031 C 
ATOM     53  C   UNL     1      -9.022   0.285   1.681  1.00  0.00     0.029 A 
ATOM     54  C   UNL     1      -8.905  -1.035   1.073  1.00  0.00     0.049 A 
ATOM     55  H   UNL     1      -7.751  -1.567  -0.580  1.00  0.00     0.167 HD
ATOM     56  C   UNL     1      -5.342  -2.574  -4.073  1.00  0.00     0.034 A 
ATOM     57  C   UNL     1      -9.567  -2.133   1.491  1.00  0.00     0.034 A 
ATOM     58  C   UNL     1      -6.038  -3.788  -3.731  1.00  0.00     0.049 A 
ATOM     59  C   UNL     1      -9.426  -3.410   0.709  1.00  0.00     0.074 A 
ATOM     60  C   UNL     1      -5.925  -5.038  -4.317  1.00  0.00     0.029 A 
ATOM     61  N   UNL     1      -6.963  -3.913  -2.705  1.00  0.00    -0.354 N 
ATOM     62  N   UNL     1      -8.667  -3.656  -0.332  1.00  0.00    -0.248 NA
ATOM     63  C   UNL     1     -10.255  -4.547   1.135  1.00  0.00     0.031 C 
ATOM     64  C   UNL     1      -6.820  -5.903  -3.682  1.00  0.00     0.029 A 
ATOM     65  C   UNL     1      -7.450  -5.209  -2.662  1.00  0.00     0.049 A 
ATOM     66  H   UNL     1      -7.234  -3.187  -2.097  1.00  0.00     0.167 HD
ATOM     67  C   UNL     1      -8.935  -4.972  -0.692  1.00  0.00     0.074 A 
ATOM     68  C   UNL     1      -9.903  -5.479   0.259  1.00  0.00     0.031 C 
ATOM     69  C   UNL     1      -8.431  -5.693  -1.724  1.00  0.00     0.034 A 
BRANCH  56  70
ATOM     70  C   UNL     1      -4.411  -2.606  -5.258  1.00  0.00     0.023 A 
ATOM     71  C   UNL     1      -3.018  -2.508  -5.110  1.00  0.00     0.031 A 
ATOM     72  C   UNL     1      -4.929  -2.776  -6.555  1.00  0.00     0.131 A 
ATOM     73  C   UNL     1      -2.192  -2.538  -6.244  1.00  0.00     0.055 A 
ATOM     74  C   UNL     1      -4.099  -2.867  -7.673  1.00  0.00     0.041 A 
ATOM     75  F   UNL     1      -6.254  -2.864  -6.754  1.00  0.00    -0.206 F 
ATOM     76  C   UNL     1      -2.721  -2.741  -7.522  1.00  0.00     0.022 A 
BRANCH  73  77
ATOM     77  S   UNL     1      -0.417  -2.239  -6.032  1.00  0.00     0.124 S 
ATOM     78  O   UNL     1      -0.404  -0.852  -5.575  1.00  0.00    -0.237 OA
ATOM     79  O   UNL     1      -0.041  -3.238  -5.038  1.00  0.00    -0.237 OA
ATOM     80  O   UNL     1       0.130  -2.455  -7.370  1.00  0.00    -0.744 OA
ENDBRANCH  73  77
ENDBRANCH  56  70
BRANCH  57  81
ATOM     81  C   UNL     1     -10.485  -2.054   2.664  1.00  0.00     0.023 A 
ATOM     82  C   UNL     1     -10.214  -2.760   3.846  1.00  0.00     0.031 A 
ATOM     83  C   UNL     1     -11.652  -1.268   2.615  1.00  0.00     0.131 A 
ATOM     84  C   UNL     1     -11.107  -2.677   4.927  1.00  0.00     0.055 A 
ATOM     85  C   UNL     1     -12.509  -1.151   3.709  1.00  0.00     0.041 A 
ATOM     86  F   UNL     1     -11.959  -0.577   1.506  1.00  0.00    -0.206 F 
ATOM     87  C   UNL     1     -12.241  -1.863   4.873  1.00  0.00     0.022 A 
BRANCH  84  88
ATOM     88  S   UNL     1     -10.787  -3.684   6.402  1.00  0.00     0.124 S 
ATOM     89  O   UNL     1     -10.898  -5.036   5.865  1.00  0.00    -0.237 OA
ATOM     90  O   UNL     1      -9.447  -3.252   6.782  1.00  0.00    -0.237 OA
ATOM     91  O   UNL     1     -11.851  -3.288   7.322  1.00  0.00    -0.744 OA
ENDBRANCH  84  88
ENDBRANCH  57  81
BRANCH  69  92
ATOM     92  C   UNL     1      -8.920  -7.105  -1.886  1.00  0.00     0.023 A 
ATOM     93  C   UNL     1     -10.208  -7.372  -2.376  1.00  0.00     0.031 A 
ATOM     94  C   UNL     1      -8.073  -8.190  -1.602  1.00  0.00     0.131 A 
ATOM     95  C   UNL     1     -10.624  -8.699  -2.551  1.00  0.00     0.055 A 
ATOM     96  C   UNL     1      -8.478  -9.508  -1.817  1.00  0.00     0.041 A 
ATOM     97  F   UNL     1      -6.831  -7.983  -1.135  1.00  0.00    -0.206 F 
ATOM     98  C   UNL     1      -9.761  -9.768  -2.292  1.00  0.00     0.022 A 
BRANCH  95  99
ATOM     99  S   UNL     1     -12.319  -9.015  -3.111  1.00  0.00     0.124 S 
ATOM    100  O   UNL     1     -13.104  -8.546  -1.974  1.00  0.00    -0.237 OA
ATOM    101  O   UNL     1     -12.408  -8.209  -4.324  1.00  0.00    -0.237 OA
ATOM    102  O   UNL     1     -12.344 -10.461  -3.328  1.00  0.00    -0.744 OA
ENDBRANCH  95  99
ENDBRANCH  69  92
ENDBRANCH  43  44
ENDBRANCH  36  38
ENDBRANCH  35  36
ENDBRANCH  34  35
ENDBRANCH   1  34
TORSDOF 19
