REMARK SMILES O=C(OCCOC(=O)[C@@H](Cc1ccccc1)NC(=O)c1ccccc1[N+](=O)[O-])c1ccc(-c2c3nc(c(-c4cc(S(=O)(=O)[O-])ccc4F)c4ccc([nH]4)c(-c4cc(S(=O)(=O)[O-])ccc4F)c4nc(c(-c5cc(S(=O)(=O)[O-])ccc5F)c5ccc2[nH]5)C=C4)C=C3)cc1
REMARK SMILES IDX 4 1 3 2 2 3 1 4 29 5 30 6 91 7 31 8 90 9 32 10 33 11 34 12
REMARK SMILES IDX 84 13 35 14 89 15 83 16 85 17 36 18 88 19 82 20 81 21 37 23
REMARK SMILES IDX 69 24 49 25 68 26 50 27 53 28 67 29 86 30 51 31 52 32 66 34
REMARK SMILES IDX 87 35 54 36 38 37 39 38 47 39 40 40 46 41 48 42 45 43 41 44
REMARK SMILES IDX 42 45 43 46 44 47 70 48 71 49 79 50 72 51 78 52 80 53 77 54
REMARK SMILES IDX 73 55 74 56 75 57 76 58 55 59 56 60 64 61 57 62 63 63 65 64
REMARK SMILES IDX 62 65 58 66 59 67 60 68 61 69 5 70 6 71 7 72 8 73 9 74 10 75
REMARK SMILES IDX 11 76 12 77 16 78 13 79 15 80 14 81 17 82 18 83 19 85 20 86
REMARK SMILES IDX 21 87 25 88 22 89 24 90 23 91 26 92 27 93 28 94
REMARK H PARENT 85 22 53 33 17 84
REMARK Flexibility Score: inf
ROOT
ATOM      1  C   UNL     1       4.572   1.378   1.490  1.00  0.00     0.275 C 
ENDROOT
BRANCH   1   2
ATOM      2  O   UNL     1       3.579   1.639   0.501  1.00  0.00    -0.458 OA
BRANCH   2   3
ATOM      3  C   UNL     1       3.248   0.795  -0.487  1.00  0.00     0.338 C 
ATOM      4  O   UNL     1       2.387   1.119  -1.302  1.00  0.00    -0.246 OA
BRANCH   3   5
ATOM      5  C   UNL     1       3.806  -0.580  -0.613  1.00  0.00     0.060 A 
ATOM      6  C   UNL     1       4.668  -1.630   0.625  1.00  0.00     0.016 A 
ATOM      7  C   UNL     1       3.307  -1.327  -2.206  1.00  0.00     0.016 A 
ATOM      8  C   UNL     1       4.803  -3.435   0.353  1.00  0.00     0.010 A 
ATOM      9  C   UNL     1       3.552  -3.075  -2.498  1.00  0.00     0.010 A 
ATOM     10  C   UNL     1       4.320  -4.151  -1.281  1.00  0.00    -0.014 A 
BRANCH  10  11
ATOM     11  C   UNL     1       4.885  -5.481  -1.721  1.00  0.00     0.031 A 
ATOM     12  C   UNL     1       5.725  -5.574  -2.994  1.00  0.00     0.074 A 
ATOM     13  C   UNL     1       4.947  -6.448  -0.786  1.00  0.00     0.049 A 
ATOM     14  N   UNL     1       6.528  -6.537  -3.382  1.00  0.00    -0.248 NA
ATOM     15  C   UNL     1       5.718  -4.440  -3.933  1.00  0.00     0.031 C 
ATOM     16  C   UNL     1       4.252  -6.397   0.496  1.00  0.00     0.029 A 
ATOM     17  N   UNL     1       5.704  -7.587  -0.696  1.00  0.00    -0.354 N 
ATOM     18  C   UNL     1       7.086  -6.117  -4.593  1.00  0.00     0.074 A 
ATOM     19  C   UNL     1       6.531  -4.831  -4.897  1.00  0.00     0.031 C 
ATOM     20  C   UNL     1       4.727  -7.348   1.305  1.00  0.00     0.029 A 
ATOM     21  C   UNL     1       5.646  -8.184   0.547  1.00  0.00     0.049 A 
ATOM     22  H   UNL     1       6.236  -7.943  -1.443  1.00  0.00     0.167 HD
ATOM     23  C   UNL     1       7.995  -6.736  -5.382  1.00  0.00     0.034 A 
ATOM     24  C   UNL     1       6.236  -9.302   1.016  1.00  0.00     0.034 A 
ATOM     25  C   UNL     1       8.550  -8.020  -5.056  1.00  0.00     0.049 A 
ATOM     26  C   UNL     1       7.138 -10.038   0.064  1.00  0.00     0.074 A 
ATOM     27  C   UNL     1       9.379  -8.822  -5.815  1.00  0.00     0.029 A 
ATOM     28  N   UNL     1       8.319  -8.689  -3.861  1.00  0.00    -0.354 N 
ATOM     29  N   UNL     1       7.562  -9.664  -1.124  1.00  0.00    -0.248 NA
ATOM     30  C   UNL     1       7.613 -11.356   0.491  1.00  0.00     0.031 C 
ATOM     31  C   UNL     1       9.581 -10.014  -5.112  1.00  0.00     0.029 A 
ATOM     32  C   UNL     1       8.952  -9.917  -3.879  1.00  0.00     0.049 A 
ATOM     33  H   UNL     1       7.784  -8.340  -3.112  1.00  0.00     0.167 HD
ATOM     34  C   UNL     1       8.335 -10.717  -1.597  1.00  0.00     0.074 A 
ATOM     35  C   UNL     1       8.371 -11.707  -0.536  1.00  0.00     0.031 C 
ATOM     36  C   UNL     1       8.937 -10.876  -2.803  1.00  0.00     0.034 A 
BRANCH  23  37
ATOM     37  C   UNL     1       8.323  -6.098  -6.715  1.00  0.00     0.023 A 
ATOM     38  C   UNL     1       9.065  -4.907  -6.840  1.00  0.00     0.031 A 
ATOM     39  C   UNL     1       7.830  -6.691  -7.892  1.00  0.00     0.131 A 
ATOM     40  C   UNL     1       9.259  -4.334  -8.111  1.00  0.00     0.055 A 
ATOM     41  C   UNL     1       8.077  -6.149  -9.154  1.00  0.00     0.041 A 
ATOM     42  F   UNL     1       7.084  -7.805  -7.832  1.00  0.00    -0.206 F 
ATOM     43  C   UNL     1       8.789  -4.961  -9.269  1.00  0.00     0.022 A 
BRANCH  40  44
ATOM     44  S   UNL     1      10.048  -2.701  -8.242  1.00  0.00     0.124 S 
ATOM     45  O   UNL     1       9.113  -1.856  -7.506  1.00  0.00    -0.237 OA
ATOM     46  O   UNL     1      11.344  -2.923  -7.610  1.00  0.00    -0.237 OA
ATOM     47  O   UNL     1      10.095  -2.456  -9.683  1.00  0.00    -0.744 OA
ENDBRANCH  40  44
ENDBRANCH  23  37
BRANCH  24  48
ATOM     48  C   UNL     1       5.899  -9.839   2.375  1.00  0.00     0.023 A 
ATOM     49  C   UNL     1       6.883 -10.169   3.321  1.00  0.00     0.031 A 
ATOM     50  C   UNL     1       4.556 -10.086   2.731  1.00  0.00     0.131 A 
ATOM     51  C   UNL     1       6.511 -10.745   4.551  1.00  0.00     0.055 A 
ATOM     52  C   UNL     1       4.187 -10.567   3.986  1.00  0.00     0.041 A 
ATOM     53  F   UNL     1       3.563  -9.852   1.856  1.00  0.00    -0.206 F 
ATOM     54  C   UNL     1       5.170 -10.914   4.901  1.00  0.00     0.022 A 
BRANCH  51  55
ATOM     55  S   UNL     1       7.803 -11.412   5.639  1.00  0.00     0.124 S 
ATOM     56  O   UNL     1       8.547 -12.273   4.726  1.00  0.00    -0.237 OA
ATOM     57  O   UNL     1       8.486 -10.201   6.080  1.00  0.00    -0.237 OA
ATOM     58  O   UNL     1       7.047 -12.112   6.676  1.00  0.00    -0.744 OA
ENDBRANCH  51  55
ENDBRANCH  24  48
BRANCH  36  59
ATOM     59  C   UNL     1       9.670 -12.171  -3.013  1.00  0.00     0.023 A 
ATOM     60  C   UNL     1       8.976 -13.390  -3.072  1.00  0.00     0.031 A 
ATOM     61  C   UNL     1      11.069 -12.187  -3.131  1.00  0.00     0.131 A 
ATOM     62  C   UNL     1       9.691 -14.588  -3.168  1.00  0.00     0.055 A 
ATOM     63  C   UNL     1      11.770 -13.378  -3.303  1.00  0.00     0.041 A 
ATOM     64  F   UNL     1      11.774 -11.045  -3.081  1.00  0.00    -0.206 F 
ATOM     65  C   UNL     1      11.083 -14.590  -3.304  1.00  0.00     0.022 A 
BRANCH  62  66
ATOM     66  S   UNL     1       8.786 -16.147  -2.988  1.00  0.00     0.124 S 
ATOM     67  O   UNL     1       8.186 -15.996  -1.667  1.00  0.00    -0.237 OA
ATOM     68  O   UNL     1       7.862 -16.105  -4.117  1.00  0.00    -0.237 OA
ATOM     69  O   UNL     1       9.834 -17.162  -3.082  1.00  0.00    -0.744 OA
ENDBRANCH  62  66
ENDBRANCH  36  59
ENDBRANCH  10  11
ENDBRANCH   3   5
ENDBRANCH   2   3
ENDBRANCH   1   2
BRANCH   1  70
ATOM     70  C   UNL     1       3.941   0.773   2.761  1.00  0.00     0.274 C 
BRANCH  70  71
ATOM     71  O   UNL     1       3.484  -0.601   2.617  1.00  0.00    -0.461 OA
BRANCH  71  72
ATOM     72  C   UNL     1       2.352  -0.843   1.890  1.00  0.00     0.329 C 
ATOM     73  O   UNL     1       1.465  -0.012   1.740  1.00  0.00    -0.250 OA
BRANCH  72  74
ATOM     74  C   UNL     1       2.376  -2.242   1.146  1.00  0.00     0.197 C 
BRANCH  74  75
ATOM     75  C   UNL     1       3.220  -2.515  -0.479  1.00  0.00     0.072 C 
BRANCH  75  76
ATOM     76  C   UNL     1       5.165  -2.138  -1.319  1.00  0.00    -0.045 A 
ATOM     77  C   UNL     1       6.489  -2.966  -1.143  1.00  0.00     0.004 A 
ATOM     78  C   UNL     1       5.740  -0.896  -1.966  1.00  0.00     0.004 A 
ATOM     79  C   UNL     1       7.846  -2.627  -1.335  1.00  0.00     0.000 A 
ATOM     80  C   UNL     1       7.124  -0.536  -2.112  1.00  0.00     0.000 A 
ATOM     81  C   UNL     1       8.164  -1.374  -1.760  1.00  0.00     0.000 A 
ENDBRANCH  75  76
ENDBRANCH  74  75
BRANCH  74  82
ATOM     82  N   UNL     1       2.554  -3.387   2.062  1.00  0.00    -0.338 N 
ATOM     83  C   UNL     1       1.696  -4.384   2.449  1.00  0.00     0.258 C 
ATOM     84  H   UNL     1       3.449  -3.445   2.467  1.00  0.00     0.164 HD
ATOM     85  O   UNL     1       2.099  -5.256   3.213  1.00  0.00    -0.269 OA
BRANCH  83  86
ATOM     86  C   UNL     1       0.258  -4.363   2.118  1.00  0.00     0.117 A 
ATOM     87  C   UNL     1      -0.600  -4.217   3.219  1.00  0.00     0.021 A 
ATOM     88  C   UNL     1      -0.316  -4.546   0.860  1.00  0.00     0.282 A 
ATOM     89  C   UNL     1      -1.987  -4.191   3.047  1.00  0.00     0.001 A 
ATOM     90  C   UNL     1      -1.707  -4.492   0.672  1.00  0.00     0.086 A 
ATOM     91  C   UNL     1      -2.540  -4.307   1.773  1.00  0.00     0.007 A 
BRANCH  88  92
ATOM     92  N   UNL     1       0.474  -4.882  -0.298  1.00  0.00     0.063 N 
ATOM     93  O   UNL     1       0.350  -4.146  -1.286  1.00  0.00    -0.258 OA
ATOM     94  O   UNL     1       1.166  -5.899  -0.236  1.00  0.00    -0.258 OA
ENDBRANCH  88  92
ENDBRANCH  83  86
ENDBRANCH  74  82
ENDBRANCH  72  74
ENDBRANCH  71  72
ENDBRANCH  70  71
ENDBRANCH   1  70
TORSDOF 19
