REMARK SMILES C[C@@H](O)C[C@H](C(=O)OCCOC(=O)c1ccc(-c2c3nc(c(-c4cc(S(=O)(=O)[O-])ccc4F)c4ccc([nH]4)c(-c4cc(S(=O)(=O)[O-])ccc4F)c4nc(c(-c5cc(S(=O)(=O)[O-])ccc5F)c5ccc2[nH]5)C=C4)C=C3)cc1)c1ccc(Br)cc1
REMARK SMILES IDX 9 1 8 2 6 3 7 4 5 5 4 6 2 7 1 8 3 9 77 11 78 12 83 13 79 14
REMARK SMILES IDX 82 15 80 16 81 17 10 18 11 19 12 20 13 21 14 22 15 23 76 24
REMARK SMILES IDX 16 25 75 26 17 27 18 28 19 29 69 30 20 31 74 32 68 33 70 34
REMARK SMILES IDX 21 35 73 36 67 37 66 38 22 40 54 41 34 42 53 43 35 44 38 45
REMARK SMILES IDX 52 46 71 47 36 48 37 49 51 51 72 52 39 53 23 54 24 55 32 56
REMARK SMILES IDX 25 57 31 58 33 59 30 60 26 61 27 62 28 63 29 64 55 65 56 66
REMARK SMILES IDX 64 67 57 68 63 69 65 70 62 71 58 72 59 73 60 74 61 75 40 76
REMARK SMILES IDX 41 77 49 78 42 79 48 80 50 81 47 82 43 83 44 84 45 85 46 86
REMARK H PARENT 3 10 70 39 38 50
REMARK Flexibility Score: inf
ROOT
ATOM      1  C   UNL     1       0.558  -2.438  -1.933  1.00  0.00     0.274 C 
ENDROOT
BRANCH   1   2
ATOM      2  O   UNL     1      -0.204  -1.295  -2.361  1.00  0.00    -0.462 OA
BRANCH   2   3
ATOM      3  C   UNL     1      -1.273  -0.971  -1.587  1.00  0.00     0.313 C 
ATOM      4  O   UNL     1      -1.670  -1.666  -0.656  1.00  0.00    -0.252 OA
BRANCH   3   5
ATOM      5  C   UNL     1      -1.854   0.416  -1.910  1.00  0.00     0.132 C 
BRANCH   5   6
ATOM      6  C   UNL     1      -1.406   1.018  -3.256  1.00  0.00     0.051 C 
BRANCH   6   7
ATOM      7  C   UNL     1      -1.363   2.556  -3.295  1.00  0.00     0.112 C 
ATOM      8  C   UNL     1      -0.382   3.175  -2.301  1.00  0.00     0.038 C 
BRANCH   7   9
ATOM      9  O   UNL     1      -0.961   2.933  -4.617  1.00  0.00    -0.393 OA
ATOM     10  H   UNL     1      -0.076   2.578  -4.798  1.00  0.00     0.210 HD
ENDBRANCH   7   9
ENDBRANCH   6   7
ENDBRANCH   5   6
BRANCH   5  11
ATOM     11  C   UNL     1      -3.370   0.476  -1.712  1.00  0.00    -0.034 A 
ATOM     12  C   UNL     1      -3.965   1.642  -1.202  1.00  0.00     0.006 A 
ATOM     13  C   UNL     1      -4.198  -0.623  -1.997  1.00  0.00     0.006 A 
ATOM     14  C   UNL     1      -5.343   1.705  -0.974  1.00  0.00     0.016 A 
ATOM     15  C   UNL     1      -5.571  -0.572  -1.743  1.00  0.00     0.016 A 
ATOM     16  C   UNL     1      -6.138   0.594  -1.236  1.00  0.00     0.017 A 
ATOM     17  Br  UNL     1      -7.996   0.661  -0.896  1.00  0.00    -0.051 Br
ENDBRANCH   5  11
ENDBRANCH   3   5
ENDBRANCH   2   3
ENDBRANCH   1   2
BRANCH   1  18
ATOM     18  C   UNL     1       1.804  -1.987  -1.173  1.00  0.00     0.275 C 
BRANCH  18  19
ATOM     19  O   UNL     1       1.443  -1.210  -0.015  1.00  0.00    -0.458 OA
BRANCH  19  20
ATOM     20  C   UNL     1       1.631   0.123  -0.136  1.00  0.00     0.338 C 
ATOM     21  O   UNL     1       2.085   0.722  -1.099  1.00  0.00    -0.246 OA
BRANCH  20  22
ATOM     22  C   UNL     1       1.208   0.810   1.093  1.00  0.00     0.060 A 
ATOM     23  C   UNL     1      -0.144   0.881   1.432  1.00  0.00     0.016 A 
ATOM     24  C   UNL     1       2.162   1.498   1.843  1.00  0.00     0.016 A 
ATOM     25  C   UNL     1      -0.553   1.708   2.477  1.00  0.00     0.010 A 
ATOM     26  C   UNL     1       1.756   2.252   2.946  1.00  0.00     0.010 A 
ATOM     27  C   UNL     1       0.392   2.389   3.257  1.00  0.00    -0.014 A 
BRANCH  27  28
ATOM     28  C   UNL     1      -0.031   3.250   4.395  1.00  0.00     0.031 A 
ATOM     29  C   UNL     1       0.292   4.721   4.391  1.00  0.00     0.074 A 
ATOM     30  C   UNL     1      -0.676   2.708   5.446  1.00  0.00     0.049 A 
ATOM     31  N   UNL     1       0.195   5.595   5.360  1.00  0.00    -0.248 NA
ATOM     32  C   UNL     1       0.808   5.275   3.130  1.00  0.00     0.031 C 
ATOM     33  C   UNL     1      -1.078   1.304   5.560  1.00  0.00     0.029 A 
ATOM     34  N   UNL     1      -1.095   3.269   6.626  1.00  0.00    -0.354 N 
ATOM     35  C   UNL     1       0.677   6.793   4.843  1.00  0.00     0.074 A 
ATOM     36  C   UNL     1       1.078   6.526   3.476  1.00  0.00     0.031 C 
ATOM     37  C   UNL     1      -1.694   1.117   6.737  1.00  0.00     0.029 A 
ATOM     38  C   UNL     1      -1.661   2.364   7.493  1.00  0.00     0.049 A 
ATOM     39  H   UNL     1      -1.001   4.227   6.832  1.00  0.00     0.167 HD
ATOM     40  C   UNL     1       0.778   8.001   5.454  1.00  0.00     0.034 A 
ATOM     41  C   UNL     1      -2.062   2.504   8.771  1.00  0.00     0.034 A 
ATOM     42  C   UNL     1       0.352   8.255   6.810  1.00  0.00     0.049 A 
ATOM     43  C   UNL     1      -1.902   3.840   9.443  1.00  0.00     0.074 A 
ATOM     44  C   UNL     1       0.394   9.442   7.522  1.00  0.00     0.029 A 
ATOM     45  N   UNL     1      -0.200   7.305   7.660  1.00  0.00    -0.354 N 
ATOM     46  N   UNL     1      -1.395   4.950   8.960  1.00  0.00    -0.248 NA
ATOM     47  C   UNL     1      -2.360   3.937  10.835  1.00  0.00     0.031 C 
ATOM     48  C   UNL     1      -0.085   9.198   8.815  1.00  0.00     0.029 A 
ATOM     49  C   UNL     1      -0.482   7.873   8.893  1.00  0.00     0.049 A 
ATOM     50  H   UNL     1      -0.366   6.364   7.421  1.00  0.00     0.167 HD
ATOM     51  C   UNL     1      -1.482   5.882   9.989  1.00  0.00     0.074 A 
ATOM     52  C   UNL     1      -2.105   5.208  11.111  1.00  0.00     0.031 C 
ATOM     53  C   UNL     1      -1.083   7.179  10.007  1.00  0.00     0.034 A 
BRANCH  40  54
ATOM     54  C   UNL     1       1.428   9.118   4.674  1.00  0.00     0.023 A 
ATOM     55  C   UNL     1       0.838   9.662   3.520  1.00  0.00     0.031 A 
ATOM     56  C   UNL     1       2.678   9.623   5.076  1.00  0.00     0.131 A 
ATOM     57  C   UNL     1       1.528  10.627   2.771  1.00  0.00     0.055 A 
ATOM     58  C   UNL     1       3.326  10.636   4.366  1.00  0.00     0.041 A 
ATOM     59  F   UNL     1       3.299   9.128   6.159  1.00  0.00    -0.206 F 
ATOM     60  C   UNL     1       2.758  11.134   3.197  1.00  0.00     0.022 A 
BRANCH  57  61
ATOM     61  S   UNL     1       0.859  11.114   1.156  1.00  0.00     0.124 S 
ATOM     62  O   UNL     1       0.808   9.831   0.458  1.00  0.00    -0.237 OA
ATOM     63  O   UNL     1      -0.429  11.698   1.512  1.00  0.00    -0.237 OA
ATOM     64  O   UNL     1       1.851  12.055   0.642  1.00  0.00    -0.744 OA
ENDBRANCH  57  61
ENDBRANCH  40  54
BRANCH  41  65
ATOM     65  C   UNL     1      -2.586   1.329   9.521  1.00  0.00     0.023 A 
ATOM     66  C   UNL     1      -3.927   1.268   9.927  1.00  0.00     0.031 A 
ATOM     67  C   UNL     1      -1.740   0.256   9.857  1.00  0.00     0.131 A 
ATOM     68  C   UNL     1      -4.378   0.168  10.672  1.00  0.00     0.055 A 
ATOM     69  C   UNL     1      -2.205  -0.856  10.559  1.00  0.00     0.041 A 
ATOM     70  F   UNL     1      -0.450   0.267   9.485  1.00  0.00    -0.206 F 
ATOM     71  C   UNL     1      -3.531  -0.899  10.979  1.00  0.00     0.022 A 
BRANCH  68  72
ATOM     72  S   UNL     1      -6.084   0.178  11.288  1.00  0.00     0.124 S 
ATOM     73  O   UNL     1      -6.099   1.386  12.106  1.00  0.00    -0.237 OA
ATOM     74  O   UNL     1      -6.853   0.233  10.049  1.00  0.00    -0.237 OA
ATOM     75  O   UNL     1      -6.186  -1.078  12.027  1.00  0.00    -0.744 OA
ENDBRANCH  68  72
ENDBRANCH  41  65
BRANCH  53  76
ATOM     76  C   UNL     1      -1.348   7.947  11.274  1.00  0.00     0.023 A 
ATOM     77  C   UNL     1      -0.628   7.690  12.454  1.00  0.00     0.031 A 
ATOM     78  C   UNL     1      -2.357   8.925  11.309  1.00  0.00     0.131 A 
ATOM     79  C   UNL     1      -0.962   8.368  13.635  1.00  0.00     0.055 A 
ATOM     80  C   UNL     1      -2.654   9.629  12.476  1.00  0.00     0.041 A 
ATOM     81  F   UNL     1      -3.074   9.204  10.209  1.00  0.00    -0.206 F 
ATOM     82  C   UNL     1      -1.963   9.344  13.650  1.00  0.00     0.022 A 
BRANCH  79  83
ATOM     83  S   UNL     1      -0.125   7.902  15.175  1.00  0.00     0.124 S 
ATOM     84  O   UNL     1      -0.474   6.490  15.296  1.00  0.00    -0.237 OA
ATOM     85  O   UNL     1       1.273   8.189  14.870  1.00  0.00    -0.237 OA
ATOM     86  O   UNL     1      -0.732   8.778  16.175  1.00  0.00    -0.744 OA
ENDBRANCH  79  83
ENDBRANCH  53  76
ENDBRANCH  27  28
ENDBRANCH  20  22
ENDBRANCH  19  20
ENDBRANCH  18  19
ENDBRANCH   1  18
TORSDOF 18
