REMARK SMILES NS(=O)(=O)c1ccc(-n2nc(C(=O)NCCCCCCCCCCC(=O)OCCOC(=O)c3ccc(-c4c5nc(c(-c6cc(S(=O)(=O)[O-])ccc6F)c6ccc([nH]6)c(-c6cc(S(=O)(=O)[O-])ccc6F)c6nc(c(-c7cc(S(=O)(=O)[O-])ccc7F)c7ccc4[nH]7)C=C6)C=C5)cc3)cc2-c2ccccc2)cc1
REMARK SMILES IDX 22 1 21 2 20 3 19 4 18 5 17 6 16 7 15 8 14 9 12 10 13 11
REMARK SMILES IDX 11 13 9 14 10 15 97 16 96 17 8 18 5 19 6 20 105 21 7 22
REMARK SMILES IDX 104 23 2 24 3 25 4 26 1 27 98 30 99 31 103 32 100 33 102 34
REMARK SMILES IDX 101 35 23 36 24 37 25 38 26 39 27 40 28 41 29 42 30 43 31 44
REMARK SMILES IDX 32 45 33 46 34 47 95 48 35 49 94 50 36 51 37 52 38 53 88 54
REMARK SMILES IDX 39 55 93 56 87 57 89 58 40 59 92 60 86 61 85 62 41 64 73 65
REMARK SMILES IDX 53 66 72 67 54 68 57 69 71 70 90 71 55 72 56 73 70 75 91 76
REMARK SMILES IDX 58 77 42 78 43 79 51 80 44 81 50 82 52 83 49 84 45 85 46 86
REMARK SMILES IDX 47 87 48 88 74 89 75 90 83 91 76 92 82 93 84 94 81 95 77 96
REMARK SMILES IDX 78 97 79 98 80 99 59 100 60 101 68 102 61 103 67 104 69 105
REMARK SMILES IDX 66 106 62 107 63 108 64 109 65 110
REMARK H PARENT 14 12 1 28 1 29 89 63 57 74
REMARK Flexibility Score: inf
ROOT
ATOM      1  C   UNL     1       2.829 -15.540  -7.748  1.00  0.00     0.001 C 
ENDROOT
BRANCH   1   2
ATOM      2  C   UNL     1       3.550 -14.207  -7.950  1.00  0.00     0.000 C 
BRANCH   2   3
ATOM      3  C   UNL     1       2.714 -13.027  -7.455  1.00  0.00     0.000 C 
BRANCH   3   4
ATOM      4  C   UNL     1       2.421 -13.110  -5.956  1.00  0.00     0.000 C 
BRANCH   4   5
ATOM      5  C   UNL     1       3.698 -13.160  -5.111  1.00  0.00     0.000 C 
BRANCH   5   6
ATOM      6  C   UNL     1       4.519 -11.866  -5.190  1.00  0.00     0.002 C 
BRANCH   6   7
ATOM      7  C   UNL     1       3.718 -10.627  -4.782  1.00  0.00     0.021 C 
BRANCH   7   8
ATOM      8  C   UNL     1       3.232 -10.742  -3.340  1.00  0.00     0.116 C 
BRANCH   8   9
ATOM      9  N   UNL     1       4.195 -10.141  -2.453  1.00  0.00    -0.351 N 
ATOM     10  C   UNL     1       4.266  -8.907  -1.862  1.00  0.00     0.271 C 
ATOM     11  O   UNL     1       5.318  -8.665  -1.264  1.00  0.00    -0.267 OA
ATOM     12  H   UNL     1       4.949 -10.732  -2.228  1.00  0.00     0.163 HD
BRANCH  10  13
ATOM     13  C   UNL     1       3.135  -7.953  -1.890  1.00  0.00     0.151 A 
ATOM     14  N   UNL     1       1.987  -6.275  -1.197  1.00  0.00    -0.232 N 
ATOM     15  N   UNL     1       3.225  -6.807  -1.185  1.00  0.00    -0.162 NA
ATOM     16  C   UNL     1       1.135  -6.945  -2.051  1.00  0.00     0.075 A 
ATOM     17  C   UNL     1       1.887  -7.981  -2.557  1.00  0.00     0.065 A 
BRANCH  14  18
ATOM     18  C   UNL     1       1.709  -5.105  -0.460  1.00  0.00     0.065 A 
ATOM     19  C   UNL     1       1.016  -2.675   0.662  1.00  0.00     0.082 A 
ATOM     20  C   UNL     1       0.150  -3.764   0.797  1.00  0.00     0.024 A 
ATOM     21  C   UNL     1       2.249  -2.807   0.013  1.00  0.00     0.024 A 
ATOM     22  C   UNL     1       0.494  -4.984   0.227  1.00  0.00     0.030 A 
ATOM     23  C   UNL     1       2.613  -4.039  -0.527  1.00  0.00     0.030 A 
BRANCH  19  24
ATOM     24  S   UNL     1       0.486  -1.101   1.256  1.00  0.00     0.238 S 
ATOM     25  O   UNL     1       1.165  -0.822   2.500  1.00  0.00    -0.207 OA
ATOM     26  O   UNL     1      -0.947  -0.999   1.105  1.00  0.00    -0.207 OA
BRANCH  24  27
ATOM     27  N   UNL     1       1.112  -0.021   0.129  1.00  0.00    -0.225 NA
ATOM     28  H   UNL     1       0.855   0.931   0.390  1.00  0.00     0.137 HD
ATOM     29  H   UNL     1       0.734  -0.235  -0.794  1.00  0.00     0.137 HD
ENDBRANCH  24  27
ENDBRANCH  19  24
ENDBRANCH  14  18
BRANCH  16  30
ATOM     30  C   UNL     1      -0.216  -6.546  -2.431  1.00  0.00     0.000 A 
ATOM     31  C   UNL     1      -0.456  -5.294  -3.010  1.00  0.00     0.010 A 
ATOM     32  C   UNL     1      -1.285  -7.431  -2.243  1.00  0.00     0.010 A 
ATOM     33  C   UNL     1      -1.750  -4.921  -3.371  1.00  0.00     0.001 A 
ATOM     34  C   UNL     1      -2.579  -7.058  -2.608  1.00  0.00     0.001 A 
ATOM     35  C   UNL     1      -2.811  -5.802  -3.169  1.00  0.00     0.000 A 
ENDBRANCH  16  30
ENDBRANCH  10  13
ENDBRANCH   8   9
ENDBRANCH   7   8
ENDBRANCH   6   7
ENDBRANCH   5   6
ENDBRANCH   4   5
ENDBRANCH   3   4
ENDBRANCH   2   3
ENDBRANCH   1   2
BRANCH   1  36
ATOM     36  C   UNL     1       1.659 -15.722  -8.719  1.00  0.00     0.012 C 
BRANCH  36  37
ATOM     37  C   UNL     1       1.999 -15.606 -10.209  1.00  0.00     0.123 C 
BRANCH  37  38
ATOM     38  C   UNL     1       3.071 -16.521 -10.775  1.00  0.00     0.305 C 
ATOM     39  O   UNL     1       2.976 -17.049 -11.876  1.00  0.00    -0.252 OA
BRANCH  38  40
ATOM     40  O   UNL     1       4.163 -16.614  -9.974  1.00  0.00    -0.462 OA
BRANCH  40  41
ATOM     41  C   UNL     1       5.149 -17.609 -10.300  1.00  0.00     0.274 C 
BRANCH  41  42
ATOM     42  C   UNL     1       4.830 -18.954  -9.656  1.00  0.00     0.275 C 
BRANCH  42  43
ATOM     43  O   UNL     1       3.613 -19.490 -10.172  1.00  0.00    -0.458 OA
BRANCH  43  44
ATOM     44  C   UNL     1       2.541 -19.252  -9.384  1.00  0.00     0.338 C 
ATOM     45  O   UNL     1       2.505 -18.534  -8.401  1.00  0.00    -0.246 OA
BRANCH  44  46
ATOM     46  C   UNL     1       1.426 -20.115  -9.758  1.00  0.00     0.060 A 
ATOM     47  C   UNL     1       0.145 -19.767  -9.312  1.00  0.00     0.016 A 
ATOM     48  C   UNL     1       1.730 -21.388 -10.246  1.00  0.00     0.016 A 
ATOM     49  C   UNL     1      -0.805 -20.761  -9.204  1.00  0.00     0.010 A 
ATOM     50  C   UNL     1       0.792 -22.381 -10.110  1.00  0.00     0.010 A 
ATOM     51  C   UNL     1      -0.438 -22.070  -9.528  1.00  0.00    -0.014 A 
BRANCH  51  52
ATOM     52  C   UNL     1      -1.409 -23.130  -9.351  1.00  0.00     0.031 A 
ATOM     53  C   UNL     1      -2.456 -23.149 -10.398  1.00  0.00     0.074 A 
ATOM     54  C   UNL     1      -1.235 -24.108  -8.441  1.00  0.00     0.049 A 
ATOM     55  N   UNL     1      -3.735 -23.060 -10.254  1.00  0.00    -0.248 NA
ATOM     56  C   UNL     1      -2.008 -23.122 -11.802  1.00  0.00     0.031 C 
ATOM     57  C   UNL     1      -0.070 -24.326  -7.579  1.00  0.00     0.029 A 
ATOM     58  N   UNL     1      -2.007 -25.202  -8.197  1.00  0.00    -0.354 N 
ATOM     59  C   UNL     1      -4.260 -23.210 -11.532  1.00  0.00     0.074 A 
ATOM     60  C   UNL     1      -3.168 -23.029 -12.447  1.00  0.00     0.031 C 
ATOM     61  C   UNL     1      -0.109 -25.586  -7.091  1.00  0.00     0.029 A 
ATOM     62  C   UNL     1      -1.349 -26.219  -7.512  1.00  0.00     0.049 A 
ATOM     63  H   UNL     1      -2.947 -25.268  -8.481  1.00  0.00     0.167 HD
ATOM     64  C   UNL     1      -5.493 -23.745 -11.731  1.00  0.00     0.034 A 
ATOM     65  C   UNL     1      -1.756 -27.511  -7.381  1.00  0.00     0.034 A 
ATOM     66  C   UNL     1      -6.315 -23.624 -10.549  1.00  0.00     0.049 A 
ATOM     67  C   UNL     1      -3.210 -27.546  -7.675  1.00  0.00     0.074 A 
ATOM     68  C   UNL     1      -6.698 -22.555  -9.759  1.00  0.00     0.029 A 
ATOM     69  N   UNL     1      -6.544 -24.743  -9.782  1.00  0.00    -0.354 N 
ATOM     70  N   UNL     1      -4.112 -26.980  -6.924  1.00  0.00    -0.248 NA
ATOM     71  C   UNL     1      -3.624 -27.804  -9.046  1.00  0.00     0.031 C 
ATOM     72  C   UNL     1      -6.630 -23.043  -8.421  1.00  0.00     0.029 A 
ATOM     73  C   UNL     1      -6.294 -24.397  -8.474  1.00  0.00     0.049 A 
ATOM     74  H   UNL     1      -6.833 -25.626 -10.107  1.00  0.00     0.167 HD
ATOM     75  C   UNL     1      -5.018 -26.419  -7.809  1.00  0.00     0.074 A 
ATOM     76  C   UNL     1      -4.726 -27.049  -9.095  1.00  0.00     0.031 C 
ATOM     77  C   UNL     1      -5.724 -25.295  -7.485  1.00  0.00     0.034 A 
BRANCH  64  78
ATOM     78  C   UNL     1      -5.811 -24.675 -12.879  1.00  0.00     0.023 A 
ATOM     79  C   UNL     1      -7.141 -25.097 -13.033  1.00  0.00     0.031 A 
ATOM     80  C   UNL     1      -4.851 -25.372 -13.656  1.00  0.00     0.131 A 
ATOM     81  C   UNL     1      -7.459 -26.186 -13.863  1.00  0.00     0.055 A 
ATOM     82  C   UNL     1      -5.183 -26.401 -14.539  1.00  0.00     0.041 A 
ATOM     83  F   UNL     1      -3.533 -25.171 -13.538  1.00  0.00    -0.206 F 
ATOM     84  C   UNL     1      -6.492 -26.834 -14.627  1.00  0.00     0.022 A 
BRANCH  81  85
ATOM     85  S   UNL     1      -9.138 -26.859 -13.791  1.00  0.00     0.124 S 
ATOM     86  O   UNL     1      -9.302 -27.089 -12.360  1.00  0.00    -0.237 OA
ATOM     87  O   UNL     1      -9.921 -25.769 -14.364  1.00  0.00    -0.237 OA
ATOM     88  O   UNL     1      -9.054 -28.065 -14.612  1.00  0.00    -0.744 OA
ENDBRANCH  81  85
ENDBRANCH  64  78
BRANCH  65  89
ATOM     89  C   UNL     1      -0.912 -28.736  -7.332  1.00  0.00     0.023 A 
ATOM     90  C   UNL     1      -1.403 -29.969  -6.855  1.00  0.00     0.031 A 
ATOM     91  C   UNL     1       0.336 -28.765  -7.995  1.00  0.00     0.131 A 
ATOM     92  C   UNL     1      -0.660 -31.157  -7.050  1.00  0.00     0.055 A 
ATOM     93  C   UNL     1       1.071 -29.939  -8.175  1.00  0.00     0.041 A 
ATOM     94  F   UNL     1       0.845 -27.666  -8.573  1.00  0.00    -0.206 F 
ATOM     95  C   UNL     1       0.570 -31.144  -7.712  1.00  0.00     0.022 A 
BRANCH  92  96
ATOM     96  S   UNL     1      -1.343 -32.767  -6.541  1.00  0.00     0.124 S 
ATOM     97  O   UNL     1      -1.219 -32.712  -5.089  1.00  0.00    -0.237 OA
ATOM     98  O   UNL     1      -2.698 -32.721  -7.080  1.00  0.00    -0.237 OA
ATOM     99  O   UNL     1      -0.460 -33.733  -7.197  1.00  0.00    -0.744 OA
ENDBRANCH  92  96
ENDBRANCH  65  89
BRANCH  77 100
ATOM    100  C   UNL     1      -5.725 -24.835  -6.036  1.00  0.00     0.023 A 
ATOM    101  C   UNL     1      -4.566 -24.589  -5.261  1.00  0.00     0.031 A 
ATOM    102  C   UNL     1      -6.968 -24.543  -5.447  1.00  0.00     0.131 A 
ATOM    103  C   UNL     1      -4.683 -24.095  -3.946  1.00  0.00     0.055 A 
ATOM    104  C   UNL     1      -7.079 -24.031  -4.154  1.00  0.00     0.041 A 
ATOM    105  F   UNL     1      -8.108 -24.726  -6.133  1.00  0.00    -0.206 F 
ATOM    106  C   UNL     1      -5.936 -23.814  -3.394  1.00  0.00     0.022 A 
BRANCH 103 107
ATOM    107  S   UNL     1      -3.206 -23.836  -2.909  1.00  0.00     0.124 S 
ATOM    108  O   UNL     1      -2.404 -25.031  -3.144  1.00  0.00    -0.237 OA
ATOM    109  O   UNL     1      -2.665 -22.587  -3.439  1.00  0.00    -0.237 OA
ATOM    110  O   UNL     1      -3.758 -23.731  -1.556  1.00  0.00    -0.744 OA
ENDBRANCH 103 107
ENDBRANCH  77 100
ENDBRANCH  51  52
ENDBRANCH  44  46
ENDBRANCH  43  44
ENDBRANCH  42  43
ENDBRANCH  41  42
ENDBRANCH  40  41
ENDBRANCH  38  40
ENDBRANCH  37  38
ENDBRANCH  36  37
ENDBRANCH   1  36
TORSDOF 29
