REMARK SMILES CC(C)[C@H](CO)Nc1ccc(C(=O)OCCOC(=O)c2ccc(-c3c4nc(c(-c5cc(S(=O)(=O)[O-])ccc5F)c5ccc([nH]5)c(-c5cc(S(=O)(=O)[O-])ccc5F)c5nc(c(-c6cc(S(=O)(=O)[O-])ccc6F)c6ccc3[nH]6)C=C5)C=C4)cc2)cc1
REMARK SMILES IDX 15 1 14 2 12 3 13 4 11 5 8 6 9 7 84 8 10 9 83 10 7 11 4 13
REMARK SMILES IDX 2 14 1 15 3 16 5 17 6 18 16 20 17 21 18 22 19 23 20 24 21 25
REMARK SMILES IDX 82 26 22 27 81 28 23 29 24 30 25 31 75 32 26 33 80 34 74 35
REMARK SMILES IDX 76 36 27 37 79 38 73 39 72 40 28 42 60 43 40 44 59 45 41 46
REMARK SMILES IDX 44 47 58 48 77 49 42 50 43 51 57 53 78 54 45 55 29 56 30 57
REMARK SMILES IDX 38 58 31 59 37 60 39 61 36 62 32 63 33 64 34 65 35 66 61 67
REMARK SMILES IDX 62 68 70 69 63 70 69 71 71 72 68 73 64 74 65 75 66 76 67 77
REMARK SMILES IDX 46 78 47 79 55 80 48 81 54 82 56 83 53 84 49 85 50 86 51 87
REMARK SMILES IDX 52 88
REMARK H PARENT 7 12 6 19 76 41 44 52
REMARK Flexibility Score: inf
ROOT
ATOM      1  C   UNL     1      -6.812   4.750   5.160  1.00  0.00     0.275 C 
ENDROOT
BRANCH   1   2
ATOM      2  O   UNL     1      -6.024   3.771   4.452  1.00  0.00    -0.458 OA
BRANCH   2   3
ATOM      3  C   UNL     1      -4.697   3.802   4.734  1.00  0.00     0.338 C 
ATOM      4  O   UNL     1      -4.126   4.595   5.465  1.00  0.00    -0.246 OA
BRANCH   3   5
ATOM      5  C   UNL     1      -3.997   2.666   4.101  1.00  0.00     0.060 A 
ATOM      6  C   UNL     1      -2.460   0.603   2.954  1.00  0.00     0.034 A 
ATOM      7  C   UNL     1      -2.331   0.927   4.306  1.00  0.00     0.026 A 
ATOM      8  C   UNL     1      -3.384   1.321   2.187  1.00  0.00     0.026 A 
ATOM      9  C   UNL     1      -3.062   1.968   4.865  1.00  0.00     0.018 A 
ATOM     10  C   UNL     1      -4.174   2.332   2.759  1.00  0.00     0.018 A 
BRANCH   6  11
ATOM     11  N   UNL     1      -1.599  -0.343   2.450  1.00  0.00    -0.380 N 
ATOM     12  H   UNL     1      -1.349  -1.081   3.052  1.00  0.00     0.160 HD
BRANCH  11  13
ATOM     13  C   UNL     1      -1.017  -0.362   1.107  1.00  0.00     0.107 C 
BRANCH  13  14
ATOM     14  C   UNL     1      -1.510  -1.609   0.329  1.00  0.00     0.007 C 
ATOM     15  C   UNL     1      -0.654  -1.907  -0.904  1.00  0.00     0.009 C 
ATOM     16  C   UNL     1      -1.623  -2.876   1.186  1.00  0.00     0.009 C 
ENDBRANCH  13  14
BRANCH  13  17
ATOM     17  C   UNL     1       0.521  -0.267   1.274  1.00  0.00     0.181 C 
BRANCH  17  18
ATOM     18  O   UNL     1       0.868   0.948   1.944  1.00  0.00    -0.394 OA
ATOM     19  H   UNL     1       0.561   1.704   1.421  1.00  0.00     0.210 HD
ENDBRANCH  17  18
ENDBRANCH  13  17
ENDBRANCH  11  13
ENDBRANCH   6  11
ENDBRANCH   3   5
ENDBRANCH   2   3
ENDBRANCH   1   2
BRANCH   1  20
ATOM     20  C   UNL     1      -7.427   4.149   6.426  1.00  0.00     0.275 C 
BRANCH  20  21
ATOM     21  O   UNL     1      -6.385   3.737   7.326  1.00  0.00    -0.458 OA
BRANCH  21  22
ATOM     22  C   UNL     1      -6.663   2.651   8.089  1.00  0.00     0.338 C 
ATOM     23  O   UNL     1      -7.728   2.060   8.142  1.00  0.00    -0.246 OA
BRANCH  22  24
ATOM     24  C   UNL     1      -5.467   2.255   8.875  1.00  0.00     0.060 A 
ATOM     25  C   UNL     1      -4.184   2.416   8.357  1.00  0.00     0.016 A 
ATOM     26  C   UNL     1      -5.626   1.626  10.109  1.00  0.00     0.016 A 
ATOM     27  C   UNL     1      -3.082   1.844   8.999  1.00  0.00     0.010 A 
ATOM     28  C   UNL     1      -4.503   1.165  10.813  1.00  0.00     0.010 A 
ATOM     29  C   UNL     1      -3.215   1.220  10.248  1.00  0.00    -0.014 A 
BRANCH  29  30
ATOM     30  C   UNL     1      -2.039   0.585  10.932  1.00  0.00     0.031 A 
ATOM     31  C   UNL     1      -2.116  -0.851  11.406  1.00  0.00     0.074 A 
ATOM     32  C   UNL     1      -0.890   1.267  11.133  1.00  0.00     0.049 A 
ATOM     33  N   UNL     1      -1.309  -1.512  12.200  1.00  0.00    -0.248 NA
ATOM     34  C   UNL     1      -3.270  -1.637  10.947  1.00  0.00     0.031 C 
ATOM     35  C   UNL     1      -0.633   2.646  10.714  1.00  0.00     0.029 A 
ATOM     36  N   UNL     1       0.289   0.887  11.735  1.00  0.00    -0.354 N 
ATOM     37  C   UNL     1      -1.901  -2.757  12.401  1.00  0.00     0.074 A 
ATOM     38  C   UNL     1      -3.136  -2.754  11.646  1.00  0.00     0.031 C 
ATOM     39  C   UNL     1       0.634   2.972  11.011  1.00  0.00     0.029 A 
ATOM     40  C   UNL     1       1.252   1.871  11.740  1.00  0.00     0.049 A 
ATOM     41  H   UNL     1       0.430  -0.005  12.125  1.00  0.00     0.167 HD
ATOM     42  C   UNL     1      -1.459  -3.803  13.146  1.00  0.00     0.034 A 
ATOM     43  C   UNL     1       2.477   1.914  12.304  1.00  0.00     0.034 A 
ATOM     44  C   UNL     1      -0.188  -3.830  13.832  1.00  0.00     0.049 A 
ATOM     45  C   UNL     1       2.954   0.739  13.115  1.00  0.00     0.074 A 
ATOM     46  C   UNL     1       0.363  -4.852  14.589  1.00  0.00     0.029 A 
ATOM     47  N   UNL     1       0.743  -2.801  13.826  1.00  0.00    -0.354 N 
ATOM     48  N   UNL     1       2.339  -0.392  13.371  1.00  0.00    -0.248 NA
ATOM     49  C   UNL     1       4.282   0.857  13.731  1.00  0.00     0.031 C 
ATOM     50  C   UNL     1       1.603  -4.422  15.077  1.00  0.00     0.029 A 
ATOM     51  C   UNL     1       1.856  -3.157  14.575  1.00  0.00     0.049 A 
ATOM     52  H   UNL     1       0.631  -1.942  13.358  1.00  0.00     0.167 HD
ATOM     53  C   UNL     1       3.207  -1.117  14.182  1.00  0.00     0.074 A 
ATOM     54  C   UNL     1       4.400  -0.312  14.343  1.00  0.00     0.031 C 
ATOM     55  C   UNL     1       3.028  -2.335  14.752  1.00  0.00     0.034 A 
BRANCH  42  56
ATOM     56  C   UNL     1      -2.388  -4.985  13.309  1.00  0.00     0.023 A 
ATOM     57  C   UNL     1      -2.755  -5.809  12.232  1.00  0.00     0.031 A 
ATOM     58  C   UNL     1      -2.938  -5.272  14.573  1.00  0.00     0.131 A 
ATOM     59  C   UNL     1      -3.698  -6.832  12.423  1.00  0.00     0.055 A 
ATOM     60  C   UNL     1      -3.815  -6.340  14.772  1.00  0.00     0.041 A 
ATOM     61  F   UNL     1      -2.638  -4.511  15.637  1.00  0.00    -0.206 F 
ATOM     62  C   UNL     1      -4.212  -7.118  13.690  1.00  0.00     0.022 A 
BRANCH  59  63
ATOM     63  S   UNL     1      -4.348  -7.696  10.966  1.00  0.00     0.124 S 
ATOM     64  O   UNL     1      -4.916  -6.591  10.197  1.00  0.00    -0.237 OA
ATOM     65  O   UNL     1      -3.153  -8.315  10.407  1.00  0.00    -0.237 OA
ATOM     66  O   UNL     1      -5.329  -8.624  11.526  1.00  0.00    -0.744 OA
ENDBRANCH  59  63
ENDBRANCH  42  56
BRANCH  43  67
ATOM     67  C   UNL     1       3.315   3.143  12.191  1.00  0.00     0.023 A 
ATOM     68  C   UNL     1       4.537   3.129  11.501  1.00  0.00     0.031 A 
ATOM     69  C   UNL     1       2.916   4.346  12.802  1.00  0.00     0.131 A 
ATOM     70  C   UNL     1       5.331   4.286  11.462  1.00  0.00     0.055 A 
ATOM     71  C   UNL     1       3.682   5.508  12.714  1.00  0.00     0.041 A 
ATOM     72  F   UNL     1       1.758   4.413  13.478  1.00  0.00    -0.206 F 
ATOM     73  C   UNL     1       4.904   5.480  12.049  1.00  0.00     0.022 A 
BRANCH  70  74
ATOM     74  S   UNL     1       6.970   4.193  10.689  1.00  0.00     0.124 S 
ATOM     75  O   UNL     1       7.622   3.168  11.496  1.00  0.00    -0.237 OA
ATOM     76  O   UNL     1       6.639   3.817   9.319  1.00  0.00    -0.237 OA
ATOM     77  O   UNL     1       7.500   5.545  10.851  1.00  0.00    -0.744 OA
ENDBRANCH  70  74
ENDBRANCH  43  67
BRANCH  55  78
ATOM     78  C   UNL     1       4.169  -2.866  15.582  1.00  0.00     0.023 A 
ATOM     79  C   UNL     1       4.518  -2.280  16.812  1.00  0.00     0.031 A 
ATOM     80  C   UNL     1       4.944  -3.943  15.118  1.00  0.00     0.131 A 
ATOM     81  C   UNL     1       5.649  -2.734  17.507  1.00  0.00     0.055 A 
ATOM     82  C   UNL     1       6.037  -4.425  15.839  1.00  0.00     0.041 A 
ATOM     83  F   UNL     1       4.656  -4.538  13.949  1.00  0.00    -0.206 F 
ATOM     84  C   UNL     1       6.404  -3.811  17.034  1.00  0.00     0.022 A 
BRANCH  81  85
ATOM     85  S   UNL     1       6.178  -1.837  18.992  1.00  0.00     0.124 S 
ATOM     86  O   UNL     1       6.373  -0.485  18.478  1.00  0.00    -0.237 OA
ATOM     87  O   UNL     1       5.043  -2.021  19.890  1.00  0.00    -0.237 OA
ATOM     88  O   UNL     1       7.402  -2.529  19.393  1.00  0.00    -0.744 OA
ENDBRANCH  81  85
ENDBRANCH  55  78
ENDBRANCH  29  30
ENDBRANCH  22  24
ENDBRANCH  21  22
ENDBRANCH  20  21
ENDBRANCH   1  20
TORSDOF 19
