REMARK SMILES O=C(COc1cc(-c2ccncc2)nc(Nc2ccccc2Br)n1)OCCOC(=O)c1ccc(-c2c3nc(c(-c4cc(S(=O)(=O)[O-])ccc4F)c4ccc([nH]4)c(-c4cc(S(=O)(=O)[O-])ccc4F)c4nc(c(-c5cc(S(=O)(=O)[O-])ccc5F)c5ccc2[nH]5)C=C4)C=C3)cc1
REMARK SMILES IDX 26 1 25 2 2 3 1 4 3 5 4 6 5 7 6 8 24 9 7 10 15 11 14 12 8 13
REMARK SMILES IDX 9 14 13 15 10 16 12 17 11 18 16 19 17 21 18 22 22 23 19 24
REMARK SMILES IDX 21 25 23 26 20 27 27 28 28 29 29 30 30 31 31 32 32 33 93 34
REMARK SMILES IDX 33 35 92 36 34 37 35 38 36 39 86 40 37 41 91 42 85 43 87 44
REMARK SMILES IDX 38 45 90 46 84 47 83 48 39 50 71 51 51 52 70 53 52 54 55 55
REMARK SMILES IDX 69 56 88 57 53 58 54 59 68 61 89 62 56 63 40 64 41 65 49 66
REMARK SMILES IDX 42 67 48 68 50 69 47 70 43 71 44 72 45 73 46 74 72 75 73 76
REMARK SMILES IDX 81 77 74 78 80 79 82 80 79 81 75 82 76 83 77 84 78 85 57 86
REMARK SMILES IDX 58 87 66 88 59 89 65 90 67 91 64 92 60 93 61 94 62 95 63 96
REMARK H PARENT 16 20 87 49 55 60
REMARK Flexibility Score: inf
ROOT
ATOM      1  C   UNL     1       4.556  -0.777   0.925  1.00  0.00     0.274 C 
ENDROOT
BRANCH   1   2
ATOM      2  O   UNL     1       3.201  -0.293   1.013  1.00  0.00    -0.460 OA
BRANCH   2   3
ATOM      3  C   UNL     1       2.558   0.299  -0.024  1.00  0.00     0.344 C 
ATOM      4  O   UNL     1       1.334   0.410  -0.015  1.00  0.00    -0.248 OA
BRANCH   3   5
ATOM      5  C   UNL     1       3.404   0.935  -1.119  1.00  0.00     0.353 C 
BRANCH   5   6
ATOM      6  O   UNL     1       4.248   1.958  -0.589  1.00  0.00    -0.466 OA
BRANCH   6   7
ATOM      7  C   UNL     1       3.588   3.158  -0.635  1.00  0.00     0.219 A 
ATOM      8  C   UNL     1       2.557   3.418   0.219  1.00  0.00     0.097 A 
ATOM      9  N   UNL     1       3.999   3.999  -1.578  1.00  0.00    -0.177 NA
ATOM     10  C   UNL     1       1.859   4.579  -0.021  1.00  0.00     0.080 A 
ATOM     11  C   UNL     1       3.285   5.122  -1.744  1.00  0.00     0.231 A 
ATOM     12  N   UNL     1       2.206   5.441  -1.003  1.00  0.00    -0.212 NA
BRANCH  10  13
ATOM     13  C   UNL     1       0.650   4.858   0.765  1.00  0.00     0.004 A 
ATOM     14  C   UNL     1       0.666   4.747   2.164  1.00  0.00     0.030 A 
ATOM     15  C   UNL     1      -0.579   5.106   0.148  1.00  0.00     0.030 A 
ATOM     16  C   UNL     1      -0.522   4.856   2.866  1.00  0.00     0.111 A 
ATOM     17  C   UNL     1      -1.716   5.197   0.937  1.00  0.00     0.111 A 
ATOM     18  N   UNL     1      -1.715   5.080   2.284  1.00  0.00    -0.265 NA
ENDBRANCH  10  13
BRANCH  11  19
ATOM     19  N   UNL     1       3.656   5.990  -2.776  1.00  0.00    -0.323 N 
ATOM     20  H   UNL     1       3.315   6.913  -2.747  1.00  0.00     0.170 HD
BRANCH  19  21
ATOM     21  C   UNL     1       4.487   5.626  -3.853  1.00  0.00     0.055 A 
ATOM     22  C   UNL     1       5.738   6.241  -3.981  1.00  0.00     0.027 A 
ATOM     23  C   UNL     1       4.102   4.689  -4.829  1.00  0.00     0.041 A 
ATOM     24  C   UNL     1       6.618   5.870  -5.003  1.00  0.00     0.002 A 
ATOM     25  C   UNL     1       4.981   4.312  -5.850  1.00  0.00     0.018 A 
ATOM     26  Br  UNL     1       2.372   3.909  -4.803  1.00  0.00    -0.049 Br
ATOM     27  C   UNL     1       6.245   4.895  -5.927  1.00  0.00     0.001 A 
ENDBRANCH  19  21
ENDBRANCH  11  19
ENDBRANCH   6   7
ENDBRANCH   5   6
ENDBRANCH   3   5
ENDBRANCH   2   3
ENDBRANCH   1   2
BRANCH   1  28
ATOM     28  C   UNL     1       4.584  -2.221   0.423  1.00  0.00     0.275 C 
BRANCH  28  29
ATOM     29  O   UNL     1       4.116  -2.279  -0.938  1.00  0.00    -0.458 OA
BRANCH  29  30
ATOM     30  C   UNL     1       2.817  -2.646  -1.099  1.00  0.00     0.338 C 
ATOM     31  O   UNL     1       2.058  -3.016  -0.221  1.00  0.00    -0.246 OA
BRANCH  30  32
ATOM     32  C   UNL     1       2.400  -2.339  -2.486  1.00  0.00     0.060 A 
ATOM     33  C   UNL     1       1.134  -1.776  -2.695  1.00  0.00     0.016 A 
ATOM     34  C   UNL     1       3.241  -2.593  -3.574  1.00  0.00     0.016 A 
ATOM     35  C   UNL     1       0.696  -1.496  -3.992  1.00  0.00     0.010 A 
ATOM     36  C   UNL     1       2.799  -2.318  -4.871  1.00  0.00     0.010 A 
ATOM     37  C   UNL     1       1.514  -1.793  -5.091  1.00  0.00    -0.014 A 
BRANCH  37  38
ATOM     38  C   UNL     1       0.981  -1.698  -6.474  1.00  0.00     0.031 A 
ATOM     39  C   UNL     1       0.460  -2.942  -7.136  1.00  0.00     0.074 A 
ATOM     40  C   UNL     1       0.962  -0.530  -7.141  1.00  0.00     0.049 A 
ATOM     41  N   UNL     1      -0.008  -3.103  -8.346  1.00  0.00    -0.248 NA
ATOM     42  C   UNL     1       0.479  -4.166  -6.323  1.00  0.00     0.031 C 
ATOM     43  C   UNL     1       1.406   0.749  -6.599  1.00  0.00     0.029 A 
ATOM     44  N   UNL     1       0.559  -0.232  -8.420  1.00  0.00    -0.354 N 
ATOM     45  C   UNL     1      -0.354  -4.445  -8.439  1.00  0.00     0.074 A 
ATOM     46  C   UNL     1       0.009  -5.061  -7.179  1.00  0.00     0.031 C 
ATOM     47  C   UNL     1       1.259   1.694  -7.543  1.00  0.00     0.029 A 
ATOM     48  C   UNL     1       0.744   1.086  -8.764  1.00  0.00     0.049 A 
ATOM     49  H   UNL     1       0.174  -0.900  -9.033  1.00  0.00     0.167 HD
ATOM     50  C   UNL     1      -0.935  -5.101  -9.474  1.00  0.00     0.034 A 
ATOM     51  C   UNL     1       0.543   1.732  -9.932  1.00  0.00     0.034 A 
ATOM     52  C   UNL     1      -1.266  -4.486 -10.736  1.00  0.00     0.049 A 
ATOM     53  C   UNL     1      -0.006   0.960 -11.105  1.00  0.00     0.074 A 
ATOM     54  C   UNL     1      -1.857  -5.062 -11.847  1.00  0.00     0.029 A 
ATOM     55  N   UNL     1      -1.018  -3.159 -11.065  1.00  0.00    -0.354 N 
ATOM     56  N   UNL     1      -0.345  -0.307 -11.175  1.00  0.00    -0.248 NA
ATOM     57  C   UNL     1      -0.208   1.706 -12.355  1.00  0.00     0.031 C 
ATOM     58  C   UNL     1      -1.905  -4.105 -12.867  1.00  0.00     0.029 A 
ATOM     59  C   UNL     1      -1.413  -2.909 -12.371  1.00  0.00     0.049 A 
ATOM     60  H   UNL     1      -0.620  -2.493 -10.459  1.00  0.00     0.167 HD
ATOM     61  C   UNL     1      -0.834  -0.498 -12.464  1.00  0.00     0.074 A 
ATOM     62  C   UNL     1      -0.753   0.783 -13.134  1.00  0.00     0.031 C 
ATOM     63  C   UNL     1      -1.316  -1.631 -13.037  1.00  0.00     0.034 A 
BRANCH  50  64
ATOM     64  C   UNL     1      -1.197  -6.573  -9.284  1.00  0.00     0.023 A 
ATOM     65  C   UNL     1      -2.105  -7.039  -8.317  1.00  0.00     0.031 A 
ATOM     66  C   UNL     1      -0.494  -7.524 -10.043  1.00  0.00     0.131 A 
ATOM     67  C   UNL     1      -2.229  -8.416  -8.081  1.00  0.00     0.055 A 
ATOM     68  C   UNL     1      -0.682  -8.895  -9.858  1.00  0.00     0.041 A 
ATOM     69  F   UNL     1       0.404  -7.137 -10.963  1.00  0.00    -0.206 F 
ATOM     70  C   UNL     1      -1.542  -9.348  -8.862  1.00  0.00     0.022 A 
BRANCH  67  71
ATOM     71  S   UNL     1      -3.186  -8.965  -6.642  1.00  0.00     0.124 S 
ATOM     72  O   UNL     1      -2.470  -8.316  -5.547  1.00  0.00    -0.237 OA
ATOM     73  O   UNL     1      -4.518  -8.448  -6.932  1.00  0.00    -0.237 OA
ATOM     74  O   UNL     1      -3.060 -10.421  -6.682  1.00  0.00    -0.744 OA
ENDBRANCH  67  71
ENDBRANCH  50  64
BRANCH  51  75
ATOM     75  C   UNL     1       0.889   3.177 -10.072  1.00  0.00     0.023 A 
ATOM     76  C   UNL     1      -0.098   4.138 -10.345  1.00  0.00     0.031 A 
ATOM     77  C   UNL     1       2.226   3.611  -9.993  1.00  0.00     0.131 A 
ATOM     78  C   UNL     1       0.271   5.473 -10.579  1.00  0.00     0.055 A 
ATOM     79  C   UNL     1       2.581   4.948 -10.175  1.00  0.00     0.041 A 
ATOM     80  F   UNL     1       3.210   2.735  -9.731  1.00  0.00    -0.206 F 
ATOM     81  C   UNL     1       1.601   5.886 -10.485  1.00  0.00     0.022 A 
BRANCH  78  82
ATOM     82  S   UNL     1      -1.008   6.650 -11.101  1.00  0.00     0.124 S 
ATOM     83  O   UNL     1      -1.521   6.016 -12.310  1.00  0.00    -0.237 OA
ATOM     84  O   UNL     1      -1.903   6.655  -9.948  1.00  0.00    -0.237 OA
ATOM     85  O   UNL     1      -0.263   7.889 -11.313  1.00  0.00    -0.744 OA
ENDBRANCH  78  82
ENDBRANCH  51  75
BRANCH  63  86
ATOM     86  C   UNL     1      -1.839  -1.516 -14.448  1.00  0.00     0.023 A 
ATOM     87  C   UNL     1      -0.988  -1.251 -15.536  1.00  0.00     0.031 A 
ATOM     88  C   UNL     1      -3.214  -1.662 -14.704  1.00  0.00     0.131 A 
ATOM     89  C   UNL     1      -1.528  -1.089 -16.822  1.00  0.00     0.055 A 
ATOM     90  C   UNL     1      -3.737  -1.557 -15.993  1.00  0.00     0.041 A 
ATOM     91  F   UNL     1      -4.072  -1.914 -13.703  1.00  0.00    -0.206 F 
ATOM     92  C   UNL     1      -2.895  -1.256 -17.059  1.00  0.00     0.022 A 
BRANCH  89  93
ATOM     93  S   UNL     1      -0.430  -0.573 -18.171  1.00  0.00     0.124 S 
ATOM     94  O   UNL     1       0.083   0.700 -17.675  1.00  0.00    -0.237 OA
ATOM     95  O   UNL     1       0.532  -1.669 -18.227  1.00  0.00    -0.237 OA
ATOM     96  O   UNL     1      -1.324  -0.475 -19.323  1.00  0.00    -0.744 OA
ENDBRANCH  89  93
ENDBRANCH  63  86
ENDBRANCH  37  38
ENDBRANCH  30  32
ENDBRANCH  29  30
ENDBRANCH  28  29
ENDBRANCH   1  28
TORSDOF 19
