REMARK SMILES Cc1n[nH]c(C[N@H+]2CCC[C@H](c3cccc(C(=O)OCCOC(=O)c4ccc(-c5c6nc(c(-c7cc(S(=O)(=O)[O-])ccc7F)c7ccc([nH]7)c(-c7cc(S(=O)(=O)[O-])ccc7F)c7nc(c(-c8cc(S(=O)(=O)[O-])ccc8F)c8ccc5[nH]8)C=C7)C=C6)cc4)c3)C2)n1
REMARK SMILES IDX 20 1 19 2 17 3 18 4 16 5 12 6 13 7 88 8 14 9 15 10 11 11
REMARK SMILES IDX 7 12 8 13 89 14 9 16 10 17 6 18 5 19 1 20 2 21 3 22 90 23
REMARK SMILES IDX 4 24 21 26 22 27 23 28 24 29 25 30 26 31 87 32 27 33 86 34
REMARK SMILES IDX 28 35 29 36 30 37 80 38 31 39 85 40 79 41 81 42 32 43 84 44
REMARK SMILES IDX 78 45 77 46 33 48 65 49 45 50 64 51 46 52 49 53 63 54 82 55
REMARK SMILES IDX 47 56 48 57 62 59 83 60 50 61 34 62 35 63 43 64 36 65 42 66
REMARK SMILES IDX 44 67 41 68 37 69 38 70 39 71 40 72 66 73 67 74 75 75 68 76
REMARK SMILES IDX 74 77 76 78 73 79 69 80 70 81 71 82 72 83 51 84 52 85 60 86
REMARK SMILES IDX 53 87 59 88 61 89 58 90 54 91 55 92 56 93 57 94
REMARK H PARENT 7 15 4 25 81 47 49 58
REMARK Flexibility Score: inf
ROOT
ATOM      1  C   UNL     1      -4.093  11.199   0.724  1.00  0.00     0.275 C 
ENDROOT
BRANCH   1   2
ATOM      2  O   UNL     1      -3.468  10.096   0.056  1.00  0.00    -0.458 OA
BRANCH   2   3
ATOM      3  C   UNL     1      -3.048  10.341  -1.217  1.00  0.00     0.338 C 
ATOM      4  O   UNL     1      -3.350  11.290  -1.904  1.00  0.00    -0.246 OA
BRANCH   3   5
ATOM      5  C   UNL     1      -2.073   9.295  -1.625  1.00  0.00     0.060 A 
ATOM      6  C   UNL     1      -1.132   7.053  -1.403  1.00  0.00    -0.038 A 
ATOM      7  C   UNL     1      -0.217   7.379  -2.417  1.00  0.00     0.004 A 
ATOM      8  C   UNL     1      -2.023   8.053  -0.983  1.00  0.00     0.020 A 
ATOM      9  C   UNL     1      -0.235   8.632  -3.035  1.00  0.00     0.001 A 
ATOM     10  C   UNL     1      -1.176   9.584  -2.655  1.00  0.00     0.016 A 
BRANCH   6  11
ATOM     11  C   UNL     1      -1.203   5.678  -0.742  1.00  0.00     0.074 C 
ATOM     12  N   UNL     1      -0.751   4.222  -2.737  1.00  0.00    -0.328 N 
ATOM     13  C   UNL     1      -2.131   3.733  -2.756  1.00  0.00     0.262 C 
ATOM     14  C   UNL     1      -0.310   4.584  -1.372  1.00  0.00     0.270 C 
ATOM     15  H   UNL     1      -0.754   5.077  -3.294  1.00  0.00     0.348 HD
ATOM     16  C   UNL     1      -3.101   4.731  -2.119  1.00  0.00     0.062 C 
ATOM     17  C   UNL     1      -2.645   5.119  -0.714  1.00  0.00     0.020 C 
BRANCH  12  18
ATOM     18  C   UNL     1       0.203   3.321  -3.405  1.00  0.00     0.340 C 
BRANCH  18  19
ATOM     19  C   UNL     1       0.377   2.003  -2.731  1.00  0.00     0.179 A 
ATOM     20  C   UNL     1       1.003  -0.211  -0.070  1.00  0.00     0.092 C 
ATOM     21  C   UNL     1       0.666   0.439  -1.349  1.00  0.00     0.147 A 
ATOM     22  N   UNL     1       0.010  -0.170  -2.345  1.00  0.00    -0.159 NA
ATOM     23  N   UNL     1       0.949   1.756  -1.571  1.00  0.00    -0.211 NA
ATOM     24  N   UNL     1      -0.143   0.840  -3.219  1.00  0.00    -0.258 N 
ATOM     25  H   UNL     1      -0.576   0.752  -4.099  1.00  0.00     0.192 HD
ENDBRANCH  18  19
ENDBRANCH  12  18
ENDBRANCH   6  11
ENDBRANCH   3   5
ENDBRANCH   2   3
ENDBRANCH   1   2
BRANCH   1  26
ATOM     26  C   UNL     1      -3.056  12.030   1.465  1.00  0.00     0.275 C 
BRANCH  26  27
ATOM     27  O   UNL     1      -2.229  12.774   0.570  1.00  0.00    -0.458 OA
BRANCH  27  28
ATOM     28  C   UNL     1      -1.014  12.225   0.336  1.00  0.00     0.338 C 
ATOM     29  O   UNL     1      -0.712  11.046   0.422  1.00  0.00    -0.246 OA
BRANCH  28  30
ATOM     30  C   UNL     1      -0.024  13.298   0.185  1.00  0.00     0.060 A 
ATOM     31  C   UNL     1       1.254  12.961  -0.265  1.00  0.00     0.016 A 
ATOM     32  C   UNL     1      -0.305  14.574   0.700  1.00  0.00     0.016 A 
ATOM     33  C   UNL     1       2.276  13.881  -0.106  1.00  0.00     0.010 A 
ATOM     34  C   UNL     1       0.717  15.484   0.869  1.00  0.00     0.010 A 
ATOM     35  C   UNL     1       2.010  15.118   0.504  1.00  0.00    -0.014 A 
BRANCH  35  36
ATOM     36  C   UNL     1       3.065  16.121   0.514  1.00  0.00     0.031 A 
ATOM     37  C   UNL     1       3.395  16.553  -0.862  1.00  0.00     0.074 A 
ATOM     38  C   UNL     1       3.575  16.709   1.617  1.00  0.00     0.049 A 
ATOM     39  N   UNL     1       4.436  16.229  -1.553  1.00  0.00    -0.248 NA
ATOM     40  C   UNL     1       2.347  17.229  -1.650  1.00  0.00     0.031 C 
ATOM     41  C   UNL     1       3.087  16.554   2.990  1.00  0.00     0.029 A 
ATOM     42  N   UNL     1       4.568  17.643   1.749  1.00  0.00    -0.354 N 
ATOM     43  C   UNL     1       4.324  16.973  -2.721  1.00  0.00     0.074 A 
ATOM     44  C   UNL     1       2.934  17.307  -2.846  1.00  0.00     0.031 C 
ATOM     45  C   UNL     1       3.624  17.519   3.770  1.00  0.00     0.029 A 
ATOM     46  C   UNL     1       4.601  18.270   2.995  1.00  0.00     0.049 A 
ATOM     47  H   UNL     1       5.204  17.854   1.027  1.00  0.00     0.167 HD
ATOM     48  C   UNL     1       5.429  17.599  -3.209  1.00  0.00     0.034 A 
ATOM     49  C   UNL     1       5.354  19.340   3.373  1.00  0.00     0.034 A 
ATOM     50  C   UNL     1       6.627  17.017  -2.643  1.00  0.00     0.049 A 
ATOM     51  C   UNL     1       6.551  19.366   2.502  1.00  0.00     0.074 A 
ATOM     52  C   UNL     1       7.348  15.851  -2.773  1.00  0.00     0.029 A 
ATOM     53  N   UNL     1       7.011  17.596  -1.462  1.00  0.00    -0.354 N 
ATOM     54  N   UNL     1       7.450  18.420   2.509  1.00  0.00    -0.248 NA
ATOM     55  C   UNL     1       6.590  20.253   1.344  1.00  0.00     0.031 C 
ATOM     56  C   UNL     1       8.104  15.704  -1.569  1.00  0.00     0.029 A 
ATOM     57  C   UNL     1       7.871  16.805  -0.748  1.00  0.00     0.049 A 
ATOM     58  H   UNL     1       6.704  18.482  -1.161  1.00  0.00     0.167 HD
ATOM     59  C   UNL     1       7.857  18.325   1.195  1.00  0.00     0.074 A 
ATOM     60  C   UNL     1       7.442  19.574   0.570  1.00  0.00     0.031 C 
ATOM     61  C   UNL     1       8.159  17.114   0.642  1.00  0.00     0.034 A 
BRANCH  48  62
ATOM     62  C   UNL     1       5.442  19.042  -3.704  1.00  0.00     0.023 A 
ATOM     63  C   UNL     1       6.692  19.566  -4.093  1.00  0.00     0.031 A 
ATOM     64  C   UNL     1       4.414  20.000  -3.527  1.00  0.00     0.131 A 
ATOM     65  C   UNL     1       6.899  20.954  -4.198  1.00  0.00     0.055 A 
ATOM     66  C   UNL     1       4.614  21.375  -3.674  1.00  0.00     0.041 A 
ATOM     67  F   UNL     1       3.180  19.686  -3.120  1.00  0.00    -0.206 F 
ATOM     68  C   UNL     1       5.868  21.863  -3.985  1.00  0.00     0.022 A 
BRANCH  65  69
ATOM     69  S   UNL     1       8.581  21.562  -4.482  1.00  0.00     0.124 S 
ATOM     70  O   UNL     1       9.297  20.992  -3.348  1.00  0.00    -0.237 OA
ATOM     71  O   UNL     1       8.885  20.996  -5.792  1.00  0.00    -0.237 OA
ATOM     72  O   UNL     1       8.422  23.015  -4.457  1.00  0.00    -0.744 OA
ENDBRANCH  65  69
ENDBRANCH  48  62
BRANCH  49  73
ATOM     73  C   UNL     1       4.975  20.471   4.269  1.00  0.00     0.023 A 
ATOM     74  C   UNL     1       5.920  21.358   4.838  1.00  0.00     0.031 A 
ATOM     75  C   UNL     1       3.618  20.854   4.364  1.00  0.00     0.131 A 
ATOM     76  C   UNL     1       5.494  22.564   5.448  1.00  0.00     0.055 A 
ATOM     77  C   UNL     1       3.205  22.046   4.963  1.00  0.00     0.041 A 
ATOM     78  F   UNL     1       2.648  20.120   3.795  1.00  0.00    -0.206 F 
ATOM     79  C   UNL     1       4.143  22.914   5.495  1.00  0.00     0.022 A 
BRANCH  76  80
ATOM     80  S   UNL     1       6.705  23.759   6.112  1.00  0.00     0.124 S 
ATOM     81  O   UNL     1       7.219  23.059   7.284  1.00  0.00    -0.237 OA
ATOM     82  O   UNL     1       7.628  23.927   4.997  1.00  0.00    -0.237 OA
ATOM     83  O   UNL     1       5.891  24.938   6.413  1.00  0.00    -0.744 OA
ENDBRANCH  76  80
ENDBRANCH  49  73
BRANCH  61  84
ATOM     84  C   UNL     1       8.734  16.051   1.542  1.00  0.00     0.023 A 
ATOM     85  C   UNL     1       8.106  15.500   2.679  1.00  0.00     0.031 A 
ATOM     86  C   UNL     1      10.016  15.575   1.209  1.00  0.00     0.131 A 
ATOM     87  C   UNL     1       8.772  14.516   3.440  1.00  0.00     0.055 A 
ATOM     88  C   UNL     1      10.662  14.590   1.950  1.00  0.00     0.041 A 
ATOM     89  F   UNL     1      10.668  16.063   0.140  1.00  0.00    -0.206 F 
ATOM     90  C   UNL     1      10.044  14.062   3.075  1.00  0.00     0.022 A 
BRANCH  87  91
ATOM     91  S   UNL     1       8.016  13.834   4.951  1.00  0.00     0.124 S 
ATOM     92  O   UNL     1       7.521  15.013   5.651  1.00  0.00    -0.237 OA
ATOM     93  O   UNL     1       6.998  12.935   4.413  1.00  0.00    -0.237 OA
ATOM     94  O   UNL     1       9.133  13.156   5.613  1.00  0.00    -0.744 OA
ENDBRANCH  87  91
ENDBRANCH  61  84
ENDBRANCH  35  36
ENDBRANCH  28  30
ENDBRANCH  27  28
ENDBRANCH  26  27
ENDBRANCH   1  26
TORSDOF 17
