REMARK SMILES O=C(OCCOC(=O)c1ccc(N2C(=O)/C(=C\C3=Cc4ccccc4OC3)SC2=S)cc1)c1ccc(-c2c3nc(c(-c4cc(S(=O)(=O)[O-])ccc4F)c4ccc([nH]4)c(-c4cc(S(=O)(=O)[O-])ccc4F)c4nc(c(-c5cc(S(=O)(=O)[O-])ccc5F)c5ccc2[nH]5)C=C4)C=C3)cc1
REMARK SMILES IDX 4 1 3 2 2 3 1 4 33 5 34 6 95 7 35 8 94 9 36 10 37 11 38 12
REMARK SMILES IDX 88 13 39 14 93 15 87 16 89 17 40 18 92 19 86 20 85 21 41 23
REMARK SMILES IDX 73 24 53 25 72 26 54 27 57 28 71 29 90 30 55 31 56 32 70 34
REMARK SMILES IDX 91 35 58 36 42 37 43 38 51 39 44 40 50 41 52 42 49 43 45 44
REMARK SMILES IDX 46 45 47 46 48 47 74 48 75 49 83 50 76 51 82 52 84 53 81 54
REMARK SMILES IDX 77 55 78 56 79 57 80 58 59 59 60 60 68 61 61 62 67 63 69 64
REMARK SMILES IDX 66 65 62 66 63 67 64 68 65 69 5 70 6 71 7 72 8 73 9 74 10 75
REMARK SMILES IDX 32 76 11 77 31 78 12 79 13 80 14 81 29 82 15 83 16 84 28 85
REMARK SMILES IDX 30 86 17 87 18 88 19 89 27 90 20 91 26 92 21 93 25 94 22 95
REMARK SMILES IDX 24 96 23 97
REMARK H PARENT 89 22 57 33
REMARK Flexibility Score: inf
ROOT
ATOM      1  C   UNL     1       3.835   0.433   1.674  1.00  0.00     0.275 C 
ENDROOT
BRANCH   1   2
ATOM      2  O   UNL     1       2.969   0.843   0.614  1.00  0.00    -0.458 OA
BRANCH   2   3
ATOM      3  C   UNL     1       3.046   0.540  -0.700  1.00  0.00     0.338 C 
ATOM      4  O   UNL     1       2.179   1.012  -1.438  1.00  0.00    -0.246 OA
BRANCH   3   5
ATOM      5  C   UNL     1       4.070  -0.379  -1.317  1.00  0.00     0.060 A 
ATOM      6  C   UNL     1       5.095  -1.097  -0.686  1.00  0.00     0.016 A 
ATOM      7  C   UNL     1       3.917  -0.594  -2.689  1.00  0.00     0.016 A 
ATOM      8  C   UNL     1       5.842  -2.084  -1.351  1.00  0.00     0.010 A 
ATOM      9  C   UNL     1       4.653  -1.582  -3.345  1.00  0.00     0.010 A 
ATOM     10  C   UNL     1       5.567  -2.407  -2.672  1.00  0.00    -0.014 A 
BRANCH  10  11
ATOM     11  C   UNL     1       6.153  -3.611  -3.349  1.00  0.00     0.031 A 
ATOM     12  C   UNL     1       6.743  -3.450  -4.727  1.00  0.00     0.074 A 
ATOM     13  C   UNL     1       5.968  -4.858  -2.845  1.00  0.00     0.049 A 
ATOM     14  N   UNL     1       7.045  -4.362  -5.614  1.00  0.00    -0.248 NA
ATOM     15  C   UNL     1       6.960  -2.069  -5.186  1.00  0.00     0.031 C 
ATOM     16  C   UNL     1       5.297  -5.185  -1.580  1.00  0.00     0.029 A 
ATOM     17  N   UNL     1       6.236  -6.100  -3.385  1.00  0.00    -0.354 N 
ATOM     18  C   UNL     1       7.458  -3.658  -6.741  1.00  0.00     0.074 A 
ATOM     19  C   UNL     1       7.252  -2.255  -6.462  1.00  0.00     0.031 C 
ATOM     20  C   UNL     1       5.164  -6.519  -1.468  1.00  0.00     0.029 A 
ATOM     21  C   UNL     1       5.716  -7.154  -2.658  1.00  0.00     0.049 A 
ATOM     22  H   UNL     1       6.753  -6.224  -4.214  1.00  0.00     0.167 HD
ATOM     23  C   UNL     1       8.028  -4.125  -7.877  1.00  0.00     0.034 A 
ATOM     24  C   UNL     1       5.651  -8.476  -2.931  1.00  0.00     0.034 A 
ATOM     25  C   UNL     1       8.290  -5.517  -8.118  1.00  0.00     0.049 A 
ATOM     26  C   UNL     1       6.251  -8.983  -4.219  1.00  0.00     0.074 A 
ATOM     27  C   UNL     1       9.025  -6.093  -9.137  1.00  0.00     0.029 A 
ATOM     28  N   UNL     1       7.813  -6.553  -7.329  1.00  0.00    -0.354 N 
ATOM     29  N   UNL     1       6.786  -8.297  -5.202  1.00  0.00    -0.248 NA
ATOM     30  C   UNL     1       6.258 -10.439  -4.428  1.00  0.00     0.031 C 
ATOM     31  C   UNL     1       8.954  -7.482  -8.991  1.00  0.00     0.029 A 
ATOM     32  C   UNL     1       8.220  -7.769  -7.851  1.00  0.00     0.049 A 
ATOM     33  H   UNL     1       7.267  -6.441  -6.518  1.00  0.00     0.167 HD
ATOM     34  C   UNL     1       7.244  -9.243  -6.115  1.00  0.00     0.074 A 
ATOM     35  C   UNL     1       6.913 -10.544  -5.574  1.00  0.00     0.031 C 
ATOM     36  C   UNL     1       7.896  -9.055  -7.289  1.00  0.00     0.034 A 
BRANCH  23  37
ATOM     37  C   UNL     1       8.459  -3.108  -8.903  1.00  0.00     0.023 A 
ATOM     38  C   UNL     1       9.422  -2.132  -8.589  1.00  0.00     0.031 A 
ATOM     39  C   UNL     1       7.888  -3.083 -10.184  1.00  0.00     0.131 A 
ATOM     40  C   UNL     1       9.711  -1.112  -9.504  1.00  0.00     0.055 A 
ATOM     41  C   UNL     1       8.246  -2.115 -11.126  1.00  0.00     0.041 A 
ATOM     42  F   UNL     1       6.957  -3.984 -10.538  1.00  0.00    -0.206 F 
ATOM     43  C   UNL     1       9.149  -1.111 -10.781  1.00  0.00     0.022 A 
BRANCH  40  44
ATOM     44  S   UNL     1      10.722   0.283  -8.942  1.00  0.00     0.124 S 
ATOM     45  O   UNL     1       9.868   0.866  -7.909  1.00  0.00    -0.237 OA
ATOM     46  O   UNL     1      11.935  -0.374  -8.467  1.00  0.00    -0.237 OA
ATOM     47  O   UNL     1      10.882   1.097 -10.145  1.00  0.00    -0.744 OA
ENDBRANCH  40  44
ENDBRANCH  23  37
BRANCH  24  48
ATOM     48  C   UNL     1       4.954  -9.437  -2.020  1.00  0.00     0.023 A 
ATOM     49  C   UNL     1       5.653 -10.465  -1.366  1.00  0.00     0.031 A 
ATOM     50  C   UNL     1       3.553  -9.418  -1.902  1.00  0.00     0.131 A 
ATOM     51  C   UNL     1       4.948 -11.476  -0.690  1.00  0.00     0.055 A 
ATOM     52  C   UNL     1       2.860 -10.397  -1.184  1.00  0.00     0.041 A 
ATOM     53  F   UNL     1       2.841  -8.454  -2.507  1.00  0.00    -0.206 F 
ATOM     54  C   UNL     1       3.556 -11.445  -0.589  1.00  0.00     0.022 A 
BRANCH  51  55
ATOM     55  S   UNL     1       5.871 -12.906  -0.057  1.00  0.00     0.124 S 
ATOM     56  O   UNL     1       6.547 -13.377  -1.260  1.00  0.00    -0.237 OA
ATOM     57  O   UNL     1       6.721 -12.289   0.956  1.00  0.00    -0.237 OA
ATOM     58  O   UNL     1       4.826 -13.787   0.459  1.00  0.00    -0.744 OA
ENDBRANCH  51  55
ENDBRANCH  24  48
BRANCH  36  59
ATOM     59  C   UNL     1       8.372 -10.283  -8.015  1.00  0.00     0.023 A 
ATOM     60  C   UNL     1       7.477 -11.165  -8.641  1.00  0.00     0.031 A 
ATOM     61  C   UNL     1       9.748 -10.566  -8.084  1.00  0.00     0.131 A 
ATOM     62  C   UNL     1       7.967 -12.314  -9.278  1.00  0.00     0.055 A 
ATOM     63  C   UNL     1      10.233 -11.679  -8.770  1.00  0.00     0.041 A 
ATOM     64  F   UNL     1      10.642  -9.755  -7.496  1.00  0.00    -0.206 F 
ATOM     65  C   UNL     1       9.340 -12.565  -9.364  1.00  0.00     0.022 A 
BRANCH  62  66
ATOM     66  S   UNL     1       6.781 -13.512  -9.943  1.00  0.00     0.124 S 
ATOM     67  O   UNL     1       6.086 -13.949  -8.737  1.00  0.00    -0.237 OA
ATOM     68  O   UNL     1       5.999 -12.700 -10.869  1.00  0.00    -0.237 OA
ATOM     69  O   UNL     1       7.630 -14.522 -10.572  1.00  0.00    -0.744 OA
ENDBRANCH  62  66
ENDBRANCH  36  59
ENDBRANCH  10  11
ENDBRANCH   3   5
ENDBRANCH   2   3
ENDBRANCH   1   2
BRANCH   1  70
ATOM     70  C   UNL     1       3.463  -0.936   2.268  1.00  0.00     0.275 C 
BRANCH  70  71
ATOM     71  O   UNL     1       3.035  -1.917   1.294  1.00  0.00    -0.458 OA
BRANCH  71  72
ATOM     72  C   UNL     1       1.686  -2.004   1.111  1.00  0.00     0.338 C 
ATOM     73  O   UNL     1       0.847  -1.354   1.706  1.00  0.00    -0.246 OA
BRANCH  72  74
ATOM     74  C   UNL     1       1.333  -2.954   0.017  1.00  0.00     0.060 A 
ATOM     75  C   UNL     1       0.347  -2.571  -0.899  1.00  0.00     0.018 A 
ATOM     76  C   UNL     1       1.883  -4.229  -0.089  1.00  0.00     0.018 A 
ATOM     77  C   UNL     1      -0.085  -3.450  -1.916  1.00  0.00     0.028 A 
ATOM     78  C   UNL     1       1.435  -5.109  -1.102  1.00  0.00     0.028 A 
ATOM     79  C   UNL     1       0.432  -4.748  -2.034  1.00  0.00     0.051 A 
BRANCH  79  80
ATOM     80  N   UNL     1       0.044  -5.654  -3.101  1.00  0.00    -0.261 N 
ATOM     81  C   UNL     1      -0.337  -5.216  -4.380  1.00  0.00     0.270 C 
ATOM     82  C   UNL     1      -0.133  -7.017  -2.918  1.00  0.00     0.152 C 
ATOM     83  O   UNL     1      -0.893  -4.160  -4.658  1.00  0.00    -0.268 OA
ATOM     84  C   UNL     1      -0.219  -6.341  -5.379  1.00  0.00     0.081 C 
ATOM     85  S   UNL     1      -0.334  -7.823  -4.474  1.00  0.00    -0.054 SA
ATOM     86  S   UNL     1      -0.369  -7.875  -1.495  1.00  0.00    -0.051 S 
ATOM     87  C   UNL     1       0.032  -6.404  -6.705  1.00  0.00     0.028 C 
BRANCH  87  88
ATOM     88  C   UNL     1       0.464  -5.425  -7.735  1.00  0.00    -0.009 C 
ATOM     89  C   UNL     1       0.505  -4.082  -7.598  1.00  0.00     0.019 C 
ATOM     90  C   UNL     1       1.788  -5.890  -8.377  1.00  0.00     0.265 C 
ATOM     91  C   UNL     1       1.601  -3.783  -6.641  1.00  0.00     0.017 A 
ATOM     92  O   UNL     1       2.855  -5.750  -7.411  1.00  0.00    -0.488 OA
ATOM     93  C   UNL     1       1.395  -2.789  -5.697  1.00  0.00     0.012 A 
ATOM     94  C   UNL     1       2.643  -4.732  -6.502  1.00  0.00     0.127 A 
ATOM     95  C   UNL     1       2.042  -2.921  -4.484  1.00  0.00     0.001 A 
ATOM     96  C   UNL     1       3.318  -4.825  -5.303  1.00  0.00     0.047 A 
ATOM     97  C   UNL     1       2.936  -3.977  -4.271  1.00  0.00     0.004 A 
ENDBRANCH  87  88
ENDBRANCH  79  80
ENDBRANCH  72  74
ENDBRANCH  71  72
ENDBRANCH  70  71
ENDBRANCH   1  70
TORSDOF 16
