REMARK SMILES COC(=O)C1=C(C)N(c2ccc(Br)cc2)C(=O)/C1=C\c1ccc(C(=O)OCCOC(=O)c2ccc(-c3c4nc(c(-c5cc(S(=O)(=O)[O-])ccc5F)c5ccc([nH]5)c(-c5cc(S(=O)(=O)[O-])ccc5F)c5nc(c(-c6cc(S(=O)(=O)[O-])ccc6F)c6ccc3[nH]6)C=C5)C=C4)cc2)cc1
REMARK SMILES IDX 27 1 26 2 24 3 25 4 23 5 20 6 21 7 96 8 22 9 95 10 19 11
REMARK SMILES IDX 5 12 6 13 18 14 7 15 8 16 16 17 17 18 3 19 4 20 2 21 1 22
REMARK SMILES IDX 9 23 10 24 15 25 11 26 14 27 12 28 13 29 28 30 29 31 30 32
REMARK SMILES IDX 31 33 32 34 33 35 94 36 34 37 93 38 35 39 36 40 37 41 87 42
REMARK SMILES IDX 38 43 92 44 86 45 88 46 39 47 91 48 85 49 84 50 40 52 72 53
REMARK SMILES IDX 52 54 71 55 53 56 56 57 70 58 89 59 54 60 55 61 69 63 90 64
REMARK SMILES IDX 57 65 41 66 42 67 50 68 43 69 49 70 51 71 48 72 44 73 45 74
REMARK SMILES IDX 46 75 47 76 73 77 74 78 82 79 75 80 81 81 83 82 80 83 76 84
REMARK SMILES IDX 77 85 78 86 79 87 58 88 59 89 67 90 60 91 66 92 68 93 65 94
REMARK SMILES IDX 61 95 62 96 63 97 64 98
REMARK H PARENT 88 51 56 62
REMARK Flexibility Score: inf
ROOT
ATOM      1  C   UNL     1       5.572  11.067   5.039  1.00  0.00     0.275 C 
ENDROOT
BRANCH   1   2
ATOM      2  O   UNL     1       4.995   9.772   4.775  1.00  0.00    -0.458 OA
BRANCH   2   3
ATOM      3  C   UNL     1       4.541   9.586   3.510  1.00  0.00     0.338 C 
ATOM      4  O   UNL     1       4.567  10.412   2.611  1.00  0.00    -0.246 OA
BRANCH   3   5
ATOM      5  C   UNL     1       4.043   8.204   3.311  1.00  0.00     0.060 A 
ATOM      6  C   UNL     1       2.914   5.708   2.731  1.00  0.00    -0.025 A 
ATOM      7  C   UNL     1       3.752   6.319   1.803  1.00  0.00     0.009 A 
ATOM      8  C   UNL     1       2.681   6.322   3.970  1.00  0.00     0.009 A 
ATOM      9  C   UNL     1       4.282   7.573   2.083  1.00  0.00     0.016 A 
ATOM     10  C   UNL     1       3.253   7.564   4.268  1.00  0.00     0.016 A 
BRANCH   6  11
ATOM     11  C   UNL     1       2.200   4.498   2.333  1.00  0.00     0.023 C 
ATOM     12  C   UNL     1       0.164   3.366   1.404  1.00  0.00     0.092 C 
ATOM     13  C   UNL     1      -1.055   3.803   1.017  1.00  0.00     0.039 C 
ATOM     14  C   UNL     1       0.942   4.503   1.862  1.00  0.00     0.057 C 
ATOM     15  C   UNL     1      -2.135   2.954   0.431  1.00  0.00     0.066 C 
ATOM     16  N   UNL     1      -1.137   5.191   1.152  1.00  0.00    -0.280 N 
ATOM     17  C   UNL     1       0.068   5.714   1.675  1.00  0.00     0.263 C 
ATOM     18  O   UNL     1       0.336   6.864   1.966  1.00  0.00    -0.268 OA
BRANCH  12  19
ATOM     19  C   UNL     1       0.674   1.985   1.347  1.00  0.00     0.340 C 
ATOM     20  O   UNL     1       1.332   1.467   2.237  1.00  0.00    -0.246 OA
BRANCH  19  21
ATOM     21  O   UNL     1       0.353   1.413   0.161  1.00  0.00    -0.465 OA
ATOM     22  C   UNL     1       0.899   0.106  -0.025  1.00  0.00     0.282 C 
ENDBRANCH  19  21
ENDBRANCH  12  19
BRANCH  16  23
ATOM     23  C   UNL     1      -2.204   6.062   0.811  1.00  0.00     0.049 A 
ATOM     24  C   UNL     1      -1.938   7.234   0.086  1.00  0.00     0.028 A 
ATOM     25  C   UNL     1      -3.524   5.789   1.186  1.00  0.00     0.028 A 
ATOM     26  C   UNL     1      -2.973   8.085  -0.307  1.00  0.00     0.018 A 
ATOM     27  C   UNL     1      -4.562   6.649   0.810  1.00  0.00     0.018 A 
ATOM     28  C   UNL     1      -4.283   7.785   0.053  1.00  0.00     0.018 A 
ATOM     29  Br  UNL     1      -5.690   8.927  -0.484  1.00  0.00    -0.051 Br
ENDBRANCH  16  23
ENDBRANCH   6  11
ENDBRANCH   3   5
ENDBRANCH   2   3
ENDBRANCH   1   2
BRANCH   1  30
ATOM     30  C   UNL     1       7.102  11.037   4.987  1.00  0.00     0.275 C 
BRANCH  30  31
ATOM     31  O   UNL     1       7.584  10.857   3.642  1.00  0.00    -0.458 OA
BRANCH  31  32
ATOM     32  C   UNL     1       7.972   9.594   3.354  1.00  0.00     0.338 C 
ATOM     33  O   UNL     1       7.973   8.637   4.111  1.00  0.00    -0.246 OA
BRANCH  32  34
ATOM     34  C   UNL     1       8.328   9.453   1.935  1.00  0.00     0.060 A 
ATOM     35  C   UNL     1       7.296   9.186   1.048  1.00  0.00     0.016 A 
ATOM     36  C   UNL     1       9.648   9.289   1.528  1.00  0.00     0.016 A 
ATOM     37  C   UNL     1       7.560   8.559  -0.164  1.00  0.00     0.010 A 
ATOM     38  C   UNL     1       9.916   8.817   0.233  1.00  0.00     0.010 A 
ATOM     39  C   UNL     1       8.876   8.374  -0.608  1.00  0.00    -0.014 A 
BRANCH  39  40
ATOM     40  C   UNL     1       9.140   7.681  -1.911  1.00  0.00     0.031 A 
ATOM     41  C   UNL     1      10.085   6.499  -1.978  1.00  0.00     0.074 A 
ATOM     42  C   UNL     1       8.509   8.080  -3.038  1.00  0.00     0.049 A 
ATOM     43  N   UNL     1      10.555   5.870  -3.027  1.00  0.00    -0.248 NA
ATOM     44  C   UNL     1      10.584   5.969  -0.699  1.00  0.00     0.031 C 
ATOM     45  C   UNL     1       7.542   9.178  -3.126  1.00  0.00     0.029 A 
ATOM     46  N   UNL     1       8.572   7.606  -4.328  1.00  0.00    -0.354 N 
ATOM     47  C   UNL     1      11.453   4.921  -2.540  1.00  0.00     0.074 A 
ATOM     48  C   UNL     1      11.471   5.069  -1.101  1.00  0.00     0.031 C 
ATOM     49  C   UNL     1       7.064   9.254  -4.375  1.00  0.00     0.029 A 
ATOM     50  C   UNL     1       7.779   8.302  -5.213  1.00  0.00     0.049 A 
ATOM     51  H   UNL     1       9.132   6.841  -4.594  1.00  0.00     0.167 HD
ATOM     52  C   UNL     1      12.191   4.014  -3.230  1.00  0.00     0.034 A 
ATOM     53  C   UNL     1       7.672   8.237  -6.555  1.00  0.00     0.034 A 
ATOM     54  C   UNL     1      12.118   3.841  -4.663  1.00  0.00     0.049 A 
ATOM     55  C   UNL     1       8.525   7.244  -7.298  1.00  0.00     0.074 A 
ATOM     56  C   UNL     1      12.793   2.926  -5.454  1.00  0.00     0.029 A 
ATOM     57  N   UNL     1      11.322   4.590  -5.521  1.00  0.00    -0.354 N 
ATOM     58  N   UNL     1       9.395   6.382  -6.823  1.00  0.00    -0.248 NA
ATOM     59  C   UNL     1       8.383   7.215  -8.758  1.00  0.00     0.031 C 
ATOM     60  C   UNL     1      12.471   3.176  -6.792  1.00  0.00     0.029 A 
ATOM     61  C   UNL     1      11.517   4.180  -6.833  1.00  0.00     0.049 A 
ATOM     62  H   UNL     1      10.710   5.307  -5.239  1.00  0.00     0.167 HD
ATOM     63  C   UNL     1       9.884   5.691  -7.928  1.00  0.00     0.074 A 
ATOM     64  C   UNL     1       9.186   6.216  -9.085  1.00  0.00     0.031 C 
ATOM     65  C   UNL     1      10.826   4.716  -7.983  1.00  0.00     0.034 A 
BRANCH  52  66
ATOM     66  C   UNL     1      13.191   3.179  -2.459  1.00  0.00     0.023 A 
ATOM     67  C   UNL     1      12.809   2.252  -1.474  1.00  0.00     0.031 A 
ATOM     68  C   UNL     1      14.568   3.320  -2.724  1.00  0.00     0.131 A 
ATOM     69  C   UNL     1      13.790   1.550  -0.752  1.00  0.00     0.055 A 
ATOM     70  C   UNL     1      15.533   2.560  -2.061  1.00  0.00     0.041 A 
ATOM     71  F   UNL     1      15.000   4.204  -3.638  1.00  0.00    -0.206 F 
ATOM     72  C   UNL     1      15.147   1.677  -1.058  1.00  0.00     0.022 A 
BRANCH  69  73
ATOM     73  S   UNL     1      13.278   0.566   0.683  1.00  0.00     0.124 S 
ATOM     74  O   UNL     1      12.634   1.577   1.519  1.00  0.00    -0.237 OA
ATOM     75  O   UNL     1      12.393  -0.428   0.086  1.00  0.00    -0.237 OA
ATOM     76  O   UNL     1      14.538   0.044   1.209  1.00  0.00    -0.744 OA
ENDBRANCH  69  73
ENDBRANCH  52  66
BRANCH  53  77
ATOM     77  C   UNL     1       6.788   9.189  -7.295  1.00  0.00     0.023 A 
ATOM     78  C   UNL     1       5.732   8.731  -8.099  1.00  0.00     0.031 A 
ATOM     79  C   UNL     1       7.026  10.576  -7.254  1.00  0.00     0.131 A 
ATOM     80  C   UNL     1       4.992   9.643  -8.869  1.00  0.00     0.055 A 
ATOM     81  C   UNL     1       6.239  11.485  -7.961  1.00  0.00     0.041 A 
ATOM     82  F   UNL     1       8.027  11.073  -6.509  1.00  0.00    -0.206 F 
ATOM     83  C   UNL     1       5.225  11.018  -8.790  1.00  0.00     0.022 A 
BRANCH  80  84
ATOM     84  S   UNL     1       3.796   8.996 -10.069  1.00  0.00     0.124 S 
ATOM     85  O   UNL     1       4.634   8.121 -10.880  1.00  0.00    -0.237 OA
ATOM     86  O   UNL     1       2.826   8.334  -9.203  1.00  0.00    -0.237 OA
ATOM     87  O   UNL     1       3.309  10.197 -10.745  1.00  0.00    -0.744 OA
ENDBRANCH  80  84
ENDBRANCH  53  77
BRANCH  65  88
ATOM     88  C   UNL     1      11.107   4.117  -9.342  1.00  0.00     0.023 A 
ATOM     89  C   UNL     1      11.630   4.885 -10.398  1.00  0.00     0.031 A 
ATOM     90  C   UNL     1      10.792   2.771  -9.600  1.00  0.00     0.131 A 
ATOM     91  C   UNL     1      11.735   4.329 -11.681  1.00  0.00     0.055 A 
ATOM     92  C   UNL     1      10.979   2.200 -10.860  1.00  0.00     0.041 A 
ATOM     93  F   UNL     1      10.284   1.989  -8.634  1.00  0.00    -0.206 F 
ATOM     94  C   UNL     1      11.432   2.986 -11.915  1.00  0.00     0.022 A 
BRANCH  91  95
ATOM     95  S   UNL     1      12.125   5.426 -13.073  1.00  0.00     0.124 S 
ATOM     96  O   UNL     1      11.079   6.438 -12.962  1.00  0.00    -0.237 OA
ATOM     97  O   UNL     1      13.477   5.869 -12.750  1.00  0.00    -0.237 OA
ATOM     98  O   UNL     1      12.020   4.551 -14.239  1.00  0.00    -0.744 OA
ENDBRANCH  91  95
ENDBRANCH  65  88
ENDBRANCH  39  40
ENDBRANCH  32  34
ENDBRANCH  31  32
ENDBRANCH  30  31
ENDBRANCH   1  30
TORSDOF 18
