REMARK SMILES CS(=O)(=O)[C@@H]1CCC[C@@H](Sc2ccc(C(=O)OCCOC(=O)c3ccc(-c4c5nc(c(-c6cc(S(=O)(=O)[O-])ccc6F)c6ccc([nH]6)c(-c6cc(S(=O)(=O)[O-])ccc6F)c6nc(c(-c7cc(S(=O)(=O)[O-])ccc7F)c7ccc4[nH]7)C=C6)C=C5)cc3)cn2)C1
REMARK SMILES IDX 18 1 17 2 15 3 16 4 14 5 11 6 12 7 87 8 13 9 86 10 10 11
REMARK SMILES IDX 9 12 5 13 6 14 88 15 7 16 8 17 2 18 1 19 3 20 4 21 19 22
REMARK SMILES IDX 20 23 21 24 22 25 23 26 24 27 85 28 25 29 84 30 26 31 27 32
REMARK SMILES IDX 28 33 78 34 29 35 83 36 77 37 79 38 30 39 82 40 76 41 75 42
REMARK SMILES IDX 31 44 63 45 43 46 62 47 44 48 47 49 61 50 80 51 45 52 46 53
REMARK SMILES IDX 60 55 81 56 48 57 32 58 33 59 41 60 34 61 40 62 42 63 39 64
REMARK SMILES IDX 35 65 36 66 37 67 38 68 64 69 65 70 73 71 66 72 72 73 74 74
REMARK SMILES IDX 71 75 67 76 68 77 69 78 70 79 49 80 50 81 58 82 51 83 57 84
REMARK SMILES IDX 59 85 56 86 52 87 53 88 54 89 55 90
REMARK H PARENT 79 43 47 54
REMARK Flexibility Score: inf
ROOT
ATOM      1  C   UNL     1       0.828  -6.808  -5.621  1.00  0.00     0.275 C 
ENDROOT
BRANCH   1   2
ATOM      2  O   UNL     1       0.759  -5.376  -5.483  1.00  0.00    -0.458 OA
BRANCH   2   3
ATOM      3  C   UNL     1       0.791  -4.664  -6.637  1.00  0.00     0.339 C 
ATOM      4  O   UNL     1       0.893  -5.094  -7.769  1.00  0.00    -0.246 OA
BRANCH   3   5
ATOM      5  C   UNL     1       0.740  -3.234  -6.317  1.00  0.00     0.078 A 
ATOM      6  C   UNL     1       0.762  -0.506  -5.835  1.00  0.00     0.096 A 
ATOM      7  C   UNL     1       1.777  -1.320  -5.372  1.00  0.00     0.036 A 
ATOM      8  N   UNL     1      -0.221  -1.024  -6.592  1.00  0.00    -0.249 NA
ATOM      9  C   UNL     1       1.752  -2.696  -5.553  1.00  0.00     0.020 A 
ATOM     10  C   UNL     1      -0.195  -2.360  -6.846  1.00  0.00     0.128 A 
BRANCH   6  11
ATOM     11  S   UNL     1       0.677   1.242  -5.575  1.00  0.00    -0.103 SA
BRANCH  11  12
ATOM     12  C   UNL     1       1.604   1.685  -4.031  1.00  0.00     0.054 C 
ATOM     13  C   UNL     1       1.510  -0.184  -2.308  1.00  0.00     0.109 C 
ATOM     14  C   UNL     1       3.040  -0.263  -2.252  1.00  0.00     0.020 C 
ATOM     15  C   UNL     1       1.020   1.197  -2.704  1.00  0.00     0.034 C 
ATOM     16  C   UNL     1       3.827   0.453  -3.353  1.00  0.00     0.002 C 
ATOM     17  C   UNL     1       3.132   1.583  -4.117  1.00  0.00     0.015 C 
BRANCH  13  18
ATOM     18  S   UNL     1       0.764  -0.785  -0.776  1.00  0.00     0.150 S 
ATOM     19  C   UNL     1       1.250   0.359   0.493  1.00  0.00     0.158 C 
ATOM     20  O   UNL     1       1.388  -2.058  -0.460  1.00  0.00    -0.229 OA
ATOM     21  O   UNL     1      -0.676  -0.690  -0.903  1.00  0.00    -0.229 OA
ENDBRANCH  13  18
ENDBRANCH  11  12
ENDBRANCH   6  11
ENDBRANCH   3   5
ENDBRANCH   2   3
ENDBRANCH   1   2
BRANCH   1  22
ATOM     22  C   UNL     1      -0.545  -7.448  -5.419  1.00  0.00     0.275 C 
BRANCH  22  23
ATOM     23  O   UNL     1      -1.445  -7.035  -6.463  1.00  0.00    -0.458 OA
BRANCH  23  24
ATOM     24  C   UNL     1      -2.375  -6.127  -6.086  1.00  0.00     0.338 C 
ATOM     25  O   UNL     1      -2.565  -5.693  -4.962  1.00  0.00    -0.246 OA
BRANCH  24  26
ATOM     26  C   UNL     1      -3.091  -5.602  -7.258  1.00  0.00     0.060 A 
ATOM     27  C   UNL     1      -2.401  -4.749  -8.105  1.00  0.00     0.016 A 
ATOM     28  C   UNL     1      -4.469  -5.734  -7.390  1.00  0.00     0.016 A 
ATOM     29  C   UNL     1      -3.089  -3.884  -8.944  1.00  0.00     0.010 A 
ATOM     30  C   UNL     1      -5.139  -4.994  -8.377  1.00  0.00     0.010 A 
ATOM     31  C   UNL     1      -4.467  -4.014  -9.134  1.00  0.00    -0.014 A 
BRANCH  31  32
ATOM     32  C   UNL     1      -5.180  -3.106 -10.088  1.00  0.00     0.031 A 
ATOM     33  C   UNL     1      -6.428  -2.377  -9.651  1.00  0.00     0.074 A 
ATOM     34  C   UNL     1      -4.703  -2.904 -11.338  1.00  0.00     0.049 A 
ATOM     35  N   UNL     1      -7.327  -1.765 -10.379  1.00  0.00    -0.248 NA
ATOM     36  C   UNL     1      -6.718  -2.356  -8.208  1.00  0.00     0.031 C 
ATOM     37  C   UNL     1      -3.464  -3.469 -11.884  1.00  0.00     0.029 A 
ATOM     38  N   UNL     1      -5.193  -2.153 -12.382  1.00  0.00    -0.354 N 
ATOM     39  C   UNL     1      -8.329  -1.366  -9.497  1.00  0.00     0.074 A 
ATOM     40  C   UNL     1      -7.921  -1.799  -8.178  1.00  0.00     0.031 C 
ATOM     41  C   UNL     1      -3.257  -2.990 -13.118  1.00  0.00     0.029 A 
ATOM     42  C   UNL     1      -4.422  -2.221 -13.522  1.00  0.00     0.049 A 
ATOM     43  H   UNL     1      -6.018  -1.618 -12.320  1.00  0.00     0.167 HD
ATOM     44  C   UNL     1      -9.485  -0.714  -9.775  1.00  0.00     0.034 A 
ATOM     45  C   UNL     1      -4.652  -1.790 -14.779  1.00  0.00     0.034 A 
ATOM     46  C   UNL     1      -9.827  -0.220 -11.088  1.00  0.00     0.049 A 
ATOM     47  C   UNL     1      -5.968  -1.121 -15.072  1.00  0.00     0.074 A 
ATOM     48  C   UNL     1     -10.954   0.486 -11.476  1.00  0.00     0.029 A 
ATOM     49  N   UNL     1      -9.041  -0.364 -12.225  1.00  0.00    -0.354 N 
ATOM     50  N   UNL     1      -6.948  -0.831 -14.248  1.00  0.00    -0.248 NA
ATOM     51  C   UNL     1      -6.220  -0.742 -16.467  1.00  0.00     0.031 C 
ATOM     52  C   UNL     1     -10.884   0.701 -12.856  1.00  0.00     0.029 A 
ATOM     53  C   UNL     1      -9.675   0.208 -13.318  1.00  0.00     0.049 A 
ATOM     54  H   UNL     1      -8.162  -0.807 -12.251  1.00  0.00     0.167 HD
ATOM     55  C   UNL     1      -7.922  -0.212 -15.024  1.00  0.00     0.074 A 
ATOM     56  C   UNL     1      -7.400  -0.149 -16.373  1.00  0.00     0.031 C 
ATOM     57  C   UNL     1      -9.140   0.260 -14.657  1.00  0.00     0.034 A 
BRANCH  44  58
ATOM     58  C   UNL     1     -10.504  -0.565  -8.668  1.00  0.00     0.023 A 
ATOM     59  C   UNL     1     -10.287   0.224  -7.527  1.00  0.00     0.031 A 
ATOM     60  C   UNL     1     -11.740  -1.233  -8.779  1.00  0.00     0.131 A 
ATOM     61  C   UNL     1     -11.269   0.287  -6.523  1.00  0.00     0.055 A 
ATOM     62  C   UNL     1     -12.739  -1.108  -7.813  1.00  0.00     0.041 A 
ATOM     63  F   UNL     1     -11.998  -2.021  -9.835  1.00  0.00    -0.206 F 
ATOM     64  C   UNL     1     -12.503  -0.352  -6.671  1.00  0.00     0.022 A 
BRANCH  61  65
ATOM     65  S   UNL     1     -10.875   1.128  -4.964  1.00  0.00     0.124 S 
ATOM     66  O   UNL     1      -9.734   0.351  -4.489  1.00  0.00    -0.237 OA
ATOM     67  O   UNL     1     -10.585   2.488  -5.404  1.00  0.00    -0.237 OA
ATOM     68  O   UNL     1     -12.096   0.976  -4.174  1.00  0.00    -0.744 OA
ENDBRANCH  61  65
ENDBRANCH  44  58
BRANCH  45  69
ATOM     69  C   UNL     1      -3.675  -2.065 -15.877  1.00  0.00     0.023 A 
ATOM     70  C   UNL     1      -3.114  -1.018 -16.625  1.00  0.00     0.031 A 
ATOM     71  C   UNL     1      -3.342  -3.383 -16.247  1.00  0.00     0.131 A 
ATOM     72  C   UNL     1      -2.298  -1.306 -17.731  1.00  0.00     0.055 A 
ATOM     73  C   UNL     1      -2.467  -3.661 -17.297  1.00  0.00     0.041 A 
ATOM     74  F   UNL     1      -3.859  -4.429 -15.582  1.00  0.00    -0.206 F 
ATOM     75  C   UNL     1      -1.954  -2.618 -18.059  1.00  0.00     0.022 A 
BRANCH  72  76
ATOM     76  S   UNL     1      -1.801   0.058 -18.819  1.00  0.00     0.124 S 
ATOM     77  O   UNL     1      -3.091   0.640 -19.173  1.00  0.00    -0.237 OA
ATOM     78  O   UNL     1      -0.956   0.857 -17.937  1.00  0.00    -0.237 OA
ATOM     79  O   UNL     1      -1.099  -0.616 -19.910  1.00  0.00    -0.744 OA
ENDBRANCH  72  76
ENDBRANCH  45  69
BRANCH  57  80
ATOM     80  C   UNL     1      -9.952   0.942 -15.729  1.00  0.00     0.023 A 
ATOM     81  C   UNL     1     -10.461   0.237 -16.833  1.00  0.00     0.031 A 
ATOM     82  C   UNL     1     -10.190   2.326 -15.658  1.00  0.00     0.131 A 
ATOM     83  C   UNL     1     -11.126   0.929 -17.855  1.00  0.00     0.055 A 
ATOM     84  C   UNL     1     -10.911   2.998 -16.644  1.00  0.00     0.041 A 
ATOM     85  F   UNL     1      -9.721   3.048 -14.628  1.00  0.00    -0.206 F 
ATOM     86  C   UNL     1     -11.370   2.302 -17.759  1.00  0.00     0.022 A 
BRANCH  83  87
ATOM     87  S   UNL     1     -11.575   0.030 -19.365  1.00  0.00     0.124 S 
ATOM     88  O   UNL     1     -10.278  -0.453 -19.828  1.00  0.00    -0.237 OA
ATOM     89  O   UNL     1     -12.492  -0.988 -18.863  1.00  0.00    -0.237 OA
ATOM     90  O   UNL     1     -12.190   1.057 -20.205  1.00  0.00    -0.744 OA
ENDBRANCH  83  87
ENDBRANCH  57  80
ENDBRANCH  31  32
ENDBRANCH  24  26
ENDBRANCH  23  24
ENDBRANCH  22  23
ENDBRANCH   1  22
TORSDOF 17
