REMARK SMILES Cc1onc2c(=O)n(C)nc(C(=O)OCCOC(=O)c3ccc(-c4c5nc(c(-c6cc(S(=O)(=O)[O-])ccc6F)c6ccc([nH]6)c(-c6cc(S(=O)(=O)[O-])ccc6F)c6nc(c(-c7cc(S(=O)(=O)[O-])ccc7F)c7ccc4[nH]7)C=C6)C=C5)cc3)c12
REMARK SMILES IDX 17 1 16 2 15 3 14 4 12 5 13 6 11 7 1 8 2 9 3 10 83 11 4 12
REMARK SMILES IDX 5 13 6 14 10 15 7 16 8 17 9 18 18 19 19 20 20 21 21 22 82 23
REMARK SMILES IDX 22 24 81 25 23 26 24 27 25 28 75 29 26 30 80 31 74 32 76 33
REMARK SMILES IDX 27 34 79 35 73 36 72 37 28 39 60 40 40 41 59 42 41 43 44 44
REMARK SMILES IDX 58 45 77 46 42 47 43 48 57 50 78 51 45 52 29 53 30 54 38 55
REMARK SMILES IDX 31 56 37 57 39 58 36 59 32 60 33 61 34 62 35 63 61 64 62 65
REMARK SMILES IDX 70 66 63 67 69 68 71 69 68 70 64 71 65 72 66 73 67 74 46 75
REMARK SMILES IDX 47 76 55 77 48 78 54 79 56 80 53 81 49 82 50 83 51 84 52 85
REMARK H PARENT 76 38 44 49
REMARK Flexibility Score: inf
ROOT
ATOM      1  O   UNL     1      -1.166   1.685   1.014  1.00  0.00    -0.458 OA
ENDROOT
BRANCH   1   2
ATOM      2  C   UNL     1      -1.345   3.105   0.834  1.00  0.00     0.275 C 
BRANCH   2   3
ATOM      3  C   UNL     1      -0.418   3.702  -0.231  1.00  0.00     0.275 C 
BRANCH   3   4
ATOM      4  O   UNL     1      -0.569   2.992  -1.466  1.00  0.00    -0.457 OA
BRANCH   4   5
ATOM      5  C   UNL     1       0.543   2.452  -1.990  1.00  0.00     0.359 C 
ATOM      6  O   UNL     1       1.704   2.687  -1.696  1.00  0.00    -0.244 OA
BRANCH   5   7
ATOM      7  C   UNL     1       0.163   1.340  -2.950  1.00  0.00     0.182 A 
ATOM      8  C   UNL     1       2.001  -0.263  -0.522  1.00  0.00     0.091 C 
ATOM      9  C   UNL     1       1.355  -0.643  -1.792  1.00  0.00     0.144 A 
ATOM     10  O   UNL     1       1.464  -1.962  -2.134  1.00  0.00    -0.360 OA
ATOM     11  C   UNL     1       0.615  -0.007  -2.758  1.00  0.00     0.085 A 
ATOM     12  N   UNL     1       0.770  -2.200  -3.312  1.00  0.00    -0.074 NA
ATOM     13  C   UNL     1       0.254  -1.018  -3.661  1.00  0.00     0.183 A 
ATOM     14  C   UNL     1      -0.606  -0.749  -4.795  1.00  0.00     0.296 A 
ATOM     15  N   UNL     1      -0.597   1.623  -3.976  1.00  0.00    -0.162 NA
ATOM     16  O   UNL     1      -0.964  -1.597  -5.608  1.00  0.00    -0.265 OA
ATOM     17  N   UNL     1      -0.995   0.609  -4.865  1.00  0.00    -0.230 N 
ATOM     18  C   UNL     1      -1.901   0.999  -5.925  1.00  0.00     0.178 C 
ENDBRANCH   5   7
ENDBRANCH   4   5
ENDBRANCH   3   4
ENDBRANCH   2   3
ENDBRANCH   1   2
BRANCH   1  19
ATOM     19  C   UNL     1      -1.940   0.907   0.205  1.00  0.00     0.338 C 
ATOM     20  O   UNL     1      -2.614   1.292  -0.731  1.00  0.00    -0.246 OA
BRANCH  19  21
ATOM     21  C   UNL     1      -1.793  -0.524   0.542  1.00  0.00     0.060 A 
ATOM     22  C   UNL     1      -1.730  -1.453  -0.501  1.00  0.00     0.016 A 
ATOM     23  C   UNL     1      -1.783  -0.965   1.859  1.00  0.00     0.016 A 
ATOM     24  C   UNL     1      -1.565  -2.816  -0.236  1.00  0.00     0.010 A 
ATOM     25  C   UNL     1      -1.685  -2.336   2.116  1.00  0.00     0.010 A 
ATOM     26  C   UNL     1      -1.543  -3.286   1.081  1.00  0.00    -0.014 A 
BRANCH  26  27
ATOM     27  C   UNL     1      -1.289  -4.738   1.359  1.00  0.00     0.031 A 
ATOM     28  C   UNL     1      -0.810  -5.043   2.736  1.00  0.00     0.074 A 
ATOM     29  C   UNL     1      -1.971  -5.753   0.772  1.00  0.00     0.049 A 
ATOM     30  N   UNL     1      -1.664  -4.992   3.710  1.00  0.00    -0.248 NA
ATOM     31  C   UNL     1       0.572  -5.132   3.193  1.00  0.00     0.031 C 
ATOM     32  C   UNL     1      -3.278  -5.591   0.118  1.00  0.00     0.029 A 
ATOM     33  N   UNL     1      -1.796  -7.125   0.828  1.00  0.00    -0.354 N 
ATOM     34  C   UNL     1      -0.973  -4.944   4.900  1.00  0.00     0.074 A 
ATOM     35  C   UNL     1       0.420  -5.076   4.532  1.00  0.00     0.031 C 
ATOM     36  C   UNL     1      -3.851  -6.802  -0.022  1.00  0.00     0.029 A 
ATOM     37  C   UNL     1      -2.915  -7.838   0.403  1.00  0.00     0.049 A 
ATOM     38  H   UNL     1      -0.965  -7.553   1.137  1.00  0.00     0.167 HD
ATOM     39  C   UNL     1      -1.650  -4.793   6.073  1.00  0.00     0.034 A 
ATOM     40  C   UNL     1      -3.294  -9.070   0.839  1.00  0.00     0.034 A 
ATOM     41  C   UNL     1      -3.099  -4.756   5.982  1.00  0.00     0.049 A 
ATOM     42  C   UNL     1      -3.875  -8.776   2.201  1.00  0.00     0.074 A 
ATOM     43  C   UNL     1      -4.179  -4.101   6.540  1.00  0.00     0.029 A 
ATOM     44  N   UNL     1      -3.642  -5.606   5.064  1.00  0.00    -0.354 N 
ATOM     45  N   UNL     1      -5.037  -8.227   2.446  1.00  0.00    -0.248 NA
ATOM     46  C   UNL     1      -2.997  -8.886   3.377  1.00  0.00     0.031 C 
ATOM     47  C   UNL     1      -5.372  -4.668   5.962  1.00  0.00     0.029 A 
ATOM     48  C   UNL     1      -4.998  -5.693   5.108  1.00  0.00     0.049 A 
ATOM     49  H   UNL     1      -3.096  -6.116   4.423  1.00  0.00     0.167 HD
ATOM     50  C   UNL     1      -4.923  -7.702   3.726  1.00  0.00     0.074 A 
ATOM     51  C   UNL     1      -3.732  -8.289   4.308  1.00  0.00     0.031 C 
ATOM     52  C   UNL     1      -5.607  -6.604   4.165  1.00  0.00     0.034 A 
BRANCH  39  53
ATOM     53  C   UNL     1      -1.020  -4.908   7.406  1.00  0.00     0.023 A 
ATOM     54  C   UNL     1      -1.218  -6.108   8.110  1.00  0.00     0.031 A 
ATOM     55  C   UNL     1      -0.391  -3.846   8.062  1.00  0.00     0.131 A 
ATOM     56  C   UNL     1      -0.810  -6.221   9.443  1.00  0.00     0.055 A 
ATOM     57  C   UNL     1       0.017  -3.962   9.397  1.00  0.00     0.041 A 
ATOM     58  F   UNL     1      -0.203  -2.672   7.439  1.00  0.00    -0.206 F 
ATOM     59  C   UNL     1      -0.198  -5.151  10.096  1.00  0.00     0.022 A 
BRANCH  56  60
ATOM     60  S   UNL     1      -1.128  -7.779  10.314  1.00  0.00     0.124 S 
ATOM     61  O   UNL     1      -2.580  -7.888  10.232  1.00  0.00    -0.237 OA
ATOM     62  O   UNL     1      -0.364  -8.729   9.512  1.00  0.00    -0.237 OA
ATOM     63  O   UNL     1      -0.598  -7.531  11.653  1.00  0.00    -0.744 OA
ENDBRANCH  56  60
ENDBRANCH  39  53
BRANCH  40  64
ATOM     64  C   UNL     1      -2.402 -10.242   0.555  1.00  0.00     0.023 A 
ATOM     65  C   UNL     1      -1.830 -10.367  -0.731  1.00  0.00     0.031 A 
ATOM     66  C   UNL     1      -2.147 -11.297   1.449  1.00  0.00     0.131 A 
ATOM     67  C   UNL     1      -0.966 -11.434  -1.041  1.00  0.00     0.055 A 
ATOM     68  C   UNL     1      -1.244 -12.327   1.160  1.00  0.00     0.041 A 
ATOM     69  F   UNL     1      -2.771 -11.378   2.631  1.00  0.00    -0.206 F 
ATOM     70  C   UNL     1      -0.632 -12.389  -0.084  1.00  0.00     0.022 A 
BRANCH  67  71
ATOM     71  S   UNL     1      -0.248 -11.548  -2.705  1.00  0.00     0.124 S 
ATOM     72  O   UNL     1      -1.360 -12.089  -3.479  1.00  0.00    -0.237 OA
ATOM     73  O   UNL     1       0.117 -10.164  -2.990  1.00  0.00    -0.237 OA
ATOM     74  O   UNL     1       0.884 -12.455  -2.522  1.00  0.00    -0.744 OA
ENDBRANCH  67  71
ENDBRANCH  40  64
BRANCH  52  75
ATOM     75  C   UNL     1      -6.903  -6.312   3.510  1.00  0.00     0.023 A 
ATOM     76  C   UNL     1      -7.921  -7.277   3.584  1.00  0.00     0.031 A 
ATOM     77  C   UNL     1      -7.182  -5.091   2.884  1.00  0.00     0.131 A 
ATOM     78  C   UNL     1      -9.184  -7.008   3.051  1.00  0.00     0.055 A 
ATOM     79  C   UNL     1      -8.447  -4.821   2.356  1.00  0.00     0.041 A 
ATOM     80  F   UNL     1      -6.243  -4.136   2.778  1.00  0.00    -0.206 F 
ATOM     81  C   UNL     1      -9.457  -5.779   2.445  1.00  0.00     0.022 A 
BRANCH  78  82
ATOM     82  S   UNL     1     -10.480  -8.259   3.226  1.00  0.00     0.124 S 
ATOM     83  O   UNL     1     -10.049  -9.296   2.295  1.00  0.00    -0.237 OA
ATOM     84  O   UNL     1     -10.405  -8.602   4.644  1.00  0.00    -0.237 OA
ATOM     85  O   UNL     1     -11.695  -7.544   2.836  1.00  0.00    -0.744 OA
ENDBRANCH  78  82
ENDBRANCH  52  75
ENDBRANCH  26  27
ENDBRANCH  19  21
ENDBRANCH   1  19
TORSDOF 14
