REMARK SMILES CC1(C)[C@H](C(=O)OCCOC(=O)c2ccc(-c3c4nc(c(-c5cc(S(=O)(=O)[O-])ccc5F)c5ccc([nH]5)c(-c5cc(S(=O)(=O)[O-])ccc5F)c5nc(c(-c6cc(S(=O)(=O)[O-])ccc6F)c6ccc3[nH]6)C=C5)C=C4)cc2)[C@@H]1C(=O)Nc1ccc(Cl)c(Br)c1
REMARK SMILES IDX 9 1 8 2 7 3 5 4 6 5 4 6 1 7 2 8 3 9 76 10 77 11 78 12 79 13
REMARK SMILES IDX 80 15 81 16 87 17 82 18 85 19 83 20 86 21 84 22 10 23 11 24
REMARK SMILES IDX 12 25 13 26 14 27 75 28 15 29 74 30 16 31 17 32 18 33 68 34
REMARK SMILES IDX 19 35 73 36 67 37 69 38 20 39 72 40 66 41 65 42 21 44 53 45
REMARK SMILES IDX 33 46 52 47 34 48 37 49 51 50 70 51 35 52 36 53 50 55 71 56
REMARK SMILES IDX 38 57 22 58 23 59 31 60 24 61 30 62 32 63 29 64 25 65 26 66
REMARK SMILES IDX 27 67 28 68 54 69 55 70 63 71 56 72 62 73 64 74 61 75 57 76
REMARK SMILES IDX 58 77 59 78 60 79 39 80 40 81 48 82 41 83 47 84 49 85 46 86
REMARK SMILES IDX 42 87 43 88 44 89 45 90
REMARK H PARENT 79 14 69 43 37 54
REMARK Flexibility Score: inf
ROOT
ATOM      1  C   UNL     1      -0.978   2.891  -4.026  1.00  0.00     0.275 C 
ENDROOT
BRANCH   1   2
ATOM      2  C   UNL     1      -1.577   3.132  -2.631  1.00  0.00     0.274 C 
BRANCH   2   3
ATOM      3  O   UNL     1      -1.013   2.289  -1.608  1.00  0.00    -0.462 OA
BRANCH   3   4
ATOM      4  C   UNL     1      -1.642   1.091  -1.468  1.00  0.00     0.310 C 
ATOM      5  O   UNL     1      -2.594   0.738  -2.137  1.00  0.00    -0.252 OA
BRANCH   4   6
ATOM      6  C   UNL     1      -1.064   0.154  -0.472  1.00  0.00     0.118 C 
ATOM      7  C   UNL     1       1.082  -0.880   0.408  1.00  0.00     0.013 C 
ATOM      8  C   UNL     1       0.181   0.337   0.360  1.00  0.00    -0.009 C 
ATOM      9  C   UNL     1       0.957   1.629   0.330  1.00  0.00     0.013 C 
ATOM     10  C   UNL     1      -1.208   0.270   1.025  1.00  0.00     0.100 C 
BRANCH  10  11
ATOM     11  C   UNL     1      -1.781   1.439   1.735  1.00  0.00     0.228 C 
ATOM     12  O   UNL     1      -1.137   1.969   2.637  1.00  0.00    -0.274 OA
ATOM     13  N   UNL     1      -3.003   1.964   1.391  1.00  0.00    -0.326 N 
ATOM     14  H   UNL     1      -3.216   2.817   1.834  1.00  0.00     0.169 HD
BRANCH  13  15
ATOM     15  C   UNL     1      -4.001   1.503   0.520  1.00  0.00     0.042 A 
ATOM     16  C   UNL     1      -4.744   2.480  -0.150  1.00  0.00     0.028 A 
ATOM     17  C   UNL     1      -4.243   0.153   0.252  1.00  0.00     0.043 A 
ATOM     18  C   UNL     1      -5.621   2.119  -1.175  1.00  0.00     0.024 A 
ATOM     19  C   UNL     1      -5.131  -0.212  -0.774  1.00  0.00     0.038 A 
ATOM     20  C   UNL     1      -5.800   0.774  -1.507  1.00  0.00     0.055 A 
ATOM     21  Br  UNL     1      -5.307  -2.065  -1.158  1.00  0.00    -0.049 Br
ATOM     22  Cl  UNL     1      -6.836   0.418  -2.842  1.00  0.00    -0.083 Cl
ENDBRANCH  13  15
ENDBRANCH  10  11
ENDBRANCH   4   6
ENDBRANCH   3   4
ENDBRANCH   2   3
ENDBRANCH   1   2
BRANCH   1  23
ATOM     23  O   UNL     1      -1.342   1.617  -4.595  1.00  0.00    -0.458 OA
BRANCH  23  24
ATOM     24  C   UNL     1      -0.492   0.602  -4.301  1.00  0.00     0.338 C 
ATOM     25  O   UNL     1       0.535   0.686  -3.646  1.00  0.00    -0.246 OA
BRANCH  24  26
ATOM     26  C   UNL     1      -1.044  -0.692  -4.744  1.00  0.00     0.060 A 
ATOM     27  C   UNL     1      -1.216  -1.685  -3.774  1.00  0.00     0.016 A 
ATOM     28  C   UNL     1      -1.273  -0.980  -6.088  1.00  0.00     0.016 A 
ATOM     29  C   UNL     1      -1.606  -2.970  -4.128  1.00  0.00     0.010 A 
ATOM     30  C   UNL     1      -1.643  -2.282  -6.451  1.00  0.00     0.010 A 
ATOM     31  C   UNL     1      -1.788  -3.286  -5.474  1.00  0.00    -0.014 A 
BRANCH  31  32
ATOM     32  C   UNL     1      -1.971  -4.703  -5.865  1.00  0.00     0.031 A 
ATOM     33  C   UNL     1      -0.799  -5.446  -6.439  1.00  0.00     0.074 A 
ATOM     34  C   UNL     1      -3.145  -5.327  -5.664  1.00  0.00     0.049 A 
ATOM     35  N   UNL     1      -0.755  -6.621  -7.007  1.00  0.00    -0.248 NA
ATOM     36  C   UNL     1       0.502  -4.763  -6.359  1.00  0.00     0.031 C 
ATOM     37  C   UNL     1      -4.311  -4.740  -5.004  1.00  0.00     0.029 A 
ATOM     38  N   UNL     1      -3.551  -6.593  -6.003  1.00  0.00    -0.354 N 
ATOM     39  C   UNL     1       0.571  -6.808  -7.385  1.00  0.00     0.074 A 
ATOM     40  C   UNL     1       1.295  -5.619  -6.987  1.00  0.00     0.031 C 
ATOM     41  C   UNL     1      -5.310  -5.639  -5.007  1.00  0.00     0.029 A 
ATOM     42  C   UNL     1      -4.876  -6.834  -5.726  1.00  0.00     0.049 A 
ATOM     43  H   UNL     1      -2.952  -7.263  -6.406  1.00  0.00     0.167 HD
ATOM     44  C   UNL     1       1.124  -7.873  -8.016  1.00  0.00     0.034 A 
ATOM     45  C   UNL     1      -5.660  -7.877  -6.067  1.00  0.00     0.034 A 
ATOM     46  C   UNL     1       0.373  -9.044  -8.400  1.00  0.00     0.049 A 
ATOM     47  C   UNL     1      -5.052  -9.007  -6.863  1.00  0.00     0.074 A 
ATOM     48  C   UNL     1       0.812 -10.172  -9.070  1.00  0.00     0.029 A 
ATOM     49  N   UNL     1      -0.980  -9.235  -8.145  1.00  0.00    -0.354 N 
ATOM     50  N   UNL     1      -3.817  -9.147  -7.289  1.00  0.00    -0.248 NA
ATOM     51  C   UNL     1      -5.943 -10.115  -7.230  1.00  0.00     0.031 C 
ATOM     52  C   UNL     1      -0.287 -11.015  -9.274  1.00  0.00     0.029 A 
ATOM     53  C   UNL     1      -1.396 -10.450  -8.664  1.00  0.00     0.049 A 
ATOM     54  H   UNL     1      -1.558  -8.599  -7.665  1.00  0.00     0.167 HD
ATOM     55  C   UNL     1      -3.776 -10.374  -7.945  1.00  0.00     0.074 A 
ATOM     56  C   UNL     1      -5.110 -10.935  -7.856  1.00  0.00     0.031 C 
ATOM     57  C   UNL     1      -2.732 -10.988  -8.559  1.00  0.00     0.034 A 
BRANCH  44  58
ATOM     58  C   UNL     1       2.580  -7.771  -8.399  1.00  0.00     0.023 A 
ATOM     59  C   UNL     1       3.602  -7.688  -7.437  1.00  0.00     0.031 A 
ATOM     60  C   UNL     1       2.947  -7.704  -9.755  1.00  0.00     0.131 A 
ATOM     61  C   UNL     1       4.928  -7.470  -7.842  1.00  0.00     0.055 A 
ATOM     62  C   UNL     1       4.277  -7.566 -10.154  1.00  0.00     0.041 A 
ATOM     63  F   UNL     1       2.013  -7.750 -10.718  1.00  0.00    -0.206 F 
ATOM     64  C   UNL     1       5.276  -7.433  -9.195  1.00  0.00     0.022 A 
BRANCH  61  65
ATOM     65  S   UNL     1       6.173  -7.090  -6.578  1.00  0.00     0.124 S 
ATOM     66  O   UNL     1       5.612  -5.891  -5.961  1.00  0.00    -0.237 OA
ATOM     67  O   UNL     1       6.168  -8.295  -5.757  1.00  0.00    -0.237 OA
ATOM     68  O   UNL     1       7.393  -6.869  -7.353  1.00  0.00    -0.744 OA
ENDBRANCH  61  65
ENDBRANCH  44  58
BRANCH  45  69
ATOM     69  C   UNL     1      -7.113  -7.871  -5.732  1.00  0.00     0.023 A 
ATOM     70  C   UNL     1      -7.670  -8.838  -4.881  1.00  0.00     0.031 A 
ATOM     71  C   UNL     1      -7.978  -6.917  -6.299  1.00  0.00     0.131 A 
ATOM     72  C   UNL     1      -9.055  -8.852  -4.650  1.00  0.00     0.055 A 
ATOM     73  C   UNL     1      -9.345  -6.902  -6.024  1.00  0.00     0.041 A 
ATOM     74  F   UNL     1      -7.500  -5.973  -7.126  1.00  0.00    -0.206 F 
ATOM     75  C   UNL     1      -9.894  -7.882  -5.204  1.00  0.00     0.022 A 
BRANCH  72  76
ATOM     76  S   UNL     1      -9.762 -10.212  -3.679  1.00  0.00     0.124 S 
ATOM     77  O   UNL     1      -9.342 -11.377  -4.450  1.00  0.00    -0.237 OA
ATOM     78  O   UNL     1      -9.112 -10.030  -2.385  1.00  0.00    -0.237 OA
ATOM     79  O   UNL     1     -11.196  -9.934  -3.698  1.00  0.00    -0.744 OA
ENDBRANCH  72  76
ENDBRANCH  45  69
BRANCH  57  80
ATOM     80  C   UNL     1      -2.979 -12.367  -9.116  1.00  0.00     0.023 A 
ATOM     81  C   UNL     1      -3.787 -12.580 -10.246  1.00  0.00     0.031 A 
ATOM     82  C   UNL     1      -2.381 -13.484  -8.505  1.00  0.00     0.131 A 
ATOM     83  C   UNL     1      -4.009 -13.887 -10.705  1.00  0.00     0.055 A 
ATOM     84  C   UNL     1      -2.564 -14.776  -8.998  1.00  0.00     0.041 A 
ATOM     85  F   UNL     1      -1.600 -13.333  -7.423  1.00  0.00    -0.206 F 
ATOM     86  C   UNL     1      -3.390 -14.984 -10.098  1.00  0.00     0.022 A 
BRANCH  83  87
ATOM     87  S   UNL     1      -5.173 -14.147 -12.072  1.00  0.00     0.124 S 
ATOM     88  O   UNL     1      -6.415 -13.615 -11.519  1.00  0.00    -0.237 OA
ATOM     89  O   UNL     1      -4.570 -13.369 -13.149  1.00  0.00    -0.237 OA
ATOM     90  O   UNL     1      -5.153 -15.595 -12.270  1.00  0.00    -0.744 OA
ENDBRANCH  83  87
ENDBRANCH  57  80
ENDBRANCH  31  32
ENDBRANCH  24  26
ENDBRANCH  23  24
ENDBRANCH   1  23
TORSDOF 16
