REMARK SMILES COc1ccccc1C(=O)N/C(=C/c1ccc2c(c1)OCO2)C(=O)Nc1ccc(C(=O)OCCOC(=O)c2ccc(-c3c4nc(c(-c5cc(S(=O)(=O)[O-])ccc5F)c5ccc([nH]5)c(-c5cc(S(=O)(=O)[O-])ccc5F)c5nc(c(-c6cc(S(=O)(=O)[O-])ccc6F)c6ccc3[nH]6)C=C5)C=C4)cc2)cc1
REMARK SMILES IDX 33 1 32 2 30 3 31 4 29 5 26 6 27 7 102 8 28 9 101 10 25 11
REMARK SMILES IDX 23 12 24 13 12 15 13 16 11 17 9 18 10 19 8 21 3 22 4 23 5 24
REMARK SMILES IDX 7 25 6 26 2 27 1 28 14 29 15 30 19 31 16 32 18 33 17 34
REMARK SMILES IDX 20 35 22 36 21 37 34 38 35 39 36 40 37 41 38 42 39 43 100 44
REMARK SMILES IDX 40 45 99 46 41 47 42 48 43 49 93 50 44 51 98 52 92 53 94 54
REMARK SMILES IDX 45 55 97 56 91 57 90 58 46 60 78 61 58 62 77 63 59 64 62 65
REMARK SMILES IDX 76 66 95 67 60 68 61 69 75 71 96 72 63 73 47 74 48 75 56 76
REMARK SMILES IDX 49 77 55 78 57 79 54 80 50 81 51 82 52 83 53 84 79 85 80 86
REMARK SMILES IDX 88 87 81 88 87 89 89 90 86 91 82 92 83 93 84 94 85 95 64 96
REMARK SMILES IDX 65 97 73 98 66 99 72 100 74 101 71 102 67 103 68 104 69 105
REMARK SMILES IDX 70 106
REMARK H PARENT 25 14 11 20 94 59 62 70
REMARK Flexibility Score: inf
ROOT
ATOM      1  C   UNL     1      -3.902  -5.955   3.100  1.00  0.00     0.275 C 
ENDROOT
BRANCH   1   2
ATOM      2  O   UNL     1      -3.694  -4.715   2.412  1.00  0.00    -0.458 OA
BRANCH   2   3
ATOM      3  C   UNL     1      -3.543  -4.846   1.077  1.00  0.00     0.338 C 
ATOM      4  O   UNL     1      -3.293  -5.878   0.475  1.00  0.00    -0.246 OA
BRANCH   3   5
ATOM      5  C   UNL     1      -3.667  -3.529   0.411  1.00  0.00     0.060 A 
ATOM      6  C   UNL     1      -1.787  -0.585  -0.664  1.00  0.00     0.041 A 
ATOM      7  C   UNL     1      -2.039  -1.807  -1.788  1.00  0.00     0.027 A 
ATOM      8  C   UNL     1      -2.538  -0.724   0.844  1.00  0.00     0.027 A 
ATOM      9  C   UNL     1      -3.093  -3.494  -1.251  1.00  0.00     0.018 A 
ATOM     10  C   UNL     1      -3.434  -2.119   1.364  1.00  0.00     0.018 A 
BRANCH   6  11
ATOM     11  N   UNL     1      -0.607   0.177  -0.816  1.00  0.00    -0.321 N 
ATOM     12  C   UNL     1       0.400  -0.109  -1.734  1.00  0.00     0.272 C 
ATOM     13  O   UNL     1       0.350   0.278  -2.902  1.00  0.00    -0.267 OA
ATOM     14  H   UNL     1      -0.489   0.963  -0.234  1.00  0.00     0.170 HD
BRANCH  12  15
ATOM     15  C   UNL     1       1.721  -0.702  -1.206  1.00  0.00     0.108 C 
ATOM     16  C   UNL     1       1.957  -2.034  -1.049  1.00  0.00     0.040 C 
BRANCH  15  17
ATOM     17  N   UNL     1       2.817   0.096  -0.904  1.00  0.00    -0.317 N 
ATOM     18  C   UNL     1       3.151   1.424  -0.907  1.00  0.00     0.259 C 
ATOM     19  O   UNL     1       4.298   1.715  -0.552  1.00  0.00    -0.269 OA
ATOM     20  H   UNL     1       3.575  -0.454  -0.599  1.00  0.00     0.170 HD
BRANCH  18  21
ATOM     21  C   UNL     1       2.280   2.511  -1.365  1.00  0.00     0.082 A 
ATOM     22  C   UNL     1       1.003   2.807  -0.896  1.00  0.00     0.131 A 
ATOM     23  C   UNL     1       0.207   3.674  -1.663  1.00  0.00     0.047 A 
ATOM     24  C   UNL     1       0.735   4.382  -2.743  1.00  0.00     0.004 A 
ATOM     25  C   UNL     1       2.847   3.314  -2.375  1.00  0.00     0.018 A 
ATOM     26  C   UNL     1       2.082   4.261  -3.049  1.00  0.00     0.001 A 
BRANCH  22  27
ATOM     27  O   UNL     1       0.350   2.357   0.217  1.00  0.00    -0.496 OA
ATOM     28  C   UNL     1       1.056   1.732   1.282  1.00  0.00     0.278 C 
ENDBRANCH  22  27
ENDBRANCH  18  21
ENDBRANCH  15  17
BRANCH  16  29
ATOM     29  C   UNL     1       0.919  -3.071  -0.933  1.00  0.00    -0.019 A 
ATOM     30  C   UNL     1       0.463  -3.030   0.486  1.00  0.00     0.012 A 
ATOM     31  C   UNL     1       0.230  -3.519  -2.101  1.00  0.00     0.058 A 
ATOM     32  C   UNL     1      -0.850  -2.819   0.862  1.00  0.00     0.051 A 
ATOM     33  C   UNL     1      -1.092  -3.604  -1.815  1.00  0.00     0.166 A 
ATOM     34  C   UNL     1      -1.627  -2.880  -0.268  1.00  0.00     0.165 A 
ATOM     35  O   UNL     1      -2.296  -3.283  -3.136  1.00  0.00    -0.454 OA
ATOM     36  O   UNL     1      -3.345  -1.898  -0.676  1.00  0.00    -0.454 OA
ATOM     37  C   UNL     1      -3.753  -2.217  -2.551  1.00  0.00     0.468 C 
ENDBRANCH  16  29
ENDBRANCH  12  15
ENDBRANCH   6  11
ENDBRANCH   3   5
ENDBRANCH   2   3
ENDBRANCH   1   2
BRANCH   1  38
ATOM     38  C   UNL     1      -5.404  -6.128   3.317  1.00  0.00     0.275 C 
BRANCH  38  39
ATOM     39  O   UNL     1      -6.090  -6.159   2.045  1.00  0.00    -0.458 OA
BRANCH  39  40
ATOM     40  C   UNL     1      -6.709  -5.004   1.693  1.00  0.00     0.338 C 
ATOM     41  O   UNL     1      -6.832  -4.004   2.382  1.00  0.00    -0.246 OA
BRANCH  40  42
ATOM     42  C   UNL     1      -7.156  -5.043   0.286  1.00  0.00     0.060 A 
ATOM     43  C   UNL     1      -6.215  -5.163  -0.725  1.00  0.00     0.016 A 
ATOM     44  C   UNL     1      -8.466  -4.728  -0.051  1.00  0.00     0.016 A 
ATOM     45  C   UNL     1      -6.517  -4.774  -2.020  1.00  0.00     0.010 A 
ATOM     46  C   UNL     1      -8.809  -4.542  -1.400  1.00  0.00     0.010 A 
ATOM     47  C   UNL     1      -7.825  -4.502  -2.407  1.00  0.00    -0.014 A 
BRANCH  47  48
ATOM     48  C   UNL     1      -8.140  -4.161  -3.831  1.00  0.00     0.031 A 
ATOM     49  C   UNL     1      -9.063  -3.006  -4.139  1.00  0.00     0.074 A 
ATOM     50  C   UNL     1      -7.602  -4.854  -4.862  1.00  0.00     0.049 A 
ATOM     51  N   UNL     1      -9.717  -2.738  -5.239  1.00  0.00    -0.248 NA
ATOM     52  C   UNL     1      -9.302  -2.044  -3.052  1.00  0.00     0.031 C 
ATOM     53  C   UNL     1      -6.604  -5.925  -4.758  1.00  0.00     0.029 A 
ATOM     54  N   UNL     1      -7.818  -4.760  -6.218  1.00  0.00    -0.354 N 
ATOM     55  C   UNL     1     -10.508  -1.629  -4.951  1.00  0.00     0.074 A 
ATOM     56  C   UNL     1     -10.262  -1.291  -3.565  1.00  0.00     0.031 C 
ATOM     57  C   UNL     1      -6.249  -6.332  -5.982  1.00  0.00     0.029 A 
ATOM     58  C   UNL     1      -7.123  -5.697  -6.951  1.00  0.00     0.049 A 
ATOM     59  H   UNL     1      -8.413  -4.089  -6.624  1.00  0.00     0.167 HD
ATOM     60  C   UNL     1     -11.362  -0.965  -5.771  1.00  0.00     0.034 A 
ATOM     61  C   UNL     1      -7.232  -6.087  -8.235  1.00  0.00     0.034 A 
ATOM     62  C   UNL     1     -11.555  -1.302  -7.161  1.00  0.00     0.049 A 
ATOM     63  C   UNL     1      -8.283  -5.436  -9.091  1.00  0.00     0.074 A 
ATOM     64  C   UNL     1     -12.399  -0.709  -8.084  1.00  0.00     0.029 A 
ATOM     65  N   UNL     1     -10.889  -2.320  -7.833  1.00  0.00    -0.354 N 
ATOM     66  N   UNL     1      -9.111  -4.466  -8.782  1.00  0.00    -0.248 NA
ATOM     67  C   UNL     1      -8.426  -5.944 -10.459  1.00  0.00     0.031 C 
ATOM     68  C   UNL     1     -12.311  -1.424  -9.281  1.00  0.00     0.029 A 
ATOM     69  C   UNL     1     -11.332  -2.395  -9.144  1.00  0.00     0.049 A 
ATOM     70  H   UNL     1     -10.202  -2.903  -7.435  1.00  0.00     0.167 HD
ATOM     71  C   UNL     1      -9.848  -4.221  -9.936  1.00  0.00     0.074 A 
ATOM     72  C   UNL     1      -9.356  -5.137 -10.945  1.00  0.00     0.031 C 
ATOM     73  C   UNL     1     -10.836  -3.314 -10.142  1.00  0.00     0.034 A 
BRANCH  60  74
ATOM     74  C   UNL     1     -12.203   0.134  -5.162  1.00  0.00     0.023 A 
ATOM     75  C   UNL     1     -11.633   1.278  -4.579  1.00  0.00     0.031 A 
ATOM     76  C   UNL     1     -13.605   0.008  -5.117  1.00  0.00     0.131 A 
ATOM     77  C   UNL     1     -12.446   2.194  -3.893  1.00  0.00     0.055 A 
ATOM     78  C   UNL     1     -14.418   0.977  -4.526  1.00  0.00     0.041 A 
ATOM     79  F   UNL     1     -14.211  -1.073  -5.633  1.00  0.00    -0.206 F 
ATOM     80  C   UNL     1     -13.837   2.069  -3.889  1.00  0.00     0.022 A 
BRANCH  77  81
ATOM     81  S   UNL     1     -11.645   3.437  -2.843  1.00  0.00     0.124 S 
ATOM     82  O   UNL     1     -10.857   2.597  -1.944  1.00  0.00    -0.237 OA
ATOM     83  O   UNL     1     -10.888   4.225  -3.808  1.00  0.00    -0.237 OA
ATOM     84  O   UNL     1     -12.767   4.129  -2.213  1.00  0.00    -0.744 OA
ENDBRANCH  77  81
ENDBRANCH  60  74
BRANCH  61  85
ATOM     85  C   UNL     1      -6.396  -7.205  -8.766  1.00  0.00     0.023 A 
ATOM     86  C   UNL     1      -5.529  -6.996  -9.848  1.00  0.00     0.031 A 
ATOM     87  C   UNL     1      -6.480  -8.508  -8.236  1.00  0.00     0.131 A 
ATOM     88  C   UNL     1      -4.819  -8.076 -10.395  1.00  0.00     0.055 A 
ATOM     89  C   UNL     1      -5.712  -9.561  -8.732  1.00  0.00     0.041 A 
ATOM     90  F   UNL     1      -7.303  -8.774  -7.208  1.00  0.00    -0.206 F 
ATOM     91  C   UNL     1      -4.885  -9.351  -9.830  1.00  0.00     0.022 A 
BRANCH  88  92
ATOM     92  S   UNL     1      -3.901  -7.811 -11.935  1.00  0.00     0.124 S 
ATOM     93  O   UNL     1      -4.957  -7.348 -12.829  1.00  0.00    -0.237 OA
ATOM     94  O   UNL     1      -2.916  -6.813 -11.534  1.00  0.00    -0.237 OA
ATOM     95  O   UNL     1      -3.360  -9.133 -12.240  1.00  0.00    -0.744 OA
ENDBRANCH  88  92
ENDBRANCH  61  85
BRANCH  73  96
ATOM     96  C   UNL     1     -11.399  -3.221 -11.538  1.00  0.00     0.023 A 
ATOM     97  C   UNL     1     -12.102  -4.283 -12.131  1.00  0.00     0.031 A 
ATOM     98  C   UNL     1     -11.213  -2.048 -12.292  1.00  0.00     0.131 A 
ATOM     99  C   UNL     1     -12.538  -4.175 -13.459  1.00  0.00     0.055 A 
ATOM    100  C   UNL     1     -11.721  -1.916 -13.584  1.00  0.00     0.041 A 
ATOM    101  F   UNL     1     -10.537  -1.006 -11.781  1.00  0.00    -0.206 F 
ATOM    102  C   UNL     1     -12.375  -2.989 -14.180  1.00  0.00     0.022 A 
BRANCH  99 103
ATOM    103  S   UNL     1     -13.211  -5.648 -14.274  1.00  0.00     0.124 S 
ATOM    104  O   UNL     1     -12.107  -6.594 -14.148  1.00  0.00    -0.237 OA
ATOM    105  O   UNL     1     -14.394  -5.937 -13.470  1.00  0.00    -0.237 OA
ATOM    106  O   UNL     1     -13.485  -5.191 -15.635  1.00  0.00    -0.744 OA
ENDBRANCH  99 103
ENDBRANCH  73  96
ENDBRANCH  47  48
ENDBRANCH  40  42
ENDBRANCH  39  40
ENDBRANCH  38  39
ENDBRANCH   1  38
TORSDOF 20
