REMARK SMILES CCc1nc2sc(C(=O)NCC(=O)OCCOC(=O)c3ccc(-c4c5nc(c(-c6cc(S(=O)(=O)[O-])ccc6F)c6ccc([nH]6)c(-c6cc(S(=O)(=O)[O-])ccc6F)c6nc(c(-c7cc(S(=O)(=O)[O-])ccc7F)c7ccc4[nH]7)C=C6)C=C5)cc3)c(N)c2c(C(F)(F)F)c1C
REMARK SMILES IDX 15 1 14 2 12 3 13 4 11 5 10 6 8 7 9 8 7 10 3 11 4 12 91 13
REMARK SMILES IDX 5 14 86 15 92 16 6 17 85 18 83 19 2 20 1 21 87 22 88 23
REMARK SMILES IDX 89 24 90 25 84 26 16 29 17 30 18 31 19 32 20 33 21 34 82 35
REMARK SMILES IDX 22 36 81 37 23 38 24 39 25 40 75 41 26 42 80 43 74 44 76 45
REMARK SMILES IDX 27 46 79 47 73 48 72 49 28 51 60 52 40 53 59 54 41 55 44 56
REMARK SMILES IDX 58 57 77 58 42 59 43 60 57 62 78 63 45 64 29 65 30 66 38 67
REMARK SMILES IDX 31 68 37 69 39 70 36 71 32 72 33 73 34 74 35 75 61 76 62 77
REMARK SMILES IDX 70 78 63 79 69 80 71 81 68 82 64 83 65 84 66 85 67 86 46 87
REMARK SMILES IDX 47 88 55 89 48 90 54 91 56 92 53 93 49 94 50 95 51 96 52 97
REMARK H PARENT 10 9 84 27 84 28 76 50 44 61
REMARK Flexibility Score: inf
ROOT
ATOM      1  C   UNL     1       5.158   7.844  -4.889  1.00  0.00     0.274 C 
ENDROOT
BRANCH   1   2
ATOM      2  O   UNL     1       4.277   6.913  -5.546  1.00  0.00    -0.461 OA
BRANCH   2   3
ATOM      3  C   UNL     1       3.030   7.374  -5.865  1.00  0.00     0.325 C 
ATOM      4  O   UNL     1       2.562   8.438  -5.469  1.00  0.00    -0.250 OA
BRANCH   3   5
ATOM      5  C   UNL     1       2.296   6.463  -6.859  1.00  0.00     0.239 C 
BRANCH   5   6
ATOM      6  N   UNL     1       2.901   5.175  -7.102  1.00  0.00    -0.340 N 
ATOM      7  C   UNL     1       2.851   4.002  -6.401  1.00  0.00     0.264 C 
ATOM      8  O   UNL     1       3.403   3.056  -6.976  1.00  0.00    -0.268 OA
ATOM      9  H   UNL     1       3.448   5.133  -7.919  1.00  0.00     0.164 HD
BRANCH   7  10
ATOM     10  C   UNL     1       2.229   3.858  -5.079  1.00  0.00     0.118 A 
ATOM     11  C   UNL     1       0.808   2.223  -0.881  1.00  0.00     0.045 A 
ATOM     12  N   UNL     1       1.347   1.773  -2.027  1.00  0.00    -0.242 NA
ATOM     13  C   UNL     1       0.469   3.569  -0.653  1.00  0.00    -0.017 A 
ATOM     14  C   UNL     1       1.566   2.691  -2.976  1.00  0.00     0.127 A 
ATOM     15  C   UNL     1       0.713   4.523  -1.679  1.00  0.00     0.073 A 
ATOM     16  C   UNL     1      -0.144   4.010   0.652  1.00  0.00     0.047 C 
ATOM     17  S   UNL     1       2.236   2.234  -4.458  1.00  0.00    -0.108 S 
ATOM     18  C   UNL     1       1.291   4.040  -2.892  1.00  0.00     0.048 A 
ATOM     19  C   UNL     1       1.653   4.689  -4.127  1.00  0.00     0.066 A 
BRANCH  11  20
ATOM     20  C   UNL     1       0.547   1.161   0.167  1.00  0.00     0.053 C 
ATOM     21  C   UNL     1       1.077  -0.228  -0.174  1.00  0.00     0.011 C 
ENDBRANCH  11  20
BRANCH  15  22
ATOM     22  C   UNL     1       0.375   5.993  -1.539  1.00  0.00     0.417 C 
ATOM     23  F   UNL     1       1.459   6.801  -1.747  1.00  0.00    -0.166 F 
ATOM     24  F   UNL     1      -0.571   6.400  -2.435  1.00  0.00    -0.166 F 
ATOM     25  F   UNL     1      -0.107   6.378  -0.325  1.00  0.00    -0.166 F 
ENDBRANCH  15  22
BRANCH  19  26
ATOM     26  N   UNL     1       1.432   6.011  -4.247  1.00  0.00    -0.397 N 
ATOM     27  H   UNL     1       1.671   6.476  -5.082  1.00  0.00     0.156 HD
ATOM     28  H   UNL     1       1.032   6.514  -3.501  1.00  0.00     0.156 HD
ENDBRANCH  19  26
ENDBRANCH   7  10
ENDBRANCH   5   6
ENDBRANCH   3   5
ENDBRANCH   2   3
ENDBRANCH   1   2
BRANCH   1  29
ATOM     29  C   UNL     1       5.951   8.679  -5.894  1.00  0.00     0.275 C 
BRANCH  29  30
ATOM     30  O   UNL     1       5.091   9.569  -6.604  1.00  0.00    -0.458 OA
BRANCH  30  31
ATOM     31  C   UNL     1       4.530   9.032  -7.699  1.00  0.00     0.338 C 
ATOM     32  O   UNL     1       4.650   7.861  -8.093  1.00  0.00    -0.246 OA
BRANCH  31  33
ATOM     33  C   UNL     1       3.758  10.018  -8.433  1.00  0.00     0.060 A 
ATOM     34  C   UNL     1       2.899   9.537  -9.428  1.00  0.00     0.016 A 
ATOM     35  C   UNL     1       4.174  11.353  -8.377  1.00  0.00     0.016 A 
ATOM     36  C   UNL     1       2.677  10.327 -10.525  1.00  0.00     0.010 A 
ATOM     37  C   UNL     1       3.963  12.137  -9.482  1.00  0.00     0.010 A 
ATOM     38  C   UNL     1       3.320  11.565 -10.577  1.00  0.00    -0.014 A 
BRANCH  38  39
ATOM     39  C   UNL     1       3.338  12.241 -11.851  1.00  0.00     0.031 A 
ATOM     40  C   UNL     1       2.054  12.863 -12.209  1.00  0.00     0.074 A 
ATOM     41  C   UNL     1       4.465  12.345 -12.578  1.00  0.00     0.049 A 
ATOM     42  N   UNL     1       1.254  12.538 -13.167  1.00  0.00    -0.248 NA
ATOM     43  C   UNL     1       1.516  13.868 -11.280  1.00  0.00     0.031 C 
ATOM     44  C   UNL     1       5.836  11.997 -12.193  1.00  0.00     0.029 A 
ATOM     45  N   UNL     1       4.624  12.915 -13.798  1.00  0.00    -0.354 N 
ATOM     46  C   UNL     1       0.219  13.459 -13.104  1.00  0.00     0.074 A 
ATOM     47  C   UNL     1       0.324  14.106 -11.823  1.00  0.00     0.031 C 
ATOM     48  C   UNL     1       6.697  12.590 -13.052  1.00  0.00     0.029 A 
ATOM     49  C   UNL     1       5.938  13.239 -14.109  1.00  0.00     0.049 A 
ATOM     50  H   UNL     1       3.873  13.084 -14.411  1.00  0.00     0.167 HD
ATOM     51  C   UNL     1      -0.483  13.807 -14.214  1.00  0.00     0.034 A 
ATOM     52  C   UNL     1       6.336  14.067 -15.109  1.00  0.00     0.034 A 
ATOM     53  C   UNL     1      -0.353  12.823 -15.261  1.00  0.00     0.049 A 
ATOM     54  C   UNL     1       5.222  14.114 -16.094  1.00  0.00     0.074 A 
ATOM     55  C   UNL     1      -0.612  11.467 -15.344  1.00  0.00     0.029 A 
ATOM     56  N   UNL     1       0.479  13.099 -16.322  1.00  0.00    -0.354 N 
ATOM     57  N   UNL     1       4.832  13.082 -16.790  1.00  0.00    -0.248 NA
ATOM     58  C   UNL     1       4.235  15.177 -15.957  1.00  0.00     0.031 C 
ATOM     59  C   UNL     1       0.466  10.931 -16.110  1.00  0.00     0.029 A 
ATOM     60  C   UNL     1       1.280  11.995 -16.501  1.00  0.00     0.049 A 
ATOM     61  H   UNL     1       0.498  13.928 -16.852  1.00  0.00     0.167 HD
ATOM     62  C   UNL     1       3.448  13.167 -16.815  1.00  0.00     0.074 A 
ATOM     63  C   UNL     1       3.143  14.524 -16.368  1.00  0.00     0.031 C 
ATOM     64  C   UNL     1       2.667  12.051 -16.921  1.00  0.00     0.034 A 
BRANCH  51  65
ATOM     65  C   UNL     1      -0.994  15.204 -14.451  1.00  0.00     0.023 A 
ATOM     66  C   UNL     1      -1.853  15.415 -15.541  1.00  0.00     0.031 A 
ATOM     67  C   UNL     1      -0.475  16.368 -13.833  1.00  0.00     0.131 A 
ATOM     68  C   UNL     1      -2.121  16.717 -15.998  1.00  0.00     0.055 A 
ATOM     69  C   UNL     1      -0.802  17.659 -14.245  1.00  0.00     0.041 A 
ATOM     70  F   UNL     1       0.452  16.321 -12.867  1.00  0.00    -0.206 F 
ATOM     71  C   UNL     1      -1.610  17.840 -15.351  1.00  0.00     0.022 A 
BRANCH  68  72
ATOM     72  S   UNL     1      -3.019  16.912 -17.556  1.00  0.00     0.124 S 
ATOM     73  O   UNL     1      -2.223  16.093 -18.464  1.00  0.00    -0.237 OA
ATOM     74  O   UNL     1      -4.337  16.392 -17.208  1.00  0.00    -0.237 OA
ATOM     75  O   UNL     1      -2.962  18.351 -17.802  1.00  0.00    -0.744 OA
ENDBRANCH  68  72
ENDBRANCH  51  65
BRANCH  52  76
ATOM     76  C   UNL     1       7.425  15.082 -15.065  1.00  0.00     0.023 A 
ATOM     77  C   UNL     1       7.885  15.717 -16.236  1.00  0.00     0.031 A 
ATOM     78  C   UNL     1       7.847  15.638 -13.836  1.00  0.00     0.131 A 
ATOM     79  C   UNL     1       8.713  16.858 -16.152  1.00  0.00     0.055 A 
ATOM     80  C   UNL     1       8.674  16.761 -13.758  1.00  0.00     0.041 A 
ATOM     81  F   UNL     1       7.395  15.171 -12.662  1.00  0.00    -0.206 F 
ATOM     82  C   UNL     1       9.100  17.386 -14.919  1.00  0.00     0.022 A 
BRANCH  79  83
ATOM     83  S   UNL     1       9.189  17.762 -17.659  1.00  0.00     0.124 S 
ATOM     84  O   UNL     1      10.287  16.948 -18.168  1.00  0.00    -0.237 OA
ATOM     85  O   UNL     1       7.958  17.751 -18.441  1.00  0.00    -0.237 OA
ATOM     86  O   UNL     1       9.578  19.079 -17.152  1.00  0.00    -0.744 OA
ENDBRANCH  79  83
ENDBRANCH  52  76
BRANCH  64  87
ATOM     87  C   UNL     1       3.330  10.738 -17.284  1.00  0.00     0.023 A 
ATOM     88  C   UNL     1       4.329  10.098 -16.514  1.00  0.00     0.031 A 
ATOM     89  C   UNL     1       2.826  10.049 -18.401  1.00  0.00     0.131 A 
ATOM     90  C   UNL     1       4.791   8.817 -16.883  1.00  0.00     0.055 A 
ATOM     91  C   UNL     1       3.274   8.777 -18.753  1.00  0.00     0.041 A 
ATOM     92  F   UNL     1       1.853  10.592 -19.151  1.00  0.00    -0.206 F 
ATOM     93  C   UNL     1       4.263   8.157 -17.997  1.00  0.00     0.022 A 
BRANCH  90  94
ATOM     94  S   UNL     1       6.084   7.979 -15.908  1.00  0.00     0.124 S 
ATOM     95  O   UNL     1       7.157   8.964 -15.851  1.00  0.00    -0.237 OA
ATOM     96  O   UNL     1       5.400   7.700 -14.648  1.00  0.00    -0.237 OA
ATOM     97  O   UNL     1       6.394   6.789 -16.704  1.00  0.00    -0.744 OA
ENDBRANCH  90  94
ENDBRANCH  64  87
ENDBRANCH  38  39
ENDBRANCH  31  33
ENDBRANCH  30  31
ENDBRANCH  29  30
ENDBRANCH   1  29
TORSDOF 19
