REMARK SMILES C=C(C)CN(CC)C(=O)C[N@H+]1CC[C@@H](C(=O)OCCOC(=O)c2ccc(-c3c4nc(c(-c5cc(S(=O)(=O)[O-])ccc5F)c5ccc([nH]5)c(-c5cc(S(=O)(=O)[O-])ccc5F)c5nc(c(-c6cc(S(=O)(=O)[O-])ccc6F)c6ccc3[nH]6)C=C5)C=C4)cc2)[C@@H]1C
REMARK SMILES IDX 18 1 17 2 15 3 16 4 14 5 11 6 12 7 86 8 13 10 87 11 10 12
REMARK SMILES IDX 8 13 9 14 5 15 4 16 2 17 1 18 3 19 6 20 7 21 19 22 20 23
REMARK SMILES IDX 21 24 22 25 23 26 24 27 85 28 25 29 84 30 26 31 27 32 28 33
REMARK SMILES IDX 78 34 29 35 83 36 77 37 79 38 30 39 82 40 76 41 75 42 31 44
REMARK SMILES IDX 63 45 43 46 62 47 44 48 47 49 61 50 80 51 45 52 46 53 60 55
REMARK SMILES IDX 81 56 48 57 32 58 33 59 41 60 34 61 40 62 42 63 39 64 35 65
REMARK SMILES IDX 36 66 37 67 38 68 64 69 65 70 73 71 66 72 72 73 74 74 71 75
REMARK SMILES IDX 67 76 68 77 69 78 70 79 49 80 50 81 58 82 51 83 57 84 59 85
REMARK SMILES IDX 56 86 52 87 53 88 54 89 55 90
REMARK H PARENT 11 9 79 43 47 54
REMARK Flexibility Score: inf
ROOT
ATOM      1  C   UNL     1      -0.600   6.330  -2.719  1.00  0.00     0.274 C 
ENDROOT
BRANCH   1   2
ATOM      2  O   UNL     1       0.511   5.415  -2.787  1.00  0.00    -0.462 OA
BRANCH   2   3
ATOM      3  C   UNL     1       1.735   5.935  -2.523  1.00  0.00     0.315 C 
ATOM      4  O   UNL     1       1.954   7.125  -2.320  1.00  0.00    -0.252 OA
BRANCH   3   5
ATOM      5  C   UNL     1       2.851   4.916  -2.575  1.00  0.00     0.162 C 
ATOM      6  N   UNL     1       3.098   2.623  -3.303  1.00  0.00    -0.324 N 
ATOM      7  C   UNL     1       4.059   3.478  -4.007  1.00  0.00     0.264 C 
ATOM      8  C   UNL     1       2.486   3.459  -2.236  1.00  0.00     0.195 C 
ATOM      9  H   UNL     1       3.563   1.809  -2.901  1.00  0.00     0.348 HD
ATOM     10  C   UNL     1       3.457   4.863  -3.967  1.00  0.00     0.083 C 
ATOM     11  C   UNL     1       3.094   3.014  -0.901  1.00  0.00     0.076 C 
BRANCH   6  12
ATOM     12  C   UNL     1       2.077   2.088  -4.225  1.00  0.00     0.364 C 
BRANCH  12  13
ATOM     13  C   UNL     1       1.184   1.003  -3.601  1.00  0.00     0.278 C 
ATOM     14  O   UNL     1      -0.041   1.094  -3.768  1.00  0.00    -0.268 OA
BRANCH  13  15
ATOM     15  N   UNL     1       1.749  -0.105  -2.970  1.00  0.00    -0.334 N 
BRANCH  15  16
ATOM     16  C   UNL     1       0.836  -1.091  -2.396  1.00  0.00     0.149 C 
BRANCH  16  17
ATOM     17  C   UNL     1       0.287  -0.620  -1.067  1.00  0.00    -0.061 C 
ATOM     18  C   UNL     1       1.055  -0.296  -0.011  1.00  0.00     0.009 C 
ATOM     19  C   UNL     1      -1.212  -0.538  -0.978  1.00  0.00     0.041 C 
ENDBRANCH  16  17
ENDBRANCH  15  16
BRANCH  15  20
ATOM     20  C   UNL     1       3.184  -0.369  -2.822  1.00  0.00     0.116 C 
ATOM     21  C   UNL     1       3.843  -0.819  -4.117  1.00  0.00     0.027 C 
ENDBRANCH  15  20
ENDBRANCH  13  15
ENDBRANCH  12  13
ENDBRANCH   6  12
ENDBRANCH   3   5
ENDBRANCH   2   3
ENDBRANCH   1   2
BRANCH   1  22
ATOM     22  C   UNL     1      -1.349   6.223  -1.387  1.00  0.00     0.275 C 
BRANCH  22  23
ATOM     23  O   UNL     1      -0.548   6.680  -0.281  1.00  0.00    -0.458 OA
BRANCH  23  24
ATOM     24  C   UNL     1       0.155   5.704   0.340  1.00  0.00     0.338 C 
ATOM     25  O   UNL     1       0.141   4.513   0.079  1.00  0.00    -0.246 OA
BRANCH  24  26
ATOM     26  C   UNL     1       1.090   6.286   1.313  1.00  0.00     0.060 A 
ATOM     27  C   UNL     1       2.454   6.145   1.058  1.00  0.00     0.016 A 
ATOM     28  C   UNL     1       0.649   6.842   2.514  1.00  0.00     0.016 A 
ATOM     29  C   UNL     1       3.391   6.500   2.018  1.00  0.00     0.010 A 
ATOM     30  C   UNL     1       1.595   7.233   3.470  1.00  0.00     0.010 A 
ATOM     31  C   UNL     1       2.970   7.039   3.237  1.00  0.00    -0.014 A 
BRANCH  31  32
ATOM     32  C   UNL     1       3.982   7.331   4.279  1.00  0.00     0.031 A 
ATOM     33  C   UNL     1       4.068   6.462   5.500  1.00  0.00     0.074 A 
ATOM     34  C   UNL     1       4.847   8.345   4.102  1.00  0.00     0.049 A 
ATOM     35  N   UNL     1       4.831   6.586   6.555  1.00  0.00    -0.248 NA
ATOM     36  C   UNL     1       3.164   5.304   5.540  1.00  0.00     0.031 C 
ATOM     37  C   UNL     1       4.883   9.226   2.933  1.00  0.00     0.029 A 
ATOM     38  N   UNL     1       5.858   8.809   4.902  1.00  0.00    -0.354 N 
ATOM     39  C   UNL     1       4.482   5.539   7.401  1.00  0.00     0.074 A 
ATOM     40  C   UNL     1       3.420   4.807   6.740  1.00  0.00     0.031 C 
ATOM     41  C   UNL     1       5.862  10.130   3.097  1.00  0.00     0.029 A 
ATOM     42  C   UNL     1       6.486   9.924   4.401  1.00  0.00     0.049 A 
ATOM     43  H   UNL     1       6.111   8.384   5.754  1.00  0.00     0.167 HD
ATOM     44  C   UNL     1       5.002   5.221   8.613  1.00  0.00     0.034 A 
ATOM     45  C   UNL     1       7.428  10.715   4.947  1.00  0.00     0.034 A 
ATOM     46  C   UNL     1       6.066   5.963   9.247  1.00  0.00     0.049 A 
ATOM     47  C   UNL     1       7.964  10.372   6.310  1.00  0.00     0.074 A 
ATOM     48  C   UNL     1       6.687   5.721  10.460  1.00  0.00     0.029 A 
ATOM     49  N   UNL     1       6.663   7.104   8.720  1.00  0.00    -0.354 N 
ATOM     50  N   UNL     1       7.620   9.387   7.108  1.00  0.00    -0.248 NA
ATOM     51  C   UNL     1       9.017  11.244   6.844  1.00  0.00     0.031 C 
ATOM     52  C   UNL     1       7.612   6.747  10.694  1.00  0.00     0.029 A 
ATOM     53  C   UNL     1       7.620   7.594   9.597  1.00  0.00     0.049 A 
ATOM     54  H   UNL     1       6.438   7.506   7.850  1.00  0.00     0.167 HD
ATOM     55  C   UNL     1       8.420   9.517   8.238  1.00  0.00     0.074 A 
ATOM     56  C   UNL     1       9.278  10.663   8.006  1.00  0.00     0.031 C 
ATOM     57  C   UNL     1       8.446   8.757   9.363  1.00  0.00     0.034 A 
BRANCH  44  58
ATOM     58  C   UNL     1       4.368   4.063   9.348  1.00  0.00     0.023 A 
ATOM     59  C   UNL     1       4.399   2.751   8.843  1.00  0.00     0.031 A 
ATOM     60  C   UNL     1       3.657   4.290  10.540  1.00  0.00     0.131 A 
ATOM     61  C   UNL     1       3.659   1.739   9.474  1.00  0.00     0.055 A 
ATOM     62  C   UNL     1       2.990   3.262  11.209  1.00  0.00     0.041 A 
ATOM     63  F   UNL     1       3.572   5.525  11.061  1.00  0.00    -0.206 F 
ATOM     64  C   UNL     1       2.971   1.981  10.665  1.00  0.00     0.022 A 
BRANCH  61  65
ATOM     65  S   UNL     1       3.460   0.149   8.621  1.00  0.00     0.124 S 
ATOM     66  O   UNL     1       2.915   0.570   7.332  1.00  0.00    -0.237 OA
ATOM     67  O   UNL     1       4.823  -0.369   8.601  1.00  0.00    -0.237 OA
ATOM     68  O   UNL     1       2.525  -0.583   9.473  1.00  0.00    -0.744 OA
ENDBRANCH  61  65
ENDBRANCH  44  58
BRANCH  45  69
ATOM     69  C   UNL     1       7.867  11.942   4.228  1.00  0.00     0.023 A 
ATOM     70  C   UNL     1       9.160  12.060   3.699  1.00  0.00     0.031 A 
ATOM     71  C   UNL     1       6.978  13.019   4.058  1.00  0.00     0.131 A 
ATOM     72  C   UNL     1       9.536  13.242   3.040  1.00  0.00     0.055 A 
ATOM     73  C   UNL     1       7.343  14.174   3.367  1.00  0.00     0.041 A 
ATOM     74  F   UNL     1       5.727  12.948   4.541  1.00  0.00    -0.206 F 
ATOM     75  C   UNL     1       8.632  14.293   2.860  1.00  0.00     0.022 A 
BRANCH  72  76
ATOM     76  S   UNL     1      11.242  13.404   2.446  1.00  0.00     0.124 S 
ATOM     77  O   UNL     1      12.000  13.323   3.690  1.00  0.00    -0.237 OA
ATOM     78  O   UNL     1      11.361  12.261   1.547  1.00  0.00    -0.237 OA
ATOM     79  O   UNL     1      11.252  14.711   1.792  1.00  0.00    -0.744 OA
ENDBRANCH  72  76
ENDBRANCH  45  69
BRANCH  57  80
ATOM     80  C   UNL     1       9.456   9.141  10.415  1.00  0.00     0.023 A 
ATOM     81  C   UNL     1       9.335  10.331  11.154  1.00  0.00     0.031 A 
ATOM     82  C   UNL     1      10.567   8.316  10.664  1.00  0.00     0.131 A 
ATOM     83  C   UNL     1      10.336  10.690  12.069  1.00  0.00     0.055 A 
ATOM     84  C   UNL     1      11.532   8.652  11.614  1.00  0.00     0.041 A 
ATOM     85  F   UNL     1      10.733   7.171   9.983  1.00  0.00    -0.206 F 
ATOM     86  C   UNL     1      11.426   9.851  12.314  1.00  0.00     0.022 A 
BRANCH  83  87
ATOM     87  S   UNL     1      10.241  12.313  12.874  1.00  0.00     0.124 S 
ATOM     88  O   UNL     1      10.233  13.219  11.731  1.00  0.00    -0.237 OA
ATOM     89  O   UNL     1       8.993  12.218  13.623  1.00  0.00    -0.237 OA
ATOM     90  O   UNL     1      11.452  12.360  13.693  1.00  0.00    -0.744 OA
ENDBRANCH  83  87
ENDBRANCH  57  80
ENDBRANCH  31  32
ENDBRANCH  24  26
ENDBRANCH  23  24
ENDBRANCH  22  23
ENDBRANCH   1  22
TORSDOF 20
