REMARK SMILES C[NH2+][C@@]1(C(=O)OCCOC(=O)c2ccc(-c3c4nc(c(-c5cc(S(=O)(=O)[O-])ccc5F)c5ccc([nH]5)c(-c5cc(S(=O)(=O)[O-])ccc5F)c5nc(c(-c6cc(S(=O)(=O)[O-])ccc6F)c6ccc3[nH]6)C=C5)C=C4)cc2)CC[C@H]([NH+]2CC[NH+](C)CC2)C1
REMARK SMILES IDX 8 1 7 2 6 3 4 4 5 5 3 6 75 7 85 8 76 9 77 10 2 11 1 12 78 15
REMARK SMILES IDX 79 16 84 17 80 19 83 20 81 21 82 22 9 24 10 25 11 26 12 27
REMARK SMILES IDX 13 28 74 29 14 30 73 31 15 32 16 33 17 34 67 35 18 36 72 37
REMARK SMILES IDX 66 38 68 39 19 40 71 41 65 42 64 43 20 45 52 46 32 47 51 48
REMARK SMILES IDX 33 49 36 50 50 51 69 52 34 53 35 54 49 56 70 57 37 58 21 59
REMARK SMILES IDX 22 60 30 61 23 62 29 63 31 64 28 65 24 66 25 67 26 68 27 69
REMARK SMILES IDX 53 70 54 71 62 72 55 73 61 74 63 75 60 76 56 77 57 78 58 79
REMARK SMILES IDX 59 80 38 81 39 82 47 83 40 84 46 85 48 86 45 87 41 88 42 89
REMARK SMILES IDX 43 90 44 91
REMARK H PARENT 2 13 2 14 78 18 81 23 68 44 36 55
REMARK Flexibility Score: inf
ROOT
ATOM      1  C   UNL     1      -1.831   0.009   5.520  1.00  0.00     0.275 C 
ENDROOT
BRANCH   1   2
ATOM      2  C   UNL     1      -1.952   1.134   4.493  1.00  0.00     0.274 C 
BRANCH   2   3
ATOM      3  O   UNL     1      -1.668   0.606   3.181  1.00  0.00    -0.457 OA
BRANCH   3   4
ATOM      4  C   UNL     1      -1.442   1.530   2.204  1.00  0.00     0.368 C 
ATOM      5  O   UNL     1      -1.464   2.739   2.412  1.00  0.00    -0.245 OA
BRANCH   4   6
ATOM      6  C   UNL     1      -1.133   0.858   0.815  1.00  0.00     0.200 C 
ATOM      7  C   UNL     1      -1.595   1.828  -0.285  1.00  0.00     0.087 C 
ATOM      8  C   UNL     1      -2.034  -0.372   0.571  1.00  0.00     0.146 C 
ATOM      9  C   UNL     1      -3.113   1.688  -0.236  1.00  0.00     0.072 C 
ATOM     10  C   UNL     1      -3.349   0.181  -0.033  1.00  0.00     0.191 C 
BRANCH   6  11
ATOM     11  N   UNL     1       0.304   0.517   0.819  1.00  0.00    -0.334 N 
ATOM     12  C   UNL     1       0.919   0.212  -0.464  1.00  0.00     0.331 C 
ATOM     13  H   UNL     1       0.806   1.310   1.219  1.00  0.00     0.347 HD
ATOM     14  H   UNL     1       0.367  -0.349   1.354  1.00  0.00     0.347 HD
ENDBRANCH   6  11
BRANCH  10  15
ATOM     15  N   UNL     1      -4.599  -0.291   0.573  1.00  0.00    -0.323 N 
ATOM     16  C   UNL     1      -5.818   0.249  -0.051  1.00  0.00     0.324 C 
ATOM     17  C   UNL     1      -4.743  -0.210   2.032  1.00  0.00     0.324 C 
ATOM     18  H   UNL     1      -4.500  -1.284   0.364  1.00  0.00     0.348 HD
ATOM     19  C   UNL     1      -6.284   1.631   0.474  1.00  0.00     0.324 C 
ATOM     20  C   UNL     1      -5.123   1.179   2.576  1.00  0.00     0.324 C 
ATOM     21  N   UNL     1      -6.322   1.756   1.944  1.00  0.00    -0.328 N 
ATOM     22  C   UNL     1      -6.457   3.162   2.331  1.00  0.00     0.333 C 
ATOM     23  H   UNL     1      -7.133   1.232   2.272  1.00  0.00     0.348 HD
ENDBRANCH  10  15
ENDBRANCH   4   6
ENDBRANCH   3   4
ENDBRANCH   2   3
ENDBRANCH   1   2
BRANCH   1  24
ATOM     24  O   UNL     1      -0.437  -0.296   5.679  1.00  0.00    -0.458 OA
BRANCH  24  25
ATOM     25  C   UNL     1       0.027  -1.245   4.834  1.00  0.00     0.338 C 
ATOM     26  O   UNL     1      -0.611  -2.065   4.201  1.00  0.00    -0.246 OA
BRANCH  25  27
ATOM     27  C   UNL     1       1.452  -0.981   4.620  1.00  0.00     0.060 A 
ATOM     28  C   UNL     1       1.794   0.009   3.699  1.00  0.00     0.016 A 
ATOM     29  C   UNL     1       2.430  -1.758   5.228  1.00  0.00     0.016 A 
ATOM     30  C   UNL     1       3.111   0.148   3.284  1.00  0.00     0.010 A 
ATOM     31  C   UNL     1       3.768  -1.536   4.892  1.00  0.00     0.010 A 
ATOM     32  C   UNL     1       4.119  -0.610   3.888  1.00  0.00    -0.014 A 
BRANCH  32  33
ATOM     33  C   UNL     1       5.534  -0.486   3.444  1.00  0.00     0.031 A 
ATOM     34  C   UNL     1       6.258  -1.709   2.951  1.00  0.00     0.074 A 
ATOM     35  C   UNL     1       6.169   0.702   3.487  1.00  0.00     0.049 A 
ATOM     36  N   UNL     1       7.540  -1.910   2.795  1.00  0.00    -0.248 NA
ATOM     37  C   UNL     1       5.421  -2.872   2.619  1.00  0.00     0.031 C 
ATOM     38  C   UNL     1       5.561   1.979   3.870  1.00  0.00     0.029 A 
ATOM     39  N   UNL     1       7.473   1.029   3.210  1.00  0.00    -0.354 N 
ATOM     40  C   UNL     1       7.671  -3.244   2.421  1.00  0.00     0.074 A 
ATOM     41  C   UNL     1       6.335  -3.800   2.373  1.00  0.00     0.031 C 
ATOM     42  C   UNL     1       6.482   2.950   3.781  1.00  0.00     0.029 A 
ATOM     43  C   UNL     1       7.767   2.353   3.441  1.00  0.00     0.049 A 
ATOM     44  H   UNL     1       8.134   0.379   2.879  1.00  0.00     0.167 HD
ATOM     45  C   UNL     1       8.808  -3.936   2.158  1.00  0.00     0.034 A 
ATOM     46  C   UNL     1       8.947   3.003   3.444  1.00  0.00     0.034 A 
ATOM     47  C   UNL     1      10.121  -3.336   2.165  1.00  0.00     0.049 A 
ATOM     48  C   UNL     1      10.199   2.214   3.171  1.00  0.00     0.074 A 
ATOM     49  C   UNL     1      11.348  -3.929   1.919  1.00  0.00     0.029 A 
ATOM     50  N   UNL     1      10.375  -1.992   2.416  1.00  0.00    -0.354 N 
ATOM     51  N   UNL     1      10.328   0.930   2.925  1.00  0.00    -0.248 NA
ATOM     52  C   UNL     1      11.465   2.956   3.196  1.00  0.00     0.031 C 
ATOM     53  C   UNL     1      12.344  -2.955   2.067  1.00  0.00     0.029 A 
ATOM     54  C   UNL     1      11.736  -1.740   2.342  1.00  0.00     0.049 A 
ATOM     55  H   UNL     1       9.688  -1.317   2.616  1.00  0.00     0.167 HD
ATOM     56  C   UNL     1      11.691   0.712   2.760  1.00  0.00     0.074 A 
ATOM     57  C   UNL     1      12.338   2.002   2.910  1.00  0.00     0.031 C 
ATOM     58  C   UNL     1      12.354  -0.447   2.513  1.00  0.00     0.034 A 
BRANCH  45  59
ATOM     59  C   UNL     1       8.678  -5.423   1.921  1.00  0.00     0.023 A 
ATOM     60  C   UNL     1       7.984  -5.951   0.819  1.00  0.00     0.031 A 
ATOM     61  C   UNL     1       9.220  -6.330   2.851  1.00  0.00     0.131 A 
ATOM     62  C   UNL     1       7.784  -7.337   0.716  1.00  0.00     0.055 A 
ATOM     63  C   UNL     1       9.086  -7.712   2.700  1.00  0.00     0.041 A 
ATOM     64  F   UNL     1       9.873  -5.886   3.937  1.00  0.00    -0.206 F 
ATOM     65  C   UNL     1       8.351  -8.223   1.637  1.00  0.00     0.022 A 
BRANCH  62  66
ATOM     66  S   UNL     1       6.648  -7.959  -0.555  1.00  0.00     0.124 S 
ATOM     67  O   UNL     1       5.403  -7.285  -0.193  1.00  0.00    -0.237 OA
ATOM     68  O   UNL     1       7.281  -7.512  -1.790  1.00  0.00    -0.237 OA
ATOM     69  O   UNL     1       6.650  -9.405  -0.340  1.00  0.00    -0.744 OA
ENDBRANCH  62  66
ENDBRANCH  45  59
BRANCH  46  70
ATOM     70  C   UNL     1       9.007   4.450   3.796  1.00  0.00     0.023 A 
ATOM     71  C   UNL     1       9.418   5.410   2.858  1.00  0.00     0.031 A 
ATOM     72  C   UNL     1       8.665   4.894   5.087  1.00  0.00     0.131 A 
ATOM     73  C   UNL     1       9.499   6.761   3.231  1.00  0.00     0.055 A 
ATOM     74  C   UNL     1       8.697   6.245   5.437  1.00  0.00     0.041 A 
ATOM     75  F   UNL     1       8.266   4.018   6.023  1.00  0.00    -0.206 F 
ATOM     76  C   UNL     1       9.126   7.187   4.508  1.00  0.00     0.022 A 
BRANCH  73  77
ATOM     77  S   UNL     1      10.162   7.955   2.037  1.00  0.00     0.124 S 
ATOM     78  O   UNL     1      11.487   7.405   1.770  1.00  0.00    -0.237 OA
ATOM     79  O   UNL     1       9.197   7.862   0.947  1.00  0.00    -0.237 OA
ATOM     80  O   UNL     1      10.147   9.217   2.773  1.00  0.00    -0.744 OA
ENDBRANCH  73  77
ENDBRANCH  46  70
BRANCH  58  81
ATOM     81  C   UNL     1      13.848  -0.344   2.357  1.00  0.00     0.023 A 
ATOM     82  C   UNL     1      14.682  -0.057   3.450  1.00  0.00     0.031 A 
ATOM     83  C   UNL     1      14.437  -0.503   1.091  1.00  0.00     0.131 A 
ATOM     84  C   UNL     1      16.059   0.117   3.247  1.00  0.00     0.055 A 
ATOM     85  C   UNL     1      15.814  -0.380   0.904  1.00  0.00     0.041 A 
ATOM     86  F   UNL     1      13.681  -0.776   0.015  1.00  0.00    -0.206 F 
ATOM     87  C   UNL     1      16.631  -0.055   1.984  1.00  0.00     0.022 A 
BRANCH  84  88
ATOM     88  S   UNL     1      17.083   0.659   4.643  1.00  0.00     0.124 S 
ATOM     89  O   UNL     1      16.463   1.932   4.997  1.00  0.00    -0.237 OA
ATOM     90  O   UNL     1      16.904  -0.426   5.602  1.00  0.00    -0.237 OA
ATOM     91  O   UNL     1      18.422   0.761   4.066  1.00  0.00    -0.744 OA
ENDBRANCH  84  88
ENDBRANCH  58  81
ENDBRANCH  32  33
ENDBRANCH  25  27
ENDBRANCH  24  25
ENDBRANCH   1  24
TORSDOF 16
