REMARK SMILES CCn1ccc2ccc(C[NH+]3CCC4(CC3)C[C@H](C(=O)OCCOC(=O)c3ccc(-c5c6nc(c(-c7cc(S(=O)(=O)[O-])ccc7F)c7ccc([nH]7)c(-c7cc(S(=O)(=O)[O-])ccc7F)c7nc(c(-c8cc(S(=O)(=O)[O-])ccc8F)c8ccc5[nH]8)C=C7)C=C6)cc3)N(C(C)=O)C4)cc21
REMARK SMILES IDX 22 1 21 2 19 3 20 4 18 5 11 6 12 7 16 8 13 10 15 11 14 12
REMARK SMILES IDX 17 13 94 14 90 15 10 16 9 17 3 18 4 19 96 20 5 21 6 22 95 23
REMARK SMILES IDX 7 24 8 25 2 26 1 27 91 28 92 29 93 30 23 31 24 32 25 33
REMARK SMILES IDX 26 34 27 35 28 36 89 37 29 38 88 39 30 40 31 41 32 42 82 43
REMARK SMILES IDX 33 44 87 45 81 46 83 47 34 48 86 49 80 50 79 51 35 53 67 54
REMARK SMILES IDX 47 55 66 56 48 57 51 58 65 59 84 60 49 61 50 62 64 64 85 65
REMARK SMILES IDX 52 66 36 67 37 68 45 69 38 70 44 71 46 72 43 73 39 74 40 75
REMARK SMILES IDX 41 76 42 77 68 78 69 79 77 80 70 81 76 82 78 83 75 84 71 85
REMARK SMILES IDX 72 86 73 87 74 88 53 89 54 90 62 91 55 92 61 93 63 94 60 95
REMARK SMILES IDX 56 96 57 97 58 98 59 99
REMARK H PARENT 11 9 83 52 51 63
REMARK Flexibility Score: inf
ROOT
ATOM      1  C   UNL     1      -0.960  -1.532   5.875  1.00  0.00     0.274 C 
ENDROOT
BRANCH   1   2
ATOM      2  O   UNL     1      -1.046  -2.269   4.638  1.00  0.00    -0.461 OA
BRANCH   2   3
ATOM      3  C   UNL     1      -2.261  -2.086   4.069  1.00  0.00     0.328 C 
ATOM      4  O   UNL     1      -3.090  -1.354   4.573  1.00  0.00    -0.250 OA
BRANCH   3   5
ATOM      5  C   UNL     1      -2.511  -2.799   2.754  1.00  0.00     0.195 C 
ATOM      6  N   UNL     1      -1.312  -6.726  -0.668  1.00  0.00    -0.331 N 
ATOM      7  C   UNL     1      -2.274  -7.123   0.345  1.00  0.00     0.263 C 
ATOM      8  C   UNL     1      -1.707  -5.466  -1.268  1.00  0.00     0.263 C 
ATOM      9  H   UNL     1      -1.376  -7.430  -1.403  1.00  0.00     0.348 HD
ATOM     10  C   UNL     1      -2.317  -6.170   1.526  1.00  0.00     0.070 C 
ATOM     11  C   UNL     1      -1.909  -4.311  -0.278  1.00  0.00     0.070 C 
ATOM     12  C   UNL     1      -2.390  -4.668   1.168  1.00  0.00     0.001 C 
ATOM     13  C   UNL     1      -1.588  -3.878   2.265  1.00  0.00     0.046 C 
ATOM     14  C   UNL     1      -3.834  -4.160   1.383  1.00  0.00     0.128 C 
ATOM     15  N   UNL     1      -3.824  -3.395   2.634  1.00  0.00    -0.329 N 
BRANCH   6  16
ATOM     16  C   UNL     1       0.107  -6.989  -0.448  1.00  0.00     0.299 C 
BRANCH  16  17
ATOM     17  C   UNL     1       0.873  -6.066   0.484  1.00  0.00     0.008 A 
ATOM     18  N   UNL     1       1.730  -2.455   0.957  1.00  0.00    -0.348 N 
ATOM     19  C   UNL     1       2.107  -1.965   2.183  1.00  0.00     0.087 A 
ATOM     20  C   UNL     1       1.663  -3.844   1.016  1.00  0.00     0.048 A 
ATOM     21  C   UNL     1       2.223  -3.025   3.054  1.00  0.00     0.028 A 
ATOM     22  C   UNL     1       1.885  -4.208   2.346  1.00  0.00    -0.000 A 
ATOM     23  C   UNL     1       1.262  -4.786   0.050  1.00  0.00     0.036 A 
ATOM     24  C   UNL     1       1.668  -5.545   2.732  1.00  0.00     0.011 A 
ATOM     25  C   UNL     1       1.131  -6.449   1.805  1.00  0.00     0.010 A 
BRANCH  18  26
ATOM     26  C   UNL     1       1.172  -1.673  -0.140  1.00  0.00     0.119 C 
ATOM     27  C   UNL     1       1.398  -0.169  -0.100  1.00  0.00     0.027 C 
ENDBRANCH  18  26
ENDBRANCH  16  17
ENDBRANCH   6  16
BRANCH  15  28
ATOM     28  C   UNL     1      -4.469  -3.882   3.775  1.00  0.00     0.220 C 
ATOM     29  C   UNL     1      -5.149  -2.831   4.667  1.00  0.00     0.114 C 
ATOM     30  O   UNL     1      -4.605  -5.080   4.009  1.00  0.00    -0.275 OA
ENDBRANCH  15  28
ENDBRANCH   3   5
ENDBRANCH   2   3
ENDBRANCH   1   2
BRANCH   1  31
ATOM     31  C   UNL     1      -0.604  -0.046   5.639  1.00  0.00     0.275 C 
BRANCH  31  32
ATOM     32  O   UNL     1      -1.660   0.693   4.963  1.00  0.00    -0.458 OA
BRANCH  32  33
ATOM     33  C   UNL     1      -1.466   1.016   3.655  1.00  0.00     0.338 C 
ATOM     34  O   UNL     1      -0.366   1.087   3.110  1.00  0.00    -0.246 OA
BRANCH  33  35
ATOM     35  C   UNL     1      -2.751   0.934   2.877  1.00  0.00     0.060 A 
ATOM     36  C   UNL     1      -4.023   1.119   3.436  1.00  0.00     0.016 A 
ATOM     37  C   UNL     1      -2.667   0.359   1.607  1.00  0.00     0.016 A 
ATOM     38  C   UNL     1      -5.164   0.543   2.824  1.00  0.00     0.010 A 
ATOM     39  C   UNL     1      -3.795  -0.256   1.037  1.00  0.00     0.010 A 
ATOM     40  C   UNL     1      -5.046  -0.261   1.680  1.00  0.00    -0.014 A 
BRANCH  40  41
ATOM     41  C   UNL     1      -6.222  -0.838   0.957  1.00  0.00     0.031 A 
ATOM     42  C   UNL     1      -6.696   0.115  -0.056  1.00  0.00     0.074 A 
ATOM     43  C   UNL     1      -6.875  -2.032   0.978  1.00  0.00     0.049 A 
ATOM     44  N   UNL     1      -7.625   0.987   0.157  1.00  0.00    -0.248 NA
ATOM     45  C   UNL     1      -5.942   0.300  -1.297  1.00  0.00     0.031 C 
ATOM     46  C   UNL     1      -6.669  -3.168   1.830  1.00  0.00     0.029 A 
ATOM     47  N   UNL     1      -7.886  -2.528   0.182  1.00  0.00    -0.354 N 
ATOM     48  C   UNL     1      -7.748   1.660  -1.042  1.00  0.00     0.074 A 
ATOM     49  C   UNL     1      -6.512   1.419  -1.744  1.00  0.00     0.031 C 
ATOM     50  C   UNL     1      -7.203  -4.307   1.356  1.00  0.00     0.029 A 
ATOM     51  C   UNL     1      -8.062  -3.919   0.268  1.00  0.00     0.049 A 
ATOM     52  H   UNL     1      -8.438  -1.956  -0.398  1.00  0.00     0.167 HD
ATOM     53  C   UNL     1      -8.972   2.056  -1.490  1.00  0.00     0.034 A 
ATOM     54  C   UNL     1      -9.022  -4.763  -0.196  1.00  0.00     0.034 A 
ATOM     55  C   UNL     1      -9.972   1.906  -0.456  1.00  0.00     0.049 A 
ATOM     56  C   UNL     1     -10.212  -3.952  -0.487  1.00  0.00     0.074 A 
ATOM     57  C   UNL     1     -10.169   2.419   0.810  1.00  0.00     0.029 A 
ATOM     58  N   UNL     1     -10.794   0.808  -0.549  1.00  0.00    -0.354 N 
ATOM     59  N   UNL     1     -10.953  -3.433   0.452  1.00  0.00    -0.248 NA
ATOM     60  C   UNL     1     -10.236  -3.274  -1.770  1.00  0.00     0.031 C 
ATOM     61  C   UNL     1     -10.778   1.368   1.554  1.00  0.00     0.029 A 
ATOM     62  C   UNL     1     -10.988   0.285   0.699  1.00  0.00     0.049 A 
ATOM     63  H   UNL     1     -11.181   0.455  -1.382  1.00  0.00     0.167 HD
ATOM     64  C   UNL     1     -11.120  -2.119   0.049  1.00  0.00     0.074 A 
ATOM     65  C   UNL     1     -10.727  -2.101  -1.362  1.00  0.00     0.031 C 
ATOM     66  C   UNL     1     -11.271  -1.114   0.960  1.00  0.00     0.034 A 
BRANCH  53  67
ATOM     67  C   UNL     1      -9.336   2.145  -2.954  1.00  0.00     0.023 A 
ATOM     68  C   UNL     1      -8.499   1.711  -3.997  1.00  0.00     0.031 A 
ATOM     69  C   UNL     1     -10.650   2.481  -3.331  1.00  0.00     0.131 A 
ATOM     70  C   UNL     1      -8.948   1.603  -5.316  1.00  0.00     0.055 A 
ATOM     71  C   UNL     1     -11.125   2.309  -4.636  1.00  0.00     0.041 A 
ATOM     72  F   UNL     1     -11.538   2.922  -2.426  1.00  0.00    -0.206 F 
ATOM     73  C   UNL     1     -10.273   1.863  -5.638  1.00  0.00     0.022 A 
BRANCH  70  74
ATOM     74  S   UNL     1      -7.801   1.097  -6.627  1.00  0.00     0.124 S 
ATOM     75  O   UNL     1      -8.446  -0.105  -7.143  1.00  0.00    -0.237 OA
ATOM     76  O   UNL     1      -7.829   2.262  -7.507  1.00  0.00    -0.237 OA
ATOM     77  O   UNL     1      -6.540   0.887  -5.920  1.00  0.00    -0.744 OA
ENDBRANCH  70  74
ENDBRANCH  53  67
BRANCH  54  78
ATOM     78  C   UNL     1      -8.724  -6.058  -0.864  1.00  0.00     0.023 A 
ATOM     79  C   UNL     1      -7.429  -6.283  -1.363  1.00  0.00     0.031 A 
ATOM     80  C   UNL     1      -9.724  -6.961  -1.261  1.00  0.00     0.131 A 
ATOM     81  C   UNL     1      -7.184  -7.295  -2.299  1.00  0.00     0.055 A 
ATOM     82  C   UNL     1      -9.467  -8.007  -2.162  1.00  0.00     0.041 A 
ATOM     83  F   UNL     1     -10.987  -6.810  -0.833  1.00  0.00    -0.206 F 
ATOM     84  C   UNL     1      -8.194  -8.162  -2.707  1.00  0.00     0.022 A 
BRANCH  81  85
ATOM     85  S   UNL     1      -5.566  -7.389  -3.105  1.00  0.00     0.124 S 
ATOM     86  O   UNL     1      -5.183  -8.778  -2.871  1.00  0.00    -0.237 OA
ATOM     87  O   UNL     1      -5.897  -7.048  -4.484  1.00  0.00    -0.237 OA
ATOM     88  O   UNL     1      -4.786  -6.392  -2.382  1.00  0.00    -0.744 OA
ENDBRANCH  81  85
ENDBRANCH  54  78
BRANCH  66  89
ATOM     89  C   UNL     1     -11.568  -1.454   2.403  1.00  0.00     0.023 A 
ATOM     90  C   UNL     1     -12.701  -0.834   2.955  1.00  0.00     0.031 A 
ATOM     91  C   UNL     1     -10.670  -2.083   3.285  1.00  0.00     0.131 A 
ATOM     92  C   UNL     1     -12.869  -0.769   4.341  1.00  0.00     0.055 A 
ATOM     93  C   UNL     1     -10.882  -2.082   4.671  1.00  0.00     0.041 A 
ATOM     94  F   UNL     1      -9.526  -2.626   2.848  1.00  0.00    -0.206 F 
ATOM     95  C   UNL     1     -11.972  -1.399   5.207  1.00  0.00     0.022 A 
BRANCH  92  96
ATOM     96  S   UNL     1     -14.144   0.311   5.041  1.00  0.00     0.124 S 
ATOM     97  O   UNL     1     -15.012  -0.639   5.729  1.00  0.00    -0.237 OA
ATOM     98  O   UNL     1     -13.362   1.190   5.909  1.00  0.00    -0.237 OA
ATOM     99  O   UNL     1     -14.734   0.964   3.875  1.00  0.00    -0.744 OA
ENDBRANCH  92  96
ENDBRANCH  66  89
ENDBRANCH  40  41
ENDBRANCH  33  35
ENDBRANCH  32  33
ENDBRANCH  31  32
ENDBRANCH   1  31
TORSDOF 18
