REMARK SMILES O=C(Cn1nc(-c2ccco2)ccc1=O)OCCOC(=O)c1ccc(-c2c3nc(c(-c4cc(S(=O)(=O)[O-])ccc4F)c4ccc([nH]4)c(-c4cc(S(=O)(=O)[O-])ccc4F)c4nc(c(-c5cc(S(=O)(=O)[O-])ccc5F)c5ccc2[nH]5)C=C4)C=C3)cc1
REMARK SMILES IDX 18 1 17 2 16 3 2 4 1 5 3 6 4 7 5 8 14 9 6 10 13 11 15 12
REMARK SMILES IDX 12 13 7 14 8 15 11 16 9 17 10 18 19 19 20 20 21 21 22 22
REMARK SMILES IDX 23 23 84 24 24 25 83 26 25 27 26 28 27 29 77 30 28 31 82 32
REMARK SMILES IDX 76 33 78 34 29 35 81 36 75 37 74 38 30 40 62 41 42 42 61 43
REMARK SMILES IDX 43 44 46 45 60 46 79 47 44 48 45 49 59 51 80 52 47 53 31 54
REMARK SMILES IDX 32 55 40 56 33 57 39 58 41 59 38 60 34 61 35 62 36 63 37 64
REMARK SMILES IDX 63 65 64 66 72 67 65 68 71 69 73 70 70 71 66 72 67 73 68 74
REMARK SMILES IDX 69 75 48 76 49 77 57 78 50 79 56 80 58 81 55 82 51 83 52 84
REMARK SMILES IDX 53 85 54 86
REMARK H PARENT 78 39 46 50
REMARK Flexibility Score: inf
ROOT
ATOM      1  C   UNL     1       4.361   0.546  -1.706  1.00  0.00     0.275 C 
ENDROOT
BRANCH   1   2
ATOM      2  C   UNL     1       4.416  -0.555  -0.649  1.00  0.00     0.274 C 
BRANCH   2   3
ATOM      3  O   UNL     1       3.109  -1.105  -0.389  1.00  0.00    -0.461 OA
BRANCH   3   4
ATOM      4  C   UNL     1       2.185  -0.525   0.408  1.00  0.00     0.328 C 
ATOM      5  O   UNL     1       1.006  -0.503   0.048  1.00  0.00    -0.250 OA
BRANCH   4   6
ATOM      6  C   UNL     1       2.584   0.144   1.719  1.00  0.00     0.270 C 
BRANCH   6   7
ATOM      7  N   UNL     1       3.809  -0.241   2.403  1.00  0.00    -0.218 N 
ATOM      8  N   UNL     1       4.545   0.798   2.952  1.00  0.00    -0.166 NA
ATOM      9  C   UNL     1       3.978  -1.569   2.764  1.00  0.00     0.267 A 
ATOM     10  C   UNL     1       5.544   0.499   3.728  1.00  0.00     0.126 A 
ATOM     11  C   UNL     1       5.179  -1.871   3.566  1.00  0.00     0.076 A 
ATOM     12  O   UNL     1       3.233  -2.486   2.433  1.00  0.00    -0.268 OA
ATOM     13  C   UNL     1       5.959  -0.890   4.022  1.00  0.00     0.040 A 
BRANCH  10  14
ATOM     14  C   UNL     1       6.272   1.564   4.377  1.00  0.00     0.154 A 
ATOM     15  C   UNL     1       5.869   2.812   4.816  1.00  0.00     0.052 A 
ATOM     16  O   UNL     1       7.598   1.385   4.676  1.00  0.00    -0.463 OA
ATOM     17  C   UNL     1       6.996   3.415   5.424  1.00  0.00     0.043 A 
ATOM     18  C   UNL     1       8.027   2.517   5.291  1.00  0.00     0.196 A 
ENDBRANCH  10  14
ENDBRANCH   6   7
ENDBRANCH   4   6
ENDBRANCH   3   4
ENDBRANCH   2   3
ENDBRANCH   1   2
BRANCH   1  19
ATOM     19  O   UNL     1       3.918   1.755  -1.073  1.00  0.00    -0.458 OA
BRANCH  19  20
ATOM     20  C   UNL     1       2.687   2.209  -1.410  1.00  0.00     0.338 C 
ATOM     21  O   UNL     1       1.962   1.781  -2.288  1.00  0.00    -0.246 OA
BRANCH  20  22
ATOM     22  C   UNL     1       2.296   3.207  -0.390  1.00  0.00     0.060 A 
ATOM     23  C   UNL     1       3.233   4.111   0.123  1.00  0.00     0.016 A 
ATOM     24  C   UNL     1       0.987   3.186   0.105  1.00  0.00     0.016 A 
ATOM     25  C   UNL     1       2.856   4.998   1.129  1.00  0.00     0.010 A 
ATOM     26  C   UNL     1       0.610   4.080   1.110  1.00  0.00     0.010 A 
ATOM     27  C   UNL     1       1.539   4.999   1.620  1.00  0.00    -0.014 A 
BRANCH  27  28
ATOM     28  C   UNL     1       1.109   6.099   2.515  1.00  0.00     0.031 A 
ATOM     29  C   UNL     1       0.981   5.927   3.995  1.00  0.00     0.074 A 
ATOM     30  C   UNL     1       0.850   7.291   1.947  1.00  0.00     0.049 A 
ATOM     31  N   UNL     1       0.774   6.843   4.906  1.00  0.00    -0.248 NA
ATOM     32  C   UNL     1       1.094   4.561   4.524  1.00  0.00     0.031 C 
ATOM     33  C   UNL     1       0.898   7.548   0.507  1.00  0.00     0.029 A 
ATOM     34  N   UNL     1       0.508   8.498   2.496  1.00  0.00    -0.354 N 
ATOM     35  C   UNL     1       0.761   6.176   6.123  1.00  0.00     0.074 A 
ATOM     36  C   UNL     1       0.925   4.766   5.826  1.00  0.00     0.031 C 
ATOM     37  C   UNL     1       0.617   8.839   0.287  1.00  0.00     0.029 A 
ATOM     38  C   UNL     1       0.350   9.496   1.565  1.00  0.00     0.049 A 
ATOM     39  H   UNL     1       0.387   8.638   3.463  1.00  0.00     0.167 HD
ATOM     40  C   UNL     1       0.646   6.702   7.368  1.00  0.00     0.034 A 
ATOM     41  C   UNL     1       0.038  10.798   1.715  1.00  0.00     0.034 A 
ATOM     42  C   UNL     1       0.443   8.107   7.636  1.00  0.00     0.049 A 
ATOM     43  C   UNL     1      -0.105  11.356   3.104  1.00  0.00     0.074 A 
ATOM     44  C   UNL     1       0.368   8.743   8.864  1.00  0.00     0.029 A 
ATOM     45  N   UNL     1       0.260   9.092   6.673  1.00  0.00    -0.354 N 
ATOM     46  N   UNL     1       0.021  10.738   4.256  1.00  0.00    -0.248 NA
ATOM     47  C   UNL     1      -0.405  12.788   3.220  1.00  0.00     0.031 C 
ATOM     48  C   UNL     1       0.076  10.092   8.646  1.00  0.00     0.029 A 
ATOM     49  C   UNL     1       0.037  10.320   7.279  1.00  0.00     0.049 A 
ATOM     50  H   UNL     1       0.286   8.940   5.700  1.00  0.00     0.167 HD
ATOM     51  C   UNL     1      -0.183  11.706   5.234  1.00  0.00     0.074 A 
ATOM     52  C   UNL     1      -0.395  12.959   4.537  1.00  0.00     0.031 C 
ATOM     53  C   UNL     1      -0.201  11.565   6.585  1.00  0.00     0.034 A 
BRANCH  40  54
ATOM     54  C   UNL     1       0.773   5.775   8.554  1.00  0.00     0.023 A 
ATOM     55  C   UNL     1      -0.291   5.625   9.464  1.00  0.00     0.031 A 
ATOM     56  C   UNL     1       1.999   5.155   8.858  1.00  0.00     0.131 A 
ATOM     57  C   UNL     1      -0.098   4.899  10.647  1.00  0.00     0.055 A 
ATOM     58  C   UNL     1       2.175   4.403  10.021  1.00  0.00     0.041 A 
ATOM     59  F   UNL     1       3.048   5.273   8.028  1.00  0.00    -0.206 F 
ATOM     60  C   UNL     1       1.127   4.283  10.927  1.00  0.00     0.022 A 
BRANCH  57  61
ATOM     61  S   UNL     1      -1.400   4.781  11.905  1.00  0.00     0.124 S 
ATOM     62  O   UNL     1      -1.624   3.338  11.966  1.00  0.00    -0.237 OA
ATOM     63  O   UNL     1      -0.747   5.360  13.076  1.00  0.00    -0.237 OA
ATOM     64  O   UNL     1      -2.499   5.558  11.346  1.00  0.00    -0.744 OA
ENDBRANCH  57  61
ENDBRANCH  40  54
BRANCH  41  65
ATOM     65  C   UNL     1      -0.066  11.647   0.495  1.00  0.00     0.023 A 
ATOM     66  C   UNL     1      -1.042  11.377  -0.483  1.00  0.00     0.031 A 
ATOM     67  C   UNL     1       0.898  12.629   0.220  1.00  0.00     0.131 A 
ATOM     68  C   UNL     1      -0.979  12.024  -1.722  1.00  0.00     0.055 A 
ATOM     69  C   UNL     1       0.911  13.324  -0.990  1.00  0.00     0.041 A 
ATOM     70  F   UNL     1       1.858  12.904   1.116  1.00  0.00    -0.206 F 
ATOM     71  C   UNL     1      -0.018  13.008  -1.976  1.00  0.00     0.022 A 
BRANCH  68  72
ATOM     72  S   UNL     1      -2.042  11.502  -3.097  1.00  0.00     0.124 S 
ATOM     73  O   UNL     1      -2.768  12.730  -3.404  1.00  0.00    -0.237 OA
ATOM     74  O   UNL     1      -1.057  11.085  -4.091  1.00  0.00    -0.237 OA
ATOM     75  O   UNL     1      -2.841  10.423  -2.525  1.00  0.00    -0.744 OA
ENDBRANCH  68  72
ENDBRANCH  41  65
BRANCH  53  76
ATOM     76  C   UNL     1      -0.503  12.788   7.421  1.00  0.00     0.023 A 
ATOM     77  C   UNL     1       0.450  13.288   8.330  1.00  0.00     0.031 A 
ATOM     78  C   UNL     1      -1.773  13.392   7.395  1.00  0.00     0.131 A 
ATOM     79  C   UNL     1       0.110  14.342   9.189  1.00  0.00     0.055 A 
ATOM     80  C   UNL     1      -2.092  14.471   8.221  1.00  0.00     0.041 A 
ATOM     81  F   UNL     1      -2.721  12.948   6.554  1.00  0.00    -0.206 F 
ATOM     82  C   UNL     1      -1.152  14.943   9.132  1.00  0.00     0.022 A 
BRANCH  79  83
ATOM     83  S   UNL     1       1.262  14.924  10.464  1.00  0.00     0.124 S 
ATOM     84  O   UNL     1       1.512  16.300  10.039  1.00  0.00    -0.237 OA
ATOM     85  O   UNL     1       0.470  14.783  11.684  1.00  0.00    -0.237 OA
ATOM     86  O   UNL     1       2.401  14.020  10.349  1.00  0.00    -0.744 OA
ENDBRANCH  79  83
ENDBRANCH  53  76
ENDBRANCH  27  28
ENDBRANCH  20  22
ENDBRANCH  19  20
ENDBRANCH   1  19
TORSDOF 16
