REMARK SMILES COc1nc2c(cc1C(=O)NCc1ccc(C(=O)OCCOC(=O)c3ccc(-c4c5nc(c(-c6cc(S(=O)(=O)[O-])ccc6F)c6ccc([nH]6)c(-c6cc(S(=O)(=O)[O-])ccc6F)c6nc(c(-c7cc(S(=O)(=O)[O-])ccc7F)c7ccc4[nH]7)C=C6)C=C5)cc3)s1)CCC2
REMARK SMILES IDX 20 1 19 2 17 3 18 4 16 5 13 6 14 7 88 8 15 9 12 10 11 11
REMARK SMILES IDX 9 12 10 13 8 15 3 16 4 17 5 18 7 19 6 20 91 21 89 22 90 23
REMARK SMILES IDX 2 24 1 25 21 26 22 27 23 28 24 29 25 30 26 31 87 32 27 33
REMARK SMILES IDX 86 34 28 35 29 36 30 37 80 38 31 39 85 40 79 41 81 42 32 43
REMARK SMILES IDX 84 44 78 45 77 46 33 48 65 49 45 50 64 51 46 52 49 53 63 54
REMARK SMILES IDX 82 55 47 56 48 57 62 59 83 60 50 61 34 62 35 63 43 64 36 65
REMARK SMILES IDX 42 66 44 67 41 68 37 69 38 70 39 71 40 72 66 73 67 74 75 75
REMARK SMILES IDX 68 76 74 77 76 78 73 79 69 80 70 81 71 82 72 83 51 84 52 85
REMARK SMILES IDX 60 86 53 87 59 88 61 89 58 90 54 91 55 92 56 93 57 94
REMARK H PARENT 11 14 81 47 49 58
REMARK Flexibility Score: inf
ROOT
ATOM      1  C   UNL     1       1.369   6.923   5.661  1.00  0.00     0.275 C 
ENDROOT
BRANCH   1   2
ATOM      2  O   UNL     1       1.312   5.508   5.419  1.00  0.00    -0.458 OA
BRANCH   2   3
ATOM      3  C   UNL     1       0.660   5.147   4.272  1.00  0.00     0.348 C 
ATOM      4  O   UNL     1      -0.037   5.900   3.615  1.00  0.00    -0.245 OA
BRANCH   3   5
ATOM      5  C   UNL     1       1.017   3.787   3.921  1.00  0.00     0.112 A 
ATOM      6  C   UNL     1       1.543   1.794   2.559  1.00  0.00     0.025 A 
ATOM      7  C   UNL     1       1.870   1.614   3.887  1.00  0.00     0.018 A 
ATOM      8  S   UNL     1       0.770   3.293   2.307  1.00  0.00    -0.131 S 
ATOM      9  C   UNL     1       1.565   2.767   4.674  1.00  0.00     0.028 A 
BRANCH   6  10
ATOM     10  C   UNL     1       1.583   0.848   1.415  1.00  0.00     0.163 C 
BRANCH  10  11
ATOM     11  N   UNL     1       2.809   0.096   1.335  1.00  0.00    -0.347 N 
ATOM     12  C   UNL     1       3.035  -1.237   1.109  1.00  0.00     0.257 C 
ATOM     13  O   UNL     1       4.187  -1.573   0.824  1.00  0.00    -0.269 OA
ATOM     14  H   UNL     1       3.625   0.632   1.465  1.00  0.00     0.164 HD
BRANCH  12  15
ATOM     15  C   UNL     1       2.032  -2.316   1.318  1.00  0.00     0.102 A 
ATOM     16  C   UNL     1       0.657  -2.305   1.039  1.00  0.00     0.226 A 
ATOM     17  N   UNL     1      -0.208  -3.272   1.454  1.00  0.00    -0.218 NA
ATOM     18  C   UNL     1       0.342  -4.330   2.063  1.00  0.00     0.048 A 
ATOM     19  C   UNL     1       2.562  -3.500   1.870  1.00  0.00     0.025 A 
ATOM     20  C   UNL     1       1.701  -4.514   2.232  1.00  0.00    -0.025 A 
ATOM     21  C   UNL     1      -0.434  -5.492   2.613  1.00  0.00     0.057 C 
ATOM     22  C   UNL     1       2.001  -5.871   2.769  1.00  0.00     0.038 C 
ATOM     23  C   UNL     1       0.654  -6.234   3.408  1.00  0.00     0.011 C 
BRANCH  16  24
ATOM     24  O   UNL     1       0.015  -1.314   0.357  1.00  0.00    -0.480 OA
ATOM     25  C   UNL     1       0.371  -1.265  -1.018  1.00  0.00     0.280 C 
ENDBRANCH  16  24
ENDBRANCH  12  15
ENDBRANCH  10  11
ENDBRANCH   6  10
ENDBRANCH   3   5
ENDBRANCH   2   3
ENDBRANCH   1   2
BRANCH   1  26
ATOM     26  C   UNL     1       2.684   7.493   5.128  1.00  0.00     0.275 C 
BRANCH  26  27
ATOM     27  O   UNL     1       2.702   7.502   3.687  1.00  0.00    -0.458 OA
BRANCH  27  28
ATOM     28  C   UNL     1       3.509   6.584   3.104  1.00  0.00     0.338 C 
ATOM     29  O   UNL     1       4.187   5.739   3.666  1.00  0.00    -0.246 OA
BRANCH  28  30
ATOM     30  C   UNL     1       3.479   6.735   1.641  1.00  0.00     0.060 A 
ATOM     31  C   UNL     1       2.406   6.220   0.916  1.00  0.00     0.016 A 
ATOM     32  C   UNL     1       4.589   7.258   0.977  1.00  0.00     0.016 A 
ATOM     33  C   UNL     1       2.484   6.133  -0.475  1.00  0.00     0.010 A 
ATOM     34  C   UNL     1       4.624   7.253  -0.422  1.00  0.00     0.010 A 
ATOM     35  C   UNL     1       3.593   6.650  -1.163  1.00  0.00    -0.014 A 
BRANCH  35  36
ATOM     36  C   UNL     1       3.681   6.550  -2.649  1.00  0.00     0.031 A 
ATOM     37  C   UNL     1       4.795   5.769  -3.300  1.00  0.00     0.074 A 
ATOM     38  C   UNL     1       2.760   7.161  -3.421  1.00  0.00     0.049 A 
ATOM     39  N   UNL     1       5.086   5.651  -4.570  1.00  0.00    -0.248 NA
ATOM     40  C   UNL     1       5.703   5.029  -2.409  1.00  0.00     0.031 C 
ATOM     41  C   UNL     1       1.620   7.929  -2.919  1.00  0.00     0.029 A 
ATOM     42  N   UNL     1       2.635   7.237  -4.788  1.00  0.00    -0.354 N 
ATOM     43  C   UNL     1       6.224   4.854  -4.630  1.00  0.00     0.074 A 
ATOM     44  C   UNL     1       6.584   4.532  -3.267  1.00  0.00     0.031 C 
ATOM     45  C   UNL     1       0.899   8.375  -3.958  1.00  0.00     0.029 A 
ATOM     46  C   UNL     1       1.560   7.989  -5.202  1.00  0.00     0.049 A 
ATOM     47  H   UNL     1       3.255   6.794  -5.411  1.00  0.00     0.167 HD
ATOM     48  C   UNL     1       6.901   4.423  -5.722  1.00  0.00     0.034 A 
ATOM     49  C   UNL     1       1.160   8.358  -6.437  1.00  0.00     0.034 A 
ATOM     50  C   UNL     1       6.514   4.713  -7.079  1.00  0.00     0.049 A 
ATOM     51  C   UNL     1       1.943   7.889  -7.635  1.00  0.00     0.074 A 
ATOM     52  C   UNL     1       7.121   4.288  -8.248  1.00  0.00     0.029 A 
ATOM     53  N   UNL     1       5.425   5.486  -7.453  1.00  0.00    -0.354 N 
ATOM     54  N   UNL     1       3.005   7.120  -7.672  1.00  0.00    -0.248 NA
ATOM     55  C   UNL     1       1.483   8.338  -8.957  1.00  0.00     0.031 C 
ATOM     56  C   UNL     1       6.429   4.841  -9.327  1.00  0.00     0.029 A 
ATOM     57  C   UNL     1       5.356   5.566  -8.834  1.00  0.00     0.049 A 
ATOM     58  H   UNL     1       4.795   5.914  -6.830  1.00  0.00     0.167 HD
ATOM     59  C   UNL     1       3.328   6.977  -9.018  1.00  0.00     0.074 A 
ATOM     60  C   UNL     1       2.338   7.723  -9.765  1.00  0.00     0.031 C 
ATOM     61  C   UNL     1       4.356   6.292  -9.578  1.00  0.00     0.034 A 
BRANCH  48  62
ATOM     62  C   UNL     1       8.133   3.577  -5.524  1.00  0.00     0.023 A 
ATOM     63  C   UNL     1       9.393   4.073  -5.910  1.00  0.00     0.031 A 
ATOM     64  C   UNL     1       8.045   2.245  -5.085  1.00  0.00     0.131 A 
ATOM     65  C   UNL     1      10.511   3.230  -5.880  1.00  0.00     0.055 A 
ATOM     66  C   UNL     1       9.169   1.420  -5.024  1.00  0.00     0.041 A 
ATOM     67  F   UNL     1       6.864   1.729  -4.708  1.00  0.00    -0.206 F 
ATOM     68  C   UNL     1      10.407   1.909  -5.433  1.00  0.00     0.022 A 
BRANCH  65  69
ATOM     69  S   UNL     1      12.131   3.802  -6.459  1.00  0.00     0.124 S 
ATOM     70  O   UNL     1      12.985   3.508  -5.309  1.00  0.00    -0.237 OA
ATOM     71  O   UNL     1      12.351   2.960  -7.631  1.00  0.00    -0.237 OA
ATOM     72  O   UNL     1      11.926   5.221  -6.728  1.00  0.00    -0.744 OA
ENDBRANCH  65  69
ENDBRANCH  48  62
BRANCH  49  73
ATOM     73  C   UNL     1      -0.061   9.201  -6.579  1.00  0.00     0.023 A 
ATOM     74  C   UNL     1      -0.108  10.501  -6.044  1.00  0.00     0.031 A 
ATOM     75  C   UNL     1      -1.231   8.679  -7.155  1.00  0.00     0.131 A 
ATOM     76  C   UNL     1      -1.317  11.206  -6.031  1.00  0.00     0.055 A 
ATOM     77  C   UNL     1      -2.419   9.411  -7.199  1.00  0.00     0.041 A 
ATOM     78  F   UNL     1      -1.235   7.440  -7.672  1.00  0.00    -0.206 F 
ATOM     79  C   UNL     1      -2.470  10.676  -6.620  1.00  0.00     0.022 A 
BRANCH  76  80
ATOM     80  S   UNL     1      -1.462  12.787  -5.154  1.00  0.00     0.124 S 
ATOM     81  O   UNL     1      -1.984  13.669  -6.194  1.00  0.00    -0.237 OA
ATOM     82  O   UNL     1      -2.401  12.447  -4.087  1.00  0.00    -0.237 OA
ATOM     83  O   UNL     1      -0.099  13.067  -4.718  1.00  0.00    -0.744 OA
ENDBRANCH  76  80
ENDBRANCH  49  73
BRANCH  61  84
ATOM     84  C   UNL     1       4.487   6.284 -11.079  1.00  0.00     0.023 A 
ATOM     85  C   UNL     1       4.339   5.077 -11.789  1.00  0.00     0.031 A 
ATOM     86  C   UNL     1       4.916   7.423 -11.780  1.00  0.00     0.131 A 
ATOM     87  C   UNL     1       4.660   5.027 -13.151  1.00  0.00     0.055 A 
ATOM     88  C   UNL     1       5.194   7.378 -13.147  1.00  0.00     0.041 A 
ATOM     89  F   UNL     1       5.079   8.593 -11.143  1.00  0.00    -0.206 F 
ATOM     90  C   UNL     1       5.080   6.173 -13.835  1.00  0.00     0.022 A 
BRANCH  87  91
ATOM     91  S   UNL     1       4.611   3.462 -14.068  1.00  0.00     0.124 S 
ATOM     92  O   UNL     1       3.720   3.789 -15.180  1.00  0.00    -0.237 OA
ATOM     93  O   UNL     1       6.013   3.274 -14.427  1.00  0.00    -0.237 OA
ATOM     94  O   UNL     1       4.073   2.507 -13.105  1.00  0.00    -0.744 OA
ENDBRANCH  87  91
ENDBRANCH  61  84
ENDBRANCH  35  36
ENDBRANCH  28  30
ENDBRANCH  27  28
ENDBRANCH  26  27
ENDBRANCH   1  26
TORSDOF 18
