REMARK SMILES CC(=O)Nc1cnc(N(C)CCc2cn[nH]c2)c(C(=O)OCCOC(=O)c2ccc(-c3c4nc(c(-c5cc(S(=O)(=O)[O-])ccc5F)c5ccc([nH]5)c(-c5cc(S(=O)(=O)[O-])ccc5F)c5nc(c(-c6cc(S(=O)(=O)[O-])ccc6F)c6ccc3[nH]6)C=C5)C=C4)cc2)c1
REMARK SMILES IDX 22 1 21 2 19 3 20 4 18 5 5 6 6 7 90 8 7 9 8 10 4 11 1 12
REMARK SMILES IDX 2 13 3 14 9 16 10 17 11 18 12 19 13 20 14 21 17 22 15 23
REMARK SMILES IDX 16 24 23 26 24 27 25 28 26 29 27 30 28 31 89 32 29 33 88 34
REMARK SMILES IDX 30 35 31 36 32 37 82 38 33 39 87 40 81 41 83 42 34 43 86 44
REMARK SMILES IDX 80 45 79 46 35 48 67 49 47 50 66 51 48 52 51 53 65 54 84 55
REMARK SMILES IDX 49 56 50 57 64 59 85 60 52 61 36 62 37 63 45 64 38 65 44 66
REMARK SMILES IDX 46 67 43 68 39 69 40 70 41 71 42 72 68 73 69 74 77 75 70 76
REMARK SMILES IDX 76 77 78 78 75 79 71 80 72 81 73 82 74 83 53 84 54 85 62 86
REMARK SMILES IDX 55 87 61 88 63 89 60 90 56 91 57 92 58 93 59 94
REMARK H PARENT 4 15 16 25 83 47 51 58
REMARK Flexibility Score: inf
ROOT
ATOM      1  C   UNL     1       6.816  -1.054   0.392  1.00  0.00     0.275 C 
ENDROOT
BRANCH   1   2
ATOM      2  O   UNL     1       5.575  -1.059   1.133  1.00  0.00    -0.458 OA
BRANCH   2   3
ATOM      3  C   UNL     1       4.967  -2.284   1.168  1.00  0.00     0.342 C 
ATOM      4  O   UNL     1       5.530  -3.267   0.719  1.00  0.00    -0.246 OA
BRANCH   3   5
ATOM      5  C   UNL     1       3.600  -2.240   1.790  1.00  0.00     0.104 A 
ATOM      6  C   UNL     1       1.743  -0.795   2.478  1.00  0.00     0.060 A 
ATOM      7  C   UNL     1       1.256  -1.868   3.177  1.00  0.00     0.139 A 
ATOM      8  C   UNL     1       2.956  -0.972   1.820  1.00  0.00     0.047 A 
ATOM      9  N   UNL     1       1.788  -3.096   3.078  1.00  0.00    -0.236 NA
ATOM     10  C   UNL     1       2.909  -3.346   2.331  1.00  0.00     0.143 A 
BRANCH   6  11
ATOM     11  N   UNL     1       1.007   0.398   2.472  1.00  0.00    -0.325 N 
ATOM     12  C   UNL     1       0.913   0.604   0.005  1.00  0.00     0.114 C 
ATOM     13  C   UNL     1       0.621   1.135   1.384  1.00  0.00     0.221 C 
ATOM     14  O   UNL     1      -0.044   2.159   1.543  1.00  0.00    -0.275 OA
ATOM     15  H   UNL     1       0.736   0.747   3.352  1.00  0.00     0.169 HD
ENDBRANCH   6  11
BRANCH  10  16
ATOM     16  N   UNL     1       3.160  -4.699   2.207  1.00  0.00    -0.359 N 
ATOM     17  C   UNL     1       2.314  -5.580   3.031  1.00  0.00     0.145 C 
BRANCH  16  18
ATOM     18  C   UNL     1       4.079  -5.387   1.296  1.00  0.00     0.122 C 
BRANCH  18  19
ATOM     19  C   UNL     1       3.721  -5.414  -0.203  1.00  0.00     0.060 C 
BRANCH  19  20
ATOM     20  C   UNL     1       3.229  -4.177  -0.882  1.00  0.00    -0.008 A 
ATOM     21  C   UNL     1       3.952  -3.276  -1.704  1.00  0.00     0.138 A 
ATOM     22  C   UNL     1       1.948  -3.670  -0.897  1.00  0.00     0.108 A 
ATOM     23  N   UNL     1       3.204  -2.259  -2.143  1.00  0.00    -0.184 NA
ATOM     24  N   UNL     1       1.985  -2.540  -1.655  1.00  0.00    -0.285 N 
ATOM     25  H   UNL     1       1.193  -1.982  -1.830  1.00  0.00     0.189 HD
ENDBRANCH  19  20
ENDBRANCH  18  19
ENDBRANCH  16  18
ENDBRANCH  10  16
ENDBRANCH   3   5
ENDBRANCH   2   3
ENDBRANCH   1   2
BRANCH   1  26
ATOM     26  C   UNL     1       8.066  -1.406   1.218  1.00  0.00     0.275 C 
BRANCH  26  27
ATOM     27  O   UNL     1       7.986  -2.682   1.881  1.00  0.00    -0.458 OA
BRANCH  27  28
ATOM     28  C   UNL     1       7.480  -2.616   3.139  1.00  0.00     0.338 C 
ATOM     29  O   UNL     1       7.220  -1.590   3.749  1.00  0.00    -0.246 OA
BRANCH  28  30
ATOM     30  C   UNL     1       7.095  -3.955   3.642  1.00  0.00     0.060 A 
ATOM     31  C   UNL     1       5.849  -4.043   4.269  1.00  0.00     0.016 A 
ATOM     32  C   UNL     1       7.918  -5.085   3.571  1.00  0.00     0.016 A 
ATOM     33  C   UNL     1       5.417  -5.246   4.819  1.00  0.00     0.010 A 
ATOM     34  C   UNL     1       7.494  -6.294   4.158  1.00  0.00     0.010 A 
ATOM     35  C   UNL     1       6.244  -6.376   4.795  1.00  0.00    -0.014 A 
BRANCH  35  36
ATOM     36  C   UNL     1       5.834  -7.527   5.644  1.00  0.00     0.031 A 
ATOM     37  C   UNL     1       6.141  -7.459   7.114  1.00  0.00     0.074 A 
ATOM     38  C   UNL     1       5.071  -8.529   5.170  1.00  0.00     0.049 A 
ATOM     39  N   UNL     1       5.761  -8.249   8.085  1.00  0.00    -0.248 NA
ATOM     40  C   UNL     1       6.976  -6.327   7.541  1.00  0.00     0.031 C 
ATOM     41  C   UNL     1       4.644  -8.675   3.783  1.00  0.00     0.029 A 
ATOM     42  N   UNL     1       4.492  -9.598   5.813  1.00  0.00    -0.354 N 
ATOM     43  C   UNL     1       6.293  -7.698   9.245  1.00  0.00     0.074 A 
ATOM     44  C   UNL     1       7.044  -6.525   8.847  1.00  0.00     0.031 C 
ATOM     45  C   UNL     1       3.847  -9.754   3.680  1.00  0.00     0.029 A 
ATOM     46  C   UNL     1       3.746 -10.406   4.986  1.00  0.00     0.049 A 
ATOM     47  H   UNL     1       4.601  -9.769   6.776  1.00  0.00     0.167 HD
ATOM     48  C   UNL     1       6.172  -8.130  10.525  1.00  0.00     0.034 A 
ATOM     49  C   UNL     1       3.077 -11.551   5.247  1.00  0.00     0.034 A 
ATOM     50  C   UNL     1       5.484  -9.340  10.905  1.00  0.00     0.049 A 
ATOM     51  C   UNL     1       3.061 -12.085   6.662  1.00  0.00     0.074 A 
ATOM     52  C   UNL     1       5.360  -9.903  12.163  1.00  0.00     0.029 A 
ATOM     53  N   UNL     1       4.829 -10.194  10.025  1.00  0.00    -0.354 N 
ATOM     54  N   UNL     1       3.583 -11.567   7.751  1.00  0.00    -0.248 NA
ATOM     55  C   UNL     1       2.362 -13.359   6.880  1.00  0.00     0.031 C 
ATOM     56  C   UNL     1       4.708 -11.135  12.031  1.00  0.00     0.029 A 
ATOM     57  C   UNL     1       4.336 -11.298  10.706  1.00  0.00     0.049 A 
ATOM     58  H   UNL     1       4.729 -10.037   9.058  1.00  0.00     0.167 HD
ATOM     59  C   UNL     1       3.256 -12.443   8.786  1.00  0.00     0.074 A 
ATOM     60  C   UNL     1       2.471 -13.506   8.192  1.00  0.00     0.031 C 
ATOM     61  C   UNL     1       3.573 -12.373  10.106  1.00  0.00     0.034 A 
BRANCH  48  62
ATOM     62  C   UNL     1       6.907  -7.328  11.572  1.00  0.00     0.023 A 
ATOM     63  C   UNL     1       6.586  -5.984  11.838  1.00  0.00     0.031 A 
ATOM     64  C   UNL     1       8.021  -7.881  12.227  1.00  0.00     0.131 A 
ATOM     65  C   UNL     1       7.431  -5.213  12.651  1.00  0.00     0.055 A 
ATOM     66  C   UNL     1       8.803  -7.133  13.108  1.00  0.00     0.041 A 
ATOM     67  F   UNL     1       8.394  -9.148  11.989  1.00  0.00    -0.206 F 
ATOM     68  C   UNL     1       8.524  -5.784  13.306  1.00  0.00     0.022 A 
BRANCH  65  69
ATOM     69  S   UNL     1       7.207  -3.411  12.671  1.00  0.00     0.124 S 
ATOM     70  O   UNL     1       7.301  -3.085  11.250  1.00  0.00    -0.237 OA
ATOM     71  O   UNL     1       5.888  -3.265  13.276  1.00  0.00    -0.237 OA
ATOM     72  O   UNL     1       8.324  -2.936  13.486  1.00  0.00    -0.744 OA
ENDBRANCH  65  69
ENDBRANCH  48  62
BRANCH  49  73
ATOM     73  C   UNL     1       2.428 -12.320   4.141  1.00  0.00     0.023 A 
ATOM     74  C   UNL     1       1.046 -12.573   4.118  1.00  0.00     0.031 A 
ATOM     75  C   UNL     1       3.213 -12.879   3.115  1.00  0.00     0.131 A 
ATOM     76  C   UNL     1       0.500 -13.393   3.114  1.00  0.00     0.055 A 
ATOM     77  C   UNL     1       2.659 -13.648   2.091  1.00  0.00     0.041 A 
ATOM     78  F   UNL     1       4.541 -12.681   3.092  1.00  0.00    -0.206 F 
ATOM     79  C   UNL     1       1.296 -13.918   2.093  1.00  0.00     0.022 A 
BRANCH  76  80
ATOM     80  S   UNL     1      -1.260 -13.831   3.195  1.00  0.00     0.124 S 
ATOM     81  O   UNL     1      -1.328 -14.556   4.458  1.00  0.00    -0.237 OA
ATOM     82  O   UNL     1      -1.901 -12.520   3.171  1.00  0.00    -0.237 OA
ATOM     83  O   UNL     1      -1.465 -14.641   1.996  1.00  0.00    -0.744 OA
ENDBRANCH  76  80
ENDBRANCH  49  73
BRANCH  61  84
ATOM     84  C   UNL     1       3.035 -13.464  11.008  1.00  0.00     0.023 A 
ATOM     85  C   UNL     1       3.407 -14.813  10.855  1.00  0.00     0.031 A 
ATOM     86  C   UNL     1       2.113 -13.152  12.025  1.00  0.00     0.131 A 
ATOM     87  C   UNL     1       2.808 -15.802  11.652  1.00  0.00     0.055 A 
ATOM     88  C   UNL     1       1.577 -14.131  12.863  1.00  0.00     0.041 A 
ATOM     89  F   UNL     1       1.714 -11.885  12.220  1.00  0.00    -0.206 F 
ATOM     90  C   UNL     1       1.910 -15.467  12.668  1.00  0.00     0.022 A 
BRANCH  87  91
ATOM     91  S   UNL     1       3.117 -17.547  11.258  1.00  0.00     0.124 S 
ATOM     92  O   UNL     1       2.748 -17.610   9.848  1.00  0.00    -0.237 OA
ATOM     93  O   UNL     1       4.540 -17.685  11.552  1.00  0.00    -0.237 OA
ATOM     94  O   UNL     1       2.224 -18.266  12.165  1.00  0.00    -0.744 OA
ENDBRANCH  87  91
ENDBRANCH  61  84
ENDBRANCH  35  36
ENDBRANCH  28  30
ENDBRANCH  27  28
ENDBRANCH  26  27
ENDBRANCH   1  26
TORSDOF 19
