REMARK SMILES CC1(C)[C@H](C(=O)Nc2ccc(NC(=O)C[NH+]3CCCCC3)cc2)[C@@H]1C(=O)OCCOC(=O)c1ccc(-c2c3nc(c(-c4cc(S(=O)(=O)[O-])ccc4F)c4ccc([nH]4)c(-c4cc(S(=O)(=O)[O-])ccc4F)c4nc(c(-c5cc(S(=O)(=O)[O-])ccc5F)c5ccc2[nH]5)C=C4)C=C3)cc1
REMARK SMILES IDX 28 1 27 2 25 3 26 4 24 5 1 6 2 7 3 8 4 9 5 10 6 11 7 12 8 14
REMARK SMILES IDX 9 15 23 16 10 17 22 18 11 19 12 20 13 21 14 23 15 24 16 25
REMARK SMILES IDX 17 26 21 27 18 29 20 30 19 31 29 32 30 33 31 34 32 35 33 36
REMARK SMILES IDX 34 37 95 38 35 39 94 40 36 41 37 42 38 43 88 44 39 45 93 46
REMARK SMILES IDX 87 47 89 48 40 49 92 50 86 51 85 52 41 54 73 55 53 56 72 57
REMARK SMILES IDX 54 58 57 59 71 60 90 61 55 62 56 63 70 65 91 66 58 67 42 68
REMARK SMILES IDX 43 69 51 70 44 71 50 72 52 73 49 74 45 75 46 76 47 77 48 78
REMARK SMILES IDX 74 79 75 80 83 81 76 82 82 83 84 84 81 85 77 86 78 87 79 88
REMARK SMILES IDX 80 89 59 90 60 91 68 92 61 93 67 94 69 95 66 96 62 97 63 98
REMARK SMILES IDX 64 99 65 100
REMARK H PARENT 7 13 12 22 16 28 89 53 57 64
REMARK Flexibility Score: inf
ROOT
ATOM      1  C   UNL     1      -3.303   2.337   2.286  1.00  0.00     0.274 C 
ENDROOT
BRANCH   1   2
ATOM      2  O   UNL     1      -2.880   1.379   1.293  1.00  0.00    -0.462 OA
BRANCH   2   3
ATOM      3  C   UNL     1      -1.543   1.112   1.256  1.00  0.00     0.310 C 
ATOM      4  O   UNL     1      -0.707   1.633   1.989  1.00  0.00    -0.252 OA
BRANCH   3   5
ATOM      5  C   UNL     1      -1.229  -0.037   0.380  1.00  0.00     0.118 C 
ATOM      6  C   UNL     1       0.603  -1.813  -0.207  1.00  0.00     0.013 C 
ATOM      7  C   UNL     1       0.174  -0.354  -0.182  1.00  0.00    -0.009 C 
ATOM      8  C   UNL     1       1.361   0.534   0.053  1.00  0.00     0.013 C 
ATOM      9  C   UNL     1      -0.984  -0.007  -1.101  1.00  0.00     0.100 C 
BRANCH   9  10
ATOM     10  C   UNL     1      -1.266   1.092  -2.072  1.00  0.00     0.228 C 
ATOM     11  O   UNL     1      -1.619   0.743  -3.202  1.00  0.00    -0.274 OA
ATOM     12  N   UNL     1      -1.480   2.407  -1.756  1.00  0.00    -0.326 N 
ATOM     13  H   UNL     1      -2.236   2.819  -2.234  1.00  0.00     0.169 HD
BRANCH  12  14
ATOM     14  C   UNL     1      -0.823   3.262  -0.885  1.00  0.00     0.041 A 
ATOM     15  C   UNL     1      -1.609   4.067  -0.081  1.00  0.00     0.028 A 
ATOM     16  C   UNL     1       0.558   3.345  -0.797  1.00  0.00     0.028 A 
ATOM     17  C   UNL     1      -1.017   4.731   0.991  1.00  0.00     0.028 A 
ATOM     18  C   UNL     1       1.151   4.075   0.244  1.00  0.00     0.028 A 
ATOM     19  C   UNL     1       0.360   4.739   1.185  1.00  0.00     0.041 A 
BRANCH  19  20
ATOM     20  N   UNL     1       1.000   5.303   2.304  1.00  0.00    -0.321 N 
ATOM     21  C   UNL     1       0.592   6.198   3.260  1.00  0.00     0.279 C 
ATOM     22  H   UNL     1       1.926   4.994   2.425  1.00  0.00     0.170 HD
ATOM     23  O   UNL     1       1.330   6.379   4.237  1.00  0.00    -0.268 OA
BRANCH  21  24
ATOM     24  C   UNL     1      -0.717   6.998   3.146  1.00  0.00     0.363 C 
BRANCH  24  25
ATOM     25  N   UNL     1      -0.848   7.580   1.805  1.00  0.00    -0.327 N 
ATOM     26  C   UNL     1      -2.217   7.844   1.378  1.00  0.00     0.262 C 
ATOM     27  C   UNL     1       0.034   8.720   1.573  1.00  0.00     0.262 C 
ATOM     28  H   UNL     1      -0.525   6.830   1.194  1.00  0.00     0.348 HD
ATOM     29  C   UNL     1      -2.209   8.030  -0.142  1.00  0.00     0.062 C 
ATOM     30  C   UNL     1       0.103   9.012   0.074  1.00  0.00     0.062 C 
ATOM     31  C   UNL     1      -1.284   9.174  -0.546  1.00  0.00     0.012 C 
ENDBRANCH  24  25
ENDBRANCH  21  24
ENDBRANCH  19  20
ENDBRANCH  12  14
ENDBRANCH   9  10
ENDBRANCH   3   5
ENDBRANCH   2   3
ENDBRANCH   1   2
BRANCH   1  32
ATOM     32  C   UNL     1      -3.726   1.711   3.619  1.00  0.00     0.275 C 
BRANCH  32  33
ATOM     33  O   UNL     1      -2.602   1.186   4.346  1.00  0.00    -0.458 OA
BRANCH  33  34
ATOM     34  C   UNL     1      -2.283  -0.090   4.021  1.00  0.00     0.338 C 
ATOM     35  O   UNL     1      -2.902  -0.819   3.263  1.00  0.00    -0.246 OA
BRANCH  34  36
ATOM     36  C   UNL     1      -0.967  -0.453   4.575  1.00  0.00     0.060 A 
ATOM     37  C   UNL     1      -0.045  -1.034   3.699  1.00  0.00     0.016 A 
ATOM     38  C   UNL     1      -0.667  -0.320   5.931  1.00  0.00     0.016 A 
ATOM     39  C   UNL     1       1.165  -1.519   4.171  1.00  0.00     0.010 A 
ATOM     40  C   UNL     1       0.550  -0.817   6.410  1.00  0.00     0.010 A 
ATOM     41  C   UNL     1       1.456  -1.446   5.536  1.00  0.00    -0.014 A 
BRANCH  41  42
ATOM     42  C   UNL     1       2.654  -2.154   6.042  1.00  0.00     0.031 A 
ATOM     43  C   UNL     1       2.480  -3.466   6.754  1.00  0.00     0.074 A 
ATOM     44  C   UNL     1       3.882  -1.666   5.791  1.00  0.00     0.049 A 
ATOM     45  N   UNL     1       3.382  -4.246   7.288  1.00  0.00    -0.248 NA
ATOM     46  C   UNL     1       1.101  -3.963   6.879  1.00  0.00     0.031 C 
ATOM     47  C   UNL     1       4.163  -0.437   5.047  1.00  0.00     0.029 A 
ATOM     48  N   UNL     1       5.121  -2.147   6.126  1.00  0.00    -0.354 N 
ATOM     49  C   UNL     1       2.682  -5.321   7.825  1.00  0.00     0.074 A 
ATOM     50  C   UNL     1       1.277  -5.072   7.582  1.00  0.00     0.031 C 
ATOM     51  C   UNL     1       5.493  -0.263   4.981  1.00  0.00     0.029 A 
ATOM     52  C   UNL     1       6.154  -1.336   5.719  1.00  0.00     0.049 A 
ATOM     53  H   UNL     1       5.259  -2.992   6.612  1.00  0.00     0.167 HD
ATOM     54  C   UNL     1       3.172  -6.417   8.456  1.00  0.00     0.034 A 
ATOM     55  C   UNL     1       7.479  -1.435   5.943  1.00  0.00     0.034 A 
ATOM     56  C   UNL     1       4.579  -6.638   8.691  1.00  0.00     0.049 A 
ATOM     57  C   UNL     1       7.993  -2.618   6.729  1.00  0.00     0.074 A 
ATOM     58  C   UNL     1       5.191  -7.710   9.318  1.00  0.00     0.029 A 
ATOM     59  N   UNL     1       5.596  -5.766   8.318  1.00  0.00    -0.354 N 
ATOM     60  N   UNL     1       7.323  -3.623   7.245  1.00  0.00    -0.248 NA
ATOM     61  C   UNL     1       9.442  -2.683   6.953  1.00  0.00     0.031 C 
ATOM     62  C   UNL     1       6.563  -7.447   9.397  1.00  0.00     0.029 A 
ATOM     63  C   UNL     1       6.824  -6.259   8.733  1.00  0.00     0.049 A 
ATOM     64  H   UNL     1       5.463  -4.921   7.831  1.00  0.00     0.167 HD
ATOM     65  C   UNL     1       8.275  -4.459   7.822  1.00  0.00     0.074 A 
ATOM     66  C   UNL     1       9.565  -3.845   7.577  1.00  0.00     0.031 C 
ATOM     67  C   UNL     1       8.103  -5.630   8.488  1.00  0.00     0.034 A 
BRANCH  54  68
ATOM     68  C   UNL     1       2.174  -7.419   8.987  1.00  0.00     0.023 A 
ATOM     69  C   UNL     1       1.312  -8.136   8.138  1.00  0.00     0.031 A 
ATOM     70  C   UNL     1       2.061  -7.637  10.372  1.00  0.00     0.131 A 
ATOM     71  C   UNL     1       0.331  -8.979   8.684  1.00  0.00     0.055 A 
ATOM     72  C   UNL     1       1.140  -8.541  10.904  1.00  0.00     0.041 A 
ATOM     73  F   UNL     1       2.837  -6.963  11.235  1.00  0.00    -0.206 F 
ATOM     74  C   UNL     1       0.257  -9.207  10.060  1.00  0.00     0.022 A 
BRANCH  71  75
ATOM     75  S   UNL     1      -0.944  -9.655   7.585  1.00  0.00     0.124 S 
ATOM     76  O   UNL     1      -1.529  -8.438   7.027  1.00  0.00    -0.237 OA
ATOM     77  O   UNL     1      -0.165 -10.471   6.662  1.00  0.00    -0.237 OA
ATOM     78  O   UNL     1      -1.819 -10.398   8.490  1.00  0.00    -0.744 OA
ENDBRANCH  71  75
ENDBRANCH  54  68
BRANCH  55  79
ATOM     79  C   UNL     1       8.409  -0.374   5.461  1.00  0.00     0.023 A 
ATOM     80  C   UNL     1       9.429  -0.661   4.541  1.00  0.00     0.031 A 
ATOM     81  C   UNL     1       8.322   0.940   5.958  1.00  0.00     0.131 A 
ATOM     82  C   UNL     1      10.350   0.337   4.184  1.00  0.00     0.055 A 
ATOM     83  C   UNL     1       9.202   1.944   5.553  1.00  0.00     0.041 A 
ATOM     84  F   UNL     1       7.369   1.270   6.844  1.00  0.00    -0.206 F 
ATOM     85  C   UNL     1      10.234   1.641   4.671  1.00  0.00     0.022 A 
BRANCH  82  86
ATOM     86  S   UNL     1      11.766  -0.120   3.146  1.00  0.00     0.124 S 
ATOM     87  O   UNL     1      12.390  -1.171   3.942  1.00  0.00    -0.237 OA
ATOM     88  O   UNL     1      11.113  -0.550   1.915  1.00  0.00    -0.237 OA
ATOM     89  O   UNL     1      12.529   1.122   3.045  1.00  0.00    -0.744 OA
ENDBRANCH  82  86
ENDBRANCH  55  79
BRANCH  67  90
ATOM     90  C   UNL     1       9.350  -6.352   8.944  1.00  0.00     0.023 A 
ATOM     91  C   UNL     1      10.215  -5.809   9.910  1.00  0.00     0.031 A 
ATOM     92  C   UNL     1       9.685  -7.599   8.385  1.00  0.00     0.131 A 
ATOM     93  C   UNL     1      11.404  -6.479  10.239  1.00  0.00     0.055 A 
ATOM     94  C   UNL     1      10.832  -8.294   8.769  1.00  0.00     0.041 A 
ATOM     95  F   UNL     1       8.899  -8.165   7.455  1.00  0.00    -0.206 F 
ATOM     96  C   UNL     1      11.707  -7.727   9.690  1.00  0.00     0.022 A 
BRANCH  93  97
ATOM     97  S   UNL     1      12.607  -5.643  11.309  1.00  0.00     0.124 S 
ATOM     98  O   UNL     1      12.860  -4.408  10.574  1.00  0.00    -0.237 OA
ATOM     99  O   UNL     1      11.867  -5.502  12.559  1.00  0.00    -0.237 OA
ATOM    100  O   UNL     1      13.730  -6.577  11.357  1.00  0.00    -0.744 OA
ENDBRANCH  93  97
ENDBRANCH  67  90
ENDBRANCH  41  42
ENDBRANCH  34  36
ENDBRANCH  33  34
ENDBRANCH  32  33
ENDBRANCH   1  32
TORSDOF 19
