REMARK SMILES CC(C)=CC[C@@]1(C(=O)OCCOC(=O)c2ccc(-c3c4nc(c(-c5cc(S(=O)(=O)[O-])ccc5F)c5ccc([nH]5)c(-c5cc(S(=O)(=O)[O-])ccc5F)c5nc(c(-c6cc(S(=O)(=O)[O-])ccc6F)c6ccc3[nH]6)C=C5)C=C4)cc2)CCC[C@H](C)C1
REMARK SMILES IDX 11 1 10 2 9 3 7 4 8 5 6 6 78 7 83 8 79 9 81 10 80 11 82 12
REMARK SMILES IDX 5 13 4 14 1 15 2 16 3 17 12 18 13 19 14 20 15 21 16 22 77 23
REMARK SMILES IDX 17 24 76 25 18 26 19 27 20 28 70 29 21 30 75 31 69 32 71 33
REMARK SMILES IDX 22 34 74 35 68 36 67 37 23 39 55 40 35 41 54 42 36 43 39 44
REMARK SMILES IDX 53 45 72 46 37 47 38 48 52 50 73 51 40 52 24 53 25 54 33 55
REMARK SMILES IDX 26 56 32 57 34 58 31 59 27 60 28 61 29 62 30 63 56 64 57 65
REMARK SMILES IDX 65 66 58 67 64 68 66 69 63 70 59 71 60 72 61 73 62 74 41 75
REMARK SMILES IDX 42 76 50 77 43 78 49 79 51 80 48 81 44 82 45 83 46 84 47 85
REMARK H PARENT 71 38 39 49
REMARK Flexibility Score: inf
ROOT
ATOM      1  C   UNL     1      -0.041   0.517  -4.109  1.00  0.00     0.275 C 
ENDROOT
BRANCH   1   2
ATOM      2  C   UNL     1       1.453   0.531  -4.430  1.00  0.00     0.274 C 
BRANCH   2   3
ATOM      3  O   UNL     1       2.228   0.345  -3.227  1.00  0.00    -0.462 OA
BRANCH   3   4
ATOM      4  C   UNL     1       2.709   1.486  -2.656  1.00  0.00     0.312 C 
ATOM      5  O   UNL     1       2.646   2.586  -3.192  1.00  0.00    -0.252 OA
BRANCH   4   6
ATOM      6  C   UNL     1       3.294   1.240  -1.246  1.00  0.00     0.072 C 
ATOM      7  C   UNL     1       3.704   2.657  -0.712  1.00  0.00     0.019 C 
ATOM      8  C   UNL     1       4.591   0.415  -1.353  1.00  0.00     0.022 C 
ATOM      9  C   UNL     1       4.583   2.663   0.537  1.00  0.00     0.001 C 
ATOM     10  C   UNL     1       5.339   0.338  -0.009  1.00  0.00    -0.013 C 
ATOM     11  C   UNL     1       5.792   1.740   0.399  1.00  0.00     0.003 C 
ATOM     12  C   UNL     1       6.482  -0.672  -0.038  1.00  0.00     0.007 C 
BRANCH   6  13
ATOM     13  C   UNL     1       2.153   0.601  -0.368  1.00  0.00     0.046 C 
BRANCH  13  14
ATOM     14  C   UNL     1       2.311  -0.655   0.462  1.00  0.00    -0.027 C 
ATOM     15  C   UNL     1       2.786  -2.476  -1.257  1.00  0.00     0.039 C 
ATOM     16  C   UNL     1       2.561  -1.937   0.125  1.00  0.00    -0.080 C 
ATOM     17  C   UNL     1       2.629  -2.999   1.197  1.00  0.00     0.039 C 
ENDBRANCH  13  14
ENDBRANCH   6  13
ENDBRANCH   4   6
ENDBRANCH   3   4
ENDBRANCH   2   3
ENDBRANCH   1   2
BRANCH   1  18
ATOM     18  O   UNL     1      -0.341   1.555  -3.161  1.00  0.00    -0.458 OA
BRANCH  18  19
ATOM     19  C   UNL     1      -1.329   1.274  -2.284  1.00  0.00     0.338 C 
ATOM     20  O   UNL     1      -2.031   0.266  -2.277  1.00  0.00    -0.246 OA
BRANCH  19  21
ATOM     21  C   UNL     1      -1.477   2.373  -1.310  1.00  0.00     0.060 A 
ATOM     22  C   UNL     1      -0.359   3.014  -0.772  1.00  0.00     0.016 A 
ATOM     23  C   UNL     1      -2.753   2.717  -0.862  1.00  0.00     0.016 A 
ATOM     24  C   UNL     1      -0.504   3.928   0.272  1.00  0.00     0.010 A 
ATOM     25  C   UNL     1      -2.903   3.707   0.113  1.00  0.00     0.010 A 
ATOM     26  C   UNL     1      -1.779   4.300   0.717  1.00  0.00    -0.014 A 
BRANCH  26  27
ATOM     27  C   UNL     1      -1.953   5.276   1.829  1.00  0.00     0.031 A 
ATOM     28  C   UNL     1      -2.676   4.861   3.085  1.00  0.00     0.074 A 
ATOM     29  C   UNL     1      -1.482   6.534   1.714  1.00  0.00     0.049 A 
ATOM     30  N   UNL     1      -3.116   5.595   4.074  1.00  0.00    -0.248 NA
ATOM     31  C   UNL     1      -2.953   3.424   3.233  1.00  0.00     0.031 C 
ATOM     32  C   UNL     1      -0.717   7.053   0.578  1.00  0.00     0.029 A 
ATOM     33  N   UNL     1      -1.582   7.610   2.562  1.00  0.00    -0.354 N 
ATOM     34  C   UNL     1      -3.761   4.718   4.942  1.00  0.00     0.074 A 
ATOM     35  C   UNL     1      -3.671   3.401   4.346  1.00  0.00     0.031 C 
ATOM     36  C   UNL     1      -0.398   8.335   0.810  1.00  0.00     0.029 A 
ATOM     37  C   UNL     1      -1.010   8.758   2.064  1.00  0.00     0.049 A 
ATOM     38  H   UNL     1      -2.020   7.564   3.442  1.00  0.00     0.167 HD
ATOM     39  C   UNL     1      -4.371   4.990   6.124  1.00  0.00     0.034 A 
ATOM     40  C   UNL     1      -1.019  10.021   2.535  1.00  0.00     0.034 A 
ATOM     41  C   UNL     1      -4.429   6.308   6.712  1.00  0.00     0.049 A 
ATOM     42  C   UNL     1      -1.762  10.314   3.812  1.00  0.00     0.074 A 
ATOM     43  C   UNL     1      -5.019   6.700   7.902  1.00  0.00     0.029 A 
ATOM     44  N   UNL     1      -3.873   7.452   6.153  1.00  0.00    -0.354 N 
ATOM     45  N   UNL     1      -2.425   9.490   4.590  1.00  0.00    -0.248 NA
ATOM     46  C   UNL     1      -1.769  11.710   4.266  1.00  0.00     0.031 C 
ATOM     47  C   UNL     1      -4.870   8.086   8.033  1.00  0.00     0.029 A 
ATOM     48  C   UNL     1      -4.126   8.551   6.961  1.00  0.00     0.049 A 
ATOM     49  H   UNL     1      -3.372   7.479   5.306  1.00  0.00     0.167 HD
ATOM     50  C   UNL     1      -2.913  10.267   5.636  1.00  0.00     0.074 A 
ATOM     51  C   UNL     1      -2.452  11.620   5.398  1.00  0.00     0.031 C 
ATOM     52  C   UNL     1      -3.672   9.897   6.699  1.00  0.00     0.034 A 
BRANCH  39  53
ATOM     53  C   UNL     1      -5.074   3.847   6.820  1.00  0.00     0.023 A 
ATOM     54  C   UNL     1      -4.376   2.728   7.309  1.00  0.00     0.031 A 
ATOM     55  C   UNL     1      -6.474   3.859   6.959  1.00  0.00     0.131 A 
ATOM     56  C   UNL     1      -5.084   1.637   7.839  1.00  0.00     0.055 A 
ATOM     57  C   UNL     1      -7.165   2.805   7.561  1.00  0.00     0.041 A 
ATOM     58  F   UNL     1      -7.198   4.889   6.494  1.00  0.00    -0.206 F 
ATOM     59  C   UNL     1      -6.472   1.678   7.990  1.00  0.00     0.022 A 
BRANCH  56  60
ATOM     60  S   UNL     1      -4.180   0.103   8.190  1.00  0.00     0.124 S 
ATOM     61  O   UNL     1      -3.608  -0.209   6.882  1.00  0.00    -0.237 OA
ATOM     62  O   UNL     1      -3.234   0.522   9.217  1.00  0.00    -0.237 OA
ATOM     63  O   UNL     1      -5.224  -0.815   8.639  1.00  0.00    -0.744 OA
ENDBRANCH  56  60
ENDBRANCH  39  53
BRANCH  40  64
ATOM     64  C   UNL     1      -0.362  11.117   1.766  1.00  0.00     0.023 A 
ATOM     65  C   UNL     1       0.733  11.817   2.295  1.00  0.00     0.031 A 
ATOM     66  C   UNL     1      -0.842  11.502   0.500  1.00  0.00     0.131 A 
ATOM     67  C   UNL     1       1.293  12.886   1.576  1.00  0.00     0.055 A 
ATOM     68  C   UNL     1      -0.249  12.530  -0.234  1.00  0.00     0.041 A 
ATOM     69  F   UNL     1      -1.889  10.868  -0.051  1.00  0.00    -0.206 F 
ATOM     70  C   UNL     1       0.819  13.236   0.310  1.00  0.00     0.022 A 
BRANCH  67  71
ATOM     71  S   UNL     1       2.606  13.864   2.356  1.00  0.00     0.124 S 
ATOM     72  O   UNL     1       1.944  14.344   3.563  1.00  0.00    -0.237 OA
ATOM     73  O   UNL     1       3.652  12.865   2.551  1.00  0.00    -0.237 OA
ATOM     74  O   UNL     1       2.905  14.889   1.358  1.00  0.00    -0.744 OA
ENDBRANCH  67  71
ENDBRANCH  40  64
BRANCH  52  75
ATOM     75  C   UNL     1      -4.008  10.975   7.699  1.00  0.00     0.023 A 
ATOM     76  C   UNL     1      -4.873  12.036   7.379  1.00  0.00     0.031 A 
ATOM     77  C   UNL     1      -3.431  10.952   8.980  1.00  0.00     0.131 A 
ATOM     78  C   UNL     1      -5.092  13.062   8.310  1.00  0.00     0.055 A 
ATOM     79  C   UNL     1      -3.697  11.947   9.922  1.00  0.00     0.041 A 
ATOM     80  F   UNL     1      -2.596   9.963   9.336  1.00  0.00    -0.206 F 
ATOM     81  C   UNL     1      -4.521  13.017   9.585  1.00  0.00     0.022 A 
BRANCH  78  82
ATOM     82  S   UNL     1      -6.063  14.508   7.802  1.00  0.00     0.124 S 
ATOM     83  O   UNL     1      -5.292  15.009   6.669  1.00  0.00    -0.237 OA
ATOM     84  O   UNL     1      -7.359  13.917   7.482  1.00  0.00    -0.237 OA
ATOM     85  O   UNL     1      -6.050  15.364   8.987  1.00  0.00    -0.744 OA
ENDBRANCH  78  82
ENDBRANCH  52  75
ENDBRANCH  26  27
ENDBRANCH  19  21
ENDBRANCH  18  19
ENDBRANCH   1  18
TORSDOF 16
