REMARK SMILES CCc1ccc(C(=O)[C@@H](Br)CC(=O)OCCOC(=O)c2ccc(-c3c4nc(c(-c5cc(S(=O)(=O)[O-])ccc5F)c5ccc([nH]5)c(-c5cc(S(=O)(=O)[O-])ccc5F)c5nc(c(-c6cc(S(=O)(=O)[O-])ccc6F)c6ccc3[nH]6)C=C5)C=C4)cc2)cc1
REMARK SMILES IDX 15 1 14 2 12 3 13 4 11 5 9 6 10 7 7 8 8 9 6 10 3 11 4 12
REMARK SMILES IDX 84 13 5 14 83 15 2 16 1 17 16 18 17 19 18 20 19 21 20 22
REMARK SMILES IDX 21 23 82 24 22 25 81 26 23 27 24 28 25 29 75 30 26 31 80 32
REMARK SMILES IDX 74 33 76 34 27 35 79 36 73 37 72 38 28 40 60 41 40 42 59 43
REMARK SMILES IDX 41 44 44 45 58 46 77 47 42 48 43 49 57 51 78 52 45 53 29 54
REMARK SMILES IDX 30 55 38 56 31 57 37 58 39 59 36 60 32 61 33 62 34 63 35 64
REMARK SMILES IDX 61 65 62 66 70 67 63 68 69 69 71 70 68 71 64 72 65 73 66 74
REMARK SMILES IDX 67 75 46 76 47 77 55 78 48 79 54 80 56 81 53 82 49 83 50 84
REMARK SMILES IDX 51 85 52 86
REMARK H PARENT 76 39 44 50
REMARK Flexibility Score: inf
ROOT
ATOM      1  C   UNL     1      -1.332  -1.699   8.071  1.00  0.00     0.274 C 
ENDROOT
BRANCH   1   2
ATOM      2  O   UNL     1      -0.205  -1.190   7.332  1.00  0.00    -0.462 OA
BRANCH   2   3
ATOM      3  C   UNL     1      -0.157   0.156   7.177  1.00  0.00     0.307 C 
ATOM      4  O   UNL     1      -1.024   0.934   7.555  1.00  0.00    -0.252 OA
BRANCH   3   5
ATOM      5  C   UNL     1       1.049   0.616   6.397  1.00  0.00     0.146 C 
BRANCH   5   6
ATOM      6  C   UNL     1       2.266  -0.283   6.563  1.00  0.00     0.140 C 
ATOM      7  Br  UNL     1       3.920   0.743   6.307  1.00  0.00    -0.080 Br
BRANCH   6   8
ATOM      8  C   UNL     1       2.363  -1.488   5.636  1.00  0.00     0.177 C 
ATOM      9  O   UNL     1       2.783  -2.574   6.044  1.00  0.00    -0.293 OA
BRANCH   8  10
ATOM     10  C   UNL     1       1.920  -1.418   4.213  1.00  0.00     0.019 A 
ATOM     11  C   UNL     1       0.949  -1.393   1.563  1.00  0.00    -0.048 A 
ATOM     12  C   UNL     1       0.901  -2.564   2.334  1.00  0.00     0.004 A 
ATOM     13  C   UNL     1       1.506  -0.243   2.133  1.00  0.00     0.004 A 
ATOM     14  C   UNL     1       1.385  -2.579   3.644  1.00  0.00     0.012 A 
ATOM     15  C   UNL     1       2.007  -0.260   3.438  1.00  0.00     0.012 A 
BRANCH  11  16
ATOM     16  C   UNL     1       0.364  -1.422   0.170  1.00  0.00     0.032 C 
ATOM     17  C   UNL     1       0.737  -0.262  -0.744  1.00  0.00     0.009 C 
ENDBRANCH  11  16
ENDBRANCH   8  10
ENDBRANCH   6   8
ENDBRANCH   5   6
ENDBRANCH   3   5
ENDBRANCH   2   3
ENDBRANCH   1   2
BRANCH   1  18
ATOM     18  C   UNL     1      -0.992  -1.954   9.543  1.00  0.00     0.275 C 
BRANCH  18  19
ATOM     19  O   UNL     1      -0.704  -0.732  10.250  1.00  0.00    -0.458 OA
BRANCH  19  20
ATOM     20  C   UNL     1       0.613  -0.426  10.325  1.00  0.00     0.338 C 
ATOM     21  O   UNL     1       1.540  -1.085   9.887  1.00  0.00    -0.246 OA
BRANCH  20  22
ATOM     22  C   UNL     1       0.804   0.920  10.882  1.00  0.00     0.060 A 
ATOM     23  C   UNL     1       1.322   1.900  10.033  1.00  0.00     0.016 A 
ATOM     24  C   UNL     1       0.630   1.180  12.241  1.00  0.00     0.016 A 
ATOM     25  C   UNL     1       1.699   3.138  10.538  1.00  0.00     0.010 A 
ATOM     26  C   UNL     1       1.007   2.430  12.751  1.00  0.00     0.010 A 
ATOM     27  C   UNL     1       1.570   3.404  11.906  1.00  0.00    -0.014 A 
BRANCH  27  28
ATOM     28  C   UNL     1       2.158   4.655  12.447  1.00  0.00     0.031 A 
ATOM     29  C   UNL     1       3.458   4.591  13.201  1.00  0.00     0.074 A 
ATOM     30  C   UNL     1       1.581   5.843  12.188  1.00  0.00     0.049 A 
ATOM     31  N   UNL     1       4.128   5.549  13.786  1.00  0.00    -0.248 NA
ATOM     32  C   UNL     1       4.081   3.264  13.311  1.00  0.00     0.031 C 
ATOM     33  C   UNL     1       0.360   6.033  11.404  1.00  0.00     0.029 A 
ATOM     34  N   UNL     1       1.956   7.114  12.540  1.00  0.00    -0.354 N 
ATOM     35  C   UNL     1       5.245   4.941  14.351  1.00  0.00     0.074 A 
ATOM     36  C   UNL     1       5.141   3.526  14.061  1.00  0.00     0.031 C 
ATOM     37  C   UNL     1       0.096   7.348  11.321  1.00  0.00     0.029 A 
ATOM     38  C   UNL     1       1.099   8.087  12.083  1.00  0.00     0.049 A 
ATOM     39  H   UNL     1       2.762   7.311  13.070  1.00  0.00     0.167 HD
ATOM     40  C   UNL     1       6.263   5.511  15.044  1.00  0.00     0.034 A 
ATOM     41  C   UNL     1       1.113   9.421  12.274  1.00  0.00     0.034 A 
ATOM     42  C   UNL     1       6.351   6.925  15.320  1.00  0.00     0.049 A 
ATOM     43  C   UNL     1       2.223  10.027  13.095  1.00  0.00     0.074 A 
ATOM     44  C   UNL     1       7.314   7.609  16.043  1.00  0.00     0.029 A 
ATOM     45  N   UNL     1       5.441   7.878  14.876  1.00  0.00    -0.354 N 
ATOM     46  N   UNL     1       3.238   9.434  13.679  1.00  0.00    -0.248 NA
ATOM     47  C   UNL     1       2.188  11.483  13.278  1.00  0.00     0.031 C 
ATOM     48  C   UNL     1       6.960   8.964  16.077  1.00  0.00     0.029 A 
ATOM     49  C   UNL     1       5.812   9.138  15.321  1.00  0.00     0.049 A 
ATOM     50  H   UNL     1       4.648   7.685  14.326  1.00  0.00     0.167 HD
ATOM     51  C   UNL     1       3.977  10.449  14.278  1.00  0.00     0.074 A 
ATOM     52  C   UNL     1       3.297  11.692  13.973  1.00  0.00     0.031 C 
ATOM     53  C   UNL     1       5.115  10.365  15.013  1.00  0.00     0.034 A 
BRANCH  40  54
ATOM     54  C   UNL     1       7.315   4.583  15.602  1.00  0.00     0.023 A 
ATOM     55  C   UNL     1       8.159   3.829  14.766  1.00  0.00     0.031 A 
ATOM     56  C   UNL     1       7.431   4.400  16.991  1.00  0.00     0.131 A 
ATOM     57  C   UNL     1       9.021   2.872  15.323  1.00  0.00     0.055 A 
ATOM     58  C   UNL     1       8.348   3.502  17.543  1.00  0.00     0.041 A 
ATOM     59  F   UNL     1       6.636   5.073  17.838  1.00  0.00    -0.206 F 
ATOM     60  C   UNL     1       9.137   2.719  16.707  1.00  0.00     0.022 A 
BRANCH  57  61
ATOM     61  S   UNL     1       9.872   1.718  14.211  1.00  0.00     0.124 S 
ATOM     62  O   UNL     1       8.748   1.090  13.522  1.00  0.00    -0.237 OA
ATOM     63  O   UNL     1      10.700   2.608  13.407  1.00  0.00    -0.237 OA
ATOM     64  O   UNL     1      10.603   0.839  15.123  1.00  0.00    -0.744 OA
ENDBRANCH  57  61
ENDBRANCH  40  54
BRANCH  41  65
ATOM     65  C   UNL     1       0.025  10.273  11.716  1.00  0.00     0.023 A 
ATOM     66  C   UNL     1       0.288  11.233  10.727  1.00  0.00     0.031 A 
ATOM     67  C   UNL     1      -1.292  10.163  12.198  1.00  0.00     0.131 A 
ATOM     68  C   UNL     1      -0.744  12.071  10.276  1.00  0.00     0.055 A 
ATOM     69  C   UNL     1      -2.324  10.966  11.713  1.00  0.00     0.041 A 
ATOM     70  F   UNL     1      -1.595   9.259  13.143  1.00  0.00    -0.206 F 
ATOM     71  C   UNL     1      -2.050  11.936  10.754  1.00  0.00     0.022 A 
BRANCH  68  72
ATOM     72  S   UNL     1      -0.342  13.392   9.099  1.00  0.00     0.124 S 
ATOM     73  O   UNL     1       0.646  14.164   9.843  1.00  0.00    -0.237 OA
ATOM     74  O   UNL     1       0.161  12.636   7.956  1.00  0.00    -0.237 OA
ATOM     75  O   UNL     1      -1.625  14.059   8.885  1.00  0.00    -0.744 OA
ENDBRANCH  68  72
ENDBRANCH  41  65
BRANCH  53  76
ATOM     76  C   UNL     1       5.714  11.665  15.487  1.00  0.00     0.023 A 
ATOM     77  C   UNL     1       5.085  12.458  16.462  1.00  0.00     0.031 A 
ATOM     78  C   UNL     1       6.919  12.129  14.931  1.00  0.00     0.131 A 
ATOM     79  C   UNL     1       5.633  13.702  16.810  1.00  0.00     0.055 A 
ATOM     80  C   UNL     1       7.487  13.343  15.318  1.00  0.00     0.041 A 
ATOM     81  F   UNL     1       7.560  11.410  13.995  1.00  0.00    -0.206 F 
ATOM     82  C   UNL     1       6.836  14.144  16.253  1.00  0.00     0.022 A 
BRANCH  79  83
ATOM     83  S   UNL     1       4.703  14.782  17.932  1.00  0.00     0.124 S 
ATOM     84  O   UNL     1       3.425  14.914  17.240  1.00  0.00    -0.237 OA
ATOM     85  O   UNL     1       4.681  14.004  19.166  1.00  0.00    -0.237 OA
ATOM     86  O   UNL     1       5.508  16.001  17.983  1.00  0.00    -0.744 OA
ENDBRANCH  79  83
ENDBRANCH  53  76
ENDBRANCH  27  28
ENDBRANCH  20  22
ENDBRANCH  19  20
ENDBRANCH  18  19
ENDBRANCH   1  18
TORSDOF 18
