REMARK SMILES Cc1coc2cc3c(cc12)[C@@H](C)[C@H](CCC(=O)N[C@@H](Cc1c[nH]c2ccccc12)C(=O)OCCOC(=O)c1ccc(-c2c4nc(c(-c5cc(S(=O)(=O)[O-])ccc5F)c5ccc([nH]5)c(-c5cc(S(=O)(=O)[O-])ccc5F)c5nc(c(-c6cc(S(=O)(=O)[O-])ccc6F)c6ccc2[nH]6)C=C5)C=C4)cc1)C(=O)O3
REMARK SMILES IDX 33 1 32 2 30 3 31 4 19 5 18 6 16 7 17 8 15 10 14 11 13 12
REMARK SMILES IDX 1 13 2 14 3 15 10 16 4 17 5 18 9 19 6 20 8 21 7 22 11 23
REMARK SMILES IDX 103 24 12 25 101 26 102 27 20 28 21 29 22 30 29 31 23 32
REMARK SMILES IDX 24 33 28 34 25 36 27 37 26 38 34 39 35 40 36 41 37 42 38 43
REMARK SMILES IDX 39 44 100 45 40 46 99 47 41 48 42 49 43 50 93 51 44 52 98 53
REMARK SMILES IDX 92 54 94 55 45 56 97 57 91 58 90 59 46 61 78 62 58 63 77 64
REMARK SMILES IDX 59 65 62 66 76 67 95 68 60 69 61 70 75 72 96 73 63 74 47 75
REMARK SMILES IDX 48 76 56 77 49 78 55 79 57 80 54 81 50 82 51 83 52 84 53 85
REMARK SMILES IDX 79 86 80 87 88 88 81 89 87 90 89 91 86 92 82 93 83 94 84 95
REMARK SMILES IDX 85 96 64 97 65 98 73 99 66 100 72 101 74 102 71 103 67 104
REMARK SMILES IDX 68 105 69 106 70 107
REMARK H PARENT 18 9 23 35 94 60 62 71
REMARK Flexibility Score: inf
ROOT
ATOM      1  C   UNL     1      -2.528  -6.876  -2.371  1.00  0.00     0.274 C 
ENDROOT
BRANCH   1   2
ATOM      2  O   UNL     1      -1.254  -6.202  -2.199  1.00  0.00    -0.461 OA
BRANCH   2   3
ATOM      3  C   UNL     1      -0.531  -6.542  -1.106  1.00  0.00     0.329 C 
ATOM      4  O   UNL     1      -0.893  -7.460  -0.373  1.00  0.00    -0.250 OA
BRANCH   3   5
ATOM      5  C   UNL     1       0.766  -5.530  -0.637  1.00  0.00     0.196 C 
BRANCH   5   6
ATOM      6  N   UNL     1       2.357  -4.763  -1.682  1.00  0.00    -0.342 N 
ATOM      7  C   UNL     1       3.632  -4.782  -2.300  1.00  0.00     0.220 C 
ATOM      8  O   UNL     1       3.872  -3.850  -3.072  1.00  0.00    -0.275 OA
ATOM      9  H   UNL     1       2.061  -3.840  -1.855  1.00  0.00     0.164 HD
BRANCH   7  10
ATOM     10  C   UNL     1       4.611  -5.906  -2.134  1.00  0.00     0.101 C 
BRANCH  10  11
ATOM     11  C   UNL     1       4.430  -6.369  -0.736  1.00  0.00     0.026 C 
BRANCH  11  12
ATOM     12  C   UNL     1       2.928  -6.279  -0.506  1.00  0.00     0.107 C 
ATOM     13  C   UNL     1       1.068   1.216   0.134  1.00  0.00     0.048 C 
ATOM     14  C   UNL     1       0.677   0.336  -0.991  1.00  0.00    -0.005 A 
ATOM     15  C   UNL     1       0.108   0.708  -2.187  1.00  0.00     0.199 A 
ATOM     16  C   UNL     1       0.832  -1.088  -1.043  1.00  0.00     0.024 A 
ATOM     17  O   UNL     1      -0.150  -0.369  -2.961  1.00  0.00    -0.464 OA
ATOM     18  C   UNL     1       0.252  -1.481  -2.274  1.00  0.00     0.137 A 
ATOM     19  C   UNL     1       1.462  -1.989  -0.132  1.00  0.00     0.020 A 
ATOM     20  C   UNL     1       0.082  -2.764  -2.814  1.00  0.00     0.095 A 
ATOM     21  C   UNL     1       1.403  -3.310  -0.500  1.00  0.00    -0.001 A 
ATOM     22  C   UNL     1       0.515  -3.689  -1.903  1.00  0.00     0.138 A 
ATOM     23  C   UNL     1       2.648  -4.507   0.289  1.00  0.00     0.034 C 
ATOM     24  O   UNL     1       0.869  -5.288  -2.676  1.00  0.00    -0.426 OA
ATOM     25  C   UNL     1       2.739  -4.631   1.796  1.00  0.00     0.014 C 
ATOM     26  C   UNL     1       1.911  -6.649  -2.167  1.00  0.00     0.314 C 
ATOM     27  O   UNL     1       2.038  -7.598  -2.921  1.00  0.00    -0.251 OA
ENDBRANCH  11  12
ENDBRANCH  10  11
ENDBRANCH   7  10
ENDBRANCH   5   6
BRANCH   5  28
ATOM     28  C   UNL     1      -0.119  -4.877   0.703  1.00  0.00     0.074 C 
BRANCH  28  29
ATOM     29  C   UNL     1      -1.357  -3.988   0.783  1.00  0.00    -0.020 A 
ATOM     30  C   UNL     1      -1.759  -3.576   2.055  1.00  0.00     0.087 A 
ATOM     31  C   UNL     1      -2.284  -3.355  -0.116  1.00  0.00     0.003 A 
ATOM     32  N   UNL     1      -2.725  -2.627   1.947  1.00  0.00    -0.361 N 
ATOM     33  C   UNL     1      -3.013  -2.414   0.627  1.00  0.00     0.046 A 
ATOM     34  C   UNL     1      -2.567  -3.392  -1.493  1.00  0.00     0.010 A 
ATOM     35  H   UNL     1      -3.153  -2.164   2.703  1.00  0.00     0.166 HD
ATOM     36  C   UNL     1      -3.853  -1.451   0.051  1.00  0.00     0.026 A 
ATOM     37  C   UNL     1      -3.390  -2.434  -2.098  1.00  0.00     0.001 A 
ATOM     38  C   UNL     1      -3.999  -1.453  -1.334  1.00  0.00     0.002 A 
ENDBRANCH  28  29
ENDBRANCH   5  28
ENDBRANCH   3   5
ENDBRANCH   2   3
ENDBRANCH   1   2
BRANCH   1  39
ATOM     39  C   UNL     1      -2.580  -7.617  -3.708  1.00  0.00     0.275 C 
BRANCH  39  40
ATOM     40  O   UNL     1      -2.195  -8.977  -3.466  1.00  0.00    -0.458 OA
BRANCH  40  41
ATOM     41  C   UNL     1      -1.015  -9.375  -3.996  1.00  0.00     0.338 C 
ATOM     42  O   UNL     1      -0.545  -9.000  -5.056  1.00  0.00    -0.246 OA
BRANCH  41  43
ATOM     43  C   UNL     1      -0.285 -10.124  -2.935  1.00  0.00     0.060 A 
ATOM     44  C   UNL     1      -0.882 -10.422  -1.702  1.00  0.00     0.016 A 
ATOM     45  C   UNL     1       1.089 -10.228  -3.067  1.00  0.00     0.016 A 
ATOM     46  C   UNL     1      -0.097 -10.520  -0.549  1.00  0.00     0.010 A 
ATOM     47  C   UNL     1       1.861 -10.328  -1.913  1.00  0.00     0.010 A 
ATOM     48  C   UNL     1       1.278 -10.323  -0.630  1.00  0.00    -0.014 A 
BRANCH  48  49
ATOM     49  C   UNL     1       2.124 -10.101   0.567  1.00  0.00     0.031 A 
ATOM     50  C   UNL     1       3.450 -10.758   0.557  1.00  0.00     0.074 A 
ATOM     51  C   UNL     1       1.907  -9.307   1.647  1.00  0.00     0.049 A 
ATOM     52  N   UNL     1       3.716 -11.891   1.114  1.00  0.00    -0.248 NA
ATOM     53  C   UNL     1       4.569 -10.177  -0.184  1.00  0.00     0.031 C 
ATOM     54  C   UNL     1       0.783  -8.427   1.968  1.00  0.00     0.029 A 
ATOM     55  N   UNL     1       2.744  -9.104   2.722  1.00  0.00    -0.354 N 
ATOM     56  C   UNL     1       5.072 -12.103   0.929  1.00  0.00     0.074 A 
ATOM     57  C   UNL     1       5.512 -11.101  -0.009  1.00  0.00     0.031 C 
ATOM     58  C   UNL     1       1.063  -7.676   3.063  1.00  0.00     0.029 A 
ATOM     59  C   UNL     1       2.331  -8.125   3.617  1.00  0.00     0.049 A 
ATOM     60  H   UNL     1       3.575  -9.616   2.847  1.00  0.00     0.167 HD
ATOM     61  C   UNL     1       5.768 -12.990   1.690  1.00  0.00     0.034 A 
ATOM     62  C   UNL     1       2.790  -7.889   4.872  1.00  0.00     0.034 A 
ATOM     63  C   UNL     1       4.896 -13.774   2.526  1.00  0.00     0.049 A 
ATOM     64  C   UNL     1       3.295  -9.171   5.399  1.00  0.00     0.074 A 
ATOM     65  C   UNL     1       3.873 -14.672   2.294  1.00  0.00     0.029 A 
ATOM     66  N   UNL     1       4.752 -13.364   3.829  1.00  0.00    -0.354 N 
ATOM     67  N   UNL     1       2.536 -10.181   5.719  1.00  0.00    -0.248 NA
ATOM     68  C   UNL     1       4.714  -9.456   5.302  1.00  0.00     0.031 C 
ATOM     69  C   UNL     1       2.920 -14.437   3.330  1.00  0.00     0.029 A 
ATOM     70  C   UNL     1       3.417 -13.424   4.153  1.00  0.00     0.049 A 
ATOM     71  H   UNL     1       5.479 -13.077   4.427  1.00  0.00     0.167 HD
ATOM     72  C   UNL     1       3.304 -11.293   5.427  1.00  0.00     0.074 A 
ATOM     73  C   UNL     1       4.670 -10.789   5.349  1.00  0.00     0.031 C 
ATOM     74  C   UNL     1       2.736 -12.463   5.008  1.00  0.00     0.034 A 
BRANCH  61  75
ATOM     75  C   UNL     1       7.258 -12.954   1.853  1.00  0.00     0.023 A 
ATOM     76  C   UNL     1       8.018 -11.798   1.597  1.00  0.00     0.031 A 
ATOM     77  C   UNL     1       7.953 -14.046   2.399  1.00  0.00     0.131 A 
ATOM     78  C   UNL     1       9.406 -11.782   1.769  1.00  0.00     0.055 A 
ATOM     79  C   UNL     1       9.329 -14.003   2.653  1.00  0.00     0.041 A 
ATOM     80  F   UNL     1       7.310 -15.178   2.725  1.00  0.00    -0.206 F 
ATOM     81  C   UNL     1      10.069 -12.875   2.316  1.00  0.00     0.022 A 
BRANCH  78  82
ATOM     82  S   UNL     1      10.371 -10.354   1.206  1.00  0.00     0.124 S 
ATOM     83  O   UNL     1      10.831  -9.791   2.470  1.00  0.00    -0.237 OA
ATOM     84  O   UNL     1      11.397 -10.989   0.382  1.00  0.00    -0.237 OA
ATOM     85  O   UNL     1       9.394  -9.559   0.467  1.00  0.00    -0.744 OA
ENDBRANCH  78  82
ENDBRANCH  61  75
BRANCH  62  86
ATOM     86  C   UNL     1       3.110  -6.614   5.557  1.00  0.00     0.023 A 
ATOM     87  C   UNL     1       3.835  -5.613   4.881  1.00  0.00     0.031 A 
ATOM     88  C   UNL     1       2.991  -6.480   6.949  1.00  0.00     0.131 A 
ATOM     89  C   UNL     1       4.376  -4.514   5.572  1.00  0.00     0.055 A 
ATOM     90  C   UNL     1       3.554  -5.401   7.645  1.00  0.00     0.041 A 
ATOM     91  F   UNL     1       2.376  -7.428   7.672  1.00  0.00    -0.206 F 
ATOM     92  C   UNL     1       4.245  -4.410   6.956  1.00  0.00     0.022 A 
BRANCH  89  93
ATOM     93  S   UNL     1       5.299  -3.195   4.722  1.00  0.00     0.124 S 
ATOM     94  O   UNL     1       4.691  -1.989   5.279  1.00  0.00    -0.237 OA
ATOM     95  O   UNL     1       6.668  -3.464   5.146  1.00  0.00    -0.237 OA
ATOM     96  O   UNL     1       5.019  -3.420   3.310  1.00  0.00    -0.744 OA
ENDBRANCH  89  93
ENDBRANCH  62  86
BRANCH  74  97
ATOM     97  C   UNL     1       1.243 -12.665   5.205  1.00  0.00     0.023 A 
ATOM     98  C   UNL     1       0.817 -13.877   5.782  1.00  0.00     0.031 A 
ATOM     99  C   UNL     1       0.244 -11.814   4.695  1.00  0.00     0.131 A 
ATOM    100  C   UNL     1      -0.544 -14.216   5.806  1.00  0.00     0.055 A 
ATOM    101  C   UNL     1      -1.118 -12.125   4.781  1.00  0.00     0.041 A 
ATOM    102  F   UNL     1       0.550 -10.692   4.034  1.00  0.00    -0.206 F 
ATOM    103  C   UNL     1      -1.518 -13.338   5.325  1.00  0.00     0.022 A 
BRANCH 100 104
ATOM    104  S   UNL     1      -1.078 -15.861   6.345  1.00  0.00     0.124 S 
ATOM    105  O   UNL     1      -1.966 -15.549   7.462  1.00  0.00    -0.237 OA
ATOM    106  O   UNL     1      -1.739 -16.378   5.149  1.00  0.00    -0.237 OA
ATOM    107  O   UNL     1       0.165 -16.536   6.707  1.00  0.00    -0.744 OA
ENDBRANCH 100 104
ENDBRANCH  74  97
ENDBRANCH  48  49
ENDBRANCH  41  43
ENDBRANCH  40  41
ENDBRANCH  39  40
ENDBRANCH   1  39
TORSDOF 20
