REMARK SMILES Cc1ccnc(C(=O)c2[nH]c3cc(F)ccc3c2CC(=O)OCCOC(=O)c2ccc(-c3c4nc(c(-c5cc(S(=O)(=O)[O-])ccc5F)c5ccc([nH]5)c(-c5cc(S(=O)(=O)[O-])ccc5F)c5nc(c(-c6cc(S(=O)(=O)[O-])ccc6F)c6ccc3[nH]6)C=C5)C=C4)cc2)c1
REMARK SMILES IDX 23 1 22 2 20 3 21 4 19 5 18 6 9 7 10 8 11 9 17 11 12 12
REMARK SMILES IDX 16 13 13 14 15 15 14 16 7 17 8 18 6 19 1 20 2 21 3 22 91 23
REMARK SMILES IDX 4 24 5 25 24 26 25 27 26 28 27 29 28 30 29 31 90 32 30 33
REMARK SMILES IDX 89 34 31 35 32 36 33 37 83 38 34 39 88 40 82 41 84 42 35 43
REMARK SMILES IDX 87 44 81 45 80 46 36 48 68 49 48 50 67 51 49 52 52 53 66 54
REMARK SMILES IDX 85 55 50 56 51 57 65 59 86 60 53 61 37 62 38 63 46 64 39 65
REMARK SMILES IDX 45 66 47 67 44 68 40 69 41 70 42 71 43 72 69 73 70 74 78 75
REMARK SMILES IDX 71 76 77 77 79 78 76 79 72 80 73 81 74 82 75 83 54 84 55 85
REMARK SMILES IDX 63 86 56 87 62 88 64 89 61 90 57 91 58 92 59 93 60 94
REMARK H PARENT 10 10 84 47 52 58
REMARK Flexibility Score: inf
ROOT
ATOM      1  C   UNL     1       5.209  -5.298   0.706  1.00  0.00     0.274 C 
ENDROOT
BRANCH   1   2
ATOM      2  O   UNL     1       3.772  -5.233   0.560  1.00  0.00    -0.462 OA
BRANCH   2   3
ATOM      3  C   UNL     1       3.060  -5.115   1.707  1.00  0.00     0.310 C 
ATOM      4  O   UNL     1       3.553  -5.232   2.828  1.00  0.00    -0.252 OA
BRANCH   3   5
ATOM      5  C   UNL     1       1.621  -4.680   1.538  1.00  0.00     0.161 C 
BRANCH   5   6
ATOM      6  C   UNL     1       0.878  -4.998   0.278  1.00  0.00     0.000 A 
ATOM      7  C   UNL     1       0.715  -4.203  -0.857  1.00  0.00     0.093 A 
ATOM      8  N   UNL     1      -0.134  -4.874  -1.704  1.00  0.00    -0.351 N 
ATOM      9  C   UNL     1      -0.607  -6.019  -1.126  1.00  0.00     0.049 A 
ATOM     10  H   UNL     1      -0.370  -4.569  -2.610  1.00  0.00     0.167 HD
ATOM     11  C   UNL     1       0.052  -6.162   0.093  1.00  0.00     0.004 A 
ATOM     12  C   UNL     1      -1.559  -6.929  -1.593  1.00  0.00     0.066 A 
ATOM     13  C   UNL     1      -0.232  -7.304   0.876  1.00  0.00     0.013 A 
ATOM     14  C   UNL     1      -1.827  -8.033  -0.789  1.00  0.00     0.125 A 
ATOM     15  C   UNL     1      -1.173  -8.235   0.419  1.00  0.00     0.040 A 
ATOM     16  F   UNL     1      -2.740  -8.926  -1.196  1.00  0.00    -0.207 F 
BRANCH   7  17
ATOM     17  C   UNL     1       1.287  -2.936  -1.297  1.00  0.00     0.227 C 
ATOM     18  O   UNL     1       2.093  -2.930  -2.228  1.00  0.00    -0.285 OA
BRANCH  17  19
ATOM     19  C   UNL     1       0.687  -1.627  -0.823  1.00  0.00     0.113 A 
ATOM     20  C   UNL     1      -2.621  -0.185   0.379  1.00  0.00     0.044 C 
ATOM     21  C   UNL     1      -1.208  -0.322  -0.107  1.00  0.00    -0.047 A 
ATOM     22  C   UNL     1      -0.510   0.825  -0.487  1.00  0.00     0.023 A 
ATOM     23  C   UNL     1      -0.589  -1.571  -0.258  1.00  0.00     0.036 A 
ATOM     24  C   UNL     1       0.766   0.683  -0.998  1.00  0.00     0.112 A 
ATOM     25  N   UNL     1       1.377  -0.507  -1.178  1.00  0.00    -0.253 NA
ENDBRANCH  17  19
ENDBRANCH   7  17
ENDBRANCH   5   6
ENDBRANCH   3   5
ENDBRANCH   2   3
ENDBRANCH   1   2
BRANCH   1  26
ATOM     26  C   UNL     1       5.889  -3.977   0.310  1.00  0.00     0.275 C 
BRANCH  26  27
ATOM     27  O   UNL     1       5.630  -2.903   1.242  1.00  0.00    -0.458 OA
BRANCH  27  28
ATOM     28  C   UNL     1       4.471  -2.260   0.993  1.00  0.00     0.338 C 
ATOM     29  O   UNL     1       3.659  -2.547   0.124  1.00  0.00    -0.246 OA
BRANCH  28  30
ATOM     30  C   UNL     1       4.144  -1.212   1.955  1.00  0.00     0.060 A 
ATOM     31  C   UNL     1       3.093  -1.476   2.832  1.00  0.00     0.016 A 
ATOM     32  C   UNL     1       4.637   0.084   1.800  1.00  0.00     0.016 A 
ATOM     33  C   UNL     1       2.466  -0.431   3.491  1.00  0.00     0.010 A 
ATOM     34  C   UNL     1       4.057   1.126   2.534  1.00  0.00     0.010 A 
ATOM     35  C   UNL     1       2.949   0.879   3.361  1.00  0.00    -0.014 A 
BRANCH  35  36
ATOM     36  C   UNL     1       2.289   1.946   4.152  1.00  0.00     0.031 A 
ATOM     37  C   UNL     1       1.454   3.006   3.495  1.00  0.00     0.074 A 
ATOM     38  C   UNL     1       2.376   1.880   5.495  1.00  0.00     0.049 A 
ATOM     39  N   UNL     1       0.753   3.962   4.050  1.00  0.00    -0.248 NA
ATOM     40  C   UNL     1       1.388   2.986   2.028  1.00  0.00     0.031 C 
ATOM     41  C   UNL     1       3.131   0.865   6.236  1.00  0.00     0.029 A 
ATOM     42  N   UNL     1       1.810   2.653   6.472  1.00  0.00    -0.354 N 
ATOM     43  C   UNL     1       0.143   4.646   3.005  1.00  0.00     0.074 A 
ATOM     44  C   UNL     1       0.592   4.018   1.778  1.00  0.00     0.031 C 
ATOM     45  C   UNL     1       2.951   1.058   7.550  1.00  0.00     0.029 A 
ATOM     46  C   UNL     1       2.130   2.245   7.745  1.00  0.00     0.049 A 
ATOM     47  H   UNL     1       1.231   3.426   6.282  1.00  0.00     0.167 HD
ATOM     48  C   UNL     1      -0.718   5.692   3.067  1.00  0.00     0.034 A 
ATOM     49  C   UNL     1       1.820   2.784   8.938  1.00  0.00     0.034 A 
ATOM     50  C   UNL     1      -1.120   6.336   4.294  1.00  0.00     0.049 A 
ATOM     51  C   UNL     1       0.956   4.012   8.969  1.00  0.00     0.074 A 
ATOM     52  C   UNL     1      -1.955   7.427   4.467  1.00  0.00     0.029 A 
ATOM     53  N   UNL     1      -0.704   5.954   5.564  1.00  0.00    -0.354 N 
ATOM     54  N   UNL     1       0.399   4.654   7.968  1.00  0.00    -0.248 NA
ATOM     55  C   UNL     1       0.680   4.587  10.289  1.00  0.00     0.031 C 
ATOM     56  C   UNL     1      -1.997   7.739   5.832  1.00  0.00     0.029 A 
ATOM     57  C   UNL     1      -1.237   6.806   6.520  1.00  0.00     0.049 A 
ATOM     58  H   UNL     1      -0.116   5.189   5.757  1.00  0.00     0.167 HD
ATOM     59  C   UNL     1      -0.299   5.711   8.542  1.00  0.00     0.074 A 
ATOM     60  C   UNL     1      -0.121   5.594   9.976  1.00  0.00     0.031 C 
ATOM     61  C   UNL     1      -1.017   6.694   7.941  1.00  0.00     0.034 A 
BRANCH  48  62
ATOM     62  C   UNL     1      -1.250   6.224   1.761  1.00  0.00     0.023 A 
ATOM     63  C   UNL     1      -2.143   5.472   0.980  1.00  0.00     0.031 A 
ATOM     64  C   UNL     1      -0.855   7.485   1.285  1.00  0.00     0.131 A 
ATOM     65  C   UNL     1      -2.577   5.967  -0.259  1.00  0.00     0.055 A 
ATOM     66  C   UNL     1      -1.334   7.998   0.078  1.00  0.00     0.041 A 
ATOM     67  F   UNL     1       0.013   8.236   1.982  1.00  0.00    -0.206 F 
ATOM     68  C   UNL     1      -2.193   7.234  -0.707  1.00  0.00     0.022 A 
BRANCH  65  69
ATOM     69  S   UNL     1      -3.550   4.875  -1.331  1.00  0.00     0.124 S 
ATOM     70  O   UNL     1      -2.669   3.714  -1.447  1.00  0.00    -0.237 OA
ATOM     71  O   UNL     1      -4.767   4.675  -0.554  1.00  0.00    -0.237 OA
ATOM     72  O   UNL     1      -3.710   5.653  -2.558  1.00  0.00    -0.744 OA
ENDBRANCH  65  69
ENDBRANCH  48  62
BRANCH  49  73
ATOM     73  C   UNL     1       2.381   2.203  10.188  1.00  0.00     0.023 A 
ATOM     74  C   UNL     1       1.550   1.657  11.176  1.00  0.00     0.031 A 
ATOM     75  C   UNL     1       3.769   2.219  10.424  1.00  0.00     0.131 A 
ATOM     76  C   UNL     1       2.110   1.182  12.372  1.00  0.00     0.055 A 
ATOM     77  C   UNL     1       4.325   1.698  11.591  1.00  0.00     0.041 A 
ATOM     78  F   UNL     1       4.607   2.730   9.508  1.00  0.00    -0.206 F 
ATOM     79  C   UNL     1       3.492   1.188  12.580  1.00  0.00     0.022 A 
BRANCH  76  80
ATOM     80  S   UNL     1       0.997   0.639  13.696  1.00  0.00     0.124 S 
ATOM     81  O   UNL     1       0.123   1.796  13.848  1.00  0.00    -0.237 OA
ATOM     82  O   UNL     1       0.390  -0.551  13.109  1.00  0.00    -0.237 OA
ATOM     83  O   UNL     1       1.900   0.388  14.817  1.00  0.00    -0.744 OA
ENDBRANCH  76  80
ENDBRANCH  49  73
BRANCH  61  84
ATOM     84  C   UNL     1      -1.656   7.703   8.860  1.00  0.00     0.023 A 
ATOM     85  C   UNL     1      -0.875   8.598   9.612  1.00  0.00     0.031 A 
ATOM     86  C   UNL     1      -3.049   7.723   9.040  1.00  0.00     0.131 A 
ATOM     87  C   UNL     1      -1.484   9.424  10.566  1.00  0.00     0.055 A 
ATOM     88  C   UNL     1      -3.656   8.589   9.950  1.00  0.00     0.041 A 
ATOM     89  F   UNL     1      -3.840   6.887   8.348  1.00  0.00    -0.206 F 
ATOM     90  C   UNL     1      -2.872   9.433  10.732  1.00  0.00     0.022 A 
BRANCH  87  91
ATOM     91  S   UNL     1      -0.427  10.396  11.674  1.00  0.00     0.124 S 
ATOM     92  O   UNL     1       0.433   9.369  12.254  1.00  0.00    -0.237 OA
ATOM     93  O   UNL     1       0.220  11.323  10.750  1.00  0.00    -0.237 OA
ATOM     94  O   UNL     1      -1.375  11.008  12.603  1.00  0.00    -0.744 OA
ENDBRANCH  87  91
ENDBRANCH  61  84
ENDBRANCH  35  36
ENDBRANCH  28  30
ENDBRANCH  27  28
ENDBRANCH  26  27
ENDBRANCH   1  26
TORSDOF 17
