REMARK SMILES COC[C@H](C)CNC(=O)N[C@@H]1CCCCC[C@@H]1C(=O)OCCOC(=O)c1ccc(-c2c3nc(c(-c4cc(S(=O)(=O)[O-])ccc4F)c4ccc([nH]4)c(-c4cc(S(=O)(=O)[O-])ccc4F)c4nc(c(-c5cc(S(=O)(=O)[O-])ccc5F)c5ccc2[nH]5)C=C4)C=C3)cc1
REMARK SMILES IDX 20 1 18 2 19 3 17 4 11 5 10 6 7 7 8 8 9 10 6 12 4 13 5 14
REMARK SMILES IDX 3 15 2 16 1 17 12 18 13 19 14 20 16 22 15 23 21 25 22 26
REMARK SMILES IDX 23 27 24 28 25 29 26 30 27 31 88 32 28 33 87 34 29 35 30 36
REMARK SMILES IDX 31 37 81 38 32 39 86 40 80 41 82 42 33 43 85 44 79 45 78 46
REMARK SMILES IDX 34 48 66 49 46 50 65 51 47 52 50 53 64 54 83 55 48 56 49 57
REMARK SMILES IDX 63 59 84 60 51 61 35 62 36 63 44 64 37 65 43 66 45 67 42 68
REMARK SMILES IDX 38 69 39 70 40 71 41 72 67 73 68 74 76 75 69 76 75 77 77 78
REMARK SMILES IDX 74 79 70 80 71 81 72 82 73 83 52 84 53 85 61 86 54 87 60 88
REMARK SMILES IDX 62 89 59 90 55 91 56 92 57 93 58 94
REMARK H PARENT 7 9 10 11 82 47 50 58
REMARK Flexibility Score: 100.00
ROOT
ATOM      1  O   UNL     1      -2.753  -5.000   0.338  1.00  0.00    -0.462 OA
ENDROOT
BRANCH   1   2
ATOM      2  C   UNL     1      -2.246  -5.926  -0.516  1.00  0.00     0.311 C 
ATOM      3  O   UNL     1      -2.745  -7.023  -0.744  1.00  0.00    -0.252 OA
BRANCH   2   4
ATOM      4  C   UNL     1      -0.955  -5.474  -1.178  1.00  0.00     0.121 C 
BRANCH   4   5
ATOM      5  C   UNL     1       0.240  -6.185  -0.519  1.00  0.00     0.098 C 
BRANCH   5   6
ATOM      6  N   UNL     1       0.218  -6.263   0.950  1.00  0.00    -0.335 N 
ATOM      7  N   UNL     1       0.623  -4.196   2.049  1.00  0.00    -0.338 N 
ATOM      8  C   UNL     1       0.247  -5.471   2.017  1.00  0.00     0.315 C 
ATOM      9  H   UNL     1       0.283  -3.721   2.842  1.00  0.00     0.165 HD
ATOM     10  O   UNL     1      -0.114  -5.969   3.088  1.00  0.00    -0.249 OA
ATOM     11  H   UNL     1       0.165  -7.204   1.234  1.00  0.00     0.165 HD
BRANCH   7  12
ATOM     12  C   UNL     1       1.416  -3.344   1.187  1.00  0.00     0.123 C 
BRANCH  12  13
ATOM     13  C   UNL     1       0.970  -1.873   1.261  1.00  0.00     0.031 C 
ATOM     14  C   UNL     1       1.318  -1.249   2.616  1.00  0.00     0.012 C 
BRANCH  13  15
ATOM     15  C   UNL     1       1.606  -1.069   0.116  1.00  0.00     0.164 C 
BRANCH  15  16
ATOM     16  O   UNL     1       1.166   0.289   0.094  1.00  0.00    -0.384 OA
ATOM     17  C   UNL     1      -0.118   0.451  -0.502  1.00  0.00     0.194 C 
ENDBRANCH  15  16
ENDBRANCH  13  15
ENDBRANCH  12  13
ENDBRANCH   7  12
ENDBRANCH   5   6
BRANCH   5  18
ATOM     18  C   UNL     1       1.640  -5.981  -1.111  1.00  0.00     0.026 C 
BRANCH  18  19
ATOM     19  C   UNL     1       1.686  -5.466  -2.549  1.00  0.00     0.002 C 
BRANCH  19  20
ATOM     20  C   UNL     1       1.410  -3.971  -2.675  1.00  0.00     0.000 CG0
ATOM     21  G   UNL     1      -0.058  -3.559  -2.629  1.00  0.00     0.000 G0
ENDBRANCH  19  20
ENDBRANCH  18  19
ENDBRANCH   5  18
ENDBRANCH   4   5
BRANCH   4  22
ATOM     22  C   UNL     1      -0.870  -3.963  -1.397  1.00  0.00     0.017 C 
BRANCH  22  23
ATOM     23  C   UNL     1      -0.058  -3.559  -2.629  1.00  0.00     0.001 CG0
ATOM     24  G   UNL     1       1.410  -3.971  -2.675  1.00  0.00     0.000 G0
ENDBRANCH  22  23
ENDBRANCH   4  22
ENDBRANCH   2   4
ENDBRANCH   1   2
BRANCH   1  25
ATOM     25  C   UNL     1      -4.057  -5.293   0.875  1.00  0.00     0.274 C 
BRANCH  25  26
ATOM     26  C   UNL     1      -5.097  -4.420   0.179  1.00  0.00     0.275 C 
BRANCH  26  27
ATOM     27  O   UNL     1      -5.038  -4.660  -1.239  1.00  0.00    -0.458 OA
BRANCH  27  28
ATOM     28  C   UNL     1      -5.002  -3.556  -2.020  1.00  0.00     0.338 C 
ATOM     29  O   UNL     1      -5.107  -2.395  -1.668  1.00  0.00    -0.246 OA
BRANCH  28  30
ATOM     30  C   UNL     1      -4.798  -3.965  -3.420  1.00  0.00     0.060 A 
ATOM     31  C   UNL     1      -3.630  -4.637  -3.783  1.00  0.00     0.016 A 
ATOM     32  C   UNL     1      -5.723  -3.594  -4.392  1.00  0.00     0.016 A 
ATOM     33  C   UNL     1      -3.347  -4.888  -5.122  1.00  0.00     0.010 A 
ATOM     34  C   UNL     1      -5.476  -3.915  -5.730  1.00  0.00     0.010 A 
ATOM     35  C   UNL     1      -4.274  -4.540  -6.111  1.00  0.00    -0.014 A 
BRANCH  35  36
ATOM     36  C   UNL     1      -3.969  -4.772  -7.548  1.00  0.00     0.031 A 
ATOM     37  C   UNL     1      -3.846  -3.595  -8.476  1.00  0.00     0.074 A 
ATOM     38  C   UNL     1      -3.802  -6.022  -8.019  1.00  0.00     0.049 A 
ATOM     39  N   UNL     1      -3.792  -3.568  -9.782  1.00  0.00    -0.248 NA
ATOM     40  C   UNL     1      -3.792  -2.269  -7.842  1.00  0.00     0.031 C 
ATOM     41  C   UNL     1      -3.826  -7.243  -7.211  1.00  0.00     0.029 A 
ATOM     42  N   UNL     1      -3.585  -6.475  -9.296  1.00  0.00    -0.354 N 
ATOM     43  C   UNL     1      -3.744  -2.222 -10.132  1.00  0.00     0.074 A 
ATOM     44  C   UNL     1      -3.790  -1.467  -8.896  1.00  0.00     0.031 C 
ATOM     45  C   UNL     1      -3.622  -8.303  -8.009  1.00  0.00     0.029 A 
ATOM     46  C   UNL     1      -3.536  -7.847  -9.392  1.00  0.00     0.049 A 
ATOM     47  H   UNL     1      -3.476  -5.876 -10.070  1.00  0.00     0.167 HD
ATOM     48  C   UNL     1      -3.672  -1.672 -11.370  1.00  0.00     0.034 A 
ATOM     49  C   UNL     1      -3.481  -8.648 -10.475  1.00  0.00     0.034 A 
ATOM     50  C   UNL     1      -3.606  -2.446 -12.587  1.00  0.00     0.049 A 
ATOM     51  C   UNL     1      -3.472  -8.018 -11.843  1.00  0.00     0.074 A 
ATOM     52  C   UNL     1      -3.538  -1.998 -13.895  1.00  0.00     0.029 A 
ATOM     53  N   UNL     1      -3.595  -3.834 -12.644  1.00  0.00    -0.354 N 
ATOM     54  N   UNL     1      -3.500  -6.745 -12.168  1.00  0.00    -0.248 NA
ATOM     55  C   UNL     1      -3.438  -8.933 -12.991  1.00  0.00     0.031 C 
ATOM     56  C   UNL     1      -3.540  -3.113 -14.742  1.00  0.00     0.029 A 
ATOM     57  C   UNL     1      -3.542  -4.258 -13.963  1.00  0.00     0.049 A 
ATOM     58  H   UNL     1      -3.620  -4.431 -11.861  1.00  0.00     0.167 HD
ATOM     59  C   UNL     1      -3.469  -6.709 -13.558  1.00  0.00     0.074 A 
ATOM     60  C   UNL     1      -3.403  -8.085 -14.008  1.00  0.00     0.031 C 
ATOM     61  C   UNL     1      -3.491  -5.636 -14.390  1.00  0.00     0.034 A 
BRANCH  48  62
ATOM     62  C   UNL     1      -3.732  -0.166 -11.458  1.00  0.00     0.023 A 
ATOM     63  C   UNL     1      -2.725   0.653 -10.919  1.00  0.00     0.031 A 
ATOM     64  C   UNL     1      -4.847   0.461 -12.044  1.00  0.00     0.131 A 
ATOM     65  C   UNL     1      -2.890   2.047 -10.904  1.00  0.00     0.055 A 
ATOM     66  C   UNL     1      -4.967   1.851 -12.098  1.00  0.00     0.041 A 
ATOM     67  F   UNL     1      -5.851  -0.268 -12.555  1.00  0.00    -0.206 F 
ATOM     68  C   UNL     1      -3.994   2.653 -11.510  1.00  0.00     0.022 A 
BRANCH  65  69
ATOM     69  S   UNL     1      -1.721   3.048  -9.944  1.00  0.00     0.124 S 
ATOM     70  O   UNL     1      -1.868   2.473  -8.608  1.00  0.00    -0.237 OA
ATOM     71  O   UNL     1      -0.454   2.784 -10.617  1.00  0.00    -0.237 OA
ATOM     72  O   UNL     1      -2.234   4.409 -10.088  1.00  0.00    -0.744 OA
ENDBRANCH  65  69
ENDBRANCH  48  62
BRANCH  49  73
ATOM     73  C   UNL     1      -3.503 -10.130 -10.318  1.00  0.00     0.023 A 
ATOM     74  C   UNL     1      -2.410 -10.916 -10.710  1.00  0.00     0.031 A 
ATOM     75  C   UNL     1      -4.639 -10.785  -9.806  1.00  0.00     0.131 A 
ATOM     76  C   UNL     1      -2.486 -12.315 -10.616  1.00  0.00     0.055 A 
ATOM     77  C   UNL     1      -4.691 -12.172  -9.668  1.00  0.00     0.041 A 
ATOM     78  F   UNL     1      -5.713 -10.079  -9.418  1.00  0.00    -0.206 F 
ATOM     79  C   UNL     1      -3.613 -12.947 -10.085  1.00  0.00     0.022 A 
BRANCH  76  80
ATOM     80  S   UNL     1      -1.113 -13.306 -11.265  1.00  0.00     0.124 S 
ATOM     81  O   UNL     1      -1.076 -12.883 -12.661  1.00  0.00    -0.237 OA
ATOM     82  O   UNL     1      -0.000 -12.864 -10.431  1.00  0.00    -0.237 OA
ATOM     83  O   UNL     1      -1.549 -14.682 -11.040  1.00  0.00    -0.744 OA
ENDBRANCH  76  80
ENDBRANCH  49  73
BRANCH  61  84
ATOM     84  C   UNL     1      -3.398  -5.924 -15.867  1.00  0.00     0.023 A 
ATOM     85  C   UNL     1      -4.451  -6.538 -16.567  1.00  0.00     0.031 A 
ATOM     86  C   UNL     1      -2.228  -5.599 -16.575  1.00  0.00     0.131 A 
ATOM     87  C   UNL     1      -4.292  -6.858 -17.924  1.00  0.00     0.055 A 
ATOM     88  C   UNL     1      -2.096  -5.873 -17.937  1.00  0.00     0.041 A 
ATOM     89  F   UNL     1      -1.193  -5.013 -15.952  1.00  0.00    -0.206 F 
ATOM     90  C   UNL     1      -3.127  -6.517 -18.616  1.00  0.00     0.022 A 
BRANCH  87  91
ATOM     91  S   UNL     1      -5.598  -7.804 -18.755  1.00  0.00     0.124 S 
ATOM     92  O   UNL     1      -5.649  -9.022 -17.952  1.00  0.00    -0.237 OA
ATOM     93  O   UNL     1      -6.749  -6.915 -18.640  1.00  0.00    -0.237 OA
ATOM     94  O   UNL     1      -5.084  -7.978 -20.113  1.00  0.00    -0.744 OA
ENDBRANCH  87  91
ENDBRANCH  61  84
ENDBRANCH  35  36
ENDBRANCH  28  30
ENDBRANCH  27  28
ENDBRANCH  26  27
ENDBRANCH  25  26
ENDBRANCH   1  25
TORSDOF 19
