REMARK SMILES C[NH+](C)CCc1nc(Nc2ccc(O)c(C(=O)OCCOC(=O)c3ccc(-c4c5nc(c(-c6cc(S(=O)(=O)[O-])ccc6F)c6ccc([nH]6)c(-c6cc(S(=O)(=O)[O-])ccc6F)c6nc(c(-c7cc(S(=O)(=O)[O-])ccc7F)c7ccc4[nH]7)C=C6)C=C5)cc3)c2)c2ccccc2n1
REMARK SMILES IDX 19 1 18 2 16 3 17 4 15 5 10 6 11 7 87 8 12 9 13 10 9 11 8 13
REMARK SMILES IDX 6 14 7 15 94 16 93 17 88 18 92 19 89 20 91 21 90 22 5 23
REMARK SMILES IDX 4 24 2 25 1 26 3 27 14 29 20 31 21 32 22 33 23 34 24 35
REMARK SMILES IDX 25 36 86 37 26 38 85 39 27 40 28 41 29 42 79 43 30 44 84 45
REMARK SMILES IDX 78 46 80 47 31 48 83 49 77 50 76 51 32 53 64 54 44 55 63 56
REMARK SMILES IDX 45 57 48 58 62 59 81 60 46 61 47 62 61 64 82 65 49 66 33 67
REMARK SMILES IDX 34 68 42 69 35 70 41 71 43 72 40 73 36 74 37 75 38 76 39 77
REMARK SMILES IDX 65 78 66 79 74 80 67 81 73 82 75 83 72 84 68 85 69 86 70 87
REMARK SMILES IDX 71 88 50 89 51 90 59 91 52 92 58 93 60 94 57 95 53 96 54 97
REMARK SMILES IDX 55 98 56 99
REMARK H PARENT 9 12 2 28 14 30 80 52 48 63
REMARK Flexibility Score: inf
ROOT
ATOM      1  C   UNL     1       7.505   1.594  -3.658  1.00  0.00     0.275 C 
ENDROOT
BRANCH   1   2
ATOM      2  O   UNL     1       7.274   1.332  -2.260  1.00  0.00    -0.458 OA
BRANCH   2   3
ATOM      3  C   UNL     1       5.988   1.087  -1.907  1.00  0.00     0.342 C 
ATOM      4  O   UNL     1       5.032   1.014  -2.664  1.00  0.00    -0.246 OA
BRANCH   3   5
ATOM      5  C   UNL     1       5.884   0.765  -0.469  1.00  0.00     0.103 A 
ATOM      6  C   UNL     1       4.952  -0.734   1.222  1.00  0.00     0.041 A 
ATOM      7  C   UNL     1       5.474   0.097   2.214  1.00  0.00     0.030 A 
ATOM      8  C   UNL     1       5.125  -0.360  -0.113  1.00  0.00     0.045 A 
ATOM      9  C   UNL     1       6.222   1.233   1.876  1.00  0.00     0.049 A 
ATOM     10  C   UNL     1       6.434   1.561   0.534  1.00  0.00     0.130 A 
BRANCH   6  11
ATOM     11  N   UNL     1       4.149  -1.850   1.530  1.00  0.00    -0.340 N 
ATOM     12  H   UNL     1       4.528  -2.744   1.364  1.00  0.00     0.168 HD
BRANCH  11  13
ATOM     13  C   UNL     1       2.837  -1.782   2.058  1.00  0.00     0.142 A 
ATOM     14  C   UNL     1       1.056  -0.467   2.661  1.00  0.00     0.137 A 
ATOM     15  N   UNL     1       2.348  -0.559   2.330  1.00  0.00    -0.215 NA
ATOM     16  N   UNL     1       0.245  -1.513   2.865  1.00  0.00    -0.233 NA
ATOM     17  C   UNL     1       0.747  -2.733   2.646  1.00  0.00     0.076 A 
ATOM     18  C   UNL     1       2.068  -2.950   2.226  1.00  0.00     0.043 A 
ATOM     19  C   UNL     1      -0.095  -3.827   2.799  1.00  0.00     0.029 A 
ATOM     20  C   UNL     1       2.505  -4.278   1.974  1.00  0.00     0.014 A 
ATOM     21  C   UNL     1       0.331  -5.131   2.534  1.00  0.00     0.002 A 
ATOM     22  C   UNL     1       1.635  -5.358   2.119  1.00  0.00     0.001 A 
BRANCH  14  23
ATOM     23  C   UNL     1       0.458   0.907   2.712  1.00  0.00     0.138 C 
BRANCH  23  24
ATOM     24  C   UNL     1       0.787   1.775   1.479  1.00  0.00     0.269 C 
BRANCH  24  25
ATOM     25  N   UNL     1       0.196   1.466   0.164  1.00  0.00    -0.339 N 
ATOM     26  C   UNL     1       0.773   0.276  -0.463  1.00  0.00     0.332 C 
ATOM     27  C   UNL     1      -1.260   1.368   0.194  1.00  0.00     0.332 C 
ATOM     28  H   UNL     1       0.438   2.269  -0.416  1.00  0.00     0.347 HD
ENDBRANCH  24  25
ENDBRANCH  23  24
ENDBRANCH  14  23
ENDBRANCH  11  13
ENDBRANCH   6  11
BRANCH  10  29
ATOM     29  O   UNL     1       7.133   2.693   0.219  1.00  0.00    -0.507 OA
ATOM     30  H   UNL     1       7.500   3.222   0.899  1.00  0.00     0.293 HD
ENDBRANCH  10  29
ENDBRANCH   3   5
ENDBRANCH   2   3
ENDBRANCH   1   2
BRANCH   1  31
ATOM     31  C   UNL     1       8.200   0.407  -4.319  1.00  0.00     0.275 C 
BRANCH  31  32
ATOM     32  O   UNL     1       7.314  -0.725  -4.317  1.00  0.00    -0.458 OA
BRANCH  32  33
ATOM     33  C   UNL     1       7.773  -1.831  -3.689  1.00  0.00     0.338 C 
ATOM     34  O   UNL     1       8.881  -2.010  -3.216  1.00  0.00    -0.246 OA
BRANCH  33  35
ATOM     35  C   UNL     1       6.702  -2.842  -3.635  1.00  0.00     0.060 A 
ATOM     36  C   UNL     1       5.487  -2.523  -3.036  1.00  0.00     0.016 A 
ATOM     37  C   UNL     1       6.946  -4.143  -4.065  1.00  0.00     0.016 A 
ATOM     38  C   UNL     1       4.563  -3.525  -2.745  1.00  0.00     0.010 A 
ATOM     39  C   UNL     1       5.962  -5.123  -3.886  1.00  0.00     0.010 A 
ATOM     40  C   UNL     1       4.777  -4.842  -3.178  1.00  0.00    -0.014 A 
BRANCH  40  41
ATOM     41  C   UNL     1       3.804  -5.931  -2.853  1.00  0.00     0.031 A 
ATOM     42  C   UNL     1       4.277  -7.180  -2.147  1.00  0.00     0.074 A 
ATOM     43  C   UNL     1       2.499  -5.816  -3.175  1.00  0.00     0.049 A 
ATOM     44  N   UNL     1       3.658  -8.319  -1.964  1.00  0.00    -0.248 NA
ATOM     45  C   UNL     1       5.637  -7.145  -1.591  1.00  0.00     0.031 C 
ATOM     46  C   UNL     1       1.879  -4.651  -3.809  1.00  0.00     0.029 A 
ATOM     47  N   UNL     1       1.452  -6.691  -3.007  1.00  0.00    -0.354 N 
ATOM     48  C   UNL     1       4.575  -9.159  -1.338  1.00  0.00     0.074 A 
ATOM     49  C   UNL     1       5.796  -8.395  -1.181  1.00  0.00     0.031 C 
ATOM     50  C   UNL     1       0.560  -4.862  -3.930  1.00  0.00     0.029 A 
ATOM     51  C   UNL     1       0.253  -6.217  -3.490  1.00  0.00     0.049 A 
ATOM     52  H   UNL     1       1.551  -7.574  -2.583  1.00  0.00     0.167 HD
ATOM     53  C   UNL     1       4.416 -10.445  -0.933  1.00  0.00     0.034 A 
ATOM     54  C   UNL     1      -0.948  -6.816  -3.619  1.00  0.00     0.034 A 
ATOM     55  C   UNL     1       3.177 -11.179  -1.052  1.00  0.00     0.049 A 
ATOM     56  C   UNL     1      -1.092  -8.257  -3.208  1.00  0.00     0.074 A 
ATOM     57  C   UNL     1       2.902 -12.479  -0.662  1.00  0.00     0.029 A 
ATOM     58  N   UNL     1       2.002 -10.674  -1.594  1.00  0.00    -0.354 N 
ATOM     59  N   UNL     1      -0.194  -9.063  -2.692  1.00  0.00    -0.248 NA
ATOM     60  C   UNL     1      -2.408  -8.874  -3.418  1.00  0.00     0.031 C 
ATOM     61  C   UNL     1       1.580 -12.776  -1.015  1.00  0.00     0.029 A 
ATOM     62  C   UNL     1       1.007 -11.640  -1.563  1.00  0.00     0.049 A 
ATOM     63  H   UNL     1       1.891  -9.762  -1.948  1.00  0.00     0.167 HD
ATOM     64  C   UNL     1      -0.842 -10.280  -2.506  1.00  0.00     0.074 A 
ATOM     65  C   UNL     1      -2.210 -10.095  -2.943  1.00  0.00     0.031 C 
ATOM     66  C   UNL     1      -0.349 -11.448  -2.019  1.00  0.00     0.034 A 
BRANCH  53  67
ATOM     67  C   UNL     1       5.630 -11.155  -0.379  1.00  0.00     0.023 A 
ATOM     68  C   UNL     1       6.261 -10.741   0.807  1.00  0.00     0.031 A 
ATOM     69  C   UNL     1       6.191 -12.242  -1.075  1.00  0.00     0.131 A 
ATOM     70  C   UNL     1       7.457 -11.353   1.214  1.00  0.00     0.055 A 
ATOM     71  C   UNL     1       7.334 -12.901  -0.619  1.00  0.00     0.041 A 
ATOM     72  F   UNL     1       5.645 -12.673  -2.223  1.00  0.00    -0.206 F 
ATOM     73  C   UNL     1       7.986 -12.445   0.523  1.00  0.00     0.022 A 
BRANCH  70  74
ATOM     74  S   UNL     1       8.396 -10.595   2.569  1.00  0.00     0.124 S 
ATOM     75  O   UNL     1       8.611  -9.243   2.057  1.00  0.00    -0.237 OA
ATOM     76  O   UNL     1       7.476 -10.713   3.693  1.00  0.00    -0.237 OA
ATOM     77  O   UNL     1       9.600 -11.420   2.655  1.00  0.00    -0.744 OA
ENDBRANCH  70  74
ENDBRANCH  53  67
BRANCH  54  78
ATOM     78  C   UNL     1      -2.094  -6.081  -4.229  1.00  0.00     0.023 A 
ATOM     79  C   UNL     1      -3.249  -5.797  -3.485  1.00  0.00     0.031 A 
ATOM     80  C   UNL     1      -2.061  -5.678  -5.577  1.00  0.00     0.131 A 
ATOM     81  C   UNL     1      -4.336  -5.155  -4.100  1.00  0.00     0.055 A 
ATOM     82  C   UNL     1      -3.121  -4.991  -6.168  1.00  0.00     0.041 A 
ATOM     83  F   UNL     1      -0.981  -5.930  -6.334  1.00  0.00    -0.206 F 
ATOM     84  C   UNL     1      -4.272  -4.735  -5.431  1.00  0.00     0.022 A 
BRANCH  81  85
ATOM     85  S   UNL     1      -5.867  -4.941  -3.153  1.00  0.00     0.124 S 
ATOM     86  O   UNL     1      -6.213  -6.320  -2.831  1.00  0.00    -0.237 OA
ATOM     87  O   UNL     1      -5.421  -4.114  -2.037  1.00  0.00    -0.237 OA
ATOM     88  O   UNL     1      -6.762  -4.277  -4.099  1.00  0.00    -0.744 OA
ENDBRANCH  81  85
ENDBRANCH  54  78
BRANCH  66  89
ATOM     89  C   UNL     1      -1.319 -12.595  -1.899  1.00  0.00     0.023 A 
ATOM     90  C   UNL     1      -1.853 -13.233  -3.032  1.00  0.00     0.031 A 
ATOM     91  C   UNL     1      -1.739 -13.034  -0.631  1.00  0.00     0.131 A 
ATOM     92  C   UNL     1      -2.819 -14.239  -2.877  1.00  0.00     0.055 A 
ATOM     93  C   UNL     1      -2.660 -14.072  -0.481  1.00  0.00     0.041 A 
ATOM     94  F   UNL     1      -1.263 -12.457   0.484  1.00  0.00    -0.206 F 
ATOM     95  C   UNL     1      -3.215 -14.671  -1.609  1.00  0.00     0.022 A 
BRANCH  92  96
ATOM     96  S   UNL     1      -3.622 -14.913  -4.357  1.00  0.00     0.124 S 
ATOM     97  O   UNL     1      -4.219 -13.720  -4.948  1.00  0.00    -0.237 OA
ATOM     98  O   UNL     1      -2.497 -15.491  -5.086  1.00  0.00    -0.237 OA
ATOM     99  O   UNL     1      -4.574 -15.883  -3.820  1.00  0.00    -0.744 OA
ENDBRANCH  92  96
ENDBRANCH  66  89
ENDBRANCH  40  41
ENDBRANCH  33  35
ENDBRANCH  32  33
ENDBRANCH  31  32
ENDBRANCH   1  31
TORSDOF 20
