REMARK SMILES COC(=O)c1nc(C)cc(N[C@@H]2C=C[C@H](C(=O)OCCOC(=O)c3ccc(-c4c5nc(c(-c6cc(S(=O)(=O)[O-])ccc6F)c6ccc([nH]6)c(-c6cc(S(=O)(=O)[O-])ccc6F)c6nc(c(-c7cc(S(=O)(=O)[O-])ccc7F)c7ccc4[nH]7)C=C6)C=C5)cc3)C2)n1
REMARK SMILES IDX 19 1 18 2 16 3 17 4 15 5 12 6 13 7 87 8 14 9 11 10 10 12
REMARK SMILES IDX 5 13 6 14 88 15 7 16 8 17 9 18 3 19 4 20 2 21 1 22 20 23
REMARK SMILES IDX 21 24 22 25 23 26 24 27 25 28 86 29 26 30 85 31 27 32 28 33
REMARK SMILES IDX 29 34 79 35 30 36 84 37 78 38 80 39 31 40 83 41 77 42 76 43
REMARK SMILES IDX 32 45 64 46 44 47 63 48 45 49 48 50 62 51 81 52 46 53 47 54
REMARK SMILES IDX 61 56 82 57 49 58 33 59 34 60 42 61 35 62 41 63 43 64 40 65
REMARK SMILES IDX 36 66 37 67 38 68 39 69 65 70 66 71 74 72 67 73 73 74 75 75
REMARK SMILES IDX 72 76 68 77 69 78 70 79 71 80 50 81 51 82 59 83 52 84 58 85
REMARK SMILES IDX 60 86 57 87 53 88 54 89 55 90 56 91
REMARK H PARENT 11 11 80 44 48 55
REMARK Flexibility Score: inf
ROOT
ATOM      1  C   UNL     1      -7.707   1.543  -0.352  1.00  0.00     0.274 C 
ENDROOT
BRANCH   1   2
ATOM      2  O   UNL     1      -6.756   1.520  -1.517  1.00  0.00    -0.462 OA
BRANCH   2   3
ATOM      3  C   UNL     1      -5.819   2.521  -1.694  1.00  0.00     0.312 C 
ATOM      4  O   UNL     1      -5.972   3.619  -1.151  1.00  0.00    -0.252 OA
BRANCH   3   5
ATOM      5  C   UNL     1      -4.448   2.244  -2.552  1.00  0.00     0.124 C 
ATOM      6  C   UNL     1      -3.934   1.431  -4.875  1.00  0.00     0.104 C 
ATOM      7  C   UNL     1      -3.238   0.610  -3.848  1.00  0.00    -0.006 C 
ATOM      8  C   UNL     1      -4.530   2.604  -4.052  1.00  0.00     0.048 C 
ATOM      9  C   UNL     1      -3.501   1.053  -2.611  1.00  0.00    -0.014 C 
BRANCH   6  10
ATOM     10  N   UNL     1      -4.943   0.705  -5.647  1.00  0.00    -0.364 N 
ATOM     11  H   UNL     1      -4.894   0.693  -6.630  1.00  0.00     0.162 HD
BRANCH  10  12
ATOM     12  C   UNL     1      -5.961   0.040  -5.002  1.00  0.00     0.131 A 
ATOM     13  C   UNL     1      -6.668  -0.871  -3.026  1.00  0.00     0.241 A 
ATOM     14  N   UNL     1      -7.891  -1.194  -3.496  1.00  0.00    -0.227 NA
ATOM     15  N   UNL     1      -5.746  -0.248  -3.735  1.00  0.00    -0.205 NA
ATOM     16  C   UNL     1      -8.112  -0.883  -4.797  1.00  0.00     0.044 A 
ATOM     17  C   UNL     1      -9.485  -1.143  -5.352  1.00  0.00     0.067 C 
ATOM     18  C   UNL     1      -7.150  -0.284  -5.601  1.00  0.00     0.070 A 
BRANCH  13  19
ATOM     19  C   UNL     1      -6.238  -1.153  -1.621  1.00  0.00     0.376 C 
ATOM     20  O   UNL     1      -6.752  -2.096  -1.013  1.00  0.00    -0.242 OA
BRANCH  19  21
ATOM     21  O   UNL     1      -5.287  -0.257  -1.173  1.00  0.00    -0.463 OA
ATOM     22  C   UNL     1      -4.833   0.396   0.113  1.00  0.00     0.282 C 
ENDBRANCH  19  21
ENDBRANCH  13  19
ENDBRANCH  10  12
ENDBRANCH   6  10
ENDBRANCH   3   5
ENDBRANCH   2   3
ENDBRANCH   1   2
BRANCH   1  23
ATOM     23  C   UNL     1      -8.035   0.151   0.461  1.00  0.00     0.275 C 
BRANCH  23  24
ATOM     24  O   UNL     1      -6.901  -0.584   1.087  1.00  0.00    -0.458 OA
BRANCH  24  25
ATOM     25  C   UNL     1      -7.000  -1.914   1.482  1.00  0.00     0.338 C 
ATOM     26  O   UNL     1      -8.068  -2.459   1.726  1.00  0.00    -0.246 OA
BRANCH  25  27
ATOM     27  C   UNL     1      -5.635  -2.644   1.659  1.00  0.00     0.060 A 
ATOM     28  C   UNL     1      -4.493  -2.441   0.864  1.00  0.00     0.016 A 
ATOM     29  C   UNL     1      -5.473  -3.628   2.631  1.00  0.00     0.016 A 
ATOM     30  C   UNL     1      -3.197  -2.832   1.210  1.00  0.00     0.010 A 
ATOM     31  C   UNL     1      -4.187  -4.152   2.925  1.00  0.00     0.010 A 
ATOM     32  C   UNL     1      -3.030  -3.675   2.285  1.00  0.00    -0.014 A 
BRANCH  32  33
ATOM     33  C   UNL     1      -1.674  -4.072   2.725  1.00  0.00     0.031 A 
ATOM     34  C   UNL     1      -1.050  -5.314   2.179  1.00  0.00     0.074 A 
ATOM     35  C   UNL     1      -1.027  -3.327   3.642  1.00  0.00     0.049 A 
ATOM     36  N   UNL     1      -0.114  -6.061   2.697  1.00  0.00    -0.248 NA
ATOM     37  C   UNL     1      -1.550  -5.776   0.877  1.00  0.00     0.031 C 
ATOM     38  C   UNL     1      -1.441  -1.999   4.099  1.00  0.00     0.029 A 
ATOM     39  N   UNL     1       0.091  -3.603   4.392  1.00  0.00    -0.354 N 
ATOM     40  C   UNL     1       0.055  -7.118   1.811  1.00  0.00     0.074 A 
ATOM     41  C   UNL     1      -0.861  -6.897   0.711  1.00  0.00     0.031 C 
ATOM     42  C   UNL     1      -0.642  -1.616   5.110  1.00  0.00     0.029 A 
ATOM     43  C   UNL     1       0.286  -2.700   5.416  1.00  0.00     0.049 A 
ATOM     44  H   UNL     1       0.689  -4.365   4.217  1.00  0.00     0.167 HD
ATOM     45  C   UNL     1       0.884  -8.184   1.937  1.00  0.00     0.034 A 
ATOM     46  C   UNL     1       1.058  -2.789   6.519  1.00  0.00     0.034 A 
ATOM     47  C   UNL     1       1.762  -8.367   3.068  1.00  0.00     0.049 A 
ATOM     48  C   UNL     1       1.867  -4.052   6.721  1.00  0.00     0.074 A 
ATOM     49  C   UNL     1       2.591  -9.434   3.363  1.00  0.00     0.029 A 
ATOM     50  N   UNL     1       1.924  -7.444   4.096  1.00  0.00    -0.354 N 
ATOM     51  N   UNL     1       1.940  -5.118   5.955  1.00  0.00    -0.248 NA
ATOM     52  C   UNL     1       2.689  -4.128   7.935  1.00  0.00     0.031 C 
ATOM     53  C   UNL     1       3.215  -9.178   4.590  1.00  0.00     0.029 A 
ATOM     54  C   UNL     1       2.833  -7.919   5.027  1.00  0.00     0.049 A 
ATOM     55  H   UNL     1       1.460  -6.578   4.154  1.00  0.00     0.167 HD
ATOM     56  C   UNL     1       2.849  -5.971   6.577  1.00  0.00     0.074 A 
ATOM     57  C   UNL     1       3.304  -5.289   7.771  1.00  0.00     0.031 C 
ATOM     58  C   UNL     1       3.274  -7.205   6.201  1.00  0.00     0.034 A 
BRANCH  45  59
ATOM     59  C   UNL     1       0.807  -9.252   0.876  1.00  0.00     0.023 A 
ATOM     60  C   UNL     1       1.186  -9.005  -0.455  1.00  0.00     0.031 A 
ATOM     61  C   UNL     1       0.314 -10.532   1.193  1.00  0.00     0.131 A 
ATOM     62  C   UNL     1       1.010 -10.000  -1.429  1.00  0.00     0.055 A 
ATOM     63  C   UNL     1       0.210 -11.541   0.234  1.00  0.00     0.041 A 
ATOM     64  F   UNL     1      -0.088 -10.819   2.441  1.00  0.00    -0.206 F 
ATOM     65  C   UNL     1       0.548 -11.274  -1.090  1.00  0.00     0.022 A 
BRANCH  62  66
ATOM     66  S   UNL     1       1.282  -9.569  -3.170  1.00  0.00     0.124 S 
ATOM     67  O   UNL     1       0.265  -8.542  -3.382  1.00  0.00    -0.237 OA
ATOM     68  O   UNL     1       2.665  -9.107  -3.170  1.00  0.00    -0.237 OA
ATOM     69  O   UNL     1       1.045 -10.827  -3.877  1.00  0.00    -0.744 OA
ENDBRANCH  62  66
ENDBRANCH  45  59
BRANCH  46  70
ATOM     70  C   UNL     1       1.044  -1.723   7.567  1.00  0.00     0.023 A 
ATOM     71  C   UNL     1       2.221  -1.044   7.920  1.00  0.00     0.031 A 
ATOM     72  C   UNL     1      -0.124  -1.423   8.295  1.00  0.00     0.131 A 
ATOM     73  C   UNL     1       2.222  -0.150   9.003  1.00  0.00     0.055 A 
ATOM     74  C   UNL     1      -0.133  -0.483   9.329  1.00  0.00     0.041 A 
ATOM     75  F   UNL     1      -1.280  -2.045   8.014  1.00  0.00    -0.206 F 
ATOM     76  C   UNL     1       1.050   0.147   9.700  1.00  0.00     0.022 A 
BRANCH  73  77
ATOM     77  S   UNL     1       3.809   0.527   9.565  1.00  0.00     0.124 S 
ATOM     78  O   UNL     1       4.585  -0.687   9.794  1.00  0.00    -0.237 OA
ATOM     79  O   UNL     1       4.211   1.340   8.422  1.00  0.00    -0.237 OA
ATOM     80  O   UNL     1       3.453   1.276  10.768  1.00  0.00    -0.744 OA
ENDBRANCH  73  77
ENDBRANCH  46  70
BRANCH  58  81
ATOM     81  C   UNL     1       4.342  -7.842   7.055  1.00  0.00     0.023 A 
ATOM     82  C   UNL     1       4.087  -8.265   8.370  1.00  0.00     0.031 A 
ATOM     83  C   UNL     1       5.642  -8.002   6.544  1.00  0.00     0.131 A 
ATOM     84  C   UNL     1       5.136  -8.769   9.154  1.00  0.00     0.055 A 
ATOM     85  C   UNL     1       6.666  -8.562   7.307  1.00  0.00     0.041 A 
ATOM     86  F   UNL     1       5.938  -7.613   5.293  1.00  0.00    -0.206 F 
ATOM     87  C   UNL     1       6.419  -8.935   8.625  1.00  0.00     0.022 A 
BRANCH  84  88
ATOM     88  S   UNL     1       4.824  -9.112  10.907  1.00  0.00     0.124 S 
ATOM     89  O   UNL     1       4.400  -7.806  11.400  1.00  0.00    -0.237 OA
ATOM     90  O   UNL     1       3.787 -10.137  10.845  1.00  0.00    -0.237 OA
ATOM     91  O   UNL     1       6.120  -9.572  11.402  1.00  0.00    -0.744 OA
ENDBRANCH  84  88
ENDBRANCH  58  81
ENDBRANCH  32  33
ENDBRANCH  25  27
ENDBRANCH  24  25
ENDBRANCH  23  24
ENDBRANCH   1  23
TORSDOF 18
