REMARK SMILES O=C(C[C@@H](NS(=O)(=O)c1ccc2c(c1)OCCO2)c1ccccc1)OCCOC(=O)c1ccc(-c2c3nc(c(-c4cc(S(=O)(=O)[O-])ccc4F)c4ccc([nH]4)c(-c4cc(S(=O)(=O)[O-])ccc4F)c4nc(c(-c5cc(S(=O)(=O)[O-])ccc5F)c5ccc2[nH]5)C=C4)C=C3)cc1
REMARK SMILES IDX 26 1 25 2 2 3 1 4 3 5 4 6 5 7 6 9 7 10 8 11 9 12 10 13 14 14
REMARK SMILES IDX 11 15 13 16 12 17 15 18 18 19 16 20 17 21 19 22 20 23 24 24
REMARK SMILES IDX 21 25 23 26 22 27 27 28 28 29 29 30 30 31 31 32 32 33 93 34
REMARK SMILES IDX 33 35 92 36 34 37 35 38 36 39 86 40 37 41 91 42 85 43 87 44
REMARK SMILES IDX 38 45 90 46 84 47 83 48 39 50 71 51 51 52 70 53 52 54 55 55
REMARK SMILES IDX 69 56 88 57 53 58 54 59 68 61 89 62 56 63 40 64 41 65 49 66
REMARK SMILES IDX 42 67 48 68 50 69 47 70 43 71 44 72 45 73 46 74 72 75 73 76
REMARK SMILES IDX 81 77 74 78 80 79 82 80 79 81 75 82 76 83 77 84 78 85 57 86
REMARK SMILES IDX 58 87 66 88 59 89 65 90 67 91 64 92 60 93 61 94 62 95 63 96
REMARK H PARENT 5 8 87 49 55 60
REMARK Flexibility Score: inf
ROOT
ATOM      1  C   UNL     1       4.319  -1.358   0.276  1.00  0.00     0.274 C 
ENDROOT
BRANCH   1   2
ATOM      2  O   UNL     1       3.036  -0.933   0.793  1.00  0.00    -0.462 OA
BRANCH   2   3
ATOM      3  C   UNL     1       2.649   0.366   0.887  1.00  0.00     0.307 C 
ATOM      4  O   UNL     1       1.880   0.733   1.770  1.00  0.00    -0.252 OA
BRANCH   3   5
ATOM      5  C   UNL     1       3.148   1.313  -0.159  1.00  0.00     0.147 C 
BRANCH   5   6
ATOM      6  C   UNL     1       4.170   2.361   0.296  1.00  0.00     0.111 C 
BRANCH   6   7
ATOM      7  N   UNL     1       5.285   1.732   1.060  1.00  0.00    -0.203 NA
ATOM      8  H   UNL     1       5.844   1.201   0.392  1.00  0.00     0.142 HD
BRANCH   7   9
ATOM      9  S   UNL     1       6.354   2.729   1.922  1.00  0.00     0.241 S 
ATOM     10  O   UNL     1       5.540   3.626   2.710  1.00  0.00    -0.207 OA
ATOM     11  O   UNL     1       7.285   1.821   2.560  1.00  0.00    -0.207 OA
BRANCH   9  12
ATOM     12  C   UNL     1       7.248   3.645   0.709  1.00  0.00     0.086 A 
ATOM     13  C   UNL     1       8.111   2.981  -0.170  1.00  0.00     0.026 A 
ATOM     14  C   UNL     1       7.040   5.023   0.609  1.00  0.00     0.072 A 
ATOM     15  C   UNL     1       8.714   3.698  -1.207  1.00  0.00     0.052 A 
ATOM     16  C   UNL     1       7.622   5.721  -0.444  1.00  0.00     0.162 A 
ATOM     17  C   UNL     1       8.459   5.064  -1.352  1.00  0.00     0.161 A 
ATOM     18  O   UNL     1       7.292   7.047  -0.550  1.00  0.00    -0.486 OA
ATOM     19  O   UNL     1       9.031   5.684  -2.432  1.00  0.00    -0.486 OA
ATOM     20  C   UNL     1       7.512   7.523  -1.882  1.00  0.00     0.271 C 
ATOM     21  C   UNL     1       8.888   7.109  -2.376  1.00  0.00     0.271 C 
ENDBRANCH   9  12
ENDBRANCH   7   9
ENDBRANCH   6   7
BRANCH   6  22
ATOM     22  C   UNL     1       4.660   3.021  -0.990  1.00  0.00    -0.029 A 
ATOM     23  C   UNL     1       5.388   2.287  -1.951  1.00  0.00     0.005 A 
ATOM     24  C   UNL     1       4.367   4.361  -1.260  1.00  0.00     0.005 A 
ATOM     25  C   UNL     1       5.803   2.872  -3.147  1.00  0.00     0.000 A 
ATOM     26  C   UNL     1       4.811   4.949  -2.446  1.00  0.00     0.000 A 
ATOM     27  C   UNL     1       5.515   4.208  -3.393  1.00  0.00     0.000 A 
ENDBRANCH   6  22
ENDBRANCH   5   6
ENDBRANCH   3   5
ENDBRANCH   2   3
ENDBRANCH   1   2
BRANCH   1  28
ATOM     28  C   UNL     1       4.227  -2.144  -1.035  1.00  0.00     0.275 C 
BRANCH  28  29
ATOM     29  O   UNL     1       3.841  -1.293  -2.130  1.00  0.00    -0.458 OA
BRANCH  29  30
ATOM     30  C   UNL     1       2.510  -1.264  -2.405  1.00  0.00     0.338 C 
ATOM     31  O   UNL     1       1.659  -1.970  -1.894  1.00  0.00    -0.246 OA
BRANCH  30  32
ATOM     32  C   UNL     1       2.202  -0.091  -3.262  1.00  0.00     0.060 A 
ATOM     33  C   UNL     1       1.023   0.619  -2.995  1.00  0.00     0.016 A 
ATOM     34  C   UNL     1       3.065   0.350  -4.269  1.00  0.00     0.016 A 
ATOM     35  C   UNL     1       0.704   1.766  -3.729  1.00  0.00     0.010 A 
ATOM     36  C   UNL     1       2.738   1.494  -5.009  1.00  0.00     0.010 A 
ATOM     37  C   UNL     1       1.552   2.207  -4.752  1.00  0.00    -0.014 A 
BRANCH  37  38
ATOM     38  C   UNL     1       1.170   3.350  -5.624  1.00  0.00     0.031 A 
ATOM     39  C   UNL     1       0.581   3.071  -6.977  1.00  0.00     0.074 A 
ATOM     40  C   UNL     1       1.363   4.625  -5.235  1.00  0.00     0.049 A 
ATOM     41  N   UNL     1       0.280   3.908  -7.934  1.00  0.00    -0.248 NA
ATOM     42  C   UNL     1       0.278   1.665  -7.284  1.00  0.00     0.031 C 
ATOM     43  C   UNL     1       1.834   5.038  -3.918  1.00  0.00     0.029 A 
ATOM     44  N   UNL     1       1.216   5.809  -5.920  1.00  0.00    -0.354 N 
ATOM     45  C   UNL     1      -0.258   3.136  -8.956  1.00  0.00     0.074 A 
ATOM     46  C   UNL     1      -0.211   1.758  -8.512  1.00  0.00     0.031 C 
ATOM     47  C   UNL     1       2.005   6.372  -3.910  1.00  0.00     0.029 A 
ATOM     48  C   UNL     1       1.689   6.905  -5.232  1.00  0.00     0.049 A 
ATOM     49  H   UNL     1       0.811   5.868  -6.816  1.00  0.00     0.167 HD
ATOM     50  C   UNL     1      -0.754   3.543 -10.148  1.00  0.00     0.034 A 
ATOM     51  C   UNL     1       1.891   8.178  -5.631  1.00  0.00     0.034 A 
ATOM     52  C   UNL     1      -0.790   4.917 -10.583  1.00  0.00     0.049 A 
ATOM     53  C   UNL     1       1.476   8.580  -7.028  1.00  0.00     0.074 A 
ATOM     54  C   UNL     1      -1.332   5.433 -11.748  1.00  0.00     0.029 A 
ATOM     55  N   UNL     1      -0.240   5.988  -9.893  1.00  0.00    -0.354 N 
ATOM     56  N   UNL     1       0.915   7.848  -7.962  1.00  0.00    -0.248 NA
ATOM     57  C   UNL     1       1.700   9.980  -7.418  1.00  0.00     0.031 C 
ATOM     58  C   UNL     1      -1.028   6.797 -11.805  1.00  0.00     0.029 A 
ATOM     59  C   UNL     1      -0.371   7.150 -10.638  1.00  0.00     0.049 A 
ATOM     60  H   UNL     1       0.181   5.931  -9.005  1.00  0.00     0.167 HD
ATOM     61  C   UNL     1       0.680   8.711  -9.030  1.00  0.00     0.074 A 
ATOM     62  C   UNL     1       1.152  10.017  -8.624  1.00  0.00     0.031 C 
ATOM     63  C   UNL     1       0.112   8.448 -10.234  1.00  0.00     0.034 A 
BRANCH  50  64
ATOM     64  C   UNL     1      -1.251   2.486 -11.097  1.00  0.00     0.023 A 
ATOM     65  C   UNL     1      -2.408   1.735 -10.833  1.00  0.00     0.031 A 
ATOM     66  C   UNL     1      -0.565   2.250 -12.302  1.00  0.00     0.131 A 
ATOM     67  C   UNL     1      -2.825   0.755 -11.747  1.00  0.00     0.055 A 
ATOM     68  C   UNL     1      -1.020   1.319 -13.235  1.00  0.00     0.041 A 
ATOM     69  F   UNL     1       0.559   2.925 -12.590  1.00  0.00    -0.206 F 
ATOM     70  C   UNL     1      -2.153   0.560 -12.957  1.00  0.00     0.022 A 
BRANCH  67  71
ATOM     71  S   UNL     1      -4.205  -0.329 -11.291  1.00  0.00     0.124 S 
ATOM     72  O   UNL     1      -3.691  -0.972 -10.085  1.00  0.00    -0.237 OA
ATOM     73  O   UNL     1      -5.298   0.617 -11.095  1.00  0.00    -0.237 OA
ATOM     74  O   UNL     1      -4.344  -1.211 -12.448  1.00  0.00    -0.744 OA
ENDBRANCH  67  71
ENDBRANCH  50  64
BRANCH  51  75
ATOM     75  C   UNL     1       2.581   9.164  -4.745  1.00  0.00     0.023 A 
ATOM     76  C   UNL     1       1.947  10.349  -4.340  1.00  0.00     0.031 A 
ATOM     77  C   UNL     1       3.933   8.991  -4.393  1.00  0.00     0.131 A 
ATOM     78  C   UNL     1       2.681  11.345  -3.676  1.00  0.00     0.055 A 
ATOM     79  C   UNL     1       4.643   9.961  -3.681  1.00  0.00     0.041 A 
ATOM     80  F   UNL     1       4.596   7.879  -4.751  1.00  0.00    -0.206 F 
ATOM     81  C   UNL     1       4.021  11.155  -3.335  1.00  0.00     0.022 A 
BRANCH  78  82
ATOM     82  S   UNL     1       1.895  12.956  -3.390  1.00  0.00     0.124 S 
ATOM     83  O   UNL     1       1.482  13.326  -4.739  1.00  0.00    -0.237 OA
ATOM     84  O   UNL     1       0.824  12.606  -2.462  1.00  0.00    -0.237 OA
ATOM     85  O   UNL     1       2.973  13.763  -2.822  1.00  0.00    -0.744 OA
ENDBRANCH  78  82
ENDBRANCH  51  75
BRANCH  63  86
ATOM     86  C   UNL     1      -0.068   9.606 -11.185  1.00  0.00     0.023 A 
ATOM     87  C   UNL     1       1.031  10.255 -11.774  1.00  0.00     0.031 A 
ATOM     88  C   UNL     1      -1.358  10.061 -11.512  1.00  0.00     0.131 A 
ATOM     89  C   UNL     1       0.821  11.351 -12.625  1.00  0.00     0.055 A 
ATOM     90  C   UNL     1      -1.562  11.113 -12.406  1.00  0.00     0.041 A 
ATOM     91  F   UNL     1      -2.444   9.481 -10.975  1.00  0.00    -0.206 F 
ATOM     92  C   UNL     1      -0.469  11.771 -12.961  1.00  0.00     0.022 A 
BRANCH  89  93
ATOM     93  S   UNL     1       2.262  12.267 -13.237  1.00  0.00     0.124 S 
ATOM     94  O   UNL     1       2.866  12.745 -11.998  1.00  0.00    -0.237 OA
ATOM     95  O   UNL     1       3.008  11.238 -13.953  1.00  0.00    -0.237 OA
ATOM     96  O   UNL     1       1.675  13.306 -14.082  1.00  0.00    -0.744 OA
ENDBRANCH  89  93
ENDBRANCH  63  86
ENDBRANCH  37  38
ENDBRANCH  30  32
ENDBRANCH  29  30
ENDBRANCH  28  29
ENDBRANCH   1  28
TORSDOF 19
