REMARK SMILES Cc1cccc(-c2cc(C(=O)OCCOC(=O)c3ccc(-c4c5nc(c(-c6cc(S(=O)(=O)[O-])ccc6F)c6ccc([nH]6)c(-c6cc(S(=O)(=O)[O-])ccc6F)c6nc(c(-c7cc(S(=O)(=O)[O-])ccc7F)c7ccc4[nH]7)C=C6)C=C5)cc3)ccn2)c1
REMARK SMILES IDX 14 1 13 2 12 3 10 4 11 5 9 6 7 7 8 8 83 9 82 10 81 11 6 12
REMARK SMILES IDX 1 13 2 14 3 15 84 16 4 17 5 18 15 19 16 20 17 21 18 22 19 23
REMARK SMILES IDX 80 24 20 25 79 26 21 27 22 28 23 29 73 30 24 31 78 32 72 33
REMARK SMILES IDX 74 34 25 35 77 36 71 37 70 38 26 40 58 41 38 42 57 43 39 44
REMARK SMILES IDX 42 45 56 46 75 47 40 48 41 49 55 51 76 52 43 53 27 54 28 55
REMARK SMILES IDX 36 56 29 57 35 58 37 59 34 60 30 61 31 62 32 63 33 64 59 65
REMARK SMILES IDX 60 66 68 67 61 68 67 69 69 70 66 71 62 72 63 73 64 74 65 75
REMARK SMILES IDX 44 76 45 77 53 78 46 79 52 80 54 81 51 82 47 83 48 84 49 85
REMARK SMILES IDX 50 86
REMARK H PARENT 74 39 42 50
REMARK Flexibility Score: inf
ROOT
ATOM      1  C   UNL     1      -3.417   5.121  -5.706  1.00  0.00     0.275 C 
ENDROOT
BRANCH   1   2
ATOM      2  C   UNL     1      -2.078   4.658  -5.087  1.00  0.00     0.275 C 
BRANCH   2   3
ATOM      3  O   UNL     1      -2.127   4.266  -3.707  1.00  0.00    -0.458 OA
BRANCH   3   4
ATOM      4  C   UNL     1      -2.950   3.250  -3.395  1.00  0.00     0.338 C 
ATOM      5  O   UNL     1      -3.628   2.578  -4.159  1.00  0.00    -0.246 OA
BRANCH   4   6
ATOM      6  C   UNL     1      -2.819   2.967  -1.963  1.00  0.00     0.063 A 
ATOM      7  C   UNL     1      -1.732   1.717  -0.262  1.00  0.00     0.071 A 
ATOM      8  C   UNL     1      -1.738   2.201  -1.562  1.00  0.00     0.044 A 
ATOM      9  N   UNL     1      -2.685   2.050   0.646  1.00  0.00    -0.256 NA
ATOM     10  C   UNL     1      -3.684   2.864   0.235  1.00  0.00     0.112 A 
ATOM     11  C   UNL     1      -3.821   3.306  -1.065  1.00  0.00     0.036 A 
BRANCH   7  12
ATOM     12  C   UNL     1      -0.855   0.596   0.074  1.00  0.00     0.000 A 
ATOM     13  C   UNL     1       2.851  -0.311   0.129  1.00  0.00     0.044 C 
ATOM     14  C   UNL     1       1.357  -0.425   0.185  1.00  0.00    -0.050 A 
ATOM     15  C   UNL     1       0.759  -1.688   0.291  1.00  0.00     0.003 A 
ATOM     16  C   UNL     1       0.542   0.713   0.075  1.00  0.00     0.013 A 
ATOM     17  C   UNL     1      -0.628  -1.815   0.325  1.00  0.00     0.001 A 
ATOM     18  C   UNL     1      -1.425  -0.678   0.228  1.00  0.00     0.010 A 
ENDBRANCH   7  12
ENDBRANCH   4   6
ENDBRANCH   3   4
ENDBRANCH   2   3
ENDBRANCH   1   2
BRANCH   1  19
ATOM     19  O   UNL     1      -4.076   6.262  -5.114  1.00  0.00    -0.458 OA
BRANCH  19  20
ATOM     20  C   UNL     1      -4.348   6.223  -3.781  1.00  0.00     0.338 C 
ATOM     21  O   UNL     1      -5.197   5.513  -3.261  1.00  0.00    -0.246 OA
BRANCH  20  22
ATOM     22  C   UNL     1      -3.244   6.902  -3.056  1.00  0.00     0.060 A 
ATOM     23  C   UNL     1      -2.997   6.582  -1.712  1.00  0.00     0.016 A 
ATOM     24  C   UNL     1      -2.279   7.566  -3.814  1.00  0.00     0.016 A 
ATOM     25  C   UNL     1      -1.728   6.795  -1.171  1.00  0.00     0.010 A 
ATOM     26  C   UNL     1      -1.003   7.678  -3.321  1.00  0.00     0.010 A 
ATOM     27  C   UNL     1      -0.724   7.301  -2.001  1.00  0.00    -0.014 A 
BRANCH  27  28
ATOM     28  C   UNL     1       0.552   7.802  -1.507  1.00  0.00     0.031 A 
ATOM     29  C   UNL     1       1.681   6.950  -1.102  1.00  0.00     0.074 A 
ATOM     30  C   UNL     1       0.617   9.150  -1.471  1.00  0.00     0.049 A 
ATOM     31  N   UNL     1       2.553   7.298  -0.218  1.00  0.00    -0.248 NA
ATOM     32  C   UNL     1       1.930   5.621  -1.657  1.00  0.00     0.031 C 
ATOM     33  C   UNL     1       1.735  10.027  -1.187  1.00  0.00     0.029 A 
ATOM     34  N   UNL     1      -0.484  10.011  -1.495  1.00  0.00    -0.354 N 
ATOM     35  C   UNL     1       3.611   6.422  -0.304  1.00  0.00     0.074 A 
ATOM     36  C   UNL     1       3.138   5.343  -1.144  1.00  0.00     0.031 C 
ATOM     37  C   UNL     1       1.236  11.192  -0.729  1.00  0.00     0.029 A 
ATOM     38  C   UNL     1      -0.207  11.014  -0.579  1.00  0.00     0.049 A 
ATOM     39  H   UNL     1      -1.292   9.923  -2.050  1.00  0.00     0.167 HD
ATOM     40  C   UNL     1       4.826   6.787   0.199  1.00  0.00     0.034 A 
ATOM     41  C   UNL     1      -0.932  11.150   0.571  1.00  0.00     0.034 A 
ATOM     42  C   UNL     1       4.768   8.120   0.789  1.00  0.00     0.049 A 
ATOM     43  C   UNL     1      -0.018  11.072   1.770  1.00  0.00     0.074 A 
ATOM     44  C   UNL     1       5.067   9.367   0.266  1.00  0.00     0.029 A 
ATOM     45  N   UNL     1       4.037   8.337   1.950  1.00  0.00    -0.354 N 
ATOM     46  N   UNL     1       1.089  10.379   1.798  1.00  0.00    -0.248 NA
ATOM     47  C   UNL     1      -0.268  11.799   3.007  1.00  0.00     0.031 C 
ATOM     48  C   UNL     1       4.410  10.338   1.062  1.00  0.00     0.029 A 
ATOM     49  C   UNL     1       3.757   9.682   2.092  1.00  0.00     0.049 A 
ATOM     50  H   UNL     1       3.759   7.634   2.581  1.00  0.00     0.167 HD
ATOM     51  C   UNL     1       1.748  10.643   2.970  1.00  0.00     0.074 A 
ATOM     52  C   UNL     1       0.842  11.510   3.707  1.00  0.00     0.031 C 
ATOM     53  C   UNL     1       3.004  10.174   3.232  1.00  0.00     0.034 A 
BRANCH  40  54
ATOM     54  C   UNL     1       6.129   6.106  -0.147  1.00  0.00     0.023 A 
ATOM     55  C   UNL     1       7.290   6.890  -0.335  1.00  0.00     0.031 A 
ATOM     56  C   UNL     1       6.293   4.721  -0.327  1.00  0.00     0.131 A 
ATOM     57  C   UNL     1       8.502   6.326  -0.768  1.00  0.00     0.055 A 
ATOM     58  C   UNL     1       7.495   4.158  -0.785  1.00  0.00     0.041 A 
ATOM     59  F   UNL     1       5.303   3.861  -0.042  1.00  0.00    -0.206 F 
ATOM     60  C   UNL     1       8.604   4.963  -1.023  1.00  0.00     0.022 A 
BRANCH  57  61
ATOM     61  S   UNL     1       9.940   7.410  -1.007  1.00  0.00     0.124 S 
ATOM     62  O   UNL     1       9.449   8.363  -1.998  1.00  0.00    -0.237 OA
ATOM     63  O   UNL     1      10.161   7.934   0.336  1.00  0.00    -0.237 OA
ATOM     64  O   UNL     1      10.976   6.499  -1.491  1.00  0.00    -0.744 OA
ENDBRANCH  57  61
ENDBRANCH  40  54
BRANCH  41  65
ATOM     65  C   UNL     1      -2.348  10.646   0.545  1.00  0.00     0.023 A 
ATOM     66  C   UNL     1      -3.182  11.015  -0.538  1.00  0.00     0.031 A 
ATOM     67  C   UNL     1      -2.816   9.629   1.389  1.00  0.00     0.131 A 
ATOM     68  C   UNL     1      -4.352  10.294  -0.827  1.00  0.00     0.055 A 
ATOM     69  C   UNL     1      -4.021   8.953   1.136  1.00  0.00     0.041 A 
ATOM     70  F   UNL     1      -2.083   9.207   2.429  1.00  0.00    -0.206 F 
ATOM     71  C   UNL     1      -4.779   9.262   0.007  1.00  0.00     0.022 A 
BRANCH  68  72
ATOM     72  S   UNL     1      -5.170  10.548  -2.434  1.00  0.00     0.124 S 
ATOM     73  O   UNL     1      -6.024  11.698  -2.161  1.00  0.00    -0.237 OA
ATOM     74  O   UNL     1      -4.043  10.786  -3.331  1.00  0.00    -0.237 OA
ATOM     75  O   UNL     1      -5.863   9.282  -2.657  1.00  0.00    -0.744 OA
ENDBRANCH  68  72
ENDBRANCH  41  65
BRANCH  53  76
ATOM     76  C   UNL     1       3.696  10.265   4.567  1.00  0.00     0.023 A 
ATOM     77  C   UNL     1       2.991  10.386   5.769  1.00  0.00     0.031 A 
ATOM     78  C   UNL     1       5.101  10.133   4.679  1.00  0.00     0.131 A 
ATOM     79  C   UNL     1       3.667  10.481   6.995  1.00  0.00     0.055 A 
ATOM     80  C   UNL     1       5.764  10.132   5.907  1.00  0.00     0.041 A 
ATOM     81  F   UNL     1       5.888   9.993   3.602  1.00  0.00    -0.206 F 
ATOM     82  C   UNL     1       5.048  10.327   7.077  1.00  0.00     0.022 A 
BRANCH  79  83
ATOM     83  S   UNL     1       2.698  10.896   8.464  1.00  0.00     0.124 S 
ATOM     84  O   UNL     1       2.186  12.220   8.118  1.00  0.00    -0.237 OA
ATOM     85  O   UNL     1       1.708   9.825   8.500  1.00  0.00    -0.237 OA
ATOM     86  O   UNL     1       3.682  10.873   9.544  1.00  0.00    -0.744 OA
ENDBRANCH  79  83
ENDBRANCH  53  76
ENDBRANCH  27  28
ENDBRANCH  20  22
ENDBRANCH  19  20
ENDBRANCH   1  19
TORSDOF 15
