REMARK SMILES O=C(OCCOC(=O)[C@H](CCOCC(F)(F)F)c1ccccc1Br)c1ccc(-c2c3nc(c(-c4cc(S(=O)(=O)[O-])ccc4F)c4ccc([nH]4)c(-c4cc(S(=O)(=O)[O-])ccc4F)c4nc(c(-c5cc(S(=O)(=O)[O-])ccc5F)c5ccc2[nH]5)C=C4)C=C3)cc1
REMARK SMILES IDX 5 1 4 2 3 3 2 4 1 5 25 6 26 7 87 8 27 9 86 10 28 11 29 12
REMARK SMILES IDX 30 13 80 14 31 15 85 16 79 17 81 18 32 19 84 20 78 21 77 22
REMARK SMILES IDX 33 24 65 25 45 26 64 27 46 28 49 29 63 30 82 31 47 32 48 33
REMARK SMILES IDX 62 35 83 36 50 37 34 38 35 39 43 40 36 41 42 42 44 43 41 44
REMARK SMILES IDX 37 45 38 46 39 47 40 48 66 49 67 50 75 51 68 52 74 53 76 54
REMARK SMILES IDX 73 55 69 56 70 57 71 58 72 59 51 60 52 61 60 62 53 63 59 64
REMARK SMILES IDX 61 65 58 66 54 67 55 68 56 69 57 70 6 71 7 72 8 73 9 74
REMARK SMILES IDX 18 75 19 76 23 77 20 78 22 79 24 80 21 81 10 82 11 83 12 84
REMARK SMILES IDX 13 85 14 86 15 87 16 88 17 89
REMARK H PARENT 81 23 49 34
REMARK Flexibility Score: inf
ROOT
ATOM      1  C   UNL     1       4.627   3.387  -3.252  1.00  0.00     0.274 C 
ENDROOT
BRANCH   1   2
ATOM      2  C   UNL     1       5.320   3.548  -1.893  1.00  0.00     0.275 C 
BRANCH   2   3
ATOM      3  O   UNL     1       5.654   2.314  -1.247  1.00  0.00    -0.458 OA
BRANCH   3   4
ATOM      4  C   UNL     1       4.976   1.665  -0.270  1.00  0.00     0.338 C 
ATOM      5  O   UNL     1       5.580   0.836   0.407  1.00  0.00    -0.246 OA
BRANCH   4   6
ATOM      6  C   UNL     1       3.486   1.754  -0.112  1.00  0.00     0.060 A 
ATOM      7  C   UNL     1       2.658   2.812  -0.501  1.00  0.00     0.016 A 
ATOM      8  C   UNL     1       2.868   0.617   0.437  1.00  0.00     0.016 A 
ATOM      9  C   UNL     1       1.267   2.731  -0.385  1.00  0.00     0.010 A 
ATOM     10  C   UNL     1       1.476   0.501   0.486  1.00  0.00     0.010 A 
ATOM     11  C   UNL     1       0.662   1.577   0.108  1.00  0.00    -0.014 A 
BRANCH  11  12
ATOM     12  C   UNL     1      -0.780   1.584   0.465  1.00  0.00     0.031 A 
ATOM     13  C   UNL     1      -1.125   1.435   1.922  1.00  0.00     0.074 A 
ATOM     14  C   UNL     1      -1.748   1.734  -0.458  1.00  0.00     0.049 A 
ATOM     15  N   UNL     1      -2.278   1.215   2.492  1.00  0.00    -0.248 NA
ATOM     16  C   UNL     1       0.013   1.460   2.853  1.00  0.00     0.031 C 
ATOM     17  C   UNL     1      -1.536   1.897  -1.896  1.00  0.00     0.029 A 
ATOM     18  N   UNL     1      -3.113   1.775  -0.317  1.00  0.00    -0.354 N 
ATOM     19  C   UNL     1      -1.983   0.990   3.833  1.00  0.00     0.074 A 
ATOM     20  C   UNL     1      -0.544   0.994   3.954  1.00  0.00     0.031 C 
ATOM     21  C   UNL     1      -2.728   2.047  -2.501  1.00  0.00     0.029 A 
ATOM     22  C   UNL     1      -3.790   1.940  -1.504  1.00  0.00     0.049 A 
ATOM     23  H   UNL     1      -3.566   1.695   0.553  1.00  0.00     0.167 HD
ATOM     24  C   UNL     1      -2.834   0.843   4.878  1.00  0.00     0.034 A 
ATOM     25  C   UNL     1      -5.117   1.979  -1.748  1.00  0.00     0.034 A 
ATOM     26  C   UNL     1      -4.261   0.929   4.728  1.00  0.00     0.049 A 
ATOM     27  C   UNL     1      -6.063   1.834  -0.577  1.00  0.00     0.074 A 
ATOM     28  C   UNL     1      -5.242   0.845   5.696  1.00  0.00     0.029 A 
ATOM     29  N   UNL     1      -4.909   1.138   3.514  1.00  0.00    -0.354 N 
ATOM     30  N   UNL     1      -5.782   1.626   0.691  1.00  0.00    -0.248 NA
ATOM     31  C   UNL     1      -7.501   1.933  -0.862  1.00  0.00     0.031 C 
ATOM     32  C   UNL     1      -6.485   0.952   5.061  1.00  0.00     0.029 A 
ATOM     33  C   UNL     1      -6.277   1.177   3.707  1.00  0.00     0.049 A 
ATOM     34  H   UNL     1      -4.459   1.242   2.645  1.00  0.00     0.167 HD
ATOM     35  C   UNL     1      -7.004   1.599   1.357  1.00  0.00     0.074 A 
ATOM     36  C   UNL     1      -8.025   1.816   0.352  1.00  0.00     0.031 C 
ATOM     37  C   UNL     1      -7.264   1.418   2.678  1.00  0.00     0.034 A 
BRANCH  24  38
ATOM     38  C   UNL     1      -2.213   0.546   6.224  1.00  0.00     0.023 A 
ATOM     39  C   UNL     1      -1.257   1.405   6.800  1.00  0.00     0.031 A 
ATOM     40  C   UNL     1      -2.454  -0.683   6.862  1.00  0.00     0.131 A 
ATOM     41  C   UNL     1      -0.456   0.950   7.856  1.00  0.00     0.055 A 
ATOM     42  C   UNL     1      -1.740  -1.074   7.997  1.00  0.00     0.041 A 
ATOM     43  F   UNL     1      -3.346  -1.551   6.361  1.00  0.00    -0.206 F 
ATOM     44  C   UNL     1      -0.708  -0.273   8.479  1.00  0.00     0.022 A 
BRANCH  41  45
ATOM     45  S   UNL     1       1.078   1.856   8.216  1.00  0.00     0.124 S 
ATOM     46  O   UNL     1       1.766   1.790   6.929  1.00  0.00    -0.237 OA
ATOM     47  O   UNL     1       0.583   3.171   8.607  1.00  0.00    -0.237 OA
ATOM     48  O   UNL     1       1.695   1.075   9.286  1.00  0.00    -0.744 OA
ENDBRANCH  41  45
ENDBRANCH  24  38
BRANCH  25  49
ATOM     49  C   UNL     1      -5.629   2.134  -3.143  1.00  0.00     0.023 A 
ATOM     50  C   UNL     1      -6.349   3.273  -3.542  1.00  0.00     0.031 A 
ATOM     51  C   UNL     1      -5.418   1.125  -4.102  1.00  0.00     0.131 A 
ATOM     52  C   UNL     1      -6.858   3.360  -4.851  1.00  0.00     0.055 A 
ATOM     53  C   UNL     1      -5.886   1.237  -5.413  1.00  0.00     0.041 A 
ATOM     54  F   UNL     1      -4.733   0.016  -3.779  1.00  0.00    -0.206 F 
ATOM     55  C   UNL     1      -6.620   2.356  -5.791  1.00  0.00     0.022 A 
BRANCH  52  56
ATOM     56  S   UNL     1      -7.890   4.786  -5.297  1.00  0.00     0.124 S 
ATOM     57  O   UNL     1      -8.995   4.660  -4.353  1.00  0.00    -0.237 OA
ATOM     58  O   UNL     1      -6.979   5.903  -5.073  1.00  0.00    -0.237 OA
ATOM     59  O   UNL     1      -8.232   4.535  -6.696  1.00  0.00    -0.744 OA
ENDBRANCH  52  56
ENDBRANCH  25  49
BRANCH  37  60
ATOM     60  C   UNL     1      -8.698   1.518   3.129  1.00  0.00     0.023 A 
ATOM     61  C   UNL     1      -9.641   0.522   2.835  1.00  0.00     0.031 A 
ATOM     62  C   UNL     1      -9.094   2.595   3.943  1.00  0.00     0.131 A 
ATOM     63  C   UNL     1     -10.945   0.630   3.342  1.00  0.00     0.055 A 
ATOM     64  C   UNL     1     -10.375   2.671   4.487  1.00  0.00     0.041 A 
ATOM     65  F   UNL     1      -8.226   3.572   4.253  1.00  0.00    -0.206 F 
ATOM     66  C   UNL     1     -11.310   1.685   4.184  1.00  0.00     0.022 A 
BRANCH  63  67
ATOM     67  S   UNL     1     -12.176  -0.612   2.862  1.00  0.00     0.124 S 
ATOM     68  O   UNL     1     -12.235  -0.433   1.414  1.00  0.00    -0.237 OA
ATOM     69  O   UNL     1     -11.568  -1.854   3.327  1.00  0.00    -0.237 OA
ATOM     70  O   UNL     1     -13.377  -0.202   3.587  1.00  0.00    -0.744 OA
ENDBRANCH  63  67
ENDBRANCH  37  60
ENDBRANCH  11  12
ENDBRANCH   4   6
ENDBRANCH   3   4
ENDBRANCH   2   3
ENDBRANCH   1   2
BRANCH   1  71
ATOM     71  O   UNL     1       3.683   2.306  -3.346  1.00  0.00    -0.462 OA
BRANCH  71  72
ATOM     72  C   UNL     1       4.232   1.149  -3.827  1.00  0.00     0.313 C 
ATOM     73  O   UNL     1       5.428   0.998  -4.015  1.00  0.00    -0.252 OA
BRANCH  72  74
ATOM     74  C   UNL     1       3.156   0.022  -4.069  1.00  0.00     0.132 C 
BRANCH  74  75
ATOM     75  C   UNL     1       3.483  -0.540  -5.466  1.00  0.00    -0.019 A 
ATOM     76  C   UNL     1       4.014   0.363  -6.421  1.00  0.00     0.006 A 
ATOM     77  C   UNL     1       3.212  -1.799  -5.994  1.00  0.00     0.022 A 
ATOM     78  C   UNL     1       4.613  -0.057  -7.608  1.00  0.00     0.000 A 
ATOM     79  C   UNL     1       3.946  -2.288  -7.098  1.00  0.00     0.016 A 
ATOM     80  Br  UNL     1       1.337  -2.271  -6.205  1.00  0.00    -0.051 Br
ATOM     81  C   UNL     1       4.669  -1.408  -7.897  1.00  0.00     0.001 A 
ENDBRANCH  74  75
BRANCH  74  82
ATOM     82  C   UNL     1       3.244  -0.581  -2.625  1.00  0.00     0.048 C 
BRANCH  82  83
ATOM     83  C   UNL     1       2.907  -1.861  -1.868  1.00  0.00     0.162 C 
BRANCH  83  84
ATOM     84  O   UNL     1       3.109  -3.095  -2.497  1.00  0.00    -0.372 OA
BRANCH  84  85
ATOM     85  C   UNL     1       1.963  -3.644  -3.146  1.00  0.00     0.275 C 
BRANCH  85  86
ATOM     86  C   UNL     1       0.563  -3.053  -2.920  1.00  0.00     0.411 C 
ATOM     87  F   UNL     1       0.180  -3.154  -1.629  1.00  0.00    -0.168 F 
ATOM     88  F   UNL     1       0.506  -1.745  -3.266  1.00  0.00    -0.168 F 
ATOM     89  F   UNL     1      -0.350  -3.715  -3.667  1.00  0.00    -0.168 F 
ENDBRANCH  85  86
ENDBRANCH  84  85
ENDBRANCH  83  84
ENDBRANCH  82  83
ENDBRANCH  74  82
ENDBRANCH  72  74
ENDBRANCH  71  72
ENDBRANCH   1  71
TORSDOF 20
