REMARK SMILES Cc1nn(C(C)C)c(C)c1S(=O)(=O)Nc1cccc(C(=O)OCCOC(=O)c2ccc(-c3c4nc(c(-c5cc(S(=O)(=O)[O-])ccc5F)c5ccc([nH]5)c(-c5cc(S(=O)(=O)[O-])ccc5F)c5nc(c(-c6cc(S(=O)(=O)[O-])ccc6F)c6ccc3[nH]6)C=C5)C=C4)cc2)c1C
REMARK SMILES IDX 23 1 22 2 20 3 21 4 19 5 15 6 16 7 91 8 17 9 92 10 18 11
REMARK SMILES IDX 14 12 11 14 12 15 13 16 10 17 1 18 2 19 3 20 4 21 8 22 9 23
REMARK SMILES IDX 5 24 6 25 7 26 24 27 25 28 26 29 27 30 28 31 29 32 90 33
REMARK SMILES IDX 30 34 89 35 31 36 32 37 33 38 83 39 34 40 88 41 82 42 84 43
REMARK SMILES IDX 35 44 87 45 81 46 80 47 36 49 68 50 48 51 67 52 49 53 52 54
REMARK SMILES IDX 66 55 85 56 50 57 51 58 65 60 86 61 53 62 37 63 38 64 46 65
REMARK SMILES IDX 39 66 45 67 47 68 44 69 40 70 41 71 42 72 43 73 69 74 70 75
REMARK SMILES IDX 78 76 71 77 77 78 79 79 76 80 72 81 73 82 74 83 75 84 54 85
REMARK SMILES IDX 55 86 63 87 56 88 62 89 64 90 61 91 57 92 58 93 59 94 60 95
REMARK H PARENT 14 13 84 48 52 59
REMARK Flexibility Score: inf
ROOT
ATOM      1  C   UNL     1       2.974   4.328  -3.557  1.00  0.00     0.275 C 
ENDROOT
BRANCH   1   2
ATOM      2  O   UNL     1       1.757   3.917  -2.883  1.00  0.00    -0.458 OA
BRANCH   2   3
ATOM      3  C   UNL     1       1.841   2.667  -2.346  1.00  0.00     0.338 C 
ATOM      4  O   UNL     1       2.831   1.945  -2.393  1.00  0.00    -0.246 OA
BRANCH   3   5
ATOM      5  C   UNL     1       0.557   2.046  -1.921  1.00  0.00     0.065 A 
ATOM      6  C   UNL     1      -0.852   1.052  -0.195  1.00  0.00     0.053 A 
ATOM      7  C   UNL     1      -1.267   0.071  -1.093  1.00  0.00     0.027 A 
ATOM      8  C   UNL     1      -0.026   2.120  -0.634  1.00  0.00    -0.012 A 
ATOM      9  C   UNL     1      -0.778   0.070  -2.398  1.00  0.00     0.003 A 
ATOM     10  C   UNL     1       0.203   3.256   0.316  1.00  0.00     0.047 C 
ATOM     11  C   UNL     1       0.157   1.023  -2.793  1.00  0.00     0.016 A 
BRANCH   6  12
ATOM     12  N   UNL     1      -1.228   1.010   1.176  1.00  0.00    -0.279 N 
ATOM     13  H   UNL     1      -1.462   1.871   1.592  1.00  0.00     0.180 HD
BRANCH  12  14
ATOM     14  S   UNL     1      -1.316  -0.333   2.156  1.00  0.00     0.265 S 
ATOM     15  O   UNL     1      -2.688  -0.799   2.073  1.00  0.00    -0.201 OA
ATOM     16  O   UNL     1      -0.769   0.089   3.429  1.00  0.00    -0.201 OA
BRANCH  14  17
ATOM     17  C   UNL     1      -0.403  -1.733   1.760  1.00  0.00     0.131 A 
ATOM     18  C   UNL     1       1.710  -0.901   0.403  1.00  0.00     0.070 C 
ATOM     19  C   UNL     1       0.768  -1.888   0.983  1.00  0.00     0.080 A 
ATOM     20  N   UNL     1       1.045  -3.189   0.800  1.00  0.00    -0.176 NA
ATOM     21  N   UNL     1       0.215  -3.839   1.633  1.00  0.00    -0.266 N 
ATOM     22  C   UNL     1      -0.634  -2.996   2.299  1.00  0.00     0.056 A 
ATOM     23  C   UNL     1      -1.538  -3.438   3.393  1.00  0.00     0.068 C 
BRANCH  21  24
ATOM     24  C   UNL     1       0.298  -5.294   1.739  1.00  0.00     0.101 C 
ATOM     25  C   UNL     1      -0.269  -5.971   0.491  1.00  0.00     0.033 C 
ATOM     26  C   UNL     1       1.721  -5.766   2.034  1.00  0.00     0.033 C 
ENDBRANCH  21  24
ENDBRANCH  14  17
ENDBRANCH  12  14
ENDBRANCH   6  12
ENDBRANCH   3   5
ENDBRANCH   2   3
ENDBRANCH   1   2
BRANCH   1  27
ATOM     27  C   UNL     1       3.300   5.836  -3.513  1.00  0.00     0.275 C 
BRANCH  27  28
ATOM     28  O   UNL     1       2.848   6.614  -2.381  1.00  0.00    -0.458 OA
BRANCH  28  29
ATOM     29  C   UNL     1       2.690   6.084  -1.143  1.00  0.00     0.338 C 
ATOM     30  O   UNL     1       1.634   6.207  -0.522  1.00  0.00    -0.246 OA
BRANCH  29  31
ATOM     31  C   UNL     1       3.761   5.163  -0.716  1.00  0.00     0.060 A 
ATOM     32  C   UNL     1       3.400   4.059   0.064  1.00  0.00     0.016 A 
ATOM     33  C   UNL     1       5.038   5.261  -1.254  1.00  0.00     0.016 A 
ATOM     34  C   UNL     1       4.235   2.974   0.202  1.00  0.00     0.010 A 
ATOM     35  C   UNL     1       5.838   4.148  -1.236  1.00  0.00     0.010 A 
ATOM     36  C   UNL     1       5.448   3.044  -0.465  1.00  0.00    -0.014 A 
BRANCH  36  37
ATOM     37  C   UNL     1       6.540   2.186  -0.071  1.00  0.00     0.031 A 
ATOM     38  C   UNL     1       6.548   0.795  -0.555  1.00  0.00     0.074 A 
ATOM     39  C   UNL     1       7.398   2.859   0.734  1.00  0.00     0.049 A 
ATOM     40  N   UNL     1       7.002  -0.211   0.102  1.00  0.00    -0.248 NA
ATOM     41  C   UNL     1       5.911   0.384  -1.815  1.00  0.00     0.031 C 
ATOM     42  C   UNL     1       8.718   2.549   1.240  1.00  0.00     0.029 A 
ATOM     43  N   UNL     1       7.137   4.072   1.386  1.00  0.00    -0.354 N 
ATOM     44  C   UNL     1       7.153  -1.236  -0.816  1.00  0.00     0.074 A 
ATOM     45  C   UNL     1       6.262  -0.907  -1.896  1.00  0.00     0.031 C 
ATOM     46  C   UNL     1       8.936   3.305   2.342  1.00  0.00     0.029 A 
ATOM     47  C   UNL     1       7.695   4.014   2.646  1.00  0.00     0.049 A 
ATOM     48  H   UNL     1       6.641   4.834   1.009  1.00  0.00     0.167 HD
ATOM     49  C   UNL     1       8.230  -2.065  -0.683  1.00  0.00     0.034 A 
ATOM     50  C   UNL     1       6.900   3.805   3.743  1.00  0.00     0.034 A 
ATOM     51  C   UNL     1       8.980  -1.673   0.510  1.00  0.00     0.049 A 
ATOM     52  C   UNL     1       7.198   2.436   4.319  1.00  0.00     0.074 A 
ATOM     53  C   UNL     1      10.057  -0.814   0.664  1.00  0.00     0.029 A 
ATOM     54  N   UNL     1       8.380  -1.785   1.757  1.00  0.00    -0.354 N 
ATOM     55  N   UNL     1       7.521   1.389   3.604  1.00  0.00    -0.248 NA
ATOM     56  C   UNL     1       7.261   2.197   5.753  1.00  0.00     0.031 C 
ATOM     57  C   UNL     1      10.030  -0.328   2.001  1.00  0.00     0.029 A 
ATOM     58  C   UNL     1       8.940  -0.888   2.648  1.00  0.00     0.049 A 
ATOM     59  H   UNL     1       7.656  -2.415   1.977  1.00  0.00     0.167 HD
ATOM     60  C   UNL     1       7.940   0.388   4.443  1.00  0.00     0.074 A 
ATOM     61  C   UNL     1       7.751   0.948   5.777  1.00  0.00     0.031 C 
ATOM     62  C   UNL     1       8.443  -0.811   4.011  1.00  0.00     0.034 A 
BRANCH  49  63
ATOM     63  C   UNL     1       8.832  -2.917  -1.781  1.00  0.00     0.023 A 
ATOM     64  C   UNL     1      10.218  -3.193  -1.732  1.00  0.00     0.031 A 
ATOM     65  C   UNL     1       8.154  -3.457  -2.890  1.00  0.00     0.131 A 
ATOM     66  C   UNL     1      10.878  -3.888  -2.760  1.00  0.00     0.055 A 
ATOM     67  C   UNL     1       8.815  -4.132  -3.931  1.00  0.00     0.041 A 
ATOM     68  F   UNL     1       6.820  -3.393  -3.000  1.00  0.00    -0.206 F 
ATOM     69  C   UNL     1      10.185  -4.344  -3.875  1.00  0.00     0.022 A 
BRANCH  66  70
ATOM     70  S   UNL     1      12.662  -4.185  -2.611  1.00  0.00     0.124 S 
ATOM     71  O   UNL     1      13.200  -2.828  -2.594  1.00  0.00    -0.237 OA
ATOM     72  O   UNL     1      12.750  -4.931  -1.361  1.00  0.00    -0.237 OA
ATOM     73  O   UNL     1      12.979  -4.958  -3.812  1.00  0.00    -0.744 OA
ENDBRANCH  66  70
ENDBRANCH  49  63
BRANCH  50  74
ATOM     74  C   UNL     1       5.538   4.446   3.722  1.00  0.00     0.023 A 
ATOM     75  C   UNL     1       5.449   5.810   3.362  1.00  0.00     0.031 A 
ATOM     76  C   UNL     1       4.333   3.733   3.793  1.00  0.00     0.131 A 
ATOM     77  C   UNL     1       4.239   6.371   2.921  1.00  0.00     0.055 A 
ATOM     78  C   UNL     1       3.107   4.316   3.421  1.00  0.00     0.041 A 
ATOM     79  F   UNL     1       4.319   2.436   4.132  1.00  0.00    -0.206 F 
ATOM     80  C   UNL     1       3.060   5.628   2.941  1.00  0.00     0.022 A 
BRANCH  77  81
ATOM     81  S   UNL     1       4.311   7.983   2.078  1.00  0.00     0.124 S 
ATOM     82  O   UNL     1       4.436   8.910   3.197  1.00  0.00    -0.237 OA
ATOM     83  O   UNL     1       5.493   7.831   1.232  1.00  0.00    -0.237 OA
ATOM     84  O   UNL     1       3.053   8.053   1.346  1.00  0.00    -0.744 OA
ENDBRANCH  77  81
ENDBRANCH  50  74
BRANCH  62  85
ATOM     85  C   UNL     1       8.613  -2.021   4.894  1.00  0.00     0.023 A 
ATOM     86  C   UNL     1       7.987  -2.117   6.136  1.00  0.00     0.031 A 
ATOM     87  C   UNL     1       9.356  -3.157   4.490  1.00  0.00     0.131 A 
ATOM     88  C   UNL     1       8.257  -3.183   6.998  1.00  0.00     0.055 A 
ATOM     89  C   UNL     1       9.492  -4.293   5.289  1.00  0.00     0.041 A 
ATOM     90  F   UNL     1       9.979  -3.221   3.304  1.00  0.00    -0.206 F 
ATOM     91  C   UNL     1       8.976  -4.294   6.574  1.00  0.00     0.022 A 
BRANCH  88  92
ATOM     92  S   UNL     1       7.784  -2.974   8.728  1.00  0.00     0.124 S 
ATOM     93  O   UNL     1       8.592  -1.820   9.116  1.00  0.00    -0.237 OA
ATOM     94  O   UNL     1       6.347  -2.735   8.638  1.00  0.00    -0.237 OA
ATOM     95  O   UNL     1       8.171  -4.241   9.343  1.00  0.00    -0.744 OA
ENDBRANCH  88  92
ENDBRANCH  62  85
ENDBRANCH  36  37
ENDBRANCH  29  31
ENDBRANCH  28  29
ENDBRANCH  27  28
ENDBRANCH   1  27
TORSDOF 18
