REMARK SMILES Cc1nccn1C1(C(=O)OCCOC(=O)c2ccc(-c3c4nc(c(-c5cc(S(=O)(=O)[O-])ccc5F)c5ccc([nH]5)c(-c5cc(S(=O)(=O)[O-])ccc5F)c5nc(c(-c6cc(S(=O)(=O)[O-])ccc6F)c6ccc3[nH]6)C=C5)C=C4)cc2)CCN(C(=O)[C@@H]2C[C@H]2c2ccccc2)CC1
REMARK SMILES IDX 12 1 11 2 10 3 8 4 9 5 7 6 79 7 94 8 80 9 93 10 81 11 82 12
REMARK SMILES IDX 83 13 6 14 1 15 2 16 3 17 4 18 5 19 84 20 85 21 86 22 87 23
REMARK SMILES IDX 88 24 92 25 89 26 91 27 90 28 13 29 14 30 15 31 16 32 17 33
REMARK SMILES IDX 78 34 18 35 77 36 19 37 20 38 21 39 71 40 22 41 76 42 70 43
REMARK SMILES IDX 72 44 23 45 75 46 69 47 68 48 24 50 56 51 36 52 55 53 37 54
REMARK SMILES IDX 40 55 54 56 73 57 38 58 39 59 53 61 74 62 41 63 25 64 26 65
REMARK SMILES IDX 34 66 27 67 33 68 35 69 32 70 28 71 29 72 30 73 31 74 57 75
REMARK SMILES IDX 58 76 66 77 59 78 65 79 67 80 64 81 60 82 61 83 62 84 63 85
REMARK SMILES IDX 42 86 43 87 51 88 44 89 50 90 52 91 49 92 45 93 46 94 47 95
REMARK SMILES IDX 48 96
REMARK H PARENT 72 49 40 60
REMARK Flexibility Score: inf
ROOT
ATOM      1  C   UNL     1       5.083   5.757  -1.249  1.00  0.00     0.275 C 
ENDROOT
BRANCH   1   2
ATOM      2  C   UNL     1       5.381   4.797  -0.096  1.00  0.00     0.274 C 
BRANCH   2   3
ATOM      3  O   UNL     1       4.678   3.540  -0.238  1.00  0.00    -0.460 OA
BRANCH   3   4
ATOM      4  C   UNL     1       3.504   3.401   0.448  1.00  0.00     0.332 C 
ATOM      5  O   UNL     1       3.222   4.149   1.382  1.00  0.00    -0.249 OA
BRANCH   4   6
ATOM      6  C   UNL     1       2.660   2.117   0.052  1.00  0.00     0.146 C 
ATOM      7  C   UNL     1       3.105   1.533  -1.335  1.00  0.00     0.062 C 
ATOM      8  C   UNL     1       3.011   1.194   1.249  1.00  0.00     0.062 C 
ATOM      9  C   UNL     1       3.493   0.048  -1.434  1.00  0.00     0.122 C 
ATOM     10  C   UNL     1       2.887  -0.267   0.902  1.00  0.00     0.122 C 
ATOM     11  N   UNL     1       3.822  -0.565  -0.157  1.00  0.00    -0.342 N 
ATOM     12  C   UNL     1       4.851  -1.500  -0.118  1.00  0.00     0.226 C 
ATOM     13  O   UNL     1       5.260  -2.048  -1.140  1.00  0.00    -0.275 OA
BRANCH   6  14
ATOM     14  N   UNL     1       1.175   2.403   0.079  1.00  0.00    -0.318 N 
ATOM     15  C   UNL     1       0.003   0.198  -0.703  1.00  0.00     0.087 C 
ATOM     16  C   UNL     1       0.076   1.556  -0.111  1.00  0.00     0.106 A 
ATOM     17  N   UNL     1      -1.042   2.130   0.295  1.00  0.00    -0.242 NA
ATOM     18  C   UNL     1      -0.734   3.413   0.582  1.00  0.00     0.131 A 
ATOM     19  C   UNL     1       0.609   3.620   0.418  1.00  0.00     0.108 A 
ENDBRANCH   6  14
BRANCH  12  20
ATOM     20  C   UNL     1       5.604  -1.805   1.139  1.00  0.00     0.087 C 
ATOM     21  C   UNL     1       5.025  -2.677   2.221  1.00  0.00     0.023 C 
ATOM     22  C   UNL     1       5.355  -1.235   2.509  1.00  0.00     0.032 C 
BRANCH  22  23
ATOM     23  C   UNL     1       6.451  -0.797   3.429  1.00  0.00    -0.044 A 
ATOM     24  C   UNL     1       6.400  -1.145   4.787  1.00  0.00     0.004 A 
ATOM     25  C   UNL     1       7.376   0.180   3.030  1.00  0.00     0.004 A 
ATOM     26  C   UNL     1       7.191  -0.488   5.728  1.00  0.00     0.000 A 
ATOM     27  C   UNL     1       8.172   0.838   3.969  1.00  0.00     0.000 A 
ATOM     28  C   UNL     1       8.062   0.517   5.320  1.00  0.00     0.000 A 
ENDBRANCH  22  23
ENDBRANCH  12  20
ENDBRANCH   4   6
ENDBRANCH   3   4
ENDBRANCH   2   3
ENDBRANCH   1   2
BRANCH   1  29
ATOM     29  O   UNL     1       3.732   6.228  -1.224  1.00  0.00    -0.458 OA
BRANCH  29  30
ATOM     30  C   UNL     1       2.879   5.397  -1.863  1.00  0.00     0.338 C 
ATOM     31  O   UNL     1       3.105   4.247  -2.198  1.00  0.00    -0.246 OA
BRANCH  30  32
ATOM     32  C   UNL     1       1.657   6.072  -2.280  1.00  0.00     0.060 A 
ATOM     33  C   UNL     1       0.655   5.238  -2.789  1.00  0.00     0.016 A 
ATOM     34  C   UNL     1       1.673   7.452  -2.501  1.00  0.00     0.016 A 
ATOM     35  C   UNL     1      -0.217   5.757  -3.711  1.00  0.00     0.010 A 
ATOM     36  C   UNL     1       0.788   7.971  -3.418  1.00  0.00     0.010 A 
ATOM     37  C   UNL     1      -0.074   7.096  -4.081  1.00  0.00    -0.014 A 
BRANCH  37  38
ATOM     38  C   UNL     1      -0.855   7.538  -5.216  1.00  0.00     0.031 A 
ATOM     39  C   UNL     1      -2.314   7.574  -4.987  1.00  0.00     0.074 A 
ATOM     40  C   UNL     1      -0.277   7.946  -6.359  1.00  0.00     0.049 A 
ATOM     41  N   UNL     1      -3.241   6.953  -5.634  1.00  0.00    -0.248 NA
ATOM     42  C   UNL     1      -2.785   8.303  -3.801  1.00  0.00     0.031 C 
ATOM     43  C   UNL     1       1.145   8.184  -6.621  1.00  0.00     0.029 A 
ATOM     44  N   UNL     1      -0.882   8.369  -7.498  1.00  0.00    -0.354 N 
ATOM     45  C   UNL     1      -4.438   7.351  -5.053  1.00  0.00     0.074 A 
ATOM     46  C   UNL     1      -4.092   8.053  -3.846  1.00  0.00     0.031 C 
ATOM     47  C   UNL     1       1.262   8.943  -7.732  1.00  0.00     0.029 A 
ATOM     48  C   UNL     1      -0.058   9.124  -8.315  1.00  0.00     0.049 A 
ATOM     49  H   UNL     1      -1.818   8.159  -7.721  1.00  0.00     0.167 HD
ATOM     50  C   UNL     1      -5.625   7.240  -5.707  1.00  0.00     0.034 A 
ATOM     51  C   UNL     1      -0.456   9.938  -9.323  1.00  0.00     0.034 A 
ATOM     52  C   UNL     1      -5.555   6.277  -6.778  1.00  0.00     0.049 A 
ATOM     53  C   UNL     1      -1.797   9.473  -9.760  1.00  0.00     0.074 A 
ATOM     54  C   UNL     1      -5.284   4.923  -6.837  1.00  0.00     0.029 A 
ATOM     55  N   UNL     1      -5.425   6.733  -8.070  1.00  0.00    -0.354 N 
ATOM     56  N   UNL     1      -2.004   8.304 -10.305  1.00  0.00    -0.248 NA
ATOM     57  C   UNL     1      -2.979  10.092  -9.177  1.00  0.00     0.031 C 
ATOM     58  C   UNL     1      -4.531   4.747  -8.035  1.00  0.00     0.029 A 
ATOM     59  C   UNL     1      -4.423   5.994  -8.654  1.00  0.00     0.049 A 
ATOM     60  H   UNL     1      -5.949   7.450  -8.494  1.00  0.00     0.167 HD
ATOM     61  C   UNL     1      -3.202   7.858  -9.765  1.00  0.00     0.074 A 
ATOM     62  C   UNL     1      -3.813   9.046  -9.176  1.00  0.00     0.031 C 
ATOM     63  C   UNL     1      -3.454   6.525  -9.594  1.00  0.00     0.034 A 
BRANCH  50  64
ATOM     64  C   UNL     1      -6.759   8.221  -5.556  1.00  0.00     0.023 A 
ATOM     65  C   UNL     1      -7.964   7.940  -6.223  1.00  0.00     0.031 A 
ATOM     66  C   UNL     1      -6.634   9.528  -5.028  1.00  0.00     0.131 A 
ATOM     67  C   UNL     1      -8.938   8.938  -6.400  1.00  0.00     0.055 A 
ATOM     68  C   UNL     1      -7.637  10.493  -5.141  1.00  0.00     0.041 A 
ATOM     69  F   UNL     1      -5.504   9.978  -4.469  1.00  0.00    -0.206 F 
ATOM     70  C   UNL     1      -8.786  10.210  -5.855  1.00  0.00     0.022 A 
BRANCH  67  71
ATOM     71  S   UNL     1     -10.319   8.605  -7.523  1.00  0.00     0.124 S 
ATOM     72  O   UNL     1      -9.632   8.079  -8.698  1.00  0.00    -0.237 OA
ATOM     73  O   UNL     1     -11.106   7.647  -6.754  1.00  0.00    -0.237 OA
ATOM     74  O   UNL     1     -10.933   9.919  -7.700  1.00  0.00    -0.744 OA
ENDBRANCH  67  71
ENDBRANCH  50  64
BRANCH  51  75
ATOM     75  C   UNL     1       0.122  11.276  -9.608  1.00  0.00     0.023 A 
ATOM     76  C   UNL     1       0.007  11.903 -10.860  1.00  0.00     0.031 A 
ATOM     77  C   UNL     1       0.655  12.054  -8.551  1.00  0.00     0.131 A 
ATOM     78  C   UNL     1       0.440  13.239 -11.022  1.00  0.00     0.055 A 
ATOM     79  C   UNL     1       1.101  13.364  -8.721  1.00  0.00     0.041 A 
ATOM     80  F   UNL     1       0.691  11.589  -7.291  1.00  0.00    -0.206 F 
ATOM     81  C   UNL     1       0.991  13.966  -9.962  1.00  0.00     0.022 A 
BRANCH  78  82
ATOM     82  S   UNL     1       0.201  14.087 -12.614  1.00  0.00     0.124 S 
ATOM     83  O   UNL     1       1.136  13.383 -13.483  1.00  0.00    -0.237 OA
ATOM     84  O   UNL     1      -1.218  13.868 -12.873  1.00  0.00    -0.237 OA
ATOM     85  O   UNL     1       0.561  15.475 -12.318  1.00  0.00    -0.744 OA
ENDBRANCH  78  82
ENDBRANCH  51  75
BRANCH  63  86
ATOM     86  C   UNL     1      -2.490   5.532 -10.212  1.00  0.00     0.023 A 
ATOM     87  C   UNL     1      -1.120   5.449  -9.869  1.00  0.00     0.031 A 
ATOM     88  C   UNL     1      -3.008   4.541 -11.062  1.00  0.00     0.131 A 
ATOM     89  C   UNL     1      -0.320   4.413 -10.386  1.00  0.00     0.055 A 
ATOM     90  C   UNL     1      -2.216   3.504 -11.559  1.00  0.00     0.041 A 
ATOM     91  F   UNL     1      -4.311   4.539 -11.390  1.00  0.00    -0.206 F 
ATOM     92  C   UNL     1      -0.867   3.439 -11.226  1.00  0.00     0.022 A 
BRANCH  89  93
ATOM     93  S   UNL     1       1.447   4.312  -9.954  1.00  0.00     0.124 S 
ATOM     94  O   UNL     1       1.957   5.635 -10.297  1.00  0.00    -0.237 OA
ATOM     95  O   UNL     1       1.411   3.988  -8.530  1.00  0.00    -0.237 OA
ATOM     96  O   UNL     1       1.945   3.230 -10.806  1.00  0.00    -0.744 OA
ENDBRANCH  89  93
ENDBRANCH  63  86
ENDBRANCH  37  38
ENDBRANCH  30  32
ENDBRANCH  29  30
ENDBRANCH   1  29
TORSDOF 17
