REMARK SMILES Cc1c(C(=O)OCCOC(=O)c2ccc(-c3c4nc(c(-c5cc(S(=O)(=O)[O-])ccc5F)c5ccc([nH]5)c(-c5cc(S(=O)(=O)[O-])ccc5F)c5nc(c(-c6cc(S(=O)(=O)[O-])ccc6F)c6ccc3[nH]6)C=C5)C=C4)cc2)oc2c1/C(=N/NC(=O)C(c1ccccc1)c1ccccc1)CCC2
REMARK SMILES IDX 7 1 6 2 4 3 5 4 3 5 1 6 2 7 77 8 75 9 76 10 78 11 98 12
REMARK SMILES IDX 79 13 96 14 97 15 80 16 81 17 82 19 83 20 84 21 85 22 89 23
REMARK SMILES IDX 86 24 88 25 87 26 90 27 91 28 95 29 92 30 94 31 93 32 8 33
REMARK SMILES IDX 9 34 10 35 11 36 12 37 13 38 74 39 14 40 73 41 15 42 16 43
REMARK SMILES IDX 17 44 67 45 18 46 72 47 66 48 68 49 19 50 71 51 65 52 64 53
REMARK SMILES IDX 20 55 52 56 32 57 51 58 33 59 36 60 50 61 69 62 34 63 35 64
REMARK SMILES IDX 49 66 70 67 37 68 21 69 22 70 30 71 23 72 29 73 31 74 28 75
REMARK SMILES IDX 24 76 25 77 26 78 27 79 53 80 54 81 62 82 55 83 61 84 63 85
REMARK SMILES IDX 60 86 56 87 57 88 58 89 59 90 38 91 39 92 47 93 40 94 46 95
REMARK SMILES IDX 48 96 45 97 41 98 42 99 43 100 44 101
REMARK H PARENT 80 18 68 54 36 65
REMARK Flexibility Score: inf
ROOT
ATOM      1  C   UNL     1       0.650  -5.257   3.053  1.00  0.00     0.275 C 
ENDROOT
BRANCH   1   2
ATOM      2  O   UNL     1       0.690  -3.878   3.398  1.00  0.00    -0.456 OA
BRANCH   2   3
ATOM      3  C   UNL     1       1.134  -3.007   2.453  1.00  0.00     0.374 C 
ATOM      4  O   UNL     1       1.815  -3.306   1.468  1.00  0.00    -0.242 OA
BRANCH   3   5
ATOM      5  C   UNL     1       0.621  -1.711   2.775  1.00  0.00     0.215 A 
ATOM      6  C   UNL     1       1.003  -0.255   0.677  1.00  0.00     0.049 C 
ATOM      7  C   UNL     1       0.542  -0.515   2.069  1.00  0.00     0.012 A 
ATOM      8  C   UNL     1      -0.040   0.400   2.992  1.00  0.00     0.043 A 
ATOM      9  O   UNL     1       0.052  -1.583   4.012  1.00  0.00    -0.453 OA
ATOM     10  C   UNL     1      -0.356  -0.319   4.122  1.00  0.00     0.114 A 
ATOM     11  C   UNL     1      -0.192   1.844   2.985  1.00  0.00     0.072 C 
ATOM     12  C   UNL     1      -0.901   0.113   5.423  1.00  0.00     0.076 C 
ATOM     13  N   UNL     1      -0.044   2.336   1.782  1.00  0.00    -0.177 NA
ATOM     14  C   UNL     1      -0.285   2.342   4.459  1.00  0.00     0.059 C 
ATOM     15  C   UNL     1      -1.308   1.575   5.311  1.00  0.00     0.014 C 
BRANCH  13  16
ATOM     16  N   UNL     1       0.095   3.556   1.151  1.00  0.00    -0.246 N 
ATOM     17  C   UNL     1       0.096   4.875   1.557  1.00  0.00     0.252 C 
ATOM     18  H   UNL     1       0.225   3.463   0.179  1.00  0.00     0.193 HD
ATOM     19  O   UNL     1       0.281   5.781   0.739  1.00  0.00    -0.272 OA
BRANCH  17  20
ATOM     20  C   UNL     1      -0.124   5.174   3.019  1.00  0.00     0.140 C 
BRANCH  20  21
ATOM     21  C   UNL     1      -1.646   4.750   3.362  1.00  0.00    -0.031 A 
ATOM     22  C   UNL     1      -2.360   5.230   4.468  1.00  0.00     0.005 A 
ATOM     23  C   UNL     1      -2.406   3.861   2.536  1.00  0.00     0.005 A 
ATOM     24  C   UNL     1      -3.656   4.732   4.780  1.00  0.00     0.000 A 
ATOM     25  C   UNL     1      -3.633   3.287   2.891  1.00  0.00     0.000 A 
ATOM     26  C   UNL     1      -4.263   3.720   4.033  1.00  0.00     0.000 A 
ENDBRANCH  20  21
BRANCH  20  27
ATOM     27  C   UNL     1       1.249   4.750   3.763  1.00  0.00    -0.031 A 
ATOM     28  C   UNL     1       2.108   3.702   3.299  1.00  0.00     0.005 A 
ATOM     29  C   UNL     1       1.792   5.462   4.839  1.00  0.00     0.005 A 
ATOM     30  C   UNL     1       3.235   3.217   3.974  1.00  0.00     0.000 A 
ATOM     31  C   UNL     1       3.008   5.056   5.459  1.00  0.00     0.000 A 
ATOM     32  C   UNL     1       3.690   3.900   5.073  1.00  0.00     0.000 A 
ENDBRANCH  20  27
ENDBRANCH  17  20
ENDBRANCH  13  16
ENDBRANCH   3   5
ENDBRANCH   2   3
ENDBRANCH   1   2
BRANCH   1  33
ATOM     33  C   UNL     1      -0.589  -5.558   2.226  1.00  0.00     0.275 C 
BRANCH  33  34
ATOM     34  O   UNL     1      -0.430  -5.079   0.893  1.00  0.00    -0.458 OA
BRANCH  34  35
ATOM     35  C   UNL     1      -1.107  -3.946   0.592  1.00  0.00     0.338 C 
ATOM     36  O   UNL     1      -1.529  -3.107   1.365  1.00  0.00    -0.246 OA
BRANCH  35  37
ATOM     37  C   UNL     1      -1.445  -3.982  -0.829  1.00  0.00     0.060 A 
ATOM     38  C   UNL     1      -1.869  -2.808  -1.453  1.00  0.00     0.016 A 
ATOM     39  C   UNL     1      -1.577  -5.239  -1.437  1.00  0.00     0.016 A 
ATOM     40  C   UNL     1      -2.556  -2.917  -2.646  1.00  0.00     0.010 A 
ATOM     41  C   UNL     1      -2.266  -5.346  -2.615  1.00  0.00     0.010 A 
ATOM     42  C   UNL     1      -2.811  -4.194  -3.171  1.00  0.00    -0.014 A 
BRANCH  42  43
ATOM     43  C   UNL     1      -3.510  -4.315  -4.434  1.00  0.00     0.031 A 
ATOM     44  C   UNL     1      -2.737  -3.717  -5.547  1.00  0.00     0.074 A 
ATOM     45  C   UNL     1      -4.646  -5.027  -4.580  1.00  0.00     0.049 A 
ATOM     46  N   UNL     1      -3.041  -2.655  -6.211  1.00  0.00    -0.248 NA
ATOM     47  C   UNL     1      -1.370  -4.206  -5.802  1.00  0.00     0.031 C 
ATOM     48  C   UNL     1      -5.357  -5.833  -3.585  1.00  0.00     0.029 A 
ATOM     49  N   UNL     1      -5.369  -5.252  -5.709  1.00  0.00    -0.354 N 
ATOM     50  C   UNL     1      -2.029  -2.496  -7.148  1.00  0.00     0.074 A 
ATOM     51  C   UNL     1      -0.941  -3.324  -6.707  1.00  0.00     0.031 C 
ATOM     52  C   UNL     1      -6.252  -6.636  -4.211  1.00  0.00     0.029 A 
ATOM     53  C   UNL     1      -6.271  -6.312  -5.629  1.00  0.00     0.049 A 
ATOM     54  H   UNL     1      -5.263  -4.707  -6.522  1.00  0.00     0.167 HD
ATOM     55  C   UNL     1      -2.287  -1.901  -8.343  1.00  0.00     0.034 A 
ATOM     56  C   UNL     1      -6.940  -6.899  -6.665  1.00  0.00     0.034 A 
ATOM     57  C   UNL     1      -3.522  -1.150  -8.285  1.00  0.00     0.049 A 
ATOM     58  C   UNL     1      -6.955  -5.902  -7.769  1.00  0.00     0.074 A 
ATOM     59  C   UNL     1      -3.969  -0.099  -7.505  1.00  0.00     0.029 A 
ATOM     60  N   UNL     1      -4.657  -1.728  -8.814  1.00  0.00    -0.354 N 
ATOM     61  N   UNL     1      -7.607  -4.774  -7.690  1.00  0.00    -0.248 NA
ATOM     62  C   UNL     1      -5.834  -5.900  -8.701  1.00  0.00     0.031 C 
ATOM     63  C   UNL     1      -5.324  -0.424  -7.198  1.00  0.00     0.029 A 
ATOM     64  C   UNL     1      -5.665  -1.588  -7.889  1.00  0.00     0.049 A 
ATOM     65  H   UNL     1      -4.731  -2.163  -9.694  1.00  0.00     0.167 HD
ATOM     66  C   UNL     1      -6.734  -3.818  -8.185  1.00  0.00     0.074 A 
ATOM     67  C   UNL     1      -5.689  -4.581  -8.873  1.00  0.00     0.031 C 
ATOM     68  C   UNL     1      -6.763  -2.527  -7.736  1.00  0.00     0.034 A 
BRANCH  55  69
ATOM     69  C   UNL     1      -1.655  -2.316  -9.649  1.00  0.00     0.023 A 
ATOM     70  C   UNL     1      -2.029  -1.593 -10.795  1.00  0.00     0.031 A 
ATOM     71  C   UNL     1      -0.970  -3.532  -9.881  1.00  0.00     0.131 A 
ATOM     72  C   UNL     1      -1.826  -2.125 -12.078  1.00  0.00     0.055 A 
ATOM     73  C   UNL     1      -0.709  -4.023 -11.162  1.00  0.00     0.041 A 
ATOM     74  F   UNL     1      -0.602  -4.361  -8.898  1.00  0.00    -0.206 F 
ATOM     75  C   UNL     1      -1.169  -3.337 -12.271  1.00  0.00     0.022 A 
BRANCH  72  76
ATOM     76  S   UNL     1      -2.607  -1.290 -13.481  1.00  0.00     0.124 S 
ATOM     77  O   UNL     1      -4.006  -1.269 -13.068  1.00  0.00    -0.237 OA
ATOM     78  O   UNL     1      -1.916  -0.005 -13.486  1.00  0.00    -0.237 OA
ATOM     79  O   UNL     1      -2.301  -2.167 -14.609  1.00  0.00    -0.744 OA
ENDBRANCH  72  76
ENDBRANCH  55  69
BRANCH  56  80
ATOM     80  C   UNL     1      -7.240  -8.351  -6.867  1.00  0.00     0.023 A 
ATOM     81  C   UNL     1      -8.187  -8.834  -7.804  1.00  0.00     0.031 A 
ATOM     82  C   UNL     1      -6.385  -9.319  -6.291  1.00  0.00     0.131 A 
ATOM     83  C   UNL     1      -8.243 -10.217  -8.124  1.00  0.00     0.055 A 
ATOM     84  C   UNL     1      -6.441 -10.677  -6.615  1.00  0.00     0.041 A 
ATOM     85  F   UNL     1      -5.398  -8.964  -5.454  1.00  0.00    -0.206 F 
ATOM     86  C   UNL     1      -7.363 -11.132  -7.541  1.00  0.00     0.022 A 
BRANCH  83  87
ATOM     87  S   UNL     1      -9.413 -10.854  -9.376  1.00  0.00     0.124 S 
ATOM     88  O   UNL     1     -10.701 -10.684  -8.714  1.00  0.00    -0.237 OA
ATOM     89  O   UNL     1      -9.152  -9.992 -10.522  1.00  0.00    -0.237 OA
ATOM     90  O   UNL     1      -8.998 -12.247  -9.556  1.00  0.00    -0.744 OA
ENDBRANCH  83  87
ENDBRANCH  56  80
BRANCH  68  91
ATOM     91  C   UNL     1      -7.929  -2.091  -6.863  1.00  0.00     0.023 A 
ATOM     92  C   UNL     1      -8.311  -2.700  -5.642  1.00  0.00     0.031 A 
ATOM     93  C   UNL     1      -8.611  -0.922  -7.243  1.00  0.00     0.131 A 
ATOM     94  C   UNL     1      -9.352  -2.143  -4.869  1.00  0.00     0.055 A 
ATOM     95  C   UNL     1      -9.620  -0.360  -6.464  1.00  0.00     0.041 A 
ATOM     96  F   UNL     1      -8.282  -0.281  -8.377  1.00  0.00    -0.206 F 
ATOM     97  C   UNL     1     -10.001  -0.973  -5.277  1.00  0.00     0.022 A 
BRANCH  94  98
ATOM     98  S   UNL     1      -9.911  -2.946  -3.329  1.00  0.00     0.124 S 
ATOM     99  O   UNL     1     -10.054  -4.347  -3.705  1.00  0.00    -0.237 OA
ATOM    100  O   UNL     1      -8.826  -2.640  -2.400  1.00  0.00    -0.237 OA
ATOM    101  O   UNL     1     -11.173  -2.266  -3.030  1.00  0.00    -0.744 OA
ENDBRANCH  94  98
ENDBRANCH  68  91
ENDBRANCH  42  43
ENDBRANCH  35  37
ENDBRANCH  34  35
ENDBRANCH  33  34
ENDBRANCH   1  33
TORSDOF 18
