REMARK SMILES CCN(CC(=O)NC)C(=O)c1ccncc1/C=C/C(=O)OCCOC(=O)c1ccc(-c2c3nc(c(-c4cc(S(=O)(=O)[O-])ccc4F)c4ccc([nH]4)c(-c4cc(S(=O)(=O)[O-])ccc4F)c4nc(c(-c5cc(S(=O)(=O)[O-])ccc5F)c5ccc2[nH]5)C=C4)C=C3)cc1
REMARK SMILES IDX 22 1 21 2 19 3 20 4 18 5 17 6 16 7 11 8 12 9 13 10 15 11
REMARK SMILES IDX 14 12 9 13 10 14 3 15 2 16 1 17 4 18 5 19 6 20 7 21 8 22
REMARK SMILES IDX 23 24 24 25 25 26 26 27 27 28 28 29 89 30 29 31 88 32 30 33
REMARK SMILES IDX 31 34 32 35 82 36 33 37 87 38 81 39 83 40 34 41 86 42 80 43
REMARK SMILES IDX 79 44 35 46 67 47 47 48 66 49 48 50 51 51 65 52 84 53 49 54
REMARK SMILES IDX 50 55 64 57 85 58 52 59 36 60 37 61 45 62 38 63 44 64 46 65
REMARK SMILES IDX 43 66 39 67 40 68 41 69 42 70 68 71 69 72 77 73 70 74 76 75
REMARK SMILES IDX 78 76 75 77 71 78 72 79 73 80 74 81 53 82 54 83 62 84 55 85
REMARK SMILES IDX 61 86 63 87 60 88 56 89 57 90 58 91 59 92
REMARK H PARENT 7 23 83 45 51 56
REMARK Flexibility Score: inf
ROOT
ATOM      1  C   UNL     1       6.439  -0.726  -2.941  1.00  0.00     0.275 C 
ENDROOT
BRANCH   1   2
ATOM      2  O   UNL     1       5.823   0.354  -2.216  1.00  0.00    -0.459 OA
BRANCH   2   3
ATOM      3  C   UNL     1       6.665   1.327  -1.797  1.00  0.00     0.330 C 
ATOM      4  O   UNL     1       7.884   1.316  -1.895  1.00  0.00    -0.247 OA
BRANCH   3   5
ATOM      5  C   UNL     1       5.961   2.490  -1.223  1.00  0.00     0.094 C 
ATOM      6  C   UNL     1       4.631   2.674  -1.176  1.00  0.00     0.018 C 
BRANCH   6   7
ATOM      7  C   UNL     1       4.076   3.912  -0.606  1.00  0.00     0.006 A 
ATOM      8  C   UNL     1       3.167   3.949   0.462  1.00  0.00     0.050 A 
ATOM      9  C   UNL     1       2.813   5.168   1.045  1.00  0.00     0.034 A 
ATOM     10  C   UNL     1       3.286   6.330   0.468  1.00  0.00     0.112 A 
ATOM     11  C   UNL     1       4.472   5.149  -1.114  1.00  0.00     0.119 A 
ATOM     12  N   UNL     1       4.093   6.346  -0.609  1.00  0.00    -0.264 NA
BRANCH   8  13
ATOM     13  C   UNL     1       2.610   2.695   1.021  1.00  0.00     0.255 C 
ATOM     14  O   UNL     1       3.389   1.908   1.554  1.00  0.00    -0.269 OA
BRANCH  13  15
ATOM     15  N   UNL     1       1.242   2.425   0.879  1.00  0.00    -0.330 N 
BRANCH  15  16
ATOM     16  C   UNL     1       0.810   1.045   1.103  1.00  0.00     0.117 C 
ATOM     17  C   UNL     1       1.136   0.148  -0.083  1.00  0.00     0.027 C 
ENDBRANCH  15  16
BRANCH  15  18
ATOM     18  C   UNL     1       0.259   3.356   0.304  1.00  0.00     0.219 C 
BRANCH  18  19
ATOM     19  C   UNL     1      -0.273   4.487   1.209  1.00  0.00     0.239 C 
ATOM     20  O   UNL     1      -0.650   5.555   0.717  1.00  0.00    -0.273 OA
ATOM     21  N   UNL     1      -0.477   4.329   2.546  1.00  0.00    -0.358 N 
ATOM     22  C   UNL     1      -0.316   3.161   3.372  1.00  0.00     0.142 C 
ATOM     23  H   UNL     1      -0.782   5.136   3.020  1.00  0.00     0.163 HD
ENDBRANCH  18  19
ENDBRANCH  15  18
ENDBRANCH  13  15
ENDBRANCH   8  13
ENDBRANCH   6   7
ENDBRANCH   3   5
ENDBRANCH   2   3
ENDBRANCH   1   2
BRANCH   1  24
ATOM     24  C   UNL     1       6.228  -0.573  -4.450  1.00  0.00     0.275 C 
BRANCH  24  25
ATOM     25  O   UNL     1       6.974   0.531  -4.996  1.00  0.00    -0.458 OA
BRANCH  25  26
ATOM     26  C   UNL     1       6.330   1.724  -4.984  1.00  0.00     0.338 C 
ATOM     27  O   UNL     1       5.202   1.942  -4.577  1.00  0.00    -0.246 OA
BRANCH  26  28
ATOM     28  C   UNL     1       7.235   2.788  -5.455  1.00  0.00     0.060 A 
ATOM     29  C   UNL     1       7.380   3.933  -4.664  1.00  0.00     0.016 A 
ATOM     30  C   UNL     1       7.868   2.701  -6.697  1.00  0.00     0.016 A 
ATOM     31  C   UNL     1       8.145   5.006  -5.121  1.00  0.00     0.010 A 
ATOM     32  C   UNL     1       8.635   3.778  -7.153  1.00  0.00     0.010 A 
ATOM     33  C   UNL     1       8.764   4.944  -6.377  1.00  0.00    -0.014 A 
BRANCH  33  34
ATOM     34  C   UNL     1       9.481   6.125  -6.923  1.00  0.00     0.031 A 
ATOM     35  C   UNL     1       8.836   6.942  -8.007  1.00  0.00     0.074 A 
ATOM     36  C   UNL     1      10.700   6.456  -6.458  1.00  0.00     0.049 A 
ATOM     37  N   UNL     1       9.329   7.931  -8.707  1.00  0.00    -0.248 NA
ATOM     38  C   UNL     1       7.450   6.591  -8.351  1.00  0.00     0.031 C 
ATOM     39  C   UNL     1      11.403   5.769  -5.375  1.00  0.00     0.029 A 
ATOM     40  N   UNL     1      11.568   7.446  -6.847  1.00  0.00    -0.354 N 
ATOM     41  C   UNL     1       8.321   8.313  -9.587  1.00  0.00     0.074 A 
ATOM     42  C   UNL     1       7.200   7.428  -9.347  1.00  0.00     0.031 C 
ATOM     43  C   UNL     1      12.600   6.353  -5.193  1.00  0.00     0.029 A 
ATOM     44  C   UNL     1      12.770   7.418  -6.179  1.00  0.00     0.049 A 
ATOM     45  H   UNL     1      11.350   8.112  -7.538  1.00  0.00     0.167 HD
ATOM     46  C   UNL     1       8.332   9.311 -10.505  1.00  0.00     0.034 A 
ATOM     47  C   UNL     1      13.891   8.143  -6.365  1.00  0.00     0.034 A 
ATOM     48  C   UNL     1       9.462  10.181 -10.732  1.00  0.00     0.049 A 
ATOM     49  C   UNL     1      13.911   9.195  -7.449  1.00  0.00     0.074 A 
ATOM     50  C   UNL     1       9.582  11.223 -11.635  1.00  0.00     0.029 A 
ATOM     51  N   UNL     1      10.671  10.105 -10.053  1.00  0.00    -0.354 N 
ATOM     52  N   UNL     1      12.960   9.533  -8.289  1.00  0.00    -0.248 NA
ATOM     53  C   UNL     1      15.153   9.964  -7.609  1.00  0.00     0.031 C 
ATOM     54  C   UNL     1      10.881  11.734 -11.547  1.00  0.00     0.029 A 
ATOM     55  C   UNL     1      11.549  11.064 -10.535  1.00  0.00     0.049 A 
ATOM     56  H   UNL     1      10.876   9.465  -9.334  1.00  0.00     0.167 HD
ATOM     57  C   UNL     1      13.477  10.581  -9.047  1.00  0.00     0.074 A 
ATOM     58  C   UNL     1      14.822  10.817  -8.568  1.00  0.00     0.031 C 
ATOM     59  C   UNL     1      12.887  11.291 -10.042  1.00  0.00     0.034 A 
BRANCH  46  60
ATOM     60  C   UNL     1       7.104   9.473 -11.369  1.00  0.00     0.023 A 
ATOM     61  C   UNL     1       5.859   9.839 -10.830  1.00  0.00     0.031 A 
ATOM     62  C   UNL     1       7.176   9.227 -12.752  1.00  0.00     0.131 A 
ATOM     63  C   UNL     1       4.724   9.882 -11.656  1.00  0.00     0.055 A 
ATOM     64  C   UNL     1       6.060   9.348 -13.582  1.00  0.00     0.041 A 
ATOM     65  F   UNL     1       8.333   8.852 -13.321  1.00  0.00    -0.206 F 
ATOM     66  C   UNL     1       4.821   9.663 -13.032  1.00  0.00     0.022 A 
BRANCH  63  67
ATOM     67  S   UNL     1       3.096  10.091 -10.884  1.00  0.00     0.124 S 
ATOM     68  O   UNL     1       3.046   8.941  -9.985  1.00  0.00    -0.237 OA
ATOM     69  O   UNL     1       3.213  11.397 -10.248  1.00  0.00    -0.237 OA
ATOM     70  O   UNL     1       2.171  10.028 -12.014  1.00  0.00    -0.744 OA
ENDBRANCH  63  67
ENDBRANCH  46  60
BRANCH  47  71
ATOM     71  C   UNL     1      15.108   7.875  -5.547  1.00  0.00     0.023 A 
ATOM     72  C   UNL     1      15.633   8.847  -4.681  1.00  0.00     0.031 A 
ATOM     73  C   UNL     1      15.795   6.651  -5.657  1.00  0.00     0.131 A 
ATOM     74  C   UNL     1      16.832   8.598  -3.994  1.00  0.00     0.055 A 
ATOM     75  C   UNL     1      16.956   6.388  -4.929  1.00  0.00     0.041 A 
ATOM     76  F   UNL     1      15.339   5.687  -6.473  1.00  0.00    -0.206 F 
ATOM     77  C   UNL     1      17.489   7.371  -4.101  1.00  0.00     0.022 A 
BRANCH  74  78
ATOM     78  S   UNL     1      17.572   9.940  -3.023  1.00  0.00     0.124 S 
ATOM     79  O   UNL     1      17.742  10.979  -4.033  1.00  0.00    -0.237 OA
ATOM     80  O   UNL     1      16.547  10.187  -2.015  1.00  0.00    -0.237 OA
ATOM     81  O   UNL     1      18.811   9.352  -2.518  1.00  0.00    -0.744 OA
ENDBRANCH  74  78
ENDBRANCH  47  71
BRANCH  59  82
ATOM     82  C   UNL     1      13.668  12.442 -10.627  1.00  0.00     0.023 A 
ATOM     83  C   UNL     1      14.803  12.243 -11.431  1.00  0.00     0.031 A 
ATOM     84  C   UNL     1      13.249  13.763 -10.384  1.00  0.00     0.131 A 
ATOM     85  C   UNL     1      15.504  13.351 -11.934  1.00  0.00     0.055 A 
ATOM     86  C   UNL     1      13.921  14.858 -10.927  1.00  0.00     0.041 A 
ATOM     87  F   UNL     1      12.171  14.007  -9.623  1.00  0.00    -0.206 F 
ATOM     88  C   UNL     1      15.060  14.656 -11.700  1.00  0.00     0.022 A 
BRANCH  85  89
ATOM     89  S   UNL     1      17.041  13.071 -12.856  1.00  0.00     0.124 S 
ATOM     90  O   UNL     1      17.875  12.405 -11.861  1.00  0.00    -0.237 OA
ATOM     91  O   UNL     1      16.592  12.243 -13.970  1.00  0.00    -0.237 OA
ATOM     92  O   UNL     1      17.472  14.419 -13.223  1.00  0.00    -0.744 OA
ENDBRANCH  85  89
ENDBRANCH  59  82
ENDBRANCH  33  34
ENDBRANCH  26  28
ENDBRANCH  25  26
ENDBRANCH  24  25
ENDBRANCH   1  24
TORSDOF 20
