REMARK SMILES C[C@@H]1Oc2c(C(=O)OCCOC(=O)c3ccc(-c4c5nc(c(-c6cc(S(=O)(=O)[O-])ccc6F)c6ccc([nH]6)c(-c6cc(S(=O)(=O)[O-])ccc6F)c6nc(c(-c7cc(S(=O)(=O)[O-])ccc7F)c7ccc4[nH]7)C=C6)C=C5)cc3)cccc2[C@@H]1C
REMARK SMILES IDX 11 1 10 2 9 3 8 4 6 5 7 6 5 7 1 8 2 9 3 10 81 11 4 12 80 13
REMARK SMILES IDX 82 14 79 15 77 16 78 17 12 18 13 19 14 20 15 21 76 22 16 23
REMARK SMILES IDX 75 24 17 25 18 26 19 27 69 28 20 29 74 30 68 31 70 32 21 33
REMARK SMILES IDX 73 34 67 35 66 36 22 38 54 39 34 40 53 41 35 42 38 43 52 44
REMARK SMILES IDX 71 45 36 46 37 47 51 49 72 50 39 51 23 52 24 53 32 54 25 55
REMARK SMILES IDX 31 56 33 57 30 58 26 59 27 60 28 61 29 62 55 63 56 64 64 65
REMARK SMILES IDX 57 66 63 67 65 68 62 69 58 70 59 71 60 72 61 73 40 74 41 75
REMARK SMILES IDX 49 76 42 77 48 78 50 79 47 80 43 81 44 82 45 83 46 84
REMARK H PARENT 70 37 38 48
REMARK Flexibility Score: inf
ROOT
ATOM      1  O   UNL     1      -2.240  -5.523  -2.828  1.00  0.00    -0.458 OA
ENDROOT
BRANCH   1   2
ATOM      2  C   UNL     1      -1.744  -6.870  -2.844  1.00  0.00     0.275 C 
BRANCH   2   3
ATOM      3  C   UNL     1      -0.217  -6.836  -2.893  1.00  0.00     0.275 C 
BRANCH   3   4
ATOM      4  O   UNL     1       0.323  -6.425  -1.618  1.00  0.00    -0.458 OA
BRANCH   4   5
ATOM      5  C   UNL     1       1.081  -5.294  -1.594  1.00  0.00     0.342 C 
ATOM      6  O   UNL     1       1.340  -4.575  -2.540  1.00  0.00    -0.246 OA
BRANCH   5   7
ATOM      7  C   UNL     1       1.599  -5.097  -0.220  1.00  0.00     0.102 A 
ATOM      8  C   UNL     1      -0.082  -0.980   1.363  1.00  0.00     0.053 C 
ATOM      9  C   UNL     1       1.224  -1.710   1.054  1.00  0.00     0.177 C 
ATOM     10  O   UNL     1       0.996  -2.712   0.014  1.00  0.00    -0.489 OA
ATOM     11  C   UNL     1       1.913  -2.383   2.261  1.00  0.00     0.060 C 
ATOM     12  C   UNL     1       1.564  -3.878   0.454  1.00  0.00     0.137 A 
ATOM     13  C   UNL     1       2.108  -3.758   1.725  1.00  0.00     0.002 A 
ATOM     14  C   UNL     1       1.139  -2.380   3.576  1.00  0.00     0.017 C 
ATOM     15  C   UNL     1       2.731  -4.832   2.347  1.00  0.00     0.008 A 
ATOM     16  C   UNL     1       2.214  -6.191   0.411  1.00  0.00     0.019 A 
ATOM     17  C   UNL     1       2.780  -6.056   1.684  1.00  0.00     0.001 A 
ENDBRANCH   5   7
ENDBRANCH   4   5
ENDBRANCH   3   4
ENDBRANCH   2   3
ENDBRANCH   1   2
BRANCH   1  18
ATOM     18  C   UNL     1      -2.669  -5.068  -1.630  1.00  0.00     0.338 C 
ATOM     19  O   UNL     1      -2.853  -5.707  -0.608  1.00  0.00    -0.246 OA
BRANCH  18  20
ATOM     20  C   UNL     1      -2.754  -3.606  -1.718  1.00  0.00     0.060 A 
ATOM     21  C   UNL     1      -3.965  -2.926  -1.748  1.00  0.00     0.016 A 
ATOM     22  C   UNL     1      -1.562  -2.898  -1.687  1.00  0.00     0.016 A 
ATOM     23  C   UNL     1      -3.958  -1.521  -1.745  1.00  0.00     0.010 A 
ATOM     24  C   UNL     1      -1.565  -1.515  -1.591  1.00  0.00     0.010 A 
ATOM     25  C   UNL     1      -2.757  -0.790  -1.615  1.00  0.00    -0.014 A 
BRANCH  25  26
ATOM     26  C   UNL     1      -2.732   0.697  -1.433  1.00  0.00     0.031 A 
ATOM     27  C   UNL     1      -1.826   1.591  -2.256  1.00  0.00     0.074 A 
ATOM     28  C   UNL     1      -3.456   1.253  -0.436  1.00  0.00     0.049 A 
ATOM     29  N   UNL     1      -1.702   2.896  -2.216  1.00  0.00    -0.248 NA
ATOM     30  C   UNL     1      -0.896   0.947  -3.199  1.00  0.00     0.031 C 
ATOM     31  C   UNL     1      -4.233   0.507   0.555  1.00  0.00     0.029 A 
ATOM     32  N   UNL     1      -3.666   2.568  -0.089  1.00  0.00    -0.354 N 
ATOM     33  C   UNL     1      -0.676   3.214  -3.103  1.00  0.00     0.074 A 
ATOM     34  C   UNL     1      -0.137   1.964  -3.581  1.00  0.00     0.031 C 
ATOM     35  C   UNL     1      -4.904   1.368   1.333  1.00  0.00     0.029 A 
ATOM     36  C   UNL     1      -4.573   2.733   0.935  1.00  0.00     0.049 A 
ATOM     37  H   UNL     1      -3.211   3.321  -0.532  1.00  0.00     0.167 HD
ATOM     38  C   UNL     1      -0.259   4.430  -3.531  1.00  0.00     0.034 A 
ATOM     39  C   UNL     1      -5.103   3.849   1.480  1.00  0.00     0.034 A 
ATOM     40  C   UNL     1      -0.853   5.670  -3.102  1.00  0.00     0.049 A 
ATOM     41  C   UNL     1      -4.712   5.192   0.917  1.00  0.00     0.074 A 
ATOM     42  C   UNL     1      -0.592   6.947  -3.564  1.00  0.00     0.029 A 
ATOM     43  N   UNL     1      -1.834   5.790  -2.128  1.00  0.00    -0.354 N 
ATOM     44  N   UNL     1      -3.857   5.467  -0.039  1.00  0.00    -0.248 NA
ATOM     45  C   UNL     1      -5.370   6.378   1.485  1.00  0.00     0.031 C 
ATOM     46  C   UNL     1      -1.365   7.844  -2.828  1.00  0.00     0.029 A 
ATOM     47  C   UNL     1      -2.175   7.123  -1.966  1.00  0.00     0.049 A 
ATOM     48  H   UNL     1      -2.228   5.040  -1.627  1.00  0.00     0.167 HD
ATOM     49  C   UNL     1      -3.899   6.848  -0.210  1.00  0.00     0.074 A 
ATOM     50  C   UNL     1      -4.883   7.351   0.724  1.00  0.00     0.031 C 
ATOM     51  C   UNL     1      -3.181   7.624  -1.060  1.00  0.00     0.034 A 
BRANCH  38  52
ATOM     52  C   UNL     1       0.831   4.508  -4.581  1.00  0.00     0.023 A 
ATOM     53  C   UNL     1       2.003   5.250  -4.338  1.00  0.00     0.031 A 
ATOM     54  C   UNL     1       0.641   3.981  -5.873  1.00  0.00     0.131 A 
ATOM     55  C   UNL     1       2.915   5.476  -5.379  1.00  0.00     0.055 A 
ATOM     56  C   UNL     1       1.582   4.157  -6.888  1.00  0.00     0.041 A 
ATOM     57  F   UNL     1      -0.467   3.283  -6.171  1.00  0.00    -0.206 F 
ATOM     58  C   UNL     1       2.718   4.922  -6.647  1.00  0.00     0.022 A 
BRANCH  55  59
ATOM     59  S   UNL     1       4.345   6.571  -5.159  1.00  0.00     0.124 S 
ATOM     60  O   UNL     1       5.458   5.681  -5.484  1.00  0.00    -0.237 OA
ATOM     61  O   UNL     1       4.080   7.619  -6.140  1.00  0.00    -0.237 OA
ATOM     62  O   UNL     1       4.265   6.979  -3.761  1.00  0.00    -0.744 OA
ENDBRANCH  55  59
ENDBRANCH  38  52
BRANCH  39  63
ATOM     63  C   UNL     1      -6.155   3.713   2.534  1.00  0.00     0.023 A 
ATOM     64  C   UNL     1      -5.879   3.102   3.770  1.00  0.00     0.031 A 
ATOM     65  C   UNL     1      -7.486   4.083   2.265  1.00  0.00     0.131 A 
ATOM     66  C   UNL     1      -6.927   2.816   4.656  1.00  0.00     0.055 A 
ATOM     67  C   UNL     1      -8.514   3.867   3.184  1.00  0.00     0.041 A 
ATOM     68  F   UNL     1      -7.806   4.651   1.092  1.00  0.00    -0.206 F 
ATOM     69  C   UNL     1      -8.239   3.213   4.380  1.00  0.00     0.022 A 
BRANCH  66  70
ATOM     70  S   UNL     1      -6.648   1.792   6.128  1.00  0.00     0.124 S 
ATOM     71  O   UNL     1      -7.056   2.687   7.205  1.00  0.00    -0.237 OA
ATOM     72  O   UNL     1      -7.538   0.661   5.876  1.00  0.00    -0.237 OA
ATOM     73  O   UNL     1      -5.223   1.484   6.068  1.00  0.00    -0.744 OA
ENDBRANCH  66  70
ENDBRANCH  39  63
BRANCH  51  74
ATOM     74  C   UNL     1      -3.420   9.116  -1.074  1.00  0.00     0.023 A 
ATOM     75  C   UNL     1      -3.840   9.743  -2.264  1.00  0.00     0.031 A 
ATOM     76  C   UNL     1      -3.063   9.930   0.014  1.00  0.00     0.131 A 
ATOM     77  C   UNL     1      -3.841  11.140  -2.355  1.00  0.00     0.055 A 
ATOM     78  C   UNL     1      -3.121  11.322  -0.063  1.00  0.00     0.041 A 
ATOM     79  F   UNL     1      -2.639   9.383   1.165  1.00  0.00    -0.206 F 
ATOM     80  C   UNL     1      -3.493  11.933  -1.257  1.00  0.00     0.022 A 
BRANCH  77  81
ATOM     81  S   UNL     1      -4.179  11.976  -3.930  1.00  0.00     0.124 S 
ATOM     82  O   UNL     1      -5.361  12.770  -3.601  1.00  0.00    -0.237 OA
ATOM     83  O   UNL     1      -2.953  12.741  -4.141  1.00  0.00    -0.237 OA
ATOM     84  O   UNL     1      -4.407  10.882  -4.868  1.00  0.00    -0.744 OA
ENDBRANCH  77  81
ENDBRANCH  51  74
ENDBRANCH  25  26
ENDBRANCH  18  20
ENDBRANCH   1  18
TORSDOF 14
