REMARK SMILES COc1cc(OC)cc(-c2ccc([C@@H](C)C(=O)OCCOC(=O)c3ccc(-c4c5nc(c(-c6cc(S(=O)(=O)[O-])ccc6F)c6ccc([nH]6)c(-c6cc(S(=O)(=O)[O-])ccc6F)c6nc(c(-c7cc(S(=O)(=O)[O-])ccc7F)c7ccc4[nH]7)C=C6)C=C5)cc3)cc2F)c1
REMARK SMILES IDX 19 1 18 2 16 3 17 4 14 5 15 6 13 7 10 8 11 9 88 10 12 11
REMARK SMILES IDX 87 12 89 13 9 14 3 15 4 16 90 17 5 18 8 19 2 20 1 21 6 22
REMARK SMILES IDX 7 23 20 24 21 25 22 26 23 27 24 28 25 29 86 30 26 31 85 32
REMARK SMILES IDX 27 33 28 34 29 35 79 36 30 37 84 38 78 39 80 40 31 41 83 42
REMARK SMILES IDX 77 43 76 44 32 46 64 47 44 48 63 49 45 50 48 51 62 52 81 53
REMARK SMILES IDX 46 54 47 55 61 57 82 58 49 59 33 60 34 61 42 62 35 63 41 64
REMARK SMILES IDX 43 65 40 66 36 67 37 68 38 69 39 70 65 71 66 72 74 73 67 74
REMARK SMILES IDX 73 75 75 76 72 77 68 78 69 79 70 80 71 81 50 82 51 83 59 84
REMARK SMILES IDX 52 85 58 86 60 87 57 88 53 89 54 90 55 91 56 92
REMARK H PARENT 80 45 48 56
REMARK Flexibility Score: inf
ROOT
ATOM      1  C   UNL     1       8.488   2.598  -5.716  1.00  0.00     0.274 C 
ENDROOT
BRANCH   1   2
ATOM      2  O   UNL     1       7.830   1.328  -5.885  1.00  0.00    -0.462 OA
BRANCH   2   3
ATOM      3  C   UNL     1       8.626   0.228  -5.954  1.00  0.00     0.313 C 
ATOM      4  O   UNL     1       9.852   0.267  -5.969  1.00  0.00    -0.252 OA
BRANCH   3   5
ATOM      5  C   UNL     1       7.852  -1.081  -6.079  1.00  0.00     0.126 C 
ATOM      6  C   UNL     1       7.852  -1.539  -7.538  1.00  0.00     0.025 C 
BRANCH   5   7
ATOM      7  C   UNL     1       6.457  -1.092  -5.470  1.00  0.00    -0.031 A 
ATOM      8  C   UNL     1       3.848  -1.201  -4.335  1.00  0.00     0.018 A 
ATOM      9  C   UNL     1       4.116  -0.419  -5.471  1.00  0.00     0.012 A 
ATOM     10  C   UNL     1       4.916  -1.899  -3.765  1.00  0.00     0.131 A 
ATOM     11  C   UNL     1       5.397  -0.367  -6.032  1.00  0.00     0.005 A 
ATOM     12  C   UNL     1       6.194  -1.859  -4.324  1.00  0.00     0.044 A 
ATOM     13  F   UNL     1       4.719  -2.672  -2.687  1.00  0.00    -0.206 F 
BRANCH   8  14
ATOM     14  C   UNL     1       2.472  -1.347  -3.839  1.00  0.00    -0.008 A 
ATOM     15  C   UNL     1       0.782  -1.140  -2.102  1.00  0.00     0.123 A 
ATOM     16  C   UNL     1      -0.165  -1.693  -2.969  1.00  0.00     0.092 A 
ATOM     17  C   UNL     1       2.102  -0.982  -2.533  1.00  0.00     0.055 A 
ATOM     18  C   UNL     1       0.182  -2.073  -4.264  1.00  0.00     0.123 A 
ATOM     19  C   UNL     1       1.493  -1.888  -4.694  1.00  0.00     0.055 A 
BRANCH  15  20
ATOM     20  O   UNL     1       0.291  -0.813  -0.867  1.00  0.00    -0.497 OA
ATOM     21  C   UNL     1       1.121  -0.005  -0.041  1.00  0.00     0.278 C 
ENDBRANCH  15  20
BRANCH  18  22
ATOM     22  O   UNL     1      -0.835  -2.599  -5.015  1.00  0.00    -0.497 OA
ATOM     23  C   UNL     1      -0.462  -3.187  -6.256  1.00  0.00     0.278 C 
ENDBRANCH  18  22
ENDBRANCH   8  14
ENDBRANCH   5   7
ENDBRANCH   3   5
ENDBRANCH   2   3
ENDBRANCH   1   2
BRANCH   1  24
ATOM     24  C   UNL     1       8.345   3.103  -4.280  1.00  0.00     0.275 C 
BRANCH  24  25
ATOM     25  O   UNL     1       9.083   2.273  -3.365  1.00  0.00    -0.458 OA
BRANCH  25  26
ATOM     26  C   UNL     1       8.343   1.351  -2.705  1.00  0.00     0.338 C 
ATOM     27  O   UNL     1       7.136   1.199  -2.760  1.00  0.00    -0.246 OA
BRANCH  26  28
ATOM     28  C   UNL     1       9.239   0.428  -1.992  1.00  0.00     0.060 A 
ATOM     29  C   UNL     1       9.325  -0.882  -2.462  1.00  0.00     0.016 A 
ATOM     30  C   UNL     1       9.925   0.812  -0.838  1.00  0.00     0.016 A 
ATOM     31  C   UNL     1      10.072  -1.828  -1.771  1.00  0.00     0.010 A 
ATOM     32  C   UNL     1      10.695  -0.137  -0.153  1.00  0.00     0.010 A 
ATOM     33  C   UNL     1      10.761  -1.467  -0.607  1.00  0.00    -0.014 A 
BRANCH  33  34
ATOM     34  C   UNL     1      11.510  -2.511   0.134  1.00  0.00     0.031 A 
ATOM     35  C   UNL     1      10.963  -3.060   1.422  1.00  0.00     0.074 A 
ATOM     36  C   UNL     1      12.646  -3.010  -0.390  1.00  0.00     0.049 A 
ATOM     37  N   UNL     1      11.461  -3.981   2.207  1.00  0.00    -0.248 NA
ATOM     38  C   UNL     1       9.690  -2.492   1.888  1.00  0.00     0.031 C 
ATOM     39  C   UNL     1      13.251  -2.577  -1.651  1.00  0.00     0.029 A 
ATOM     40  N   UNL     1      13.484  -3.996   0.061  1.00  0.00    -0.354 N 
ATOM     41  C   UNL     1      10.568  -4.100   3.267  1.00  0.00     0.074 A 
ATOM     42  C   UNL     1       9.516  -3.131   3.036  1.00  0.00     0.031 C 
ATOM     43  C   UNL     1      14.354  -3.308  -1.880  1.00  0.00     0.029 A 
ATOM     44  C   UNL     1      14.557  -4.229  -0.766  1.00  0.00     0.049 A 
ATOM     45  H   UNL     1      13.332  -4.492   0.898  1.00  0.00     0.167 HD
ATOM     46  C   UNL     1      10.621  -4.943   4.329  1.00  0.00     0.034 A 
ATOM     47  C   UNL     1      15.595  -5.077  -0.634  1.00  0.00     0.034 A 
ATOM     48  C   UNL     1      11.678  -5.903   4.544  1.00  0.00     0.049 A 
ATOM     49  C   UNL     1      15.653  -5.971   0.577  1.00  0.00     0.074 A 
ATOM     50  C   UNL     1      11.825  -6.809   5.580  1.00  0.00     0.029 A 
ATOM     51  N   UNL     1      12.776  -6.078   3.710  1.00  0.00    -0.354 N 
ATOM     52  N   UNL     1      14.807  -6.066   1.577  1.00  0.00    -0.248 NA
ATOM     53  C   UNL     1      16.805  -6.877   0.672  1.00  0.00     0.031 C 
ATOM     54  C   UNL     1      13.038  -7.488   5.405  1.00  0.00     0.029 A 
ATOM     55  C   UNL     1      13.618  -7.055   4.223  1.00  0.00     0.049 A 
ATOM     56  H   UNL     1      12.934  -5.581   2.875  1.00  0.00     0.167 HD
ATOM     57  C   UNL     1      15.321  -7.049   2.416  1.00  0.00     0.074 A 
ATOM     58  C   UNL     1      16.532  -7.538   1.787  1.00  0.00     0.031 C 
ATOM     59  C   UNL     1      14.841  -7.507   3.601  1.00  0.00     0.034 A 
BRANCH  46  60
ATOM     60  C   UNL     1       9.529  -4.816   5.364  1.00  0.00     0.023 A 
ATOM     61  C   UNL     1       8.186  -5.114   5.070  1.00  0.00     0.031 A 
ATOM     62  C   UNL     1       9.832  -4.350   6.656  1.00  0.00     0.131 A 
ATOM     63  C   UNL     1       7.190  -4.878   6.030  1.00  0.00     0.055 A 
ATOM     64  C   UNL     1       8.845  -4.188   7.631  1.00  0.00     0.041 A 
ATOM     65  F   UNL     1      11.092  -4.028   6.988  1.00  0.00    -0.206 F 
ATOM     66  C   UNL     1       7.513  -4.439   7.316  1.00  0.00     0.022 A 
BRANCH  63  67
ATOM     67  S   UNL     1       5.451  -5.022   5.535  1.00  0.00     0.124 S 
ATOM     68  O   UNL     1       5.370  -4.040   4.456  1.00  0.00    -0.237 OA
ATOM     69  O   UNL     1       5.352  -6.422   5.137  1.00  0.00    -0.237 OA
ATOM     70  O   UNL     1       4.718  -4.665   6.748  1.00  0.00    -0.744 OA
ENDBRANCH  63  67
ENDBRANCH  46  60
BRANCH  47  71
ATOM     71  C   UNL     1      16.686  -5.098  -1.648  1.00  0.00     0.023 A 
ATOM     72  C   UNL     1      16.923  -6.231  -2.442  1.00  0.00     0.031 A 
ATOM     73  C   UNL     1      17.538  -3.990  -1.806  1.00  0.00     0.131 A 
ATOM     74  C   UNL     1      18.010  -6.245  -3.330  1.00  0.00     0.055 A 
ATOM     75  C   UNL     1      18.588  -3.992  -2.724  1.00  0.00     0.041 A 
ATOM     76  F   UNL     1      17.353  -2.881  -1.072  1.00  0.00    -0.206 F 
ATOM     77  C   UNL     1      18.837  -5.130  -3.485  1.00  0.00     0.022 A 
BRANCH  74  78
ATOM     78  S   UNL     1      18.375  -7.776  -4.234  1.00  0.00     0.124 S 
ATOM     79  O   UNL     1      18.581  -8.724  -3.145  1.00  0.00    -0.237 OA
ATOM     80  O   UNL     1      17.160  -7.958  -5.022  1.00  0.00    -0.237 OA
ATOM     81  O   UNL     1      19.570  -7.440  -5.004  1.00  0.00    -0.744 OA
ENDBRANCH  74  78
ENDBRANCH  47  71
BRANCH  59  82
ATOM     82  C   UNL     1      15.635  -8.601   4.271  1.00  0.00     0.023 A 
ATOM     83  C   UNL     1      16.928  -8.367   4.772  1.00  0.00     0.031 A 
ATOM     84  C   UNL     1      15.115  -9.904   4.364  1.00  0.00     0.131 A 
ATOM     85  C   UNL     1      17.686  -9.433   5.279  1.00  0.00     0.055 A 
ATOM     86  C   UNL     1      15.851 -10.949   4.925  1.00  0.00     0.041 A 
ATOM     87  F   UNL     1      13.887 -10.184   3.900  1.00  0.00    -0.206 F 
ATOM     88  C   UNL     1      17.151 -10.721   5.370  1.00  0.00     0.022 A 
BRANCH  85  89
ATOM     89  S   UNL     1      19.424  -9.139   5.709  1.00  0.00     0.124 S 
ATOM     90  O   UNL     1      19.960  -8.604   4.462  1.00  0.00    -0.237 OA
ATOM     91  O   UNL     1      19.315  -8.193   6.815  1.00  0.00    -0.237 OA
ATOM     92  O   UNL     1      19.916 -10.466   6.076  1.00  0.00    -0.744 OA
ENDBRANCH  85  89
ENDBRANCH  59  82
ENDBRANCH  33  34
ENDBRANCH  26  28
ENDBRANCH  25  26
ENDBRANCH  24  25
ENDBRANCH   1  24
TORSDOF 18
