REMARK SMILES O=C(OCCOC(=O)[C@@H]1CC2(CC[NH2+]CC2)C[N@@H+]1Cc1cccc2nonc12)c1ccc(-c2c3nc(c(-c4cc(S(=O)(=O)[O-])ccc4F)c4ccc([nH]4)c(-c4cc(S(=O)(=O)[O-])ccc4F)c4nc(c(-c5cc(S(=O)(=O)[O-])ccc5F)c5ccc2[nH]5)C=C4)C=C3)cc1
REMARK SMILES IDX 4 1 3 2 2 3 1 4 29 5 30 6 91 7 31 8 90 9 32 10 33 11 34 12
REMARK SMILES IDX 84 13 35 14 89 15 83 16 85 17 36 18 88 19 82 20 81 21 37 23
REMARK SMILES IDX 69 24 49 25 68 26 50 27 53 28 67 29 86 30 51 31 52 32 66 34
REMARK SMILES IDX 87 35 54 36 38 37 39 38 47 39 40 40 46 41 48 42 45 43 41 44
REMARK SMILES IDX 42 45 43 46 44 47 70 48 71 49 79 50 72 51 78 52 80 53 77 54
REMARK SMILES IDX 73 55 74 56 75 57 76 58 55 59 56 60 64 61 57 62 63 63 65 64
REMARK SMILES IDX 62 65 58 66 59 67 60 68 61 69 5 70 6 71 7 72 8 73 9 74 10 75
REMARK SMILES IDX 18 76 11 77 17 78 12 80 16 81 13 82 15 83 14 84 19 87 20 88
REMARK SMILES IDX 21 89 28 90 22 91 24 92 27 93 23 94 25 95 26 96
REMARK H PARENT 85 22 53 33 18 79 14 85 14 86
REMARK Flexibility Score: inf
ROOT
ATOM      1  C   UNL     1       3.678  -0.728  -1.847  1.00  0.00     0.275 C 
ENDROOT
BRANCH   1   2
ATOM      2  O   UNL     1       2.789  -1.072  -0.783  1.00  0.00    -0.458 OA
BRANCH   2   3
ATOM      3  C   UNL     1       2.594  -0.363   0.344  1.00  0.00     0.338 C 
ATOM      4  O   UNL     1       1.918  -0.866   1.243  1.00  0.00    -0.246 OA
BRANCH   3   5
ATOM      5  C   UNL     1       3.029   1.059   0.551  1.00  0.00     0.060 A 
ATOM      6  C   UNL     1       1.957   1.835   1.790  1.00  0.00     0.016 A 
ATOM      7  C   UNL     1       4.405   2.032  -0.176  1.00  0.00     0.016 A 
ATOM      8  C   UNL     1       2.242   3.505   2.330  1.00  0.00     0.010 A 
ATOM      9  C   UNL     1       4.767   3.725   0.503  1.00  0.00     0.010 A 
ATOM     10  C   UNL     1       3.587   4.485   1.688  1.00  0.00    -0.014 A 
BRANCH  10  11
ATOM     11  C   UNL     1       3.646   5.911   2.070  1.00  0.00     0.031 A 
ATOM     12  C   UNL     1       4.999   6.492   2.057  1.00  0.00     0.074 A 
ATOM     13  C   UNL     1       2.594   6.758   1.984  1.00  0.00     0.049 A 
ATOM     14  N   UNL     1       5.597   6.834   0.958  1.00  0.00    -0.248 NA
ATOM     15  C   UNL     1       5.835   6.517   3.253  1.00  0.00     0.031 C 
ATOM     16  C   UNL     1       1.237   6.459   1.516  1.00  0.00     0.029 A 
ATOM     17  N   UNL     1       2.578   8.122   2.110  1.00  0.00    -0.354 N 
ATOM     18  C   UNL     1       6.918   7.022   1.284  1.00  0.00     0.074 A 
ATOM     19  C   UNL     1       7.022   6.834   2.718  1.00  0.00     0.031 C 
ATOM     20  C   UNL     1       0.604   7.606   1.187  1.00  0.00     0.029 A 
ATOM     21  C   UNL     1       1.473   8.717   1.525  1.00  0.00     0.049 A 
ATOM     22  H   UNL     1       3.283   8.630   2.572  1.00  0.00     0.167 HD
ATOM     23  C   UNL     1       7.874   7.289   0.362  1.00  0.00     0.034 A 
ATOM     24  C   UNL     1       1.323   9.981   1.044  1.00  0.00     0.034 A 
ATOM     25  C   UNL     1       7.442   7.478  -0.989  1.00  0.00     0.049 A 
ATOM     26  C   UNL     1       2.564  10.241   0.217  1.00  0.00     0.074 A 
ATOM     27  C   UNL     1       7.466   6.780  -2.174  1.00  0.00     0.029 A 
ATOM     28  N   UNL     1       6.859   8.679  -1.320  1.00  0.00    -0.354 N 
ATOM     29  N   UNL     1       2.702   9.963  -1.062  1.00  0.00    -0.248 NA
ATOM     30  C   UNL     1       3.821  10.483   0.914  1.00  0.00     0.031 C 
ATOM     31  C   UNL     1       6.541   7.445  -3.041  1.00  0.00     0.029 A 
ATOM     32  C   UNL     1       5.925   8.460  -2.306  1.00  0.00     0.049 A 
ATOM     33  H   UNL     1       7.074   9.551  -0.918  1.00  0.00     0.167 HD
ATOM     34  C   UNL     1       4.070   9.714  -1.255  1.00  0.00     0.074 A 
ATOM     35  C   UNL     1       4.671   9.968   0.037  1.00  0.00     0.031 C 
ATOM     36  C   UNL     1       4.655   9.191  -2.383  1.00  0.00     0.034 A 
BRANCH  23  37
ATOM     37  C   UNL     1       9.265   7.522   0.768  1.00  0.00     0.023 A 
ATOM     38  C   UNL     1      10.138   6.473   1.080  1.00  0.00     0.031 A 
ATOM     39  C   UNL     1       9.730   8.844   0.801  1.00  0.00     0.131 A 
ATOM     40  C   UNL     1      11.465   6.776   1.403  1.00  0.00     0.055 A 
ATOM     41  C   UNL     1      11.051   9.138   1.114  1.00  0.00     0.041 A 
ATOM     42  F   UNL     1       8.895   9.861   0.528  1.00  0.00    -0.206 F 
ATOM     43  C   UNL     1      11.927   8.099   1.412  1.00  0.00     0.022 A 
BRANCH  40  44
ATOM     44  S   UNL     1      12.646   5.465   1.813  1.00  0.00     0.124 S 
ATOM     45  O   UNL     1      13.699   5.681   0.825  1.00  0.00    -0.237 OA
ATOM     46  O   UNL     1      12.996   5.798   3.190  1.00  0.00    -0.237 OA
ATOM     47  O   UNL     1      11.872   4.237   1.644  1.00  0.00    -0.744 OA
ENDBRANCH  40  44
ENDBRANCH  23  37
BRANCH  24  48
ATOM     48  C   UNL     1       0.812  10.835   2.169  1.00  0.00     0.023 A 
ATOM     49  C   UNL     1       1.643  11.535   3.055  1.00  0.00     0.031 A 
ATOM     50  C   UNL     1      -0.537  10.677   2.553  1.00  0.00     0.131 A 
ATOM     51  C   UNL     1       1.194  11.850   4.346  1.00  0.00     0.055 A 
ATOM     52  C   UNL     1      -1.005  11.063   3.813  1.00  0.00     0.041 A 
ATOM     53  F   UNL     1      -1.404  10.062   1.731  1.00  0.00    -0.206 F 
ATOM     54  C   UNL     1      -0.123  11.613   4.737  1.00  0.00     0.022 A 
BRANCH  51  55
ATOM     55  S   UNL     1       2.381  12.436   5.590  1.00  0.00     0.124 S 
ATOM     56  O   UNL     1       1.632  13.489   6.270  1.00  0.00    -0.237 OA
ATOM     57  O   UNL     1       2.612  11.221   6.365  1.00  0.00    -0.237 OA
ATOM     58  O   UNL     1       3.511  12.891   4.786  1.00  0.00    -0.744 OA
ENDBRANCH  51  55
ENDBRANCH  24  48
BRANCH  36  59
ATOM     59  C   UNL     1       3.894   9.248  -3.693  1.00  0.00     0.023 A 
ATOM     60  C   UNL     1       3.819   8.138  -4.558  1.00  0.00     0.031 A 
ATOM     61  C   UNL     1       3.389  10.464  -4.189  1.00  0.00     0.131 A 
ATOM     62  C   UNL     1       3.328   8.264  -5.868  1.00  0.00     0.055 A 
ATOM     63  C   UNL     1       2.830  10.573  -5.471  1.00  0.00     0.041 A 
ATOM     64  F   UNL     1       3.491  11.595  -3.470  1.00  0.00    -0.206 F 
ATOM     65  C   UNL     1       2.809   9.474  -6.323  1.00  0.00     0.022 A 
BRANCH  62  66
ATOM     66  S   UNL     1       3.401   6.868  -7.029  1.00  0.00     0.124 S 
ATOM     67  O   UNL     1       2.016   6.765  -7.479  1.00  0.00    -0.237 OA
ATOM     68  O   UNL     1       4.350   7.346  -8.030  1.00  0.00    -0.237 OA
ATOM     69  O   UNL     1       3.868   5.758  -6.204  1.00  0.00    -0.744 OA
ENDBRANCH  62  66
ENDBRANCH  36  59
ENDBRANCH  10  11
ENDBRANCH   3   5
ENDBRANCH   2   3
ENDBRANCH   1   2
BRANCH   1  70
ATOM     70  C   UNL     1       3.063   0.269  -2.821  1.00  0.00     0.274 C 
BRANCH  70  71
ATOM     71  O   UNL     1       2.736   1.471  -2.122  1.00  0.00    -0.458 OA
BRANCH  71  72
ATOM     72  C   UNL     1       1.495   1.596  -1.586  1.00  0.00     0.365 C 
ATOM     73  O   UNL     1       0.541   0.892  -1.903  1.00  0.00    -0.245 OA
BRANCH  72  74
ATOM     74  C   UNL     1       1.410   2.701  -0.498  1.00  0.00     0.296 C 
ATOM     75  C   UNL     1       0.863   3.943  -1.237  1.00  0.00     0.091 C 
ATOM     76  N   UNL     1       2.782   3.154   0.276  1.00  0.00    -0.319 N 
ATOM     77  C   UNL     1       2.035   4.633  -1.902  1.00  0.00     0.036 C 
ATOM     78  C   UNL     1       3.187   4.278  -0.967  1.00  0.00     0.270 C 
ATOM     79  H   UNL     1       2.813   3.134   1.296  1.00  0.00     0.349 HD
ATOM     80  C   UNL     1       1.891   6.165  -2.012  1.00  0.00     0.074 C 
ATOM     81  C   UNL     1       2.339   4.209  -3.361  1.00  0.00     0.074 C 
ATOM     82  C   UNL     1       0.779   6.580  -2.964  1.00  0.00     0.261 C 
ATOM     83  C   UNL     1       1.210   4.578  -4.316  1.00  0.00     0.261 C 
ATOM     84  N   UNL     1       0.875   5.995  -4.295  1.00  0.00    -0.346 N 
ATOM     85  H   UNL     1       1.595   6.500  -4.812  1.00  0.00     0.346 HD
ATOM     86  H   UNL     1      -0.052   6.078  -4.713  1.00  0.00     0.346 HD
BRANCH  76  87
ATOM     87  C   UNL     1       4.020   2.382   1.794  1.00  0.00     0.302 C 
BRANCH  87  88
ATOM     88  C   UNL     1       5.554   1.416   1.730  1.00  0.00     0.038 A 
ATOM     89  C   UNL     1       6.785   2.004   1.258  1.00  0.00     0.012 A 
ATOM     90  C   UNL     1       5.608  -0.005   1.681  1.00  0.00     0.144 A 
ATOM     91  C   UNL     1       7.717   1.308   0.433  1.00  0.00     0.003 A 
ATOM     92  C   UNL     1       6.594  -0.716   0.858  1.00  0.00     0.135 A 
ATOM     93  N   UNL     1       4.797  -0.922   2.218  1.00  0.00    -0.049 NA
ATOM     94  C   UNL     1       7.608  -0.059   0.141  1.00  0.00     0.034 A 
ATOM     95  N   UNL     1       6.288  -2.019   0.865  1.00  0.00    -0.050 NA
ATOM     96  O   UNL     1       5.210  -2.144   1.724  1.00  0.00    -0.243 OA
ENDBRANCH  87  88
ENDBRANCH  76  87
ENDBRANCH  72  74
ENDBRANCH  71  72
ENDBRANCH  70  71
ENDBRANCH   1  70
TORSDOF 16
