REMARK SMILES Cc1cc2c(=O)cc(-c3ccc(F)cc3)oc2c(C(=O)OCCOC(=O)c2ccc(-c3c4nc(c(-c5cc(S(=O)(=O)[O-])ccc5F)c5ccc([nH]5)c(-c5cc(S(=O)(=O)[O-])ccc5F)c5nc(c(-c6cc(S(=O)(=O)[O-])ccc6F)c6ccc3[nH]6)C=C5)C=C4)cc2)c1C
REMARK SMILES IDX 23 1 22 2 21 3 19 4 20 5 18 6 1 7 2 8 3 9 90 10 4 11 91 12
REMARK SMILES IDX 5 13 17 14 6 15 7 16 16 17 8 18 9 19 10 20 15 21 11 22 14 23
REMARK SMILES IDX 12 24 13 25 24 26 25 27 26 28 27 29 28 30 89 31 29 32 88 33
REMARK SMILES IDX 30 34 31 35 32 36 82 37 33 38 87 39 81 40 83 41 34 42 86 43
REMARK SMILES IDX 80 44 79 45 35 47 67 48 47 49 66 50 48 51 51 52 65 53 84 54
REMARK SMILES IDX 49 55 50 56 64 58 85 59 52 60 36 61 37 62 45 63 38 64 44 65
REMARK SMILES IDX 46 66 43 67 39 68 40 69 41 70 42 71 68 72 69 73 77 74 70 75
REMARK SMILES IDX 76 76 78 77 75 78 71 79 72 80 73 81 74 82 53 83 54 84 62 85
REMARK SMILES IDX 55 86 61 87 63 88 60 89 56 90 57 91 58 92 59 93
REMARK H PARENT 83 46 51 57
REMARK Flexibility Score: inf
ROOT
ATOM      1  C   UNL     1      -2.800   0.789   6.326  1.00  0.00     0.275 C 
ENDROOT
BRANCH   1   2
ATOM      2  C   UNL     1      -2.188   1.060   4.947  1.00  0.00     0.275 C 
BRANCH   2   3
ATOM      3  O   UNL     1      -2.032  -0.144   4.157  1.00  0.00    -0.458 OA
BRANCH   3   4
ATOM      4  C   UNL     1      -0.792  -0.699   4.165  1.00  0.00     0.342 C 
ATOM      5  O   UNL     1       0.147  -0.405   4.886  1.00  0.00    -0.246 OA
BRANCH   4   6
ATOM      6  C   UNL     1      -0.609  -1.478   2.928  1.00  0.00     0.106 A 
ATOM      7  C   UNL     1       0.488  -0.744  -0.692  1.00  0.00     0.044 C 
ATOM      8  C   UNL     1       0.051  -1.437   0.570  1.00  0.00    -0.046 A 
ATOM      9  C   UNL     1      -0.065  -2.830   0.561  1.00  0.00     0.019 A 
ATOM     10  C   UNL     1      -0.200  -0.745   1.770  1.00  0.00    -0.030 A 
ATOM     11  C   UNL     1      -0.425  -3.533   1.719  1.00  0.00     0.066 A 
ATOM     12  C   UNL     1      -0.047   0.759   1.838  1.00  0.00     0.046 C 
ATOM     13  C   UNL     1      -0.459  -5.000   1.658  1.00  0.00     0.193 A 
ATOM     14  C   UNL     1      -0.706  -2.880   2.919  1.00  0.00     0.153 A 
ATOM     15  O   UNL     1      -0.270  -5.609   0.614  1.00  0.00    -0.289 OA
ATOM     16  C   UNL     1      -0.697  -5.696   2.921  1.00  0.00     0.100 A 
ATOM     17  O   UNL     1      -1.042  -3.585   4.063  1.00  0.00    -0.455 OA
ATOM     18  C   UNL     1      -0.955  -4.976   4.020  1.00  0.00     0.138 A 
BRANCH  18  19
ATOM     19  C   UNL     1      -1.173  -5.734   5.276  1.00  0.00     0.018 A 
ATOM     20  C   UNL     1      -2.767  -5.610   6.245  1.00  0.00     0.015 A 
ATOM     21  C   UNL     1       0.081  -7.024   5.716  1.00  0.00     0.015 A 
ATOM     22  C   UNL     1      -3.108  -6.803   7.631  1.00  0.00     0.040 A 
ATOM     23  C   UNL     1      -0.229  -8.205   7.106  1.00  0.00     0.040 A 
ATOM     24  C   UNL     1      -1.848  -8.081   8.076  1.00  0.00     0.123 A 
ATOM     25  F   UNL     1      -2.125  -8.956   9.053  1.00  0.00    -0.207 F 
ENDBRANCH  18  19
ENDBRANCH   4   6
ENDBRANCH   3   4
ENDBRANCH   2   3
ENDBRANCH   1   2
BRANCH   1  26
ATOM     26  O   UNL     1      -1.875   0.009   7.087  1.00  0.00    -0.458 OA
BRANCH  26  27
ATOM     27  C   UNL     1      -2.393  -0.604   8.179  1.00  0.00     0.338 C 
ATOM     28  O   UNL     1      -3.350  -0.217   8.829  1.00  0.00    -0.246 OA
BRANCH  27  29
ATOM     29  C   UNL     1      -1.789  -1.963   8.252  1.00  0.00     0.060 A 
ATOM     30  C   UNL     1      -2.431  -2.945   9.004  1.00  0.00     0.016 A 
ATOM     31  C   UNL     1      -0.725  -2.326   7.416  1.00  0.00     0.016 A 
ATOM     32  C   UNL     1      -2.105  -4.288   8.792  1.00  0.00     0.010 A 
ATOM     33  C   UNL     1      -0.464  -3.664   7.140  1.00  0.00     0.010 A 
ATOM     34  C   UNL     1      -1.225  -4.669   7.750  1.00  0.00    -0.014 A 
BRANCH  34  35
ATOM     35  C   UNL     1      -1.100  -6.335   7.292  1.00  0.00     0.031 A 
ATOM     36  C   UNL     1       0.108  -6.553   8.617  1.00  0.00     0.074 A 
ATOM     37  C   UNL     1      -1.909  -7.519   6.100  1.00  0.00     0.049 A 
ATOM     38  N   UNL     1       0.127  -7.502   9.524  1.00  0.00    -0.248 NA
ATOM     39  C   UNL     1       1.290  -5.669   8.699  1.00  0.00     0.031 C 
ATOM     40  C   UNL     1      -3.040  -7.455   4.850  1.00  0.00     0.029 A 
ATOM     41  N   UNL     1      -1.920  -9.069   5.931  1.00  0.00    -0.354 N 
ATOM     42  C   UNL     1       1.371  -7.479  10.087  1.00  0.00     0.074 A 
ATOM     43  C   UNL     1       1.978  -6.224   9.697  1.00  0.00     0.031 C 
ATOM     44  C   UNL     1      -3.637  -8.632   4.602  1.00  0.00     0.029 A 
ATOM     45  C   UNL     1      -3.059  -9.638   5.432  1.00  0.00     0.049 A 
ATOM     46  H   UNL     1      -1.138  -9.615   6.174  1.00  0.00     0.167 HD
ATOM     47  C   UNL     1       2.018  -8.526  10.645  1.00  0.00     0.034 A 
ATOM     48  C   UNL     1      -3.571 -10.830   5.797  1.00  0.00     0.034 A 
ATOM     49  C   UNL     1       1.544  -9.897  10.596  1.00  0.00     0.049 A 
ATOM     50  C   UNL     1      -2.848 -11.652   6.857  1.00  0.00     0.074 A 
ATOM     51  C   UNL     1       2.182 -11.015  11.101  1.00  0.00     0.029 A 
ATOM     52  N   UNL     1       0.390 -10.362   9.943  1.00  0.00    -0.354 N 
ATOM     53  N   UNL     1      -1.828 -11.328   7.628  1.00  0.00    -0.248 NA
ATOM     54  C   UNL     1      -3.362 -13.006   7.079  1.00  0.00     0.031 C 
ATOM     55  C   UNL     1       1.470 -12.148  10.692  1.00  0.00     0.029 A 
ATOM     56  C   UNL     1       0.349 -11.754   9.967  1.00  0.00     0.049 A 
ATOM     57  H   UNL     1      -0.292  -9.786   9.527  1.00  0.00     0.167 HD
ATOM     58  C   UNL     1      -1.606 -12.418   8.468  1.00  0.00     0.074 A 
ATOM     59  C   UNL     1      -2.594 -13.419   8.079  1.00  0.00     0.031 C 
ATOM     60  C   UNL     1      -0.689 -12.634   9.454  1.00  0.00     0.034 A 
BRANCH  47  61
ATOM     61  C   UNL     1       3.381  -8.224  11.190  1.00  0.00     0.023 A 
ATOM     62  C   UNL     1       4.532  -8.460  10.412  1.00  0.00     0.031 A 
ATOM     63  C   UNL     1       3.521  -7.646  12.467  1.00  0.00     0.131 A 
ATOM     64  C   UNL     1       5.781  -8.095  10.917  1.00  0.00     0.055 A 
ATOM     65  C   UNL     1       4.772  -7.300  12.973  1.00  0.00     0.041 A 
ATOM     66  F   UNL     1       2.442  -7.385  13.227  1.00  0.00    -0.206 F 
ATOM     67  C   UNL     1       5.907  -7.522  12.192  1.00  0.00     0.022 A 
BRANCH  64  68
ATOM     68  S   UNL     1       7.287  -8.295   9.919  1.00  0.00     0.124 S 
ATOM     69  O   UNL     1       7.733  -6.909   9.793  1.00  0.00    -0.237 OA
ATOM     70  O   UNL     1       8.105  -9.147  10.776  1.00  0.00    -0.237 OA
ATOM     71  O   UNL     1       6.826  -8.911   8.680  1.00  0.00    -0.744 OA
ENDBRANCH  64  68
ENDBRANCH  47  61
BRANCH  48  72
ATOM     72  C   UNL     1      -4.950 -11.183   5.375  1.00  0.00     0.023 A 
ATOM     73  C   UNL     1      -5.265 -11.518   4.051  1.00  0.00     0.031 A 
ATOM     74  C   UNL     1      -5.995 -11.110   6.314  1.00  0.00     0.131 A 
ATOM     75  C   UNL     1      -6.601 -11.766   3.699  1.00  0.00     0.055 A 
ATOM     76  C   UNL     1      -7.319 -11.373   5.964  1.00  0.00     0.041 A 
ATOM     77  F   UNL     1      -5.736 -10.764   7.585  1.00  0.00    -0.206 F 
ATOM     78  C   UNL     1      -7.628 -11.696   4.646  1.00  0.00     0.022 A 
BRANCH  75  79
ATOM     79  S   UNL     1      -7.035 -12.079   1.964  1.00  0.00     0.124 S 
ATOM     80  O   UNL     1      -6.976 -13.535   1.901  1.00  0.00    -0.237 OA
ATOM     81  O   UNL     1      -8.370 -11.495   1.853  1.00  0.00    -0.237 OA
ATOM     82  O   UNL     1      -5.992 -11.366   1.233  1.00  0.00    -0.744 OA
ENDBRANCH  75  79
ENDBRANCH  48  72
BRANCH  60  83
ATOM     83  C   UNL     1      -0.675 -14.040  10.016  1.00  0.00     0.023 A 
ATOM     84  C   UNL     1      -1.214 -14.320  11.285  1.00  0.00     0.031 A 
ATOM     85  C   UNL     1      -0.043 -15.077   9.296  1.00  0.00     0.131 A 
ATOM     86  C   UNL     1      -1.124 -15.621  11.792  1.00  0.00     0.055 A 
ATOM     87  C   UNL     1       0.042 -16.369   9.807  1.00  0.00     0.041 A 
ATOM     88  F   UNL     1       0.499 -14.838   8.090  1.00  0.00    -0.206 F 
ATOM     89  C   UNL     1      -0.501 -16.642  11.062  1.00  0.00     0.022 A 
BRANCH  86  90
ATOM     90  S   UNL     1      -1.791 -16.042  13.429  1.00  0.00     0.124 S 
ATOM     91  O   UNL     1      -2.886 -16.942  13.077  1.00  0.00    -0.237 OA
ATOM     92  O   UNL     1      -0.642 -16.673  14.075  1.00  0.00    -0.237 OA
ATOM     93  O   UNL     1      -2.196 -14.761  13.998  1.00  0.00    -0.744 OA
ENDBRANCH  86  90
ENDBRANCH  60  83
ENDBRANCH  34  35
ENDBRANCH  27  29
ENDBRANCH  26  27
ENDBRANCH   1  26
TORSDOF 15
