REMARK SMILES CC(C)[C@H](NC(=O)OCc1ccccc1)C(=O)NCC(=O)OCCOC(=O)c1ccc(-c2c3nc(c(-c4cc(S(=O)(=O)[O-])ccc4F)c4ccc([nH]4)c(-c4cc(S(=O)(=O)[O-])ccc4F)c4nc(c(-c5cc(S(=O)(=O)[O-])ccc5F)c5ccc2[nH]5)C=C4)C=C3)cc1
REMARK SMILES IDX 22 1 20 2 21 3 19 4 18 5 16 6 17 7 4 9 2 10 1 11 3 12 5 13
REMARK SMILES IDX 6 14 7 16 8 17 9 18 10 19 11 20 15 21 12 22 14 23 13 24
REMARK SMILES IDX 23 25 24 26 25 27 26 28 27 29 28 30 29 31 90 32 30 33 89 34
REMARK SMILES IDX 31 35 32 36 33 37 83 38 34 39 88 40 82 41 84 42 35 43 87 44
REMARK SMILES IDX 81 45 80 46 36 48 68 49 48 50 67 51 49 52 52 53 66 54 85 55
REMARK SMILES IDX 50 56 51 57 65 59 86 60 53 61 37 62 38 63 46 64 39 65 45 66
REMARK SMILES IDX 47 67 44 68 40 69 41 70 42 71 43 72 69 73 70 74 78 75 71 76
REMARK SMILES IDX 77 77 79 78 76 79 72 80 73 81 74 82 75 83 54 84 55 85 63 86
REMARK SMILES IDX 56 87 62 88 64 89 61 90 57 91 58 92 59 93 60 94
REMARK H PARENT 18 8 5 15 84 47 52 58
REMARK Flexibility Score: inf
ROOT
ATOM      1  O   UNL     1       1.877   4.611   0.522  1.00  0.00    -0.461 OA
ENDROOT
BRANCH   1   2
ATOM      2  C   UNL     1       1.421   4.046   1.670  1.00  0.00     0.325 C 
ATOM      3  O   UNL     1       2.027   4.036   2.736  1.00  0.00    -0.250 OA
BRANCH   2   4
ATOM      4  C   UNL     1       0.024   3.463   1.525  1.00  0.00     0.238 C 
BRANCH   4   5
ATOM      5  N   UNL     1      -0.662   3.558   0.242  1.00  0.00    -0.343 N 
ATOM      6  C   UNL     1      -1.401   2.582  -0.381  1.00  0.00     0.243 C 
ATOM      7  O   UNL     1      -2.299   2.908  -1.157  1.00  0.00    -0.273 OA
ATOM      8  H   UNL     1      -0.587   4.419  -0.230  1.00  0.00     0.164 HD
BRANCH   6   9
ATOM      9  C   UNL     1      -1.122   1.102  -0.040  1.00  0.00     0.177 C 
BRANCH   9  10
ATOM     10  C   UNL     1      -1.908   0.528   1.183  1.00  0.00     0.015 C 
ATOM     11  C   UNL     1      -2.489   1.530   2.192  1.00  0.00     0.010 C 
ATOM     12  C   UNL     1      -3.060  -0.357   0.692  1.00  0.00     0.010 C 
ENDBRANCH   9  10
BRANCH   9  13
ATOM     13  N   UNL     1       0.335   1.013   0.101  1.00  0.00    -0.309 N 
ATOM     14  C   UNL     1       1.125  -0.066   0.280  1.00  0.00     0.408 C 
ATOM     15  H   UNL     1       0.810   1.874   0.058  1.00  0.00     0.167 HD
ATOM     16  O   UNL     1       2.294   0.071   0.588  1.00  0.00    -0.225 OA
BRANCH  14  17
ATOM     17  O   UNL     1       0.500  -1.227  -0.015  1.00  0.00    -0.445 OA
BRANCH  17  18
ATOM     18  C   UNL     1       1.349  -2.376   0.057  1.00  0.00     0.270 C 
BRANCH  18  19
ATOM     19  C   UNL     1       2.178  -2.632  -1.190  1.00  0.00    -0.011 A 
ATOM     20  C   UNL     1       2.595  -3.944  -1.458  1.00  0.00     0.007 A 
ATOM     21  C   UNL     1       2.640  -1.608  -2.032  1.00  0.00     0.007 A 
ATOM     22  C   UNL     1       3.445  -4.220  -2.532  1.00  0.00     0.000 A 
ATOM     23  C   UNL     1       3.498  -1.881  -3.099  1.00  0.00     0.000 A 
ATOM     24  C   UNL     1       3.902  -3.188  -3.348  1.00  0.00     0.000 A 
ENDBRANCH  18  19
ENDBRANCH  17  18
ENDBRANCH  14  17
ENDBRANCH   9  13
ENDBRANCH   6   9
ENDBRANCH   4   5
ENDBRANCH   2   4
ENDBRANCH   1   2
BRANCH   1  25
ATOM     25  C   UNL     1       3.028   5.457   0.682  1.00  0.00     0.274 C 
BRANCH  25  26
ATOM     26  C   UNL     1       2.604   6.921   0.863  1.00  0.00     0.275 C 
BRANCH  26  27
ATOM     27  O   UNL     1       1.934   7.163   2.119  1.00  0.00    -0.458 OA
BRANCH  27  28
ATOM     28  C   UNL     1       0.593   6.976   2.102  1.00  0.00     0.338 C 
ATOM     29  O   UNL     1      -0.079   6.600   1.153  1.00  0.00    -0.246 OA
BRANCH  28  30
ATOM     30  C   UNL     1       0.016   7.152   3.445  1.00  0.00     0.060 A 
ATOM     31  C   UNL     1      -0.529   6.037   4.080  1.00  0.00     0.016 A 
ATOM     32  C   UNL     1      -0.142   8.417   4.005  1.00  0.00     0.016 A 
ATOM     33  C   UNL     1      -1.320   6.178   5.209  1.00  0.00     0.010 A 
ATOM     34  C   UNL     1      -0.867   8.550   5.198  1.00  0.00     0.010 A 
ATOM     35  C   UNL     1      -1.487   7.434   5.793  1.00  0.00    -0.014 A 
BRANCH  35  36
ATOM     36  C   UNL     1      -2.335   7.557   7.005  1.00  0.00     0.031 A 
ATOM     37  C   UNL     1      -3.604   8.361   6.957  1.00  0.00     0.074 A 
ATOM     38  C   UNL     1      -1.993   6.894   8.129  1.00  0.00     0.049 A 
ATOM     39  N   UNL     1      -4.417   8.682   7.929  1.00  0.00    -0.248 NA
ATOM     40  C   UNL     1      -4.007   8.877   5.639  1.00  0.00     0.031 C 
ATOM     41  C   UNL     1      -0.827   6.017   8.272  1.00  0.00     0.029 A 
ATOM     42  N   UNL     1      -2.596   6.840   9.360  1.00  0.00    -0.354 N 
ATOM     43  C   UNL     1      -5.414   9.460   7.350  1.00  0.00     0.074 A 
ATOM     44  C   UNL     1      -5.085   9.585   5.945  1.00  0.00     0.031 C 
ATOM     45  C   UNL     1      -0.818   5.492   9.506  1.00  0.00     0.029 A 
ATOM     46  C   UNL     1      -1.920   6.062  10.271  1.00  0.00     0.049 A 
ATOM     47  H   UNL     1      -3.433   7.313   9.571  1.00  0.00     0.167 HD
ATOM     48  C   UNL     1      -6.505  10.012   7.938  1.00  0.00     0.034 A 
ATOM     49  C   UNL     1      -2.136   5.865  11.586  1.00  0.00     0.034 A 
ATOM     50  C   UNL     1      -6.819   9.863   9.339  1.00  0.00     0.049 A 
ATOM     51  C   UNL     1      -3.298   6.572  12.236  1.00  0.00     0.074 A 
ATOM     52  C   UNL     1      -7.882  10.397  10.048  1.00  0.00     0.029 A 
ATOM     53  N   UNL     1      -6.075   9.119  10.247  1.00  0.00    -0.354 N 
ATOM     54  N   UNL     1      -4.198   7.357  11.690  1.00  0.00    -0.248 NA
ATOM     55  C   UNL     1      -3.469   6.369  13.679  1.00  0.00     0.031 C 
ATOM     56  C   UNL     1      -7.746  10.028  11.391  1.00  0.00     0.029 A 
ATOM     57  C   UNL     1      -6.642   9.200  11.510  1.00  0.00     0.049 A 
ATOM     58  H   UNL     1      -5.262   8.609  10.026  1.00  0.00     0.167 HD
ATOM     59  C   UNL     1      -5.061   7.715  12.721  1.00  0.00     0.074 A 
ATOM     60  C   UNL     1      -4.584   7.044  13.913  1.00  0.00     0.031 C 
ATOM     61  C   UNL     1      -6.149   8.526  12.688  1.00  0.00     0.034 A 
BRANCH  48  62
ATOM     62  C   UNL     1      -7.399  10.871   7.077  1.00  0.00     0.023 A 
ATOM     63  C   UNL     1      -8.128  10.339   6.000  1.00  0.00     0.031 A 
ATOM     64  C   UNL     1      -7.505  12.252   7.324  1.00  0.00     0.131 A 
ATOM     65  C   UNL     1      -8.876  11.191   5.172  1.00  0.00     0.055 A 
ATOM     66  C   UNL     1      -8.313  13.081   6.545  1.00  0.00     0.041 A 
ATOM     67  F   UNL     1      -6.813  12.822   8.324  1.00  0.00    -0.206 F 
ATOM     68  C   UNL     1      -8.995  12.554   5.452  1.00  0.00     0.022 A 
BRANCH  65  69
ATOM     69  S   UNL     1      -9.584  10.516   3.644  1.00  0.00     0.124 S 
ATOM     70  O   UNL     1      -8.387  10.054   2.945  1.00  0.00    -0.237 OA
ATOM     71  O   UNL     1     -10.475   9.475   4.143  1.00  0.00    -0.237 OA
ATOM     72  O   UNL     1     -10.247  11.667   3.036  1.00  0.00    -0.744 OA
ENDBRANCH  65  69
ENDBRANCH  48  62
BRANCH  49  73
ATOM     73  C   UNL     1      -1.210   5.018  12.394  1.00  0.00     0.023 A 
ATOM     74  C   UNL     1      -1.675   3.877  13.065  1.00  0.00     0.031 A 
ATOM     75  C   UNL     1       0.140   5.376  12.565  1.00  0.00     0.131 A 
ATOM     76  C   UNL     1      -0.816   3.169  13.919  1.00  0.00     0.055 A 
ATOM     77  C   UNL     1       1.008   4.630  13.363  1.00  0.00     0.041 A 
ATOM     78  F   UNL     1       0.640   6.461  11.951  1.00  0.00    -0.206 F 
ATOM     79  C   UNL     1       0.526   3.528  14.060  1.00  0.00     0.022 A 
BRANCH  76  80
ATOM     80  S   UNL     1      -1.511   1.837  14.936  1.00  0.00     0.124 S 
ATOM     81  O   UNL     1      -2.579   2.532  15.645  1.00  0.00    -0.237 OA
ATOM     82  O   UNL     1      -1.933   0.874  13.924  1.00  0.00    -0.237 OA
ATOM     83  O   UNL     1      -0.382   1.416  15.763  1.00  0.00    -0.744 OA
ENDBRANCH  76  80
ENDBRANCH  49  73
BRANCH  61  84
ATOM     84  C   UNL     1      -6.923   8.675  13.975  1.00  0.00     0.023 A 
ATOM     85  C   UNL     1      -6.373   9.315  15.100  1.00  0.00     0.031 A 
ATOM     86  C   UNL     1      -8.219   8.141  14.085  1.00  0.00     0.131 A 
ATOM     87  C   UNL     1      -7.090   9.347  16.304  1.00  0.00     0.055 A 
ATOM     88  C   UNL     1      -8.953   8.232  15.267  1.00  0.00     0.041 A 
ATOM     89  F   UNL     1      -8.791   7.517  13.043  1.00  0.00    -0.206 F 
ATOM     90  C   UNL     1      -8.383   8.825  16.391  1.00  0.00     0.022 A 
BRANCH  87  91
ATOM     91  S   UNL     1      -6.269   9.990  17.788  1.00  0.00     0.124 S 
ATOM     92  O   UNL     1      -5.105   9.117  17.894  1.00  0.00    -0.237 OA
ATOM     93  O   UNL     1      -5.996  11.375  17.419  1.00  0.00    -0.237 OA
ATOM     94  O   UNL     1      -7.272   9.816  18.838  1.00  0.00    -0.744 OA
ENDBRANCH  87  91
ENDBRANCH  61  84
ENDBRANCH  35  36
ENDBRANCH  28  30
ENDBRANCH  27  28
ENDBRANCH  26  27
ENDBRANCH  25  26
ENDBRANCH   1  25
TORSDOF 21
