REMARK SMILES Cc1cc(Cl)cc2c1O[C@H](C(F)(F)F)C(C(=O)OCCOC(=O)c1ccc(-c3c4nc(c(-c5cc(S(=O)(=O)[O-])ccc5F)c5ccc([nH]5)c(-c5cc(S(=O)(=O)[O-])ccc5F)c5nc(c(-c6cc(S(=O)(=O)[O-])ccc6F)c6ccc3[nH]6)C=C5)C=C4)cc1)=C2
REMARK SMILES IDX 20 1 19 2 18 3 16 4 17 5 15 6 1 7 2 8 3 9 8 10 4 11 7 12
REMARK SMILES IDX 9 13 5 14 6 15 87 16 10 17 11 18 12 19 13 20 14 21 21 22
REMARK SMILES IDX 22 23 23 24 24 25 25 26 86 27 26 28 85 29 27 30 28 31 29 32
REMARK SMILES IDX 79 33 30 34 84 35 78 36 80 37 31 38 83 39 77 40 76 41 32 43
REMARK SMILES IDX 64 44 44 45 63 46 45 47 48 48 62 49 81 50 46 51 47 52 61 54
REMARK SMILES IDX 82 55 49 56 33 57 34 58 42 59 35 60 41 61 43 62 40 63 36 64
REMARK SMILES IDX 37 65 38 66 39 67 65 68 66 69 74 70 67 71 73 72 75 73 72 74
REMARK SMILES IDX 68 75 69 76 70 77 71 78 50 79 51 80 59 81 52 82 58 83 60 84
REMARK SMILES IDX 57 85 53 86 54 87 55 88 56 89
REMARK H PARENT 80 42 48 53
REMARK Flexibility Score: inf
ROOT
ATOM      1  C   UNL     1       1.605  -7.938   4.283  1.00  0.00     0.275 C 
ENDROOT
BRANCH   1   2
ATOM      2  C   UNL     1       0.821  -7.665   2.999  1.00  0.00     0.275 C 
BRANCH   2   3
ATOM      3  O   UNL     1       0.970  -6.293   2.571  1.00  0.00    -0.459 OA
BRANCH   3   4
ATOM      4  C   UNL     1      -0.092  -5.490   2.815  1.00  0.00     0.338 C 
ATOM      5  O   UNL     1      -1.152  -5.824   3.322  1.00  0.00    -0.246 OA
BRANCH   4   6
ATOM      6  C   UNL     1       0.191  -4.108   2.387  1.00  0.00     0.087 C 
ATOM      7  C   UNL     1       1.034   0.148  -0.368  1.00  0.00     0.048 C 
ATOM      8  C   UNL     1       0.556  -0.167   1.019  1.00  0.00    -0.007 A 
ATOM      9  C   UNL     1       0.191   0.882   1.880  1.00  0.00     0.027 A 
ATOM     10  C   UNL     1       0.495  -1.489   1.486  1.00  0.00     0.131 A 
ATOM     11  C   UNL     1      -0.236   0.615   3.178  1.00  0.00     0.042 A 
ATOM     12  C   UNL     1       0.048  -1.747   2.784  1.00  0.00     0.019 A 
ATOM     13  O   UNL     1       0.904  -2.480   0.633  1.00  0.00    -0.475 OA
ATOM     14  Cl  UNL     1      -0.694   1.909   4.212  1.00  0.00    -0.084 Cl
ATOM     15  C   UNL     1      -0.309  -0.695   3.636  1.00  0.00     0.032 A 
ATOM     16  C   UNL     1      -0.084  -3.116   3.239  1.00  0.00     0.027 C 
ATOM     17  C   UNL     1       0.634  -3.868   0.975  1.00  0.00     0.316 C 
BRANCH  17  18
ATOM     18  C   UNL     1      -0.380  -4.436  -0.031  1.00  0.00     0.430 C 
ATOM     19  F   UNL     1       0.010  -4.202  -1.309  1.00  0.00    -0.167 F 
ATOM     20  F   UNL     1      -0.500  -5.782   0.088  1.00  0.00    -0.167 F 
ATOM     21  F   UNL     1      -1.613  -3.904   0.119  1.00  0.00    -0.167 F 
ENDBRANCH  17  18
ENDBRANCH   4   6
ENDBRANCH   3   4
ENDBRANCH   2   3
ENDBRANCH   1   2
BRANCH   1  22
ATOM     22  O   UNL     1       1.027  -7.224   5.390  1.00  0.00    -0.458 OA
BRANCH  22  23
ATOM     23  C   UNL     1       1.699  -6.113   5.772  1.00  0.00     0.338 C 
ATOM     24  O   UNL     1       2.745  -5.687   5.313  1.00  0.00    -0.246 OA
BRANCH  23  25
ATOM     25  C   UNL     1       0.931  -5.401   6.804  1.00  0.00     0.060 A 
ATOM     26  C   UNL     1      -0.218  -4.726   6.413  1.00  0.00     0.016 A 
ATOM     27  C   UNL     1       1.415  -5.260   8.101  1.00  0.00     0.016 A 
ATOM     28  C   UNL     1      -0.800  -3.790   7.258  1.00  0.00     0.010 A 
ATOM     29  C   UNL     1       0.725  -4.439   9.006  1.00  0.00     0.010 A 
ATOM     30  C   UNL     1      -0.369  -3.660   8.585  1.00  0.00    -0.014 A 
BRANCH  30  31
ATOM     31  C   UNL     1      -1.077  -2.713   9.499  1.00  0.00     0.031 A 
ATOM     32  C   UNL     1      -0.320  -1.629  10.226  1.00  0.00     0.074 A 
ATOM     33  C   UNL     1      -2.420  -2.793   9.636  1.00  0.00     0.049 A 
ATOM     34  N   UNL     1      -0.753  -0.787  11.131  1.00  0.00    -0.248 NA
ATOM     35  C   UNL     1       1.109  -1.476   9.908  1.00  0.00     0.031 C 
ATOM     36  C   UNL     1      -3.281  -3.769   8.958  1.00  0.00     0.029 A 
ATOM     37  N   UNL     1      -3.307  -2.027  10.352  1.00  0.00    -0.354 N 
ATOM     38  C   UNL     1       0.353  -0.036  11.518  1.00  0.00     0.074 A 
ATOM     39  C   UNL     1       1.484  -0.539  10.769  1.00  0.00     0.031 C 
ATOM     40  C   UNL     1      -4.565  -3.481   9.210  1.00  0.00     0.029 A 
ATOM     41  C   UNL     1      -4.625  -2.383  10.166  1.00  0.00     0.049 A 
ATOM     42  H   UNL     1      -3.027  -1.292  10.944  1.00  0.00     0.167 HD
ATOM     43  C   UNL     1       0.415   0.984  12.408  1.00  0.00     0.034 A 
ATOM     44  C   UNL     1      -5.760  -1.912  10.722  1.00  0.00     0.034 A 
ATOM     45  C   UNL     1      -0.730   1.507  13.111  1.00  0.00     0.049 A 
ATOM     46  C   UNL     1      -5.656  -0.826  11.756  1.00  0.00     0.074 A 
ATOM     47  C   UNL     1      -0.773   2.534  14.037  1.00  0.00     0.029 A 
ATOM     48  N   UNL     1      -2.033   1.057  12.954  1.00  0.00    -0.354 N 
ATOM     49  N   UNL     1      -4.585  -0.194  12.175  1.00  0.00    -0.248 NA
ATOM     50  C   UNL     1      -6.901  -0.409  12.414  1.00  0.00     0.031 C 
ATOM     51  C   UNL     1      -2.091   2.668  14.482  1.00  0.00     0.029 A 
ATOM     52  C   UNL     1      -2.883   1.771  13.782  1.00  0.00     0.049 A 
ATOM     53  H   UNL     1      -2.313   0.336  12.344  1.00  0.00     0.167 HD
ATOM     54  C   UNL     1      -5.030   0.707  13.135  1.00  0.00     0.074 A 
ATOM     55  C   UNL     1      -6.466   0.541  13.232  1.00  0.00     0.031 C 
ATOM     56  C   UNL     1      -4.311   1.592  13.867  1.00  0.00     0.034 A 
BRANCH  43  57
ATOM     57  C   UNL     1       1.766   1.586  12.703  1.00  0.00     0.023 A 
ATOM     58  C   UNL     1       2.468   2.339  11.748  1.00  0.00     0.031 A 
ATOM     59  C   UNL     1       2.345   1.428  13.976  1.00  0.00     0.131 A 
ATOM     60  C   UNL     1       3.727   2.872  12.066  1.00  0.00     0.055 A 
ATOM     61  C   UNL     1       3.567   2.016  14.308  1.00  0.00     0.041 A 
ATOM     62  F   UNL     1       1.726   0.704  14.922  1.00  0.00    -0.206 F 
ATOM     63  C   UNL     1       4.269   2.737  13.347  1.00  0.00     0.022 A 
BRANCH  60  64
ATOM     64  S   UNL     1       4.688   3.677  10.757  1.00  0.00     0.124 S 
ATOM     65  O   UNL     1       4.916   2.567   9.835  1.00  0.00    -0.237 OA
ATOM     66  O   UNL     1       3.780   4.718  10.290  1.00  0.00    -0.237 OA
ATOM     67  O   UNL     1       5.881   4.157  11.452  1.00  0.00    -0.744 OA
ENDBRANCH  60  64
ENDBRANCH  43  57
BRANCH  44  68
ATOM     68  C   UNL     1      -7.077  -2.501  10.347  1.00  0.00     0.023 A 
ATOM     69  C   UNL     1      -8.043  -1.739   9.671  1.00  0.00     0.031 A 
ATOM     70  C   UNL     1      -7.383  -3.843  10.641  1.00  0.00     0.131 A 
ATOM     71  C   UNL     1      -9.273  -2.321   9.322  1.00  0.00     0.055 A 
ATOM     72  C   UNL     1      -8.586  -4.430  10.248  1.00  0.00     0.041 A 
ATOM     73  F   UNL     1      -6.495  -4.616  11.285  1.00  0.00    -0.206 F 
ATOM     74  C   UNL     1      -9.543  -3.666   9.589  1.00  0.00     0.022 A 
BRANCH  71  75
ATOM     75  S   UNL     1     -10.539  -1.284   8.541  1.00  0.00     0.124 S 
ATOM     76  O   UNL     1     -10.799  -0.299   9.585  1.00  0.00    -0.237 OA
ATOM     77  O   UNL     1      -9.846  -0.795   7.354  1.00  0.00    -0.237 OA
ATOM     78  O   UNL     1     -11.632  -2.219   8.280  1.00  0.00    -0.744 OA
ENDBRANCH  71  75
ENDBRANCH  44  68
BRANCH  56  79
ATOM     79  C   UNL     1      -5.060   2.484  14.816  1.00  0.00     0.023 A 
ATOM     80  C   UNL     1      -5.558   1.999  16.036  1.00  0.00     0.031 A 
ATOM     81  C   UNL     1      -5.193   3.854  14.534  1.00  0.00     0.131 A 
ATOM     82  C   UNL     1      -6.177   2.883  16.931  1.00  0.00     0.055 A 
ATOM     83  C   UNL     1      -5.774   4.735  15.445  1.00  0.00     0.041 A 
ATOM     84  F   UNL     1      -4.726   4.361  13.381  1.00  0.00    -0.206 F 
ATOM     85  C   UNL     1      -6.269   4.250  16.652  1.00  0.00     0.022 A 
BRANCH  82  86
ATOM     86  S   UNL     1      -6.860   2.225  18.477  1.00  0.00     0.124 S 
ATOM     87  O   UNL     1      -7.970   1.410  17.993  1.00  0.00    -0.237 OA
ATOM     88  O   UNL     1      -5.729   1.493  19.039  1.00  0.00    -0.237 OA
ATOM     89  O   UNL     1      -7.247   3.424  19.218  1.00  0.00    -0.744 OA
ENDBRANCH  82  86
ENDBRANCH  56  79
ENDBRANCH  30  31
ENDBRANCH  23  25
ENDBRANCH  22  23
ENDBRANCH   1  22
TORSDOF 15
