REMARK SMILES C[C@](NC(=O)CSc1cccs1)(C(=O)OCCOC(=O)c1ccc(-c2c3nc(c(-c4cc(S(=O)(=O)[O-])ccc4F)c4ccc([nH]4)c(-c4cc(S(=O)(=O)[O-])ccc4F)c4nc(c(-c5cc(S(=O)(=O)[O-])ccc5F)c5ccc2[nH]5)C=C4)C=C3)cc1)C1CC1
REMARK SMILES IDX 16 1 15 2 13 3 14 4 2 5 1 6 84 7 85 8 86 9 3 10 4 11 5 13
REMARK SMILES IDX 6 14 7 15 8 16 9 17 12 18 10 19 11 20 17 21 18 22 19 23
REMARK SMILES IDX 20 24 21 25 22 26 83 27 23 28 82 29 24 30 25 31 26 32 76 33
REMARK SMILES IDX 27 34 81 35 75 36 77 37 28 38 80 39 74 40 73 41 29 43 61 44
REMARK SMILES IDX 41 45 60 46 42 47 45 48 59 49 78 50 43 51 44 52 58 54 79 55
REMARK SMILES IDX 46 56 30 57 31 58 39 59 32 60 38 61 40 62 37 63 33 64 34 65
REMARK SMILES IDX 35 66 36 67 62 68 63 69 71 70 64 71 70 72 72 73 69 74 65 75
REMARK SMILES IDX 66 76 67 77 68 78 47 79 48 80 56 81 49 82 55 83 57 84 54 85
REMARK SMILES IDX 50 86 51 87 52 88 53 89
REMARK H PARENT 3 12 77 42 45 53
REMARK Flexibility Score: inf
ROOT
ATOM      1  C   UNL     1      -2.712   1.329   0.268  1.00  0.00     0.274 C 
ENDROOT
BRANCH   1   2
ATOM      2  O   UNL     1      -1.284   1.169   0.146  1.00  0.00    -0.460 OA
BRANCH   2   3
ATOM      3  C   UNL     1      -0.519   1.585   1.199  1.00  0.00     0.331 C 
ATOM      4  O   UNL     1      -0.974   2.056   2.236  1.00  0.00    -0.249 OA
BRANCH   3   5
ATOM      5  C   UNL     1       1.017   1.401   0.929  1.00  0.00     0.138 C 
ATOM      6  C   UNL     1       1.635   2.788   1.148  1.00  0.00     0.048 C 
BRANCH   5   7
ATOM      7  C   UNL     1       1.632   0.466   1.980  1.00  0.00     0.026 C 
ATOM      8  C   UNL     1       1.933  -1.007   1.770  1.00  0.00     0.007 C 
ATOM      9  C   UNL     1       3.061  -0.018   1.841  1.00  0.00     0.007 C 
ENDBRANCH   5   7
BRANCH   5  10
ATOM     10  N   UNL     1       1.192   0.785  -0.404  1.00  0.00    -0.340 N 
ATOM     11  C   UNL     1       1.675   1.130  -1.616  1.00  0.00     0.231 C 
ATOM     12  H   UNL     1       0.861  -0.142  -0.409  1.00  0.00     0.164 HD
ATOM     13  O   UNL     1       1.484   0.322  -2.534  1.00  0.00    -0.274 OA
BRANCH  11  14
ATOM     14  C   UNL     1       2.475   2.382  -1.880  1.00  0.00     0.175 C 
BRANCH  14  15
ATOM     15  S   UNL     1       1.460   3.853  -2.168  1.00  0.00    -0.105 SA
BRANCH  15  16
ATOM     16  C   UNL     1       0.220   3.297  -3.272  1.00  0.00     0.060 A 
ATOM     17  C   UNL     1       0.388   2.565  -4.427  1.00  0.00     0.027 A 
ATOM     18  S   UNL     1      -1.427   3.683  -3.004  1.00  0.00    -0.137 S 
ATOM     19  C   UNL     1      -0.851   2.290  -5.078  1.00  0.00     0.013 A 
ATOM     20  C   UNL     1      -1.919   2.841  -4.407  1.00  0.00     0.066 A 
ENDBRANCH  15  16
ENDBRANCH  14  15
ENDBRANCH  11  14
ENDBRANCH   5  10
ENDBRANCH   3   5
ENDBRANCH   2   3
ENDBRANCH   1   2
BRANCH   1  21
ATOM     21  C   UNL     1      -3.375  -0.026   0.490  1.00  0.00     0.275 C 
BRANCH  21  22
ATOM     22  O   UNL     1      -2.959  -0.529   1.769  1.00  0.00    -0.458 OA
BRANCH  22  23
ATOM     23  C   UNL     1      -2.530  -1.811   1.793  1.00  0.00     0.338 C 
ATOM     24  O   UNL     1      -2.568  -2.620   0.883  1.00  0.00    -0.246 OA
BRANCH  23  25
ATOM     25  C   UNL     1      -1.952  -2.096   3.119  1.00  0.00     0.060 A 
ATOM     26  C   UNL     1      -0.978  -1.245   3.637  1.00  0.00     0.016 A 
ATOM     27  C   UNL     1      -2.281  -3.269   3.795  1.00  0.00     0.016 A 
ATOM     28  C   UNL     1      -0.253  -1.615   4.766  1.00  0.00     0.010 A 
ATOM     29  C   UNL     1      -1.622  -3.587   4.989  1.00  0.00     0.010 A 
ATOM     30  C   UNL     1      -0.562  -2.791   5.463  1.00  0.00    -0.014 A 
BRANCH  30  31
ATOM     31  C   UNL     1       0.286  -3.224   6.614  1.00  0.00     0.031 A 
ATOM     32  C   UNL     1       0.972  -4.568   6.578  1.00  0.00     0.074 A 
ATOM     33  C   UNL     1       0.499  -2.405   7.665  1.00  0.00     0.049 A 
ATOM     34  N   UNL     1       1.603  -5.205   7.533  1.00  0.00    -0.248 NA
ATOM     35  C   UNL     1       0.921  -5.302   5.305  1.00  0.00     0.031 C 
ATOM     36  C   UNL     1      -0.057  -1.059   7.820  1.00  0.00     0.029 A 
ATOM     37  N   UNL     1       1.264  -2.575   8.794  1.00  0.00    -0.354 N 
ATOM     38  C   UNL     1       1.957  -6.441   7.000  1.00  0.00     0.074 A 
ATOM     39  C   UNL     1       1.469  -6.462   5.637  1.00  0.00     0.031 C 
ATOM     40  C   UNL     1       0.434  -0.505   8.939  1.00  0.00     0.029 A 
ATOM     41  C   UNL     1       1.263  -1.484   9.632  1.00  0.00     0.049 A 
ATOM     42  H   UNL     1       1.765  -3.400   8.985  1.00  0.00     0.167 HD
ATOM     43  C   UNL     1       2.623  -7.464   7.593  1.00  0.00     0.034 A 
ATOM     44  C   UNL     1       1.834  -1.300  10.840  1.00  0.00     0.034 A 
ATOM     45  C   UNL     1       3.162  -7.406   8.930  1.00  0.00     0.049 A 
ATOM     46  C   UNL     1       2.603  -2.434  11.463  1.00  0.00     0.074 A 
ATOM     47  C   UNL     1       3.817  -8.395   9.646  1.00  0.00     0.029 A 
ATOM     48  N   UNL     1       3.138  -6.282   9.745  1.00  0.00    -0.354 N 
ATOM     49  N   UNL     1       2.812  -3.643  10.996  1.00  0.00    -0.248 NA
ATOM     50  C   UNL     1       3.196  -2.184  12.783  1.00  0.00     0.031 C 
ATOM     51  C   UNL     1       4.162  -7.878  10.901  1.00  0.00     0.029 A 
ATOM     52  C   UNL     1       3.770  -6.551  10.950  1.00  0.00     0.049 A 
ATOM     53  H   UNL     1       2.730  -5.419   9.503  1.00  0.00     0.167 HD
ATOM     54  C   UNL     1       3.549  -4.302  11.975  1.00  0.00     0.074 A 
ATOM     55  C   UNL     1       3.787  -3.343  13.034  1.00  0.00     0.031 C 
ATOM     56  C   UNL     1       3.974  -5.590  12.006  1.00  0.00     0.034 A 
BRANCH  43  57
ATOM     57  C   UNL     1       2.741  -8.753   6.816  1.00  0.00     0.023 A 
ATOM     58  C   UNL     1       3.507  -8.852   5.642  1.00  0.00     0.031 A 
ATOM     59  C   UNL     1       2.034  -9.893   7.239  1.00  0.00     0.131 A 
ATOM     60  C   UNL     1       3.492 -10.041   4.896  1.00  0.00     0.055 A 
ATOM     61  C   UNL     1       2.083 -11.096   6.533  1.00  0.00     0.041 A 
ATOM     62  F   UNL     1       1.268  -9.851   8.341  1.00  0.00    -0.206 F 
ATOM     63  C   UNL     1       2.804 -11.171   5.346  1.00  0.00     0.022 A 
BRANCH  60  64
ATOM     64  S   UNL     1       4.274 -10.050   3.260  1.00  0.00     0.124 S 
ATOM     65  O   UNL     1       3.504  -9.024   2.560  1.00  0.00    -0.237 OA
ATOM     66  O   UNL     1       5.658  -9.710   3.569  1.00  0.00    -0.237 OA
ATOM     67  O   UNL     1       4.059 -11.415   2.784  1.00  0.00    -0.744 OA
ENDBRANCH  60  64
ENDBRANCH  43  57
BRANCH  44  68
ATOM     68  C   UNL     1       1.643  -0.018  11.576  1.00  0.00     0.023 A 
ATOM     69  C   UNL     1       2.725   0.834  11.849  1.00  0.00     0.031 A 
ATOM     70  C   UNL     1       0.373   0.356  12.050  1.00  0.00     0.131 A 
ATOM     71  C   UNL     1       2.523   2.000  12.604  1.00  0.00     0.055 A 
ATOM     72  C   UNL     1       0.168   1.541  12.757  1.00  0.00     0.041 A 
ATOM     73  F   UNL     1      -0.695  -0.423  11.816  1.00  0.00    -0.206 F 
ATOM     74  C   UNL     1       1.250   2.366  13.048  1.00  0.00     0.022 A 
BRANCH  71  75
ATOM     75  S   UNL     1       3.965   3.000  13.065  1.00  0.00     0.124 S 
ATOM     76  O   UNL     1       4.784   2.030  13.784  1.00  0.00    -0.237 OA
ATOM     77  O   UNL     1       4.468   3.422  11.762  1.00  0.00    -0.237 OA
ATOM     78  O   UNL     1       3.393   4.065  13.885  1.00  0.00    -0.744 OA
ENDBRANCH  71  75
ENDBRANCH  44  68
BRANCH  56  79
ATOM     79  C   UNL     1       4.745  -6.013  13.228  1.00  0.00     0.023 A 
ATOM     80  C   UNL     1       4.116  -6.142  14.479  1.00  0.00     0.031 A 
ATOM     81  C   UNL     1       6.128  -6.249  13.150  1.00  0.00     0.131 A 
ATOM     82  C   UNL     1       4.880  -6.441  15.616  1.00  0.00     0.055 A 
ATOM     83  C   UNL     1       6.875  -6.591  14.278  1.00  0.00     0.041 A 
ATOM     84  F   UNL     1       6.775  -6.137  11.979  1.00  0.00    -0.206 F 
ATOM     85  C   UNL     1       6.254  -6.676  15.522  1.00  0.00     0.022 A 
BRANCH  82  86
ATOM     86  S   UNL     1       4.068  -6.428  17.238  1.00  0.00     0.124 S 
ATOM     87  O   UNL     1       3.501  -5.084  17.285  1.00  0.00    -0.237 OA
ATOM     88  O   UNL     1       3.110  -7.521  17.116  1.00  0.00    -0.237 OA
ATOM     89  O   UNL     1       5.166  -6.669  18.173  1.00  0.00    -0.744 OA
ENDBRANCH  82  86
ENDBRANCH  56  79
ENDBRANCH  30  31
ENDBRANCH  23  25
ENDBRANCH  22  23
ENDBRANCH  21  22
ENDBRANCH   1  21
TORSDOF 19
