REMARK SMILES C[C@]12C(=O)N(c3ccc(C(=O)OCCOC(=O)c4ccc(-c5c6nc(c(-c7cc(S(=O)(=O)[O-])ccc7F)c7ccc([nH]7)c(-c7cc(S(=O)(=O)[O-])ccc7F)c7nc(c(-c8cc(S(=O)(=O)[O-])ccc8F)c8ccc5[nH]8)C=C7)C=C6)cc4)cc3)C(=O)[C@H]1[C@H]1c3ccccc3[C@@H]2c2ccccc21
REMARK SMILES IDX 14 1 13 2 12 3 10 4 11 5 9 6 6 7 7 8 82 9 8 10 81 11 5 12
REMARK SMILES IDX 1 13 2 14 3 15 85 16 93 17 4 18 83 19 86 20 92 21 94 22
REMARK SMILES IDX 84 23 87 24 99 25 91 26 95 27 88 28 98 29 90 30 96 31 89 32
REMARK SMILES IDX 97 33 15 34 16 35 17 36 18 37 19 38 80 39 20 40 79 41 21 42
REMARK SMILES IDX 22 43 23 44 73 45 24 46 78 47 72 48 74 49 25 50 77 51 71 52
REMARK SMILES IDX 70 53 26 55 58 56 38 57 57 58 39 59 42 60 56 61 75 62 40 63
REMARK SMILES IDX 41 64 55 66 76 67 43 68 27 69 28 70 36 71 29 72 35 73 37 74
REMARK SMILES IDX 34 75 30 76 31 77 32 78 33 79 59 80 60 81 68 82 61 83 67 84
REMARK SMILES IDX 69 85 66 86 62 87 63 88 64 89 65 90 44 91 45 92 53 93 46 94
REMARK SMILES IDX 52 95 54 96 51 97 47 98 48 99 49 100 50 101
REMARK H PARENT 74 54 42 65
REMARK Flexibility Score: inf
ROOT
ATOM      1  C   UNL     1       1.904   7.302  -9.021  1.00  0.00     0.275 C 
ENDROOT
BRANCH   1   2
ATOM      2  C   UNL     1       0.566   6.559  -9.066  1.00  0.00     0.275 C 
BRANCH   2   3
ATOM      3  O   UNL     1       0.240   5.981  -7.782  1.00  0.00    -0.458 OA
BRANCH   3   4
ATOM      4  C   UNL     1       0.388   4.640  -7.693  1.00  0.00     0.338 C 
ATOM      5  O   UNL     1       0.698   3.880  -8.599  1.00  0.00    -0.246 OA
BRANCH   4   6
ATOM      6  C   UNL     1       0.285   4.190  -6.288  1.00  0.00     0.060 A 
ATOM      7  C   UNL     1       0.218   3.086  -3.669  1.00  0.00     0.052 A 
ATOM      8  C   UNL     1       1.309   2.893  -4.533  1.00  0.00     0.028 A 
ATOM      9  C   UNL     1      -0.842   3.870  -4.146  1.00  0.00     0.028 A 
ATOM     10  C   UNL     1       1.318   3.393  -5.825  1.00  0.00     0.018 A 
ATOM     11  C   UNL     1      -0.798   4.447  -5.441  1.00  0.00     0.018 A 
BRANCH   7  12
ATOM     12  N   UNL     1       0.167   2.297  -2.470  1.00  0.00    -0.250 N 
ATOM     13  C   UNL     1       1.011   0.115  -0.155  1.00  0.00     0.024 C 
ATOM     14  C   UNL     1       0.744   0.172  -1.673  1.00  0.00     0.071 C 
ATOM     15  C   UNL     1       1.253   1.507  -2.126  1.00  0.00     0.241 C 
ATOM     16  C   UNL     1      -0.763   0.255  -2.018  1.00  0.00     0.107 C 
ATOM     17  C   UNL     1       1.364  -1.013  -2.489  1.00  0.00     0.066 C 
ATOM     18  O   UNL     1       2.437   1.813  -2.108  1.00  0.00    -0.273 OA
ATOM     19  C   UNL     1      -1.026   1.750  -1.952  1.00  0.00     0.238 C 
ATOM     20  C   UNL     1      -1.296  -1.155  -2.475  1.00  0.00     0.063 C 
ATOM     21  C   UNL     1       0.744  -1.046  -3.906  1.00  0.00    -0.036 A 
ATOM     22  C   UNL     1       0.825  -2.263  -1.800  1.00  0.00    -0.036 A 
ATOM     23  O   UNL     1      -2.073   2.297  -1.653  1.00  0.00    -0.274 OA
ATOM     24  C   UNL     1      -0.681  -1.240  -3.920  1.00  0.00    -0.036 A 
ATOM     25  C   UNL     1      -0.598  -2.313  -1.738  1.00  0.00    -0.036 A 
ATOM     26  C   UNL     1       1.418  -0.768  -5.084  1.00  0.00     0.005 A 
ATOM     27  C   UNL     1       1.617  -3.312  -1.352  1.00  0.00     0.005 A 
ATOM     28  C   UNL     1      -1.411  -1.132  -5.096  1.00  0.00     0.004 A 
ATOM     29  C   UNL     1      -1.214  -3.451  -1.233  1.00  0.00     0.004 A 
ATOM     30  C   UNL     1       0.676  -0.655  -6.264  1.00  0.00     0.000 A 
ATOM     31  C   UNL     1       0.988  -4.442  -0.841  1.00  0.00     0.000 A 
ATOM     32  C   UNL     1      -0.719  -0.833  -6.270  1.00  0.00     0.000 A 
ATOM     33  C   UNL     1      -0.413  -4.511  -0.783  1.00  0.00     0.000 A 
ENDBRANCH   7  12
ENDBRANCH   4   6
ENDBRANCH   3   4
ENDBRANCH   2   3
ENDBRANCH   1   2
BRANCH   1  34
ATOM     34  O   UNL     1       3.009   6.381  -9.076  1.00  0.00    -0.458 OA
BRANCH  34  35
ATOM     35  C   UNL     1       3.593   6.107  -7.888  1.00  0.00     0.338 C 
ATOM     36  O   UNL     1       3.297   6.560  -6.797  1.00  0.00    -0.246 OA
BRANCH  35  37
ATOM     37  C   UNL     1       4.634   5.087  -8.083  1.00  0.00     0.060 A 
ATOM     38  C   UNL     1       5.976   5.432  -8.210  1.00  0.00     0.016 A 
ATOM     39  C   UNL     1       4.260   3.748  -8.014  1.00  0.00     0.016 A 
ATOM     40  C   UNL     1       6.938   4.415  -8.272  1.00  0.00     0.010 A 
ATOM     41  C   UNL     1       5.226   2.750  -7.931  1.00  0.00     0.010 A 
ATOM     42  C   UNL     1       6.580   3.062  -8.099  1.00  0.00    -0.014 A 
BRANCH  42  43
ATOM     43  C   UNL     1       7.603   1.974  -8.104  1.00  0.00     0.031 A 
ATOM     44  C   UNL     1       7.506   0.827  -9.085  1.00  0.00     0.074 A 
ATOM     45  C   UNL     1       8.602   1.990  -7.198  1.00  0.00     0.049 A 
ATOM     46  N   UNL     1       8.310  -0.194  -9.237  1.00  0.00    -0.248 NA
ATOM     47  C   UNL     1       6.343   0.799  -9.989  1.00  0.00     0.031 C 
ATOM     48  C   UNL     1       8.753   2.983  -6.133  1.00  0.00     0.029 A 
ATOM     49  N   UNL     1       9.680   1.155  -7.021  1.00  0.00    -0.354 N 
ATOM     50  C   UNL     1       7.745  -0.984 -10.234  1.00  0.00     0.074 A 
ATOM     51  C   UNL     1       6.494  -0.366 -10.602  1.00  0.00     0.031 C 
ATOM     52  C   UNL     1       9.881   2.733  -5.452  1.00  0.00     0.029 A 
ATOM     53  C   UNL     1      10.517   1.536  -5.996  1.00  0.00     0.049 A 
ATOM     54  H   UNL     1       9.839   0.358  -7.577  1.00  0.00     0.167 HD
ATOM     55  C   UNL     1       8.243  -2.097 -10.822  1.00  0.00     0.034 A 
ATOM     56  C   UNL     1      11.669   0.994  -5.545  1.00  0.00     0.034 A 
ATOM     57  C   UNL     1       9.521  -2.672 -10.490  1.00  0.00     0.049 A 
ATOM     58  C   UNL     1      12.234  -0.211  -6.256  1.00  0.00     0.074 A 
ATOM     59  C   UNL     1      10.152  -3.746 -11.091  1.00  0.00     0.029 A 
ATOM     60  N   UNL     1      10.364  -2.221  -9.486  1.00  0.00    -0.354 N 
ATOM     61  N   UNL     1      11.744  -0.867  -7.282  1.00  0.00    -0.248 NA
ATOM     62  C   UNL     1      13.516  -0.743  -5.769  1.00  0.00     0.031 C 
ATOM     63  C   UNL     1      11.346  -3.984 -10.414  1.00  0.00     0.029 A 
ATOM     64  C   UNL     1      11.501  -3.010  -9.440  1.00  0.00     0.049 A 
ATOM     65  H   UNL     1      10.182  -1.455  -8.896  1.00  0.00     0.167 HD
ATOM     66  C   UNL     1      12.666  -1.867  -7.577  1.00  0.00     0.074 A 
ATOM     67  C   UNL     1      13.760  -1.712  -6.643  1.00  0.00     0.031 C 
ATOM     68  C   UNL     1      12.605  -2.831  -8.530  1.00  0.00     0.034 A 
BRANCH  55  69
ATOM     69  C   UNL     1       7.463  -2.755 -11.935  1.00  0.00     0.023 A 
ATOM     70  C   UNL     1       7.046  -4.094 -11.808  1.00  0.00     0.031 A 
ATOM     71  C   UNL     1       7.293  -2.121 -13.180  1.00  0.00     0.131 A 
ATOM     72  C   UNL     1       6.532  -4.771 -12.922  1.00  0.00     0.055 A 
ATOM     73  C   UNL     1       6.734  -2.785 -14.272  1.00  0.00     0.041 A 
ATOM     74  F   UNL     1       7.679  -0.847 -13.355  1.00  0.00    -0.206 F 
ATOM     75  C   UNL     1       6.367  -4.122 -14.150  1.00  0.00     0.022 A 
BRANCH  72  76
ATOM     76  S   UNL     1       6.137  -6.540 -12.845  1.00  0.00     0.124 S 
ATOM     77  O   UNL     1       4.745  -6.557 -13.292  1.00  0.00    -0.237 OA
ATOM     78  O   UNL     1       7.100  -7.107 -13.784  1.00  0.00    -0.237 OA
ATOM     79  O   UNL     1       6.340  -6.884 -11.442  1.00  0.00    -0.744 OA
ENDBRANCH  72  76
ENDBRANCH  55  69
BRANCH  56  80
ATOM     80  C   UNL     1      12.390   1.647  -4.410  1.00  0.00     0.023 A 
ATOM     81  C   UNL     1      11.790   1.770  -3.143  1.00  0.00     0.031 A 
ATOM     82  C   UNL     1      13.649   2.243  -4.601  1.00  0.00     0.131 A 
ATOM     83  C   UNL     1      12.420   2.522  -2.141  1.00  0.00     0.055 A 
ATOM     84  C   UNL     1      14.307   2.928  -3.577  1.00  0.00     0.041 A 
ATOM     85  F   UNL     1      14.258   2.171  -5.795  1.00  0.00    -0.206 F 
ATOM     86  C   UNL     1      13.683   3.086  -2.344  1.00  0.00     0.022 A 
BRANCH  83  87
ATOM     87  S   UNL     1      11.558   2.916  -0.593  1.00  0.00     0.124 S 
ATOM     88  O   UNL     1      12.397   2.251   0.399  1.00  0.00    -0.237 OA
ATOM     89  O   UNL     1      11.608   4.376  -0.586  1.00  0.00    -0.237 OA
ATOM     90  O   UNL     1      10.230   2.343  -0.785  1.00  0.00    -0.744 OA
ENDBRANCH  83  87
ENDBRANCH  56  80
BRANCH  68  91
ATOM     91  C   UNL     1      13.748  -3.811  -8.655  1.00  0.00     0.023 A 
ATOM     92  C   UNL     1      14.477  -3.885  -9.859  1.00  0.00     0.031 A 
ATOM     93  C   UNL     1      13.990  -4.782  -7.670  1.00  0.00     0.131 A 
ATOM     94  C   UNL     1      15.375  -4.939 -10.066  1.00  0.00     0.055 A 
ATOM     95  C   UNL     1      14.926  -5.800  -7.859  1.00  0.00     0.041 A 
ATOM     96  F   UNL     1      13.310  -4.764  -6.512  1.00  0.00    -0.206 F 
ATOM     97  C   UNL     1      15.610  -5.892  -9.069  1.00  0.00     0.022 A 
BRANCH  94  98
ATOM     98  S   UNL     1      16.189  -5.175 -11.670  1.00  0.00     0.124 S 
ATOM     99  O   UNL     1      17.601  -5.063 -11.311  1.00  0.00    -0.237 OA
ATOM    100  O   UNL     1      15.746  -6.515 -12.046  1.00  0.00    -0.237 OA
ATOM    101  O   UNL     1      15.669  -4.088 -12.493  1.00  0.00    -0.744 OA
ENDBRANCH  94  98
ENDBRANCH  68  91
ENDBRANCH  42  43
ENDBRANCH  35  37
ENDBRANCH  34  35
ENDBRANCH   1  34
TORSDOF 15
