REMARK SMILES COc1ccc2c(c1)c(CC(=O)OCCOC(=O)c1ccc(-c3c4nc(c(-c5cc(S(=O)(=O)[O-])ccc5F)c5ccc([nH]5)c(-c5cc(S(=O)(=O)[O-])ccc5F)c5nc(c(-c6cc(S(=O)(=O)[O-])ccc6F)c6ccc3[nH]6)C=C5)C=C4)cc1)c(C)n2Cc1ccc(Br)cc1
REMARK SMILES IDX 14 1 13 2 11 3 12 4 10 5 9 6 3 7 4 8 8 9 5 10 7 11 6 12
REMARK SMILES IDX 84 13 82 14 83 15 2 16 1 17 85 18 86 19 87 20 92 21 88 22
REMARK SMILES IDX 91 23 89 24 90 25 15 26 16 27 17 28 18 29 19 30 20 31 81 32
REMARK SMILES IDX 21 33 80 34 22 35 23 36 24 37 74 38 25 39 79 40 73 41 75 42
REMARK SMILES IDX 26 43 78 44 72 45 71 46 27 48 59 49 39 50 58 51 40 52 43 53
REMARK SMILES IDX 57 54 76 55 41 56 42 57 56 59 77 60 44 61 28 62 29 63 37 64
REMARK SMILES IDX 30 65 36 66 38 67 35 68 31 69 32 70 33 71 34 72 60 73 61 74
REMARK SMILES IDX 69 75 62 76 68 77 70 78 67 79 63 80 64 81 65 82 66 83 45 84
REMARK SMILES IDX 46 85 54 86 47 87 53 88 55 89 52 90 48 91 49 92 50 93 51 94
REMARK H PARENT 75 47 43 58
REMARK Flexibility Score: inf
ROOT
ATOM      1  C   UNL     1      -1.508   4.066   5.556  1.00  0.00     0.274 C 
ENDROOT
BRANCH   1   2
ATOM      2  O   UNL     1      -1.004   2.749   5.865  1.00  0.00    -0.462 OA
BRANCH   2   3
ATOM      3  C   UNL     1      -1.891   1.918   6.468  1.00  0.00     0.310 C 
ATOM      4  O   UNL     1      -3.028   2.254   6.791  1.00  0.00    -0.252 OA
BRANCH   3   5
ATOM      5  C   UNL     1      -1.365   0.556   6.815  1.00  0.00     0.160 C 
BRANCH   5   6
ATOM      6  C   UNL     1      -0.015   0.084   6.363  1.00  0.00    -0.008 A 
ATOM      7  C   UNL     1       1.289   0.286   2.728  1.00  0.00     0.119 A 
ATOM      8  C   UNL     1       2.561  -0.193   3.006  1.00  0.00     0.048 A 
ATOM      9  C   UNL     1       0.386   0.506   3.782  1.00  0.00     0.057 A 
ATOM     10  C   UNL     1       2.931  -0.517   4.318  1.00  0.00     0.031 A 
ATOM     11  C   UNL     1       0.689   0.117   5.108  1.00  0.00     0.007 A 
ATOM     12  C   UNL     1       1.969  -0.408   5.340  1.00  0.00     0.049 A 
ATOM     13  N   UNL     1       2.014  -0.738   6.683  1.00  0.00    -0.340 N 
ATOM     14  C   UNL     1       0.724  -0.789   7.154  1.00  0.00     0.020 A 
ATOM     15  C   UNL     1       0.251  -1.596   8.318  1.00  0.00     0.065 C 
BRANCH   7  16
ATOM     16  O   UNL     1       0.840   0.622   1.478  1.00  0.00    -0.497 OA
ATOM     17  C   UNL     1       1.363  -0.133   0.388  1.00  0.00     0.278 C 
ENDBRANCH   7  16
BRANCH  13  18
ATOM     18  C   UNL     1       3.211  -1.043   7.461  1.00  0.00     0.157 C 
BRANCH  18  19
ATOM     19  C   UNL     1       3.552   0.078   8.431  1.00  0.00    -0.028 A 
ATOM     20  C   UNL     1       2.730   0.370   9.533  1.00  0.00     0.007 A 
ATOM     21  C   UNL     1       4.705   0.855   8.250  1.00  0.00     0.007 A 
ATOM     22  C   UNL     1       3.012   1.426  10.400  1.00  0.00     0.016 A 
ATOM     23  C   UNL     1       5.010   1.897   9.135  1.00  0.00     0.016 A 
ATOM     24  C   UNL     1       4.156   2.185  10.198  1.00  0.00     0.017 A 
ATOM     25  Br  UNL     1       4.553   3.607  11.378  1.00  0.00    -0.051 Br
ENDBRANCH  18  19
ENDBRANCH  13  18
ENDBRANCH   5   6
ENDBRANCH   3   5
ENDBRANCH   2   3
ENDBRANCH   1   2
BRANCH   1  26
ATOM     26  C   UNL     1      -1.957   4.138   4.094  1.00  0.00     0.275 C 
BRANCH  26  27
ATOM     27  O   UNL     1      -3.137   3.337   3.939  1.00  0.00    -0.458 OA
BRANCH  27  28
ATOM     28  C   UNL     1      -3.041   2.241   3.148  1.00  0.00     0.338 C 
ATOM     29  O   UNL     1      -2.241   2.046   2.248  1.00  0.00    -0.246 OA
BRANCH  28  30
ATOM     30  C   UNL     1      -3.890   1.216   3.781  1.00  0.00     0.060 A 
ATOM     31  C   UNL     1      -5.189   1.538   4.168  1.00  0.00     0.016 A 
ATOM     32  C   UNL     1      -3.316  -0.005   4.156  1.00  0.00     0.016 A 
ATOM     33  C   UNL     1      -5.872   0.676   5.016  1.00  0.00     0.010 A 
ATOM     34  C   UNL     1      -3.988  -0.849   5.037  1.00  0.00     0.010 A 
ATOM     35  C   UNL     1      -5.254  -0.494   5.494  1.00  0.00    -0.014 A 
BRANCH  35  36
ATOM     36  C   UNL     1      -6.121  -1.494   6.110  1.00  0.00     0.031 A 
ATOM     37  C   UNL     1      -6.848  -2.246   5.067  1.00  0.00     0.074 A 
ATOM     38  C   UNL     1      -6.296  -1.857   7.395  1.00  0.00     0.049 A 
ATOM     39  N   UNL     1      -8.006  -1.948   4.580  1.00  0.00    -0.248 NA
ATOM     40  C   UNL     1      -6.123  -3.293   4.334  1.00  0.00     0.031 C 
ATOM     41  C   UNL     1      -5.441  -1.588   8.547  1.00  0.00     0.029 A 
ATOM     42  N   UNL     1      -7.300  -2.632   7.920  1.00  0.00    -0.354 N 
ATOM     43  C   UNL     1      -8.271  -2.958   3.670  1.00  0.00     0.074 A 
ATOM     44  C   UNL     1      -7.001  -3.569   3.369  1.00  0.00     0.031 C 
ATOM     45  C   UNL     1      -5.852  -2.354   9.591  1.00  0.00     0.029 A 
ATOM     46  C   UNL     1      -7.099  -3.020   9.235  1.00  0.00     0.049 A 
ATOM     47  H   UNL     1      -8.098  -2.890   7.405  1.00  0.00     0.167 HD
ATOM     48  C   UNL     1      -9.540  -3.432   3.532  1.00  0.00     0.034 A 
ATOM     49  C   UNL     1      -7.895  -3.834   9.973  1.00  0.00     0.034 A 
ATOM     50  C   UNL     1     -10.489  -2.578   4.201  1.00  0.00     0.049 A 
ATOM     51  C   UNL     1      -9.271  -3.813   9.429  1.00  0.00     0.074 A 
ATOM     52  C   UNL     1     -11.135  -1.385   3.965  1.00  0.00     0.029 A 
ATOM     53  N   UNL     1     -10.613  -2.843   5.537  1.00  0.00    -0.354 N 
ATOM     54  N   UNL     1     -10.072  -2.788   9.508  1.00  0.00    -0.248 NA
ATOM     55  C   UNL     1      -9.724  -4.897   8.560  1.00  0.00     0.031 C 
ATOM     56  C   UNL     1     -11.609  -0.917   5.229  1.00  0.00     0.029 A 
ATOM     57  C   UNL     1     -11.256  -1.838   6.210  1.00  0.00     0.049 A 
ATOM     58  H   UNL     1     -10.278  -3.663   5.966  1.00  0.00     0.167 HD
ATOM     59  C   UNL     1     -10.863  -2.901   8.387  1.00  0.00     0.074 A 
ATOM     60  C   UNL     1     -10.756  -4.292   7.971  1.00  0.00     0.031 C 
ATOM     61  C   UNL     1     -11.209  -1.802   7.660  1.00  0.00     0.034 A 
BRANCH  48  62
ATOM     62  C   UNL     1      -9.866  -4.886   3.256  1.00  0.00     0.023 A 
ATOM     63  C   UNL     1      -8.911  -5.918   3.292  1.00  0.00     0.031 A 
ATOM     64  C   UNL     1     -11.210  -5.304   3.181  1.00  0.00     0.131 A 
ATOM     65  C   UNL     1      -9.273  -7.269   3.232  1.00  0.00     0.055 A 
ATOM     66  C   UNL     1     -11.580  -6.655   3.193  1.00  0.00     0.041 A 
ATOM     67  F   UNL     1     -12.211  -4.410   3.148  1.00  0.00    -0.206 F 
ATOM     68  C   UNL     1     -10.609  -7.648   3.218  1.00  0.00     0.022 A 
BRANCH  65  69
ATOM     69  S   UNL     1      -7.990  -8.552   3.192  1.00  0.00     0.124 S 
ATOM     70  O   UNL     1      -8.356  -9.383   4.333  1.00  0.00    -0.237 OA
ATOM     71  O   UNL     1      -8.214  -9.145   1.876  1.00  0.00    -0.237 OA
ATOM     72  O   UNL     1      -6.747  -7.797   3.325  1.00  0.00    -0.744 OA
ENDBRANCH  65  69
ENDBRANCH  48  62
BRANCH  49  73
ATOM     73  C   UNL     1      -7.532  -4.839  10.996  1.00  0.00     0.023 A 
ATOM     74  C   UNL     1      -6.344  -5.573  10.847  1.00  0.00     0.031 A 
ATOM     75  C   UNL     1      -8.498  -5.337  11.893  1.00  0.00     0.131 A 
ATOM     76  C   UNL     1      -6.186  -6.797  11.515  1.00  0.00     0.055 A 
ATOM     77  C   UNL     1      -8.331  -6.550  12.567  1.00  0.00     0.041 A 
ATOM     78  F   UNL     1      -9.664  -4.695  12.066  1.00  0.00    -0.206 F 
ATOM     79  C   UNL     1      -7.177  -7.297  12.364  1.00  0.00     0.022 A 
BRANCH  76  80
ATOM     80  S   UNL     1      -4.715  -7.817  11.226  1.00  0.00     0.124 S 
ATOM     81  O   UNL     1      -4.336  -8.206  12.582  1.00  0.00    -0.237 OA
ATOM     82  O   UNL     1      -5.253  -8.886  10.394  1.00  0.00    -0.237 OA
ATOM     83  O   UNL     1      -3.789  -6.899  10.569  1.00  0.00    -0.744 OA
ENDBRANCH  76  80
ENDBRANCH  49  73
BRANCH  61  84
ATOM     84  C   UNL     1     -11.385  -0.489   8.365  1.00  0.00     0.023 A 
ATOM     85  C   UNL     1     -12.622   0.156   8.185  1.00  0.00     0.031 A 
ATOM     86  C   UNL     1     -10.403   0.182   9.113  1.00  0.00     0.131 A 
ATOM     87  C   UNL     1     -12.842   1.434   8.704  1.00  0.00     0.055 A 
ATOM     88  C   UNL     1     -10.651   1.433   9.692  1.00  0.00     0.041 A 
ATOM     89  F   UNL     1      -9.166  -0.317   9.259  1.00  0.00    -0.206 F 
ATOM     90  C   UNL     1     -11.870   2.072   9.476  1.00  0.00     0.022 A 
BRANCH  87  91
ATOM     91  S   UNL     1     -14.350   2.341   8.277  1.00  0.00     0.124 S 
ATOM     92  O   UNL     1     -15.020   2.457   9.569  1.00  0.00    -0.237 OA
ATOM     93  O   UNL     1     -13.819   3.589   7.732  1.00  0.00    -0.237 OA
ATOM     94  O   UNL     1     -15.017   1.480   7.303  1.00  0.00    -0.744 OA
ENDBRANCH  87  91
ENDBRANCH  61  84
ENDBRANCH  35  36
ENDBRANCH  28  30
ENDBRANCH  27  28
ENDBRANCH  26  27
ENDBRANCH   1  26
TORSDOF 18
