REMARK SMILES C[C@H](NC(=O)N[C@H]1CCCC1(C)C)c1nc(C(=O)OCCOC(=O)c2ccc(-c3c4nc(c(-c5cc(S(=O)(=O)[O-])ccc5F)c5ccc([nH]5)c(-c5cc(S(=O)(=O)[O-])ccc5F)c5nc(c(-c6cc(S(=O)(=O)[O-])ccc6F)c6ccc3[nH]6)C=C5)C=C4)cc2)cs1
REMARK SMILES IDX 20 1 19 2 17 3 18 4 16 5 14 6 15 7 89 8 88 9 2 10 1 11 3 12
REMARK SMILES IDX 4 13 5 15 6 16 7 18 8 19 11 20 9 21 10 22 12 23 13 24 21 25
REMARK SMILES IDX 22 26 23 27 24 28 25 29 26 30 87 31 27 32 86 33 28 34 29 35
REMARK SMILES IDX 30 36 80 37 31 38 85 39 79 40 81 41 32 42 84 43 78 44 77 45
REMARK SMILES IDX 33 47 65 48 45 49 64 50 46 51 49 52 63 53 82 54 47 55 48 56
REMARK SMILES IDX 62 58 83 59 50 60 34 61 35 62 43 63 36 64 42 65 44 66 41 67
REMARK SMILES IDX 37 68 38 69 39 70 40 71 66 72 67 73 75 74 68 75 74 76 76 77
REMARK SMILES IDX 73 78 69 79 70 80 71 81 72 82 51 83 52 84 60 85 53 86 59 87
REMARK SMILES IDX 61 88 58 89 54 90 55 91 56 92 57 93
REMARK H PARENT 3 14 6 17 81 46 49 57
REMARK Flexibility Score: inf
ROOT
ATOM      1  C   UNL     1      -4.037   5.020   0.215  1.00  0.00     0.275 C 
ENDROOT
BRANCH   1   2
ATOM      2  O   UNL     1      -3.231   3.890  -0.174  1.00  0.00    -0.457 OA
BRANCH   2   3
ATOM      3  C   UNL     1      -3.382   2.754   0.577  1.00  0.00     0.357 C 
ATOM      4  O   UNL     1      -4.054   2.693   1.596  1.00  0.00    -0.244 OA
BRANCH   3   5
ATOM      5  C   UNL     1      -2.643   1.598   0.042  1.00  0.00     0.159 A 
ATOM      6  C   UNL     1      -0.841   0.679  -0.873  1.00  0.00     0.116 A 
ATOM      7  N   UNL     1      -1.614   1.748  -0.874  1.00  0.00    -0.232 NA
ATOM      8  S   UNL     1      -1.591  -0.719  -0.205  1.00  0.00    -0.124 S 
ATOM      9  C   UNL     1      -2.813   0.290   0.466  1.00  0.00     0.102 A 
BRANCH   6  10
ATOM     10  C   UNL     1       0.638   0.763  -1.191  1.00  0.00     0.140 C 
ATOM     11  C   UNL     1       1.006   0.384  -2.611  1.00  0.00     0.039 C 
BRANCH  10  12
ATOM     12  N   UNL     1       1.433   0.086  -0.184  1.00  0.00    -0.329 N 
ATOM     13  C   UNL     1       2.471   0.539   0.535  1.00  0.00     0.315 C 
ATOM     14  H   UNL     1       1.172  -0.845  -0.000  1.00  0.00     0.166 HD
ATOM     15  O   UNL     1       3.216  -0.281   1.074  1.00  0.00    -0.249 OA
ATOM     16  N   UNL     1       2.846   1.829   0.522  1.00  0.00    -0.335 N 
ATOM     17  H   UNL     1       3.687   1.954   0.027  1.00  0.00     0.165 HD
BRANCH  16  18
ATOM     18  C   UNL     1       2.331   3.118   1.056  1.00  0.00     0.089 C 
ATOM     19  C   UNL     1       2.849   4.220   0.121  1.00  0.00     0.025 C 
ATOM     20  C   UNL     1       0.836   3.499   1.227  1.00  0.00    -0.015 C 
ATOM     21  C   UNL     1       1.709   4.484  -0.856  1.00  0.00     0.003 C 
ATOM     22  C   UNL     1       0.415   4.064  -0.149  1.00  0.00     0.008 C 
ATOM     23  C   UNL     1       0.012   2.401   1.893  1.00  0.00     0.013 C 
ATOM     24  C   UNL     1       0.665   4.712   2.190  1.00  0.00     0.013 C 
ENDBRANCH  16  18
ENDBRANCH  10  12
ENDBRANCH   6  10
ENDBRANCH   3   5
ENDBRANCH   2   3
ENDBRANCH   1   2
BRANCH   1  25
ATOM     25  C   UNL     1      -5.212   5.193  -0.746  1.00  0.00     0.275 C 
BRANCH  25  26
ATOM     26  O   UNL     1      -6.041   4.019  -0.700  1.00  0.00    -0.458 OA
BRANCH  26  27
ATOM     27  C   UNL     1      -5.947   3.207  -1.778  1.00  0.00     0.338 C 
ATOM     28  O   UNL     1      -5.343   3.422  -2.816  1.00  0.00    -0.246 OA
BRANCH  27  29
ATOM     29  C   UNL     1      -6.649   1.945  -1.508  1.00  0.00     0.060 A 
ATOM     30  C   UNL     1      -6.172   1.103  -0.507  1.00  0.00     0.016 A 
ATOM     31  C   UNL     1      -7.679   1.521  -2.340  1.00  0.00     0.016 A 
ATOM     32  C   UNL     1      -6.624  -0.203  -0.407  1.00  0.00     0.010 A 
ATOM     33  C   UNL     1      -8.226   0.247  -2.154  1.00  0.00     0.010 A 
ATOM     34  C   UNL     1      -7.675  -0.643  -1.213  1.00  0.00    -0.014 A 
BRANCH  34  35
ATOM     35  C   UNL     1      -8.155  -2.045  -1.097  1.00  0.00     0.031 A 
ATOM     36  C   UNL     1      -8.115  -2.946  -2.302  1.00  0.00     0.074 A 
ATOM     37  C   UNL     1      -8.596  -2.516   0.087  1.00  0.00     0.049 A 
ATOM     38  N   UNL     1      -8.653  -4.125  -2.472  1.00  0.00    -0.248 NA
ATOM     39  C   UNL     1      -7.386  -2.442  -3.477  1.00  0.00     0.031 C 
ATOM     40  C   UNL     1      -8.613  -1.765   1.347  1.00  0.00     0.029 A 
ATOM     41  N   UNL     1      -9.111  -3.740   0.431  1.00  0.00    -0.354 N 
ATOM     42  C   UNL     1      -8.374  -4.483  -3.787  1.00  0.00     0.074 A 
ATOM     43  C   UNL     1      -7.635  -3.385  -4.374  1.00  0.00     0.031 C 
ATOM     44  C   UNL     1      -9.081  -2.552   2.325  1.00  0.00     0.029 A 
ATOM     45  C   UNL     1      -9.502  -3.822   1.749  1.00  0.00     0.049 A 
ATOM     46  H   UNL     1      -9.192  -4.489  -0.203  1.00  0.00     0.167 HD
ATOM     47  C   UNL     1      -8.708  -5.624  -4.439  1.00  0.00     0.034 A 
ATOM     48  C   UNL     1     -10.178  -4.784   2.406  1.00  0.00     0.034 A 
ATOM     49  C   UNL     1      -9.417  -6.717  -3.817  1.00  0.00     0.049 A 
ATOM     50  C   UNL     1     -10.608  -6.008   1.640  1.00  0.00     0.074 A 
ATOM     51  C   UNL     1      -9.804  -7.922  -4.375  1.00  0.00     0.029 A 
ATOM     52  N   UNL     1      -9.840  -6.740  -2.493  1.00  0.00    -0.354 N 
ATOM     53  N   UNL     1     -10.396  -6.309   0.379  1.00  0.00    -0.248 NA
ATOM     54  C   UNL     1     -11.375  -7.015   2.381  1.00  0.00     0.031 C 
ATOM     55  C   UNL     1     -10.521  -8.642  -3.413  1.00  0.00     0.029 A 
ATOM     56  C   UNL     1     -10.509  -7.925  -2.227  1.00  0.00     0.049 A 
ATOM     57  H   UNL     1      -9.687  -6.020  -1.839  1.00  0.00     0.167 HD
ATOM     58  C   UNL     1     -10.984  -7.555   0.184  1.00  0.00     0.074 A 
ATOM     59  C   UNL     1     -11.538  -7.955   1.462  1.00  0.00     0.031 C 
ATOM     60  C   UNL     1     -11.062  -8.302  -0.947  1.00  0.00     0.034 A 
BRANCH  47  61
ATOM     61  C   UNL     1      -8.368  -5.717  -5.907  1.00  0.00     0.023 A 
ATOM     62  C   UNL     1      -7.042  -5.718  -6.373  1.00  0.00     0.031 A 
ATOM     63  C   UNL     1      -9.399  -5.782  -6.863  1.00  0.00     0.131 A 
ATOM     64  C   UNL     1      -6.784  -5.717  -7.753  1.00  0.00     0.055 A 
ATOM     65  C   UNL     1      -9.134  -5.862  -8.232  1.00  0.00     0.041 A 
ATOM     66  F   UNL     1     -10.687  -5.758  -6.483  1.00  0.00    -0.206 F 
ATOM     67  C   UNL     1      -7.820  -5.816  -8.685  1.00  0.00     0.022 A 
BRANCH  64  68
ATOM     68  S   UNL     1      -5.082  -5.444  -8.318  1.00  0.00     0.124 S 
ATOM     69  O   UNL     1      -4.782  -4.140  -7.733  1.00  0.00    -0.237 OA
ATOM     70  O   UNL     1      -4.372  -6.581  -7.743  1.00  0.00    -0.237 OA
ATOM     71  O   UNL     1      -5.199  -5.454  -9.775  1.00  0.00    -0.744 OA
ENDBRANCH  64  68
ENDBRANCH  47  61
BRANCH  48  72
ATOM     72  C   UNL     1     -10.562  -4.600   3.837  1.00  0.00     0.023 A 
ATOM     73  C   UNL     1     -10.115  -5.488   4.827  1.00  0.00     0.031 A 
ATOM     74  C   UNL     1     -11.427  -3.561   4.229  1.00  0.00     0.131 A 
ATOM     75  C   UNL     1     -10.571  -5.350   6.148  1.00  0.00     0.055 A 
ATOM     76  C   UNL     1     -11.823  -3.388   5.556  1.00  0.00     0.041 A 
ATOM     77  F   UNL     1     -11.892  -2.684   3.324  1.00  0.00    -0.206 F 
ATOM     78  C   UNL     1     -11.407  -4.296   6.522  1.00  0.00     0.022 A 
BRANCH  75  79
ATOM     79  S   UNL     1     -10.140  -6.637   7.351  1.00  0.00     0.124 S 
ATOM     80  O   UNL     1     -10.660  -7.835   6.702  1.00  0.00    -0.237 OA
ATOM     81  O   UNL     1      -8.687  -6.519   7.413  1.00  0.00    -0.237 OA
ATOM     82  O   UNL     1     -10.850  -6.223   8.560  1.00  0.00    -0.744 OA
ENDBRANCH  75  79
ENDBRANCH  48  72
BRANCH  60  83
ATOM     83  C   UNL     1     -11.729  -9.649  -0.826  1.00  0.00     0.023 A 
ATOM     84  C   UNL     1     -13.101  -9.774  -0.544  1.00  0.00     0.031 A 
ATOM     85  C   UNL     1     -10.974 -10.826  -0.976  1.00  0.00     0.131 A 
ATOM     86  C   UNL     1     -13.662 -11.046  -0.359  1.00  0.00     0.055 A 
ATOM     87  C   UNL     1     -11.552 -12.090  -0.857  1.00  0.00     0.041 A 
ATOM     88  F   UNL     1      -9.659 -10.765  -1.242  1.00  0.00    -0.206 F 
ATOM     89  C   UNL     1     -12.900 -12.205  -0.532  1.00  0.00     0.022 A 
BRANCH  86  90
ATOM     90  S   UNL     1     -15.378 -11.164   0.214  1.00  0.00     0.124 S 
ATOM     91  O   UNL     1     -15.328 -10.430   1.475  1.00  0.00    -0.237 OA
ATOM     92  O   UNL     1     -16.114 -10.521  -0.869  1.00  0.00    -0.237 OA
ATOM     93  O   UNL     1     -15.598 -12.604   0.343  1.00  0.00    -0.744 OA
ENDBRANCH  86  90
ENDBRANCH  60  83
ENDBRANCH  34  35
ENDBRANCH  27  29
ENDBRANCH  26  27
ENDBRANCH  25  26
ENDBRANCH   1  25
TORSDOF 17
