REMARK SMILES Cc1ccc(C2=NN(C(=O)CCC(=O)OCCOC(=O)c3ccc(-c4c5nc(c(-c6cc(S(=O)(=O)[O-])ccc6F)c6ccc([nH]6)c(-c6cc(S(=O)(=O)[O-])ccc6F)c6nc(c(-c7cc(S(=O)(=O)[O-])ccc7F)c7ccc4[nH]7)C=C6)C=C5)cc3)[C@H](C[C@@H]3C=c4cccc(C)c4=NC3=O)C2)cc1
REMARK SMILES IDX 16 1 15 2 13 3 14 4 12 5 11 6 9 7 10 8 8 9 6 10 7 11 98 12
REMARK SMILES IDX 84 13 5 14 1 15 2 16 3 17 100 18 4 19 99 20 85 21 86 22
REMARK SMILES IDX 87 23 96 24 88 25 95 26 97 27 89 28 94 29 90 30 92 31 91 32
REMARK SMILES IDX 93 33 17 34 18 35 19 36 20 37 21 38 22 39 83 40 23 41 82 42
REMARK SMILES IDX 24 43 25 44 26 45 76 46 27 47 81 48 75 49 77 50 28 51 80 52
REMARK SMILES IDX 74 53 73 54 29 56 61 57 41 58 60 59 42 60 45 61 59 62 78 63
REMARK SMILES IDX 43 64 44 65 58 67 79 68 46 69 30 70 31 71 39 72 32 73 38 74
REMARK SMILES IDX 40 75 37 76 33 77 34 78 35 79 36 80 62 81 63 82 71 83 64 84
REMARK SMILES IDX 70 85 72 86 69 87 65 88 66 89 67 90 68 91 47 92 48 93 56 94
REMARK SMILES IDX 49 95 55 96 57 97 54 98 50 99 51 100 52 101 53 102
REMARK H PARENT 77 55 45 66
REMARK Flexibility Score: inf
ROOT
ATOM      1  C   UNL     1      -4.981   2.005  -1.510  1.00  0.00     0.274 C 
ENDROOT
BRANCH   1   2
ATOM      2  O   UNL     1      -5.390   1.811  -0.127  1.00  0.00    -0.462 OA
BRANCH   2   3
ATOM      3  C   UNL     1      -6.444   1.076   0.250  1.00  0.00     0.306 C 
ATOM      4  O   UNL     1      -7.230   0.522  -0.507  1.00  0.00    -0.252 OA
BRANCH   3   5
ATOM      5  C   UNL     1      -6.527   0.769   1.700  1.00  0.00     0.132 C 
BRANCH   5   6
ATOM      6  C   UNL     1      -6.798  -0.717   1.790  1.00  0.00     0.114 C 
BRANCH   6   7
ATOM      7  C   UNL     1      -5.483  -1.464   1.756  1.00  0.00     0.243 C 
ATOM      8  O   UNL     1      -5.146  -2.042   2.800  1.00  0.00    -0.273 OA
BRANCH   7   9
ATOM      9  N   UNL     1      -4.658  -1.453   0.627  1.00  0.00    -0.230 N 
ATOM     10  C   UNL     1      -2.679  -0.953  -0.077  1.00  0.00     0.070 C 
ATOM     11  N   UNL     1      -3.350  -1.211   0.989  1.00  0.00    -0.174 NA
ATOM     12  C   UNL     1      -3.374  -1.160  -1.372  1.00  0.00     0.086 C 
ATOM     13  C   UNL     1      -4.816  -1.281  -0.872  1.00  0.00     0.118 C 
BRANCH  10  14
ATOM     14  C   UNL     1      -1.274  -0.602  -0.038  1.00  0.00    -0.002 A 
ATOM     15  C   UNL     1       2.908   0.212   0.011  1.00  0.00     0.044 C 
ATOM     16  C   UNL     1       1.433  -0.053   0.022  1.00  0.00    -0.051 A 
ATOM     17  C   UNL     1       0.985  -1.381   0.043  1.00  0.00     0.004 A 
ATOM     18  C   UNL     1       0.505   1.001   0.004  1.00  0.00     0.004 A 
ATOM     19  C   UNL     1      -0.373  -1.659   0.019  1.00  0.00     0.010 A 
ATOM     20  C   UNL     1      -0.862   0.729  -0.024  1.00  0.00     0.010 A 
ENDBRANCH  10  14
BRANCH  13  21
ATOM     21  C   UNL     1      -5.585  -2.260  -1.800  1.00  0.00     0.045 C 
BRANCH  21  22
ATOM     22  C   UNL     1      -7.057  -2.501  -1.471  1.00  0.00     0.106 C 
ATOM     23  C   UNL     1      -7.104  -3.242  -0.190  1.00  0.00    -0.003 C 
ATOM     24  C   UNL     1      -7.852  -3.232  -2.569  1.00  0.00     0.253 C 
ATOM     25  C   UNL     1      -8.076  -4.063   0.159  1.00  0.00    -0.003 A 
ATOM     26  N   UNL     1      -8.808  -4.165  -2.197  1.00  0.00    -0.212 NA
ATOM     27  O   UNL     1      -7.623  -3.004  -3.756  1.00  0.00    -0.272 OA
ATOM     28  C   UNL     1      -8.246  -4.499   1.515  1.00  0.00     0.010 A 
ATOM     29  C   UNL     1      -8.896  -4.557  -0.965  1.00  0.00     0.077 A 
ATOM     30  C   UNL     1      -9.134  -5.455   1.788  1.00  0.00     0.001 A 
ATOM     31  C   UNL     1      -9.763  -5.722  -0.577  1.00  0.00    -0.025 A 
ATOM     32  C   UNL     1      -9.838  -6.113   0.712  1.00  0.00     0.005 A 
ATOM     33  C   UNL     1     -10.349  -6.501  -1.706  1.00  0.00     0.047 C 
ENDBRANCH  21  22
ENDBRANCH  13  21
ENDBRANCH   7   9
ENDBRANCH   6   7
ENDBRANCH   5   6
ENDBRANCH   3   5
ENDBRANCH   2   3
ENDBRANCH   1   2
BRANCH   1  34
ATOM     34  C   UNL     1      -5.684   1.478  -2.825  1.00  0.00     0.275 C 
BRANCH  34  35
ATOM     35  O   UNL     1      -6.993   0.814  -2.950  1.00  0.00    -0.458 OA
BRANCH  35  36
ATOM     36  C   UNL     1      -8.304   1.191  -2.722  1.00  0.00     0.338 C 
ATOM     37  O   UNL     1      -9.239   0.423  -2.917  1.00  0.00    -0.246 OA
BRANCH  36  38
ATOM     38  C   UNL     1      -8.497   2.442  -1.963  1.00  0.00     0.060 A 
ATOM     39  C   UNL     1      -9.202   2.480  -0.732  1.00  0.00     0.016 A 
ATOM     40  C   UNL     1      -7.602   3.415  -2.279  1.00  0.00     0.016 A 
ATOM     41  C   UNL     1      -8.843   3.417   0.253  1.00  0.00     0.010 A 
ATOM     42  C   UNL     1      -7.033   4.032  -1.211  1.00  0.00     0.010 A 
ATOM     43  C   UNL     1      -7.697   4.165   0.021  1.00  0.00    -0.014 A 
BRANCH  43  44
ATOM     44  C   UNL     1      -7.122   5.284   0.777  1.00  0.00     0.031 A 
ATOM     45  C   UNL     1      -6.468   5.176   2.094  1.00  0.00     0.074 A 
ATOM     46  C   UNL     1      -6.966   6.360  -0.038  1.00  0.00     0.049 A 
ATOM     47  N   UNL     1      -6.342   6.133   2.944  1.00  0.00    -0.248 NA
ATOM     48  C   UNL     1      -5.872   3.949   2.598  1.00  0.00     0.031 C 
ATOM     49  C   UNL     1      -6.071   7.494  -0.019  1.00  0.00     0.029 A 
ATOM     50  N   UNL     1      -7.675   6.577  -1.216  1.00  0.00    -0.354 N 
ATOM     51  C   UNL     1      -5.353   5.752   3.843  1.00  0.00     0.074 A 
ATOM     52  C   UNL     1      -5.261   4.326   3.728  1.00  0.00     0.031 C 
ATOM     53  C   UNL     1      -6.508   8.400  -0.928  1.00  0.00     0.029 A 
ATOM     54  C   UNL     1      -7.766   7.914  -1.492  1.00  0.00     0.049 A 
ATOM     55  H   UNL     1      -8.058   5.864  -1.776  1.00  0.00     0.167 HD
ATOM     56  C   UNL     1      -4.524   6.696   4.375  1.00  0.00     0.034 A 
ATOM     57  C   UNL     1      -9.037   8.397  -1.349  1.00  0.00     0.034 A 
ATOM     58  C   UNL     1      -4.788   7.970   3.718  1.00  0.00     0.049 A 
ATOM     59  C   UNL     1      -9.062   9.201  -0.074  1.00  0.00     0.074 A 
ATOM     60  C   UNL     1      -4.135   8.652   2.706  1.00  0.00     0.029 A 
ATOM     61  N   UNL     1      -6.042   8.533   3.839  1.00  0.00    -0.354 N 
ATOM     62  N   UNL     1      -8.278   8.989   0.951  1.00  0.00    -0.248 NA
ATOM     63  C   UNL     1      -9.847  10.415   0.053  1.00  0.00     0.031 C 
ATOM     64  C   UNL     1      -5.051   9.604   2.177  1.00  0.00     0.029 A 
ATOM     65  C   UNL     1      -6.248   9.483   2.866  1.00  0.00     0.049 A 
ATOM     66  H   UNL     1      -6.701   8.288   4.529  1.00  0.00     0.167 HD
ATOM     67  C   UNL     1      -8.324  10.069   1.785  1.00  0.00     0.074 A 
ATOM     68  C   UNL     1      -9.348  10.919   1.194  1.00  0.00     0.031 C 
ATOM     69  C   UNL     1      -7.496  10.220   2.865  1.00  0.00     0.034 A 
BRANCH  56  70
ATOM     70  C   UNL     1      -3.297   6.509   5.245  1.00  0.00     0.023 A 
ATOM     71  C   UNL     1      -2.381   7.584   5.343  1.00  0.00     0.031 A 
ATOM     72  C   UNL     1      -2.992   5.392   6.044  1.00  0.00     0.131 A 
ATOM     73  C   UNL     1      -1.231   7.524   6.147  1.00  0.00     0.055 A 
ATOM     74  C   UNL     1      -1.831   5.321   6.838  1.00  0.00     0.041 A 
ATOM     75  F   UNL     1      -3.820   4.343   6.134  1.00  0.00    -0.206 F 
ATOM     76  C   UNL     1      -0.943   6.390   6.894  1.00  0.00     0.022 A 
BRANCH  73  77
ATOM     77  S   UNL     1      -0.141   8.974   6.211  1.00  0.00     0.124 S 
ATOM     78  O   UNL     1       0.320   9.069   4.829  1.00  0.00    -0.237 OA
ATOM     79  O   UNL     1      -1.045  10.025   6.664  1.00  0.00    -0.237 OA
ATOM     80  O   UNL     1       0.885   8.585   7.177  1.00  0.00    -0.744 OA
ENDBRANCH  73  77
ENDBRANCH  56  70
BRANCH  57  81
ATOM     81  C   UNL     1     -10.079   7.393  -1.840  1.00  0.00     0.023 A 
ATOM     82  C   UNL     1      -9.946   6.941  -3.183  1.00  0.00     0.031 A 
ATOM     83  C   UNL     1     -10.827   6.571  -0.977  1.00  0.00     0.131 A 
ATOM     84  C   UNL     1     -10.397   5.664  -3.574  1.00  0.00     0.055 A 
ATOM     85  C   UNL     1     -11.346   5.329  -1.399  1.00  0.00     0.041 A 
ATOM     86  F   UNL     1     -10.963   6.884   0.319  1.00  0.00    -0.206 F 
ATOM     87  C   UNL     1     -11.102   4.853  -2.689  1.00  0.00     0.022 A 
BRANCH  84  88
ATOM     88  S   UNL     1      -9.764   4.966  -5.137  1.00  0.00     0.124 S 
ATOM     89  O   UNL     1     -10.571   5.659  -6.134  1.00  0.00    -0.237 OA
ATOM     90  O   UNL     1      -8.349   5.335  -5.084  1.00  0.00    -0.237 OA
ATOM     91  O   UNL     1     -10.011   3.534  -5.004  1.00  0.00    -0.744 OA
ENDBRANCH  84  88
ENDBRANCH  57  81
BRANCH  69  92
ATOM     92  C   UNL     1      -7.775  11.117   4.043  1.00  0.00     0.023 A 
ATOM     93  C   UNL     1      -9.002  11.755   4.200  1.00  0.00     0.031 A 
ATOM     94  C   UNL     1      -6.864  11.265   5.121  1.00  0.00     0.131 A 
ATOM     95  C   UNL     1      -9.251  12.587   5.294  1.00  0.00     0.055 A 
ATOM     96  C   UNL     1      -7.168  11.984   6.277  1.00  0.00     0.041 A 
ATOM     97  F   UNL     1      -5.646  10.704   5.120  1.00  0.00    -0.206 F 
ATOM     98  C   UNL     1      -8.361  12.679   6.357  1.00  0.00     0.022 A 
BRANCH  95  99
ATOM     99  S   UNL     1     -10.723  13.623   5.200  1.00  0.00     0.124 S 
ATOM    100  O   UNL     1     -10.453  14.412   4.000  1.00  0.00    -0.237 OA
ATOM    101  O   UNL     1     -11.793  12.637   5.077  1.00  0.00    -0.237 OA
ATOM    102  O   UNL     1     -10.698  14.367   6.456  1.00  0.00    -0.744 OA
ENDBRANCH  95  99
ENDBRANCH  69  92
ENDBRANCH  43  44
ENDBRANCH  36  38
ENDBRANCH  35  36
ENDBRANCH  34  35
ENDBRANCH   1  34
TORSDOF 20
