REMARK SMILES C[C@H]1[C@@H](C(=O)OCCOC(=O)c2ccc(-c3c4nc(c(-c5cc(S(=O)(=O)[O-])ccc5F)c5ccc([nH]5)c(-c5cc(S(=O)(=O)[O-])ccc5F)c5nc(c(-c6cc(S(=O)(=O)[O-])ccc6F)c6ccc3[nH]6)C=C5)C=C4)cc2)CC[N@@H+]1Cc1cc(F)c(F)c(F)c1
REMARK SMILES IDX 8 1 7 2 6 3 4 4 5 5 3 6 1 7 2 8 77 9 75 10 76 11 78 13 79 14
REMARK SMILES IDX 80 15 87 16 81 17 85 18 82 19 83 20 86 21 84 22 9 23 10 24
REMARK SMILES IDX 11 25 12 26 13 27 74 28 14 29 73 30 15 31 16 32 17 33 67 34
REMARK SMILES IDX 18 35 72 36 66 37 68 38 19 39 71 40 65 41 64 42 20 44 52 45
REMARK SMILES IDX 32 46 51 47 33 48 36 49 50 50 69 51 34 52 35 53 49 55 70 56
REMARK SMILES IDX 37 57 21 58 22 59 30 60 23 61 29 62 31 63 28 64 24 65 25 66
REMARK SMILES IDX 26 67 27 68 53 69 54 70 62 71 55 72 61 73 63 74 60 75 56 76
REMARK SMILES IDX 57 77 58 78 59 79 38 80 39 81 47 82 40 83 46 84 48 85 45 86
REMARK SMILES IDX 41 87 42 88 43 89 44 90
REMARK H PARENT 77 12 68 43 36 54
REMARK Flexibility Score: inf
ROOT
ATOM      1  C   UNL     1       1.281   2.418  -3.850  1.00  0.00     0.275 C 
ENDROOT
BRANCH   1   2
ATOM      2  C   UNL     1       1.991   2.531  -2.507  1.00  0.00     0.274 C 
BRANCH   2   3
ATOM      3  O   UNL     1       1.430   1.550  -1.612  1.00  0.00    -0.462 OA
BRANCH   3   4
ATOM      4  C   UNL     1       1.028   1.983  -0.390  1.00  0.00     0.315 C 
ATOM      5  O   UNL     1       1.170   3.126   0.026  1.00  0.00    -0.252 OA
BRANCH   4   6
ATOM      6  C   UNL     1       0.338   0.895   0.409  1.00  0.00     0.162 C 
ATOM      7  C   UNL     1       2.393  -0.640  -0.042  1.00  0.00     0.076 C 
ATOM      8  C   UNL     1       1.183  -0.310   0.836  1.00  0.00     0.195 C 
ATOM      9  N   UNL     1       0.268  -1.462   0.776  1.00  0.00    -0.328 N 
ATOM     10  C   UNL     1      -0.883   0.321  -0.301  1.00  0.00     0.083 C 
ATOM     11  C   UNL     1      -0.721  -1.184  -0.261  1.00  0.00     0.263 C 
ATOM     12  H   UNL     1       0.819  -2.282   0.524  1.00  0.00     0.348 HD
BRANCH   9  13
ATOM     13  C   UNL     1      -0.275  -1.955   2.041  1.00  0.00     0.299 C 
BRANCH  13  14
ATOM     14  C   UNL     1      -1.046  -0.992   2.916  1.00  0.00     0.012 A 
ATOM     15  C   UNL     1      -0.426  -0.397   4.027  1.00  0.00     0.052 A 
ATOM     16  C   UNL     1      -2.402  -0.711   2.680  1.00  0.00     0.052 A 
ATOM     17  C   UNL     1      -1.146   0.449   4.870  1.00  0.00     0.162 A 
ATOM     18  C   UNL     1      -3.103   0.151   3.525  1.00  0.00     0.162 A 
ATOM     19  F   UNL     1      -0.531   0.982   5.936  1.00  0.00    -0.204 F 
ATOM     20  C   UNL     1      -2.481   0.728   4.622  1.00  0.00     0.194 A 
ATOM     21  F   UNL     1      -4.392   0.409   3.271  1.00  0.00    -0.204 F 
ATOM     22  F   UNL     1      -3.164   1.538   5.443  1.00  0.00    -0.200 F 
ENDBRANCH  13  14
ENDBRANCH   9  13
ENDBRANCH   4   6
ENDBRANCH   3   4
ENDBRANCH   2   3
ENDBRANCH   1   2
BRANCH   1  23
ATOM     23  O   UNL     1      -0.110   2.724  -3.650  1.00  0.00    -0.458 OA
BRANCH  23  24
ATOM     24  C   UNL     1      -0.972   1.709  -3.889  1.00  0.00     0.338 C 
ATOM     25  O   UNL     1      -0.713   0.613  -4.355  1.00  0.00    -0.246 OA
BRANCH  24  26
ATOM     26  C   UNL     1      -2.331   2.117  -3.493  1.00  0.00     0.060 A 
ATOM     27  C   UNL     1      -2.583   2.644  -2.221  1.00  0.00     0.016 A 
ATOM     28  C   UNL     1      -3.381   1.869  -4.375  1.00  0.00     0.016 A 
ATOM     29  C   UNL     1      -3.899   2.858  -1.808  1.00  0.00     0.010 A 
ATOM     30  C   UNL     1      -4.685   2.180  -3.992  1.00  0.00     0.010 A 
ATOM     31  C   UNL     1      -4.964   2.660  -2.699  1.00  0.00    -0.014 A 
BRANCH  31  32
ATOM     32  C   UNL     1      -6.376   2.951  -2.327  1.00  0.00     0.031 A 
ATOM     33  C   UNL     1      -7.417   1.872  -2.459  1.00  0.00     0.074 A 
ATOM     34  C   UNL     1      -6.745   4.196  -1.966  1.00  0.00     0.049 A 
ATOM     35  N   UNL     1      -8.717   1.976  -2.545  1.00  0.00    -0.248 NA
ATOM     36  C   UNL     1      -6.917   0.490  -2.530  1.00  0.00     0.031 C 
ATOM     37  C   UNL     1      -5.835   5.321  -1.740  1.00  0.00     0.029 A 
ATOM     38  N   UNL     1      -7.992   4.733  -1.758  1.00  0.00    -0.354 N 
ATOM     39  C   UNL     1      -9.190   0.682  -2.743  1.00  0.00     0.074 A 
ATOM     40  C   UNL     1      -8.032  -0.188  -2.762  1.00  0.00     0.031 C 
ATOM     41  C   UNL     1      -6.551   6.411  -1.429  1.00  0.00     0.029 A 
ATOM     42  C   UNL     1      -7.969   6.091  -1.538  1.00  0.00     0.049 A 
ATOM     43  H   UNL     1      -8.819   4.199  -1.765  1.00  0.00     0.167 HD
ATOM     44  C   UNL     1     -10.473   0.269  -2.908  1.00  0.00     0.034 A 
ATOM     45  C   UNL     1      -8.967   6.996  -1.507  1.00  0.00     0.034 A 
ATOM     46  C   UNL     1     -11.610   1.157  -2.849  1.00  0.00     0.049 A 
ATOM     47  C   UNL     1     -10.378   6.532  -1.747  1.00  0.00     0.074 A 
ATOM     48  C   UNL     1     -12.954   0.852  -2.988  1.00  0.00     0.029 A 
ATOM     49  N   UNL     1     -11.537   2.526  -2.625  1.00  0.00    -0.354 N 
ATOM     50  N   UNL     1     -10.811   5.323  -2.018  1.00  0.00    -0.248 NA
ATOM     51  C   UNL     1     -11.430   7.554  -1.695  1.00  0.00     0.031 C 
ATOM     52  C   UNL     1     -13.686   2.042  -2.899  1.00  0.00     0.029 A 
ATOM     53  C   UNL     1     -12.807   3.081  -2.640  1.00  0.00     0.049 A 
ATOM     54  H   UNL     1     -10.704   3.029  -2.477  1.00  0.00     0.167 HD
ATOM     55  C   UNL     1     -12.191   5.436  -2.145  1.00  0.00     0.074 A 
ATOM     56  C   UNL     1     -12.518   6.830  -1.920  1.00  0.00     0.031 C 
ATOM     57  C   UNL     1     -13.108   4.474  -2.417  1.00  0.00     0.034 A 
BRANCH  44  58
ATOM     58  C   UNL     1     -10.703  -1.187  -3.233  1.00  0.00     0.023 A 
ATOM     59  C   UNL     1     -10.403  -2.216  -2.325  1.00  0.00     0.031 A 
ATOM     60  C   UNL     1     -11.216  -1.551  -4.493  1.00  0.00     0.131 A 
ATOM     61  C   UNL     1     -10.555  -3.558  -2.711  1.00  0.00     0.055 A 
ATOM     62  C   UNL     1     -11.436  -2.885  -4.843  1.00  0.00     0.041 A 
ATOM     63  F   UNL     1     -11.501  -0.615  -5.411  1.00  0.00    -0.206 F 
ATOM     64  C   UNL     1     -11.092  -3.898  -3.955  1.00  0.00     0.022 A 
BRANCH  61  65
ATOM     65  S   UNL     1      -9.916  -4.855  -1.616  1.00  0.00     0.124 S 
ATOM     66  O   UNL     1      -8.506  -4.487  -1.511  1.00  0.00    -0.237 OA
ATOM     67  O   UNL     1     -10.715  -4.672  -0.410  1.00  0.00    -0.237 OA
ATOM     68  O   UNL     1     -10.176  -6.088  -2.356  1.00  0.00    -0.744 OA
ENDBRANCH  61  65
ENDBRANCH  44  58
BRANCH  45  69
ATOM     69  C   UNL     1      -8.654   8.442  -1.327  1.00  0.00     0.023 A 
ATOM     70  C   UNL     1      -9.060   9.133  -0.176  1.00  0.00     0.031 A 
ATOM     71  C   UNL     1      -7.943   9.154  -2.311  1.00  0.00     0.131 A 
ATOM     72  C   UNL     1      -8.773  10.501  -0.047  1.00  0.00     0.055 A 
ATOM     73  C   UNL     1      -7.616  10.501  -2.155  1.00  0.00     0.041 A 
ATOM     74  F   UNL     1      -7.529   8.537  -3.430  1.00  0.00    -0.206 F 
ATOM     75  C   UNL     1      -8.040  11.185  -1.021  1.00  0.00     0.022 A 
BRANCH  72  76
ATOM     76  S   UNL     1      -9.426  11.394   1.389  1.00  0.00     0.124 S 
ATOM     77  O   UNL     1     -10.861  11.178   1.246  1.00  0.00    -0.237 OA
ATOM     78  O   UNL     1      -8.780  10.699   2.497  1.00  0.00    -0.237 OA
ATOM     79  O   UNL     1      -8.976  12.767   1.170  1.00  0.00    -0.744 OA
ENDBRANCH  72  76
ENDBRANCH  45  69
BRANCH  57  80
ATOM     80  C   UNL     1     -14.553   4.893  -2.417  1.00  0.00     0.023 A 
ATOM     81  C   UNL     1     -15.101   5.662  -3.457  1.00  0.00     0.031 A 
ATOM     82  C   UNL     1     -15.391   4.510  -1.355  1.00  0.00     0.131 A 
ATOM     83  C   UNL     1     -16.447   6.056  -3.394  1.00  0.00     0.055 A 
ATOM     84  C   UNL     1     -16.738   4.869  -1.319  1.00  0.00     0.041 A 
ATOM     85  F   UNL     1     -14.911   3.776  -0.338  1.00  0.00    -0.206 F 
ATOM     86  C   UNL     1     -17.271   5.653  -2.338  1.00  0.00     0.022 A 
BRANCH  83  87
ATOM     87  S   UNL     1     -17.100   7.145  -4.688  1.00  0.00     0.124 S 
ATOM     88  O   UNL     1     -16.306   8.354  -4.496  1.00  0.00    -0.237 OA
ATOM     89  O   UNL     1     -16.825   6.389  -5.905  1.00  0.00    -0.237 OA
ATOM     90  O   UNL     1     -18.516   7.272  -4.347  1.00  0.00    -0.744 OA
ENDBRANCH  83  87
ENDBRANCH  57  80
ENDBRANCH  31  32
ENDBRANCH  24  26
ENDBRANCH  23  24
ENDBRANCH   1  23
TORSDOF 16
