REMARK SMILES Nc1nc(N)nc(N/C=C/C(=O)OCCOC(=O)c2ccc(-c3c4nc(c(-c5cc(S(=O)(=O)[O-])ccc5F)c5ccc([nH]5)c(-c5cc(S(=O)(=O)[O-])ccc5F)c5nc(c(-c6cc(S(=O)(=O)[O-])ccc6F)c6ccc3[nH]6)C=C5)C=C4)cc2)n1
REMARK SMILES IDX 14 1 13 2 11 3 12 4 10 5 9 6 8 7 7 9 2 10 3 11 82 12 4 13
REMARK SMILES IDX 6 14 1 15 5 18 15 21 16 22 17 23 18 24 19 25 20 26 81 27
REMARK SMILES IDX 21 28 80 29 22 30 23 31 24 32 74 33 25 34 79 35 73 36 75 37
REMARK SMILES IDX 26 38 78 39 72 40 71 41 27 43 59 44 39 45 58 46 40 47 43 48
REMARK SMILES IDX 57 49 76 50 41 51 42 52 56 54 77 55 44 56 28 57 29 58 37 59
REMARK SMILES IDX 30 60 36 61 38 62 35 63 31 64 32 65 33 66 34 67 60 68 61 69
REMARK SMILES IDX 69 70 62 71 68 72 70 73 67 74 63 75 64 76 65 77 66 78 45 79
REMARK SMILES IDX 46 80 54 81 47 82 53 83 55 84 52 85 48 86 49 87 50 88 51 89
REMARK H PARENT 8 8 1 16 1 17 5 19 5 20 75 42 43 53
REMARK Flexibility Score: inf
ROOT
ATOM      1  C   UNL     1       4.901   6.043   0.006  1.00  0.00     0.275 C 
ENDROOT
BRANCH   1   2
ATOM      2  O   UNL     1       3.755   5.182   0.135  1.00  0.00    -0.459 OA
BRANCH   2   3
ATOM      3  C   UNL     1       2.735   5.676   0.876  1.00  0.00     0.332 C 
ATOM      4  O   UNL     1       2.744   6.725   1.504  1.00  0.00    -0.247 OA
BRANCH   3   5
ATOM      5  C   UNL     1       1.521   4.843   0.796  1.00  0.00     0.111 C 
ATOM      6  C   UNL     1       1.468   3.589   0.335  1.00  0.00     0.093 C 
BRANCH   6   7
ATOM      7  N   UNL     1       0.338   2.821   0.243  1.00  0.00    -0.330 N 
ATOM      8  H   UNL     1      -0.518   3.303   0.310  1.00  0.00     0.169 HD
BRANCH   7   9
ATOM      9  C   UNL     1       0.252   1.443   0.065  1.00  0.00     0.233 A 
ATOM     10  C   UNL     1      -1.052  -0.377  -0.046  1.00  0.00     0.226 A 
ATOM     11  N   UNL     1      -0.015  -1.195  -0.098  1.00  0.00    -0.177 NA
ATOM     12  N   UNL     1      -0.977   0.940   0.041  1.00  0.00    -0.177 NA
ATOM     13  C   UNL     1       1.163  -0.597  -0.073  1.00  0.00     0.226 A 
ATOM     14  N   UNL     1       1.356   0.707   0.002  1.00  0.00    -0.177 NA
BRANCH  10  15
ATOM     15  N   UNL     1      -2.299  -0.934  -0.068  1.00  0.00    -0.368 N 
ATOM     16  H   UNL     1      -2.401  -1.911  -0.132  1.00  0.00     0.159 HD
ATOM     17  H   UNL     1      -3.096  -0.358  -0.020  1.00  0.00     0.159 HD
ENDBRANCH  10  15
BRANCH  13  18
ATOM     18  N   UNL     1       2.276  -1.390  -0.103  1.00  0.00    -0.368 N 
ATOM     19  H   UNL     1       2.182  -2.368  -0.158  1.00  0.00     0.159 HD
ATOM     20  H   UNL     1       3.172  -0.983  -0.069  1.00  0.00     0.159 HD
ENDBRANCH  13  18
ENDBRANCH   7   9
ENDBRANCH   6   7
ENDBRANCH   3   5
ENDBRANCH   2   3
ENDBRANCH   1   2
BRANCH   1  21
ATOM     21  C   UNL     1       4.878   6.825  -1.312  1.00  0.00     0.275 C 
BRANCH  21  22
ATOM     22  O   UNL     1       3.822   7.804  -1.346  1.00  0.00    -0.458 OA
BRANCH  22  23
ATOM     23  C   UNL     1       2.651   7.365  -1.870  1.00  0.00     0.338 C 
ATOM     24  O   UNL     1       2.428   6.259  -2.333  1.00  0.00    -0.246 OA
BRANCH  23  25
ATOM     25  C   UNL     1       1.600   8.384  -1.685  1.00  0.00     0.060 A 
ATOM     26  C   UNL     1       0.402   7.985  -1.086  1.00  0.00     0.016 A 
ATOM     27  C   UNL     1       1.757   9.694  -2.146  1.00  0.00     0.016 A 
ATOM     28  C   UNL     1      -0.645   8.893  -0.940  1.00  0.00     0.010 A 
ATOM     29  C   UNL     1       0.701  10.603  -2.007  1.00  0.00     0.010 A 
ATOM     30  C   UNL     1      -0.509  10.206  -1.410  1.00  0.00    -0.014 A 
BRANCH  30  31
ATOM     31  C   UNL     1      -1.660  11.139  -1.320  1.00  0.00     0.031 A 
ATOM     32  C   UNL     1      -2.479  11.434  -2.545  1.00  0.00     0.074 A 
ATOM     33  C   UNL     1      -1.985  11.692  -0.136  1.00  0.00     0.049 A 
ATOM     34  N   UNL     1      -3.495  12.245  -2.688  1.00  0.00    -0.248 NA
ATOM     35  C   UNL     1      -2.100  10.719  -3.773  1.00  0.00     0.031 C 
ATOM     36  C   UNL     1      -1.289  11.445   1.127  1.00  0.00     0.029 A 
ATOM     37  N   UNL     1      -2.981  12.575   0.198  1.00  0.00    -0.354 N 
ATOM     38  C   UNL     1      -3.877  12.145  -4.021  1.00  0.00     0.074 A 
ATOM     39  C   UNL     1      -2.961  11.215  -4.650  1.00  0.00     0.031 C 
ATOM     40  C   UNL     1      -1.879  12.161   2.098  1.00  0.00     0.029 A 
ATOM     41  C   UNL     1      -2.965  12.950   1.521  1.00  0.00     0.049 A 
ATOM     42  H   UNL     1      -3.645  12.908  -0.448  1.00  0.00     0.167 HD
ATOM     43  C   UNL     1      -4.899  12.770  -4.658  1.00  0.00     0.034 A 
ATOM     44  C   UNL     1      -3.720  13.849   2.185  1.00  0.00     0.034 A 
ATOM     45  C   UNL     1      -5.798  13.699  -4.017  1.00  0.00     0.049 A 
ATOM     46  C   UNL     1      -4.802  14.587   1.435  1.00  0.00     0.074 A 
ATOM     47  C   UNL     1      -6.872  14.379  -4.567  1.00  0.00     0.029 A 
ATOM     48  N   UNL     1      -5.725  14.090  -2.686  1.00  0.00    -0.354 N 
ATOM     49  N   UNL     1      -5.151  14.485   0.173  1.00  0.00    -0.248 NA
ATOM     50  C   UNL     1      -5.595  15.559   2.201  1.00  0.00     0.031 C 
ATOM     51  C   UNL     1      -7.405  15.227  -3.589  1.00  0.00     0.029 A 
ATOM     52  C   UNL     1      -6.713  15.023  -2.406  1.00  0.00     0.049 A 
ATOM     53  H   UNL     1      -5.067  13.753  -2.035  1.00  0.00     0.167 HD
ATOM     54  C   UNL     1      -6.223  15.358   0.004  1.00  0.00     0.074 A 
ATOM     55  C   UNL     1      -6.470  15.966   1.294  1.00  0.00     0.031 C 
ATOM     56  C   UNL     1      -6.941  15.629  -1.116  1.00  0.00     0.034 A 
BRANCH  43  57
ATOM     57  C   UNL     1      -5.060  12.506  -6.135  1.00  0.00     0.023 A 
ATOM     58  C   UNL     1      -5.416  11.239  -6.629  1.00  0.00     0.031 A 
ATOM     59  C   UNL     1      -4.837  13.537  -7.065  1.00  0.00     0.131 A 
ATOM     60  C   UNL     1      -5.480  11.021  -8.015  1.00  0.00     0.055 A 
ATOM     61  C   UNL     1      -4.971  13.332  -8.439  1.00  0.00     0.041 A 
ATOM     62  F   UNL     1      -4.474  14.762  -6.652  1.00  0.00    -0.206 F 
ATOM     63  C   UNL     1      -5.282  12.065  -8.922  1.00  0.00     0.022 A 
BRANCH  60  64
ATOM     64  S   UNL     1      -5.704   9.326  -8.620  1.00  0.00     0.124 S 
ATOM     65  O   UNL     1      -4.537   8.653  -8.053  1.00  0.00    -0.237 OA
ATOM     66  O   UNL     1      -6.994   8.955  -8.050  1.00  0.00    -0.237 OA
ATOM     67  O   UNL     1      -5.683   9.475 -10.073  1.00  0.00    -0.744 OA
ENDBRANCH  60  64
ENDBRANCH  43  57
BRANCH  44  68
ATOM     68  C   UNL     1      -3.457  14.145   3.623  1.00  0.00     0.023 A 
ATOM     69  C   UNL     1      -4.421  13.884   4.609  1.00  0.00     0.031 A 
ATOM     70  C   UNL     1      -2.252  14.751   4.022  1.00  0.00     0.131 A 
ATOM     71  C   UNL     1      -4.184  14.272   5.938  1.00  0.00     0.055 A 
ATOM     72  C   UNL     1      -1.998  15.084   5.354  1.00  0.00     0.041 A 
ATOM     73  F   UNL     1      -1.297  15.025   3.119  1.00  0.00    -0.206 F 
ATOM     74  C   UNL     1      -2.974  14.857   6.319  1.00  0.00     0.022 A 
BRANCH  71  75
ATOM     75  S   UNL     1      -5.521  14.085   7.149  1.00  0.00     0.124 S 
ATOM     76  O   UNL     1      -6.591  14.861   6.534  1.00  0.00    -0.237 OA
ATOM     77  O   UNL     1      -5.709  12.638   7.172  1.00  0.00    -0.237 OA
ATOM     78  O   UNL     1      -4.957  14.657   8.370  1.00  0.00    -0.744 OA
ENDBRANCH  71  75
ENDBRANCH  44  68
BRANCH  56  79
ATOM     79  C   UNL     1      -8.092  16.595  -0.973  1.00  0.00     0.023 A 
ATOM     80  C   UNL     1      -7.886  17.959  -0.704  1.00  0.00     0.031 A 
ATOM     81  C   UNL     1      -9.416  16.136  -1.093  1.00  0.00     0.131 A 
ATOM     82  C   UNL     1      -8.987  18.807  -0.511  1.00  0.00     0.055 A 
ATOM     83  C   UNL     1     -10.507  16.995  -0.956  1.00  0.00     0.041 A 
ATOM     84  F   UNL     1      -9.670  14.842  -1.349  1.00  0.00    -0.206 F 
ATOM     85  C   UNL     1     -10.296  18.337  -0.650  1.00  0.00     0.022 A 
BRANCH  82  86
ATOM     86  S   UNL     1      -8.690  20.519   0.010  1.00  0.00     0.124 S 
ATOM     87  O   UNL     1      -7.965  20.335   1.263  1.00  0.00    -0.237 OA
ATOM     88  O   UNL     1      -7.913  21.054  -1.103  1.00  0.00    -0.237 OA
ATOM     89  O   UNL     1     -10.036  21.075   0.148  1.00  0.00    -0.744 OA
ENDBRANCH  82  86
ENDBRANCH  56  79
ENDBRANCH  30  31
ENDBRANCH  23  25
ENDBRANCH  22  23
ENDBRANCH  21  22
ENDBRANCH   1  21
TORSDOF 18
