REMARK SMILES CC(=O)c1ccc(N2/C(=[NH+]/C(=O)CCCC(=O)OCCOC(=O)c3ccc(-c4c5nc(c(-c6cc(S(=O)(=O)[O-])ccc6F)c6ccc([nH]6)c(-c6cc(S(=O)(=O)[O-])ccc6F)c6nc(c(-c7cc(S(=O)(=O)[O-])ccc7F)c7ccc4[nH]7)C=C6)C=C5)cc3)S[C@H]3CS(=O)(=O)C[C@H]32)cc1
REMARK SMILES IDX 19 1 18 2 16 3 17 4 15 5 14 6 13 7 11 8 8 9 9 10 94 11 10 12
REMARK SMILES IDX 87 13 88 14 93 15 89 17 90 18 12 19 91 20 92 21 7 22 4 23
REMARK SMILES IDX 5 24 96 25 6 26 95 27 2 28 1 29 3 30 20 31 21 32 22 33 23 34
REMARK SMILES IDX 24 35 25 36 86 37 26 38 85 39 27 40 28 41 29 42 79 43 30 44
REMARK SMILES IDX 84 45 78 46 80 47 31 48 83 49 77 50 76 51 32 53 64 54 44 55
REMARK SMILES IDX 63 56 45 57 48 58 62 59 81 60 46 61 47 62 61 64 82 65 49 66
REMARK SMILES IDX 33 67 34 68 42 69 35 70 41 71 43 72 40 73 36 74 37 75 38 76
REMARK SMILES IDX 39 77 65 78 66 79 74 80 67 81 73 82 75 83 72 84 68 85 69 86
REMARK SMILES IDX 70 87 71 88 50 89 51 90 59 91 52 92 58 93 60 94 57 95 53 96
REMARK SMILES IDX 54 97 55 98 56 99
REMARK H PARENT 10 16 80 52 48 63
REMARK Flexibility Score: inf
ROOT
ATOM      1  C   UNL     1       2.632   0.234   8.216  1.00  0.00     0.274 C 
ENDROOT
BRANCH   1   2
ATOM      2  O   UNL     1       3.709  -0.592   7.732  1.00  0.00    -0.462 OA
BRANCH   2   3
ATOM      3  C   UNL     1       3.916  -0.626   6.394  1.00  0.00     0.305 C 
ATOM      4  O   UNL     1       3.226  -0.038   5.569  1.00  0.00    -0.252 OA
BRANCH   3   5
ATOM      5  C   UNL     1       5.118  -1.460   5.985  1.00  0.00     0.123 C 
BRANCH   5   6
ATOM      6  C   UNL     1       6.085  -1.938   7.064  1.00  0.00     0.024 C 
BRANCH   6   7
ATOM      7  C   UNL     1       5.539  -2.788   8.208  1.00  0.00     0.128 C 
BRANCH   7   8
ATOM      8  C   UNL     1       4.642  -3.959   7.852  1.00  0.00     0.307 C 
ATOM      9  N   UNL     1       2.138  -4.526   5.293  1.00  0.00    -0.217 N 
ATOM     10  C   UNL     1       3.234  -4.634   6.128  1.00  0.00     0.319 C 
ATOM     11  C   UNL     1       1.272  -5.705   5.308  1.00  0.00     0.212 C 
ATOM     12  N   UNL     1       3.696  -3.701   6.889  1.00  0.00    -0.204 N 
ATOM     13  S   UNL     1       3.780  -6.313   6.108  1.00  0.00    -0.029 SA
ATOM     14  C   UNL     1       2.215  -6.925   5.398  1.00  0.00     0.120 C 
ATOM     15  C   UNL     1       0.386  -5.683   6.548  1.00  0.00     0.188 C 
ATOM     16  H   UNL     1       3.363  -2.781   6.778  1.00  0.00     0.316 HD
ATOM     17  C   UNL     1       1.612  -8.021   6.263  1.00  0.00     0.156 C 
ATOM     18  S   UNL     1       0.082  -7.383   6.895  1.00  0.00     0.155 S 
ATOM     19  O   UNL     1       4.660  -4.964   8.560  1.00  0.00    -0.247 OA
ATOM     20  O   UNL     1       0.028  -7.571   8.327  1.00  0.00    -0.229 OA
ATOM     21  O   UNL     1      -0.983  -7.827   6.018  1.00  0.00    -0.229 OA
BRANCH   9  22
ATOM     22  C   UNL     1       1.791  -3.438   4.481  1.00  0.00     0.128 A 
ATOM     23  C   UNL     1       1.032  -1.389   2.653  1.00  0.00     0.018 A 
ATOM     24  C   UNL     1       0.120  -1.896   3.583  1.00  0.00     0.016 A 
ATOM     25  C   UNL     1       2.337  -1.885   2.656  1.00  0.00     0.016 A 
ATOM     26  C   UNL     1       0.493  -2.910   4.474  1.00  0.00     0.052 A 
ATOM     27  C   UNL     1       2.709  -2.892   3.568  1.00  0.00     0.052 A 
BRANCH  23  28
ATOM     28  C   UNL     1       0.541  -0.360   1.687  1.00  0.00     0.159 C 
ATOM     29  C   UNL     1       1.292  -0.130   0.401  1.00  0.00     0.093 C 
ATOM     30  O   UNL     1      -0.521   0.219   1.915  1.00  0.00    -0.295 OA
ENDBRANCH  23  28
ENDBRANCH   9  22
ENDBRANCH   7   8
ENDBRANCH   6   7
ENDBRANCH   5   6
ENDBRANCH   3   5
ENDBRANCH   2   3
ENDBRANCH   1   2
BRANCH   1  31
ATOM     31  C   UNL     1       3.181   1.479   8.916  1.00  0.00     0.275 C 
BRANCH  31  32
ATOM     32  O   UNL     1       3.851   2.343   7.980  1.00  0.00    -0.458 OA
BRANCH  32  33
ATOM     33  C   UNL     1       5.186   2.143   7.879  1.00  0.00     0.338 C 
ATOM     34  O   UNL     1       5.872   1.377   8.534  1.00  0.00    -0.246 OA
BRANCH  33  35
ATOM     35  C   UNL     1       5.700   2.882   6.718  1.00  0.00     0.060 A 
ATOM     36  C   UNL     1       5.982   2.154   5.564  1.00  0.00     0.016 A 
ATOM     37  C   UNL     1       5.992   4.241   6.783  1.00  0.00     0.016 A 
ATOM     38  C   UNL     1       6.585   2.759   4.472  1.00  0.00     0.010 A 
ATOM     39  C   UNL     1       6.571   4.863   5.670  1.00  0.00     0.010 A 
ATOM     40  C   UNL     1       6.884   4.122   4.514  1.00  0.00    -0.014 A 
BRANCH  40  41
ATOM     41  C   UNL     1       7.572   4.746   3.359  1.00  0.00     0.031 A 
ATOM     42  C   UNL     1       8.990   5.214   3.507  1.00  0.00     0.074 A 
ATOM     43  C   UNL     1       6.935   4.851   2.177  1.00  0.00     0.049 A 
ATOM     44  N   UNL     1       9.728   5.896   2.672  1.00  0.00    -0.248 NA
ATOM     45  C   UNL     1       9.663   4.874   4.770  1.00  0.00     0.031 C 
ATOM     46  C   UNL     1       5.581   4.365   1.902  1.00  0.00     0.029 A 
ATOM     47  N   UNL     1       7.338   5.402   0.988  1.00  0.00    -0.354 N 
ATOM     48  C   UNL     1      10.941   6.103   3.320  1.00  0.00     0.074 A 
ATOM     49  C   UNL     1      10.831   5.483   4.624  1.00  0.00     0.031 C 
ATOM     50  C   UNL     1       5.268   4.638   0.626  1.00  0.00     0.029 A 
ATOM     51  C   UNL     1       6.365   5.380   0.016  1.00  0.00     0.049 A 
ATOM     52  H   UNL     1       8.237   5.777   0.844  1.00  0.00     0.167 HD
ATOM     53  C   UNL     1      12.039   6.755   2.864  1.00  0.00     0.034 A 
ATOM     54  C   UNL     1       6.342   5.939  -1.210  1.00  0.00     0.034 A 
ATOM     55  C   UNL     1      12.124   7.350   1.551  1.00  0.00     0.049 A 
ATOM     56  C   UNL     1       7.549   6.715  -1.670  1.00  0.00     0.074 A 
ATOM     57  C   UNL     1      13.187   8.027   0.979  1.00  0.00     0.029 A 
ATOM     58  N   UNL     1      11.105   7.342   0.606  1.00  0.00    -0.354 N 
ATOM     59  N   UNL     1       8.676   6.942  -1.035  1.00  0.00    -0.248 NA
ATOM     60  C   UNL     1       7.479   7.312  -3.009  1.00  0.00     0.031 C 
ATOM     61  C   UNL     1      12.787   8.484  -0.282  1.00  0.00     0.029 A 
ATOM     62  C   UNL     1      11.503   8.027  -0.532  1.00  0.00     0.049 A 
ATOM     63  H   UNL     1      10.227   6.912   0.727  1.00  0.00     0.167 HD
ATOM     64  C   UNL     1       9.458   7.694  -1.906  1.00  0.00     0.074 A 
ATOM     65  C   UNL     1       8.680   7.863  -3.118  1.00  0.00     0.031 C 
ATOM     66  C   UNL     1      10.705   8.197  -1.725  1.00  0.00     0.034 A 
BRANCH  53  67
ATOM     67  C   UNL     1      13.197   6.916   3.818  1.00  0.00     0.023 A 
ATOM     68  C   UNL     1      13.933   5.818   4.295  1.00  0.00     0.031 A 
ATOM     69  C   UNL     1      13.549   8.196   4.284  1.00  0.00     0.131 A 
ATOM     70  C   UNL     1      14.935   6.013   5.258  1.00  0.00     0.055 A 
ATOM     71  C   UNL     1      14.598   8.392   5.184  1.00  0.00     0.041 A 
ATOM     72  F   UNL     1      12.866   9.281   3.882  1.00  0.00    -0.206 F 
ATOM     73  C   UNL     1      15.289   7.295   5.688  1.00  0.00     0.022 A 
BRANCH  70  74
ATOM     74  S   UNL     1      15.680   4.558   6.045  1.00  0.00     0.124 S 
ATOM     75  O   UNL     1      14.510   3.912   6.637  1.00  0.00    -0.237 OA
ATOM     76  O   UNL     1      16.289   3.865   4.916  1.00  0.00    -0.237 OA
ATOM     77  O   UNL     1      16.619   5.130   7.007  1.00  0.00    -0.744 OA
ENDBRANCH  70  74
ENDBRANCH  53  67
BRANCH  54  78
ATOM     78  C   UNL     1       5.119   5.845  -2.056  1.00  0.00     0.023 A 
ATOM     79  C   UNL     1       5.132   5.166  -3.283  1.00  0.00     0.031 A 
ATOM     80  C   UNL     1       3.918   6.462  -1.655  1.00  0.00     0.131 A 
ATOM     81  C   UNL     1       3.978   5.148  -4.083  1.00  0.00     0.055 A 
ATOM     82  C   UNL     1       2.760   6.396  -2.430  1.00  0.00     0.041 A 
ATOM     83  F   UNL     1       3.851   7.124  -0.489  1.00  0.00    -0.206 F 
ATOM     84  C   UNL     1       2.789   5.746  -3.659  1.00  0.00     0.022 A 
BRANCH  81  85
ATOM     85  S   UNL     1       4.073   4.386  -5.726  1.00  0.00     0.124 S 
ATOM     86  O   UNL     1       5.135   5.164  -6.355  1.00  0.00    -0.237 OA
ATOM     87  O   UNL     1       4.400   3.002  -5.398  1.00  0.00    -0.237 OA
ATOM     88  O   UNL     1       2.736   4.594  -6.277  1.00  0.00    -0.744 OA
ENDBRANCH  81  85
ENDBRANCH  54  78
BRANCH  66  89
ATOM     89  C   UNL     1      11.314   8.942  -2.887  1.00  0.00     0.023 A 
ATOM     90  C   UNL     1      10.805  10.178  -3.321  1.00  0.00     0.031 A 
ATOM     91  C   UNL     1      12.410   8.395  -3.578  1.00  0.00     0.131 A 
ATOM     92  C   UNL     1      11.357  10.802  -4.450  1.00  0.00     0.055 A 
ATOM     93  C   UNL     1      12.993   9.050  -4.663  1.00  0.00     0.041 A 
ATOM     94  F   UNL     1      12.932   7.215  -3.207  1.00  0.00    -0.206 F 
ATOM     95  C   UNL     1      12.459  10.254  -5.113  1.00  0.00     0.022 A 
BRANCH  92  96
ATOM     96  S   UNL     1      10.558  12.295  -5.098  1.00  0.00     0.124 S 
ATOM     97  O   UNL     1       9.209  11.817  -5.383  1.00  0.00    -0.237 OA
ATOM     98  O   UNL     1      10.683  13.226  -3.982  1.00  0.00    -0.237 OA
ATOM     99  O   UNL     1      11.358  12.628  -6.275  1.00  0.00    -0.744 OA
ENDBRANCH  92  96
ENDBRANCH  66  89
ENDBRANCH  40  41
ENDBRANCH  33  35
ENDBRANCH  32  33
ENDBRANCH  31  32
ENDBRANCH   1  31
TORSDOF 19
