REMARK SMILES O=C(COCC(=O)N1CCC([NH+]2CCN(c3ccc(F)cc3)CC2)CC1)OCCOC(=O)c1ccc(-c2c3nc(c(-c4cc(S(=O)(=O)[O-])ccc4F)c4ccc([nH]4)c(-c4cc(S(=O)(=O)[O-])ccc4F)c4nc(c(-c5cc(S(=O)(=O)[O-])ccc5F)c5ccc2[nH]5)C=C4)C=C3)cc1
REMARK SMILES IDX 28 1 27 2 2 3 1 4 3 5 4 6 5 7 6 8 7 9 8 10 9 11 26 12 10 13
REMARK SMILES IDX 25 14 11 15 12 16 13 17 24 18 14 20 23 21 15 22 16 23 17 24
REMARK SMILES IDX 22 25 18 26 21 27 19 28 20 29 29 30 30 31 31 32 32 33 33 34
REMARK SMILES IDX 34 35 95 36 35 37 94 38 36 39 37 40 38 41 88 42 39 43 93 44
REMARK SMILES IDX 87 45 89 46 40 47 92 48 86 49 85 50 41 52 73 53 53 54 72 55
REMARK SMILES IDX 54 56 57 57 71 58 90 59 55 60 56 61 70 63 91 64 58 65 42 66
REMARK SMILES IDX 43 67 51 68 44 69 50 70 52 71 49 72 45 73 46 74 47 75 48 76
REMARK SMILES IDX 74 77 75 78 83 79 76 80 82 81 84 82 81 83 77 84 78 85 79 86
REMARK SMILES IDX 80 87 59 88 60 89 68 90 61 91 67 92 69 93 66 94 62 95 63 96
REMARK SMILES IDX 64 97 65 98
REMARK H PARENT 12 19 89 51 57 62
REMARK Flexibility Score: inf
ROOT
ATOM      1  C   UNL     1       4.487  -0.106   1.397  1.00  0.00     0.274 C 
ENDROOT
BRANCH   1   2
ATOM      2  O   UNL     1       3.132   0.375   1.341  1.00  0.00    -0.460 OA
BRANCH   2   3
ATOM      3  C   UNL     1       2.483   0.630   0.179  1.00  0.00     0.332 C 
ATOM      4  O   UNL     1       1.323   1.037   0.193  1.00  0.00    -0.250 OA
BRANCH   3   5
ATOM      5  C   UNL     1       3.231   0.410  -1.137  1.00  0.00     0.283 C 
BRANCH   5   6
ATOM      6  O   UNL     1       3.950   1.506  -1.665  1.00  0.00    -0.360 OA
BRANCH   6   7
ATOM      7  C   UNL     1       3.131   2.286  -2.513  1.00  0.00     0.261 C 
BRANCH   7   8
ATOM      8  C   UNL     1       2.524   1.623  -3.771  1.00  0.00     0.248 C 
ATOM      9  O   UNL     1       1.302   1.638  -3.928  1.00  0.00    -0.272 OA
ATOM     10  N   UNL     1       3.411   1.208  -4.762  1.00  0.00    -0.340 N 
ATOM     11  C   UNL     1       3.249   1.730  -6.090  1.00  0.00     0.125 C 
ATOM     12  C   UNL     1       4.214   0.004  -4.717  1.00  0.00     0.125 C 
ATOM     13  C   UNL     1       3.463   0.699  -7.240  1.00  0.00     0.086 C 
ATOM     14  C   UNL     1       3.495  -1.168  -5.425  1.00  0.00     0.086 C 
ATOM     15  C   UNL     1       2.712  -1.027  -7.090  1.00  0.00     0.187 C 
BRANCH  15  16
ATOM     16  N   UNL     1       0.755  -1.693  -7.759  1.00  0.00    -0.329 N 
ATOM     17  C   UNL     1      -0.564  -2.361  -6.989  1.00  0.00     0.284 C 
ATOM     18  C   UNL     1      -0.252  -1.060  -8.958  1.00  0.00     0.284 C 
ATOM     19  H   UNL     1       1.634  -2.200  -7.867  1.00  0.00     0.348 HD
ATOM     20  C   UNL     1      -1.761  -1.466  -6.544  1.00  0.00     0.178 C 
ATOM     21  C   UNL     1      -1.272  -0.005  -8.493  1.00  0.00     0.178 C 
ATOM     22  N   UNL     1      -2.233  -0.624  -7.617  1.00  0.00    -0.360 N 
BRANCH  22  23
ATOM     23  C   UNL     1      -3.544  -0.414  -7.934  1.00  0.00     0.037 A 
ATOM     24  C   UNL     1      -3.981  -0.744  -9.226  1.00  0.00     0.029 A 
ATOM     25  C   UNL     1      -4.403   0.259  -7.068  1.00  0.00     0.029 A 
ATOM     26  C   UNL     1      -5.228  -0.350  -9.680  1.00  0.00     0.041 A 
ATOM     27  C   UNL     1      -5.662   0.651  -7.516  1.00  0.00     0.041 A 
ATOM     28  C   UNL     1      -6.055   0.354  -8.820  1.00  0.00     0.123 A 
ATOM     29  F   UNL     1      -7.249   0.771  -9.258  1.00  0.00    -0.207 F 
ENDBRANCH  22  23
ENDBRANCH  15  16
ENDBRANCH   7   8
ENDBRANCH   6   7
ENDBRANCH   5   6
ENDBRANCH   3   5
ENDBRANCH   2   3
ENDBRANCH   1   2
BRANCH   1  30
ATOM     30  C   UNL     1       4.557  -1.640   1.435  1.00  0.00     0.275 C 
BRANCH  30  31
ATOM     31  O   UNL     1       4.056  -2.253   0.231  1.00  0.00    -0.458 OA
BRANCH  31  32
ATOM     32  C   UNL     1       2.737  -2.598   0.210  1.00  0.00     0.338 C 
ATOM     33  O   UNL     1       1.951  -2.495   1.132  1.00  0.00    -0.246 OA
BRANCH  32  34
ATOM     34  C   UNL     1       2.364  -2.922  -1.190  1.00  0.00     0.060 A 
ATOM     35  C   UNL     1       1.179  -2.397  -1.735  1.00  0.00     0.016 A 
ATOM     36  C   UNL     1       3.233  -3.663  -1.990  1.00  0.00     0.016 A 
ATOM     37  C   UNL     1       0.880  -2.573  -3.095  1.00  0.00     0.010 A 
ATOM     38  C   UNL     1       2.929  -3.844  -3.335  1.00  0.00     0.010 A 
ATOM     39  C   UNL     1       1.758  -3.295  -3.905  1.00  0.00    -0.014 A 
BRANCH  39  40
ATOM     40  C   UNL     1       1.599  -3.510  -5.362  1.00  0.00     0.031 A 
ATOM     41  C   UNL     1       1.173  -4.911  -5.830  1.00  0.00     0.074 A 
ATOM     42  C   UNL     1       1.706  -2.490  -6.272  1.00  0.00     0.049 A 
ATOM     43  N   UNL     1       0.842  -5.360  -7.018  1.00  0.00    -0.248 NA
ATOM     44  C   UNL     1       0.891  -5.873  -4.746  1.00  0.00     0.031 C 
ATOM     45  C   UNL     1       1.106  -0.595  -6.216  1.00  0.00     0.029 A 
ATOM     46  N   UNL     1       2.335  -2.781  -7.967  1.00  0.00    -0.354 N 
ATOM     47  C   UNL     1       0.260  -6.617  -6.814  1.00  0.00     0.074 A 
ATOM     48  C   UNL     1       0.332  -6.882  -5.396  1.00  0.00     0.031 C 
ATOM     49  C   UNL     1       1.379   0.110  -7.775  1.00  0.00     0.029 A 
ATOM     50  C   UNL     1       2.203  -1.243  -8.970  1.00  0.00     0.049 A 
ATOM     51  H   UNL     1       2.692  -3.638  -8.295  1.00  0.00     0.167 HD
ATOM     52  C   UNL     1      -0.337  -7.468  -7.689  1.00  0.00     0.034 A 
ATOM     53  C   UNL     1       2.317  -1.223 -10.331  1.00  0.00     0.034 A 
ATOM     54  C   UNL     1      -0.423  -7.263  -9.114  1.00  0.00     0.049 A 
ATOM     55  C   UNL     1       1.833  -2.434 -11.171  1.00  0.00     0.074 A 
ATOM     56  C   UNL     1      -0.945  -8.133 -10.058  1.00  0.00     0.029 A 
ATOM     57  N   UNL     1       0.021  -6.142  -9.806  1.00  0.00    -0.354 N 
ATOM     58  N   UNL     1       1.282  -3.580 -10.813  1.00  0.00    -0.248 NA
ATOM     59  C   UNL     1       1.801  -2.217 -12.631  1.00  0.00     0.031 C 
ATOM     60  C   UNL     1      -0.743  -7.580 -11.322  1.00  0.00     0.029 A 
ATOM     61  C   UNL     1      -0.180  -6.321 -11.168  1.00  0.00     0.049 A 
ATOM     62  H   UNL     1       0.417  -5.341  -9.392  1.00  0.00     0.167 HD
ATOM     63  C   UNL     1       0.785  -4.173 -11.990  1.00  0.00     0.074 A 
ATOM     64  C   UNL     1       1.069  -3.237 -13.057  1.00  0.00     0.031 C 
ATOM     65  C   UNL     1       0.137  -5.357 -12.201  1.00  0.00     0.034 A 
BRANCH  52  66
ATOM     66  C   UNL     1      -0.916  -8.762  -7.143  1.00  0.00     0.023 A 
ATOM     67  C   UNL     1      -2.123  -8.797  -6.418  1.00  0.00     0.031 A 
ATOM     68  C   UNL     1      -0.274  -9.986  -7.409  1.00  0.00     0.131 A 
ATOM     69  C   UNL     1      -2.631 -10.028  -5.961  1.00  0.00     0.055 A 
ATOM     70  C   UNL     1      -0.812 -11.208  -6.999  1.00  0.00     0.041 A 
ATOM     71  F   UNL     1       0.881 -10.013  -8.091  1.00  0.00    -0.206 F 
ATOM     72  C   UNL     1      -1.994 -11.234  -6.266  1.00  0.00     0.022 A 
BRANCH  69  73
ATOM     73  S   UNL     1      -4.107 -10.040  -4.902  1.00  0.00     0.124 S 
ATOM     74  O   UNL     1      -3.642  -9.287  -3.740  1.00  0.00    -0.237 OA
ATOM     75  O   UNL     1      -5.104  -9.382  -5.737  1.00  0.00    -0.237 OA
ATOM     76  O   UNL     1      -4.342 -11.463  -4.657  1.00  0.00    -0.744 OA
ENDBRANCH  69  73
ENDBRANCH  52  66
BRANCH  53  77
ATOM     77  C   UNL     1       2.495   0.106 -10.955  1.00  0.00     0.023 A 
ATOM     78  C   UNL     1       1.474   0.740 -11.672  1.00  0.00     0.031 A 
ATOM     79  C   UNL     1       3.727   0.765 -10.824  1.00  0.00     0.131 A 
ATOM     80  C   UNL     1       1.687   2.014 -12.205  1.00  0.00     0.055 A 
ATOM     81  C   UNL     1       3.933   2.039 -11.350  1.00  0.00     0.041 A 
ATOM     82  F   UNL     1       4.739   0.184 -10.158  1.00  0.00    -0.206 F 
ATOM     83  C   UNL     1       2.906   2.673 -12.043  1.00  0.00     0.022 A 
BRANCH  80  84
ATOM     84  S   UNL     1       0.324   2.792 -13.103  1.00  0.00     0.124 S 
ATOM     85  O   UNL     1       0.034   1.797 -14.129  1.00  0.00    -0.237 OA
ATOM     86  O   UNL     1      -0.672   2.935 -12.046  1.00  0.00    -0.237 OA
ATOM     87  O   UNL     1       0.909   4.040 -13.585  1.00  0.00    -0.744 OA
ENDBRANCH  80  84
ENDBRANCH  53  77
BRANCH  65  88
ATOM     88  C   UNL     1      -0.265  -5.730 -13.631  1.00  0.00     0.023 A 
ATOM     89  C   UNL     1       0.706  -5.925 -14.630  1.00  0.00     0.031 A 
ATOM     90  C   UNL     1      -1.608  -5.980 -13.986  1.00  0.00     0.131 A 
ATOM     91  C   UNL     1       0.329  -6.294 -15.933  1.00  0.00     0.055 A 
ATOM     92  C   UNL     1      -1.974  -6.412 -15.269  1.00  0.00     0.041 A 
ATOM     93  F   UNL     1      -2.593  -5.843 -13.084  1.00  0.00    -0.206 F 
ATOM     94  C   UNL     1      -1.004  -6.558 -16.255  1.00  0.00     0.022 A 
BRANCH  91  95
ATOM     95  S   UNL     1       1.607  -6.366 -17.218  1.00  0.00     0.124 S 
ATOM     96  O   UNL     1       2.097  -4.991 -17.233  1.00  0.00    -0.237 OA
ATOM     97  O   UNL     1       2.530  -7.364 -16.686  1.00  0.00    -0.237 OA
ATOM     98  O   UNL     1       0.875  -6.777 -18.414  1.00  0.00    -0.744 OA
ENDBRANCH  91  95
ENDBRANCH  65  88
ENDBRANCH  39  40
ENDBRANCH  32  34
ENDBRANCH  31  32
ENDBRANCH  30  31
ENDBRANCH   1  30
TORSDOF 19
