REMARK SMILES Cn1ncc(C(=O)OCCOC(=O)c2ccc(-c3c4nc(c(-c5cc(S(=O)(=O)[O-])ccc5F)c5ccc([nH]5)c(-c5cc(S(=O)(=O)[O-])ccc5F)c5nc(c(-c6cc(S(=O)(=O)[O-])ccc6F)c6ccc3[nH]6)C=C5)C=C4)cc2)c1C(=O)N1CCN(S(C)(=O)=O)CC1
REMARK SMILES IDX 10 1 9 2 8 3 6 4 7 5 5 6 1 7 2 8 3 9 77 10 4 11 78 12 79 13
REMARK SMILES IDX 80 14 81 15 89 16 82 17 88 18 83 19 84 20 85 21 86 22 87 23
REMARK SMILES IDX 11 24 12 25 13 26 14 27 15 28 76 29 16 30 75 31 17 32 18 33
REMARK SMILES IDX 19 34 69 35 20 36 74 37 68 38 70 39 21 40 73 41 67 42 66 43
REMARK SMILES IDX 22 45 54 46 34 47 53 48 35 49 38 50 52 51 71 52 36 53 37 54
REMARK SMILES IDX 51 56 72 57 39 58 23 59 24 60 32 61 25 62 31 63 33 64 30 65
REMARK SMILES IDX 26 66 27 67 28 68 29 69 55 70 56 71 64 72 57 73 63 74 65 75
REMARK SMILES IDX 62 76 58 77 59 78 60 79 61 80 40 81 41 82 49 83 42 84 48 85
REMARK SMILES IDX 50 86 47 87 43 88 44 89 45 90 46 91
REMARK H PARENT 70 44 38 55
REMARK Flexibility Score: inf
ROOT
ATOM      1  C   UNL     1       4.582  -3.139  -1.352  1.00  0.00     0.275 C 
ENDROOT
BRANCH   1   2
ATOM      2  C   UNL     1       3.700  -3.392  -0.132  1.00  0.00     0.275 C 
BRANCH   2   3
ATOM      3  O   UNL     1       2.511  -2.578  -0.179  1.00  0.00    -0.458 OA
BRANCH   3   4
ATOM      4  C   UNL     1       2.428  -1.589   0.756  1.00  0.00     0.342 C 
ATOM      5  O   UNL     1       3.311  -1.326   1.564  1.00  0.00    -0.246 OA
BRANCH   4   6
ATOM      6  C   UNL     1       1.241  -0.760   0.634  1.00  0.00     0.111 A 
ATOM      7  C   UNL     1      -2.197   0.353   0.426  1.00  0.00     0.174 C 
ATOM      8  N   UNL     1      -0.781   0.078   0.458  1.00  0.00    -0.262 N 
ATOM      9  N   UNL     1       0.005   1.149   0.652  1.00  0.00    -0.180 NA
ATOM     10  C   UNL     1      -0.097  -1.125   0.442  1.00  0.00     0.140 A 
ATOM     11  C   UNL     1       1.211   0.633   0.834  1.00  0.00     0.151 A 
BRANCH  10  12
ATOM     12  C   UNL     1      -0.612  -2.481   0.450  1.00  0.00     0.273 C 
ATOM     13  O   UNL     1       0.098  -3.458   0.692  1.00  0.00    -0.267 OA
ATOM     14  N   UNL     1      -1.986  -2.659   0.391  1.00  0.00    -0.335 N 
ATOM     15  C   UNL     1      -2.536  -3.635   1.325  1.00  0.00     0.136 C 
ATOM     16  C   UNL     1      -2.714  -2.550  -0.875  1.00  0.00     0.136 C 
ATOM     17  C   UNL     1      -4.003  -3.343   1.618  1.00  0.00     0.123 C 
ATOM     18  C   UNL     1      -4.224  -2.324  -0.658  1.00  0.00     0.123 C 
ATOM     19  N   UNL     1      -4.790  -3.250   0.362  1.00  0.00    -0.199 NA
BRANCH  19  20
ATOM     20  S   UNL     1      -5.772  -4.524  -0.106  1.00  0.00     0.211 S 
ATOM     21  C   UNL     1      -4.634  -5.638  -0.900  1.00  0.00     0.176 C 
ATOM     22  O   UNL     1      -6.267  -5.177   1.085  1.00  0.00    -0.213 OA
ATOM     23  O   UNL     1      -6.679  -4.034  -1.123  1.00  0.00    -0.213 OA
ENDBRANCH  19  20
ENDBRANCH  10  12
ENDBRANCH   4   6
ENDBRANCH   3   4
ENDBRANCH   2   3
ENDBRANCH   1   2
BRANCH   1  24
ATOM     24  O   UNL     1       5.027  -1.771  -1.360  1.00  0.00    -0.458 OA
BRANCH  24  25
ATOM     25  C   UNL     1       4.489  -0.990  -2.326  1.00  0.00     0.338 C 
ATOM     26  O   UNL     1       3.745  -1.332  -3.229  1.00  0.00    -0.246 OA
BRANCH  25  27
ATOM     27  C   UNL     1       4.861   0.409  -2.074  1.00  0.00     0.060 A 
ATOM     28  C   UNL     1       4.178   1.093  -1.075  1.00  0.00     0.016 A 
ATOM     29  C   UNL     1       5.766   1.082  -2.888  1.00  0.00     0.016 A 
ATOM     30  C   UNL     1       4.333   2.466  -0.920  1.00  0.00     0.010 A 
ATOM     31  C   UNL     1       5.987   2.451  -2.678  1.00  0.00     0.010 A 
ATOM     32  C   UNL     1       5.250   3.166  -1.712  1.00  0.00    -0.014 A 
BRANCH  32  33
ATOM     33  C   UNL     1       5.384   4.645  -1.573  1.00  0.00     0.031 A 
ATOM     34  C   UNL     1       5.091   5.536  -2.754  1.00  0.00     0.074 A 
ATOM     35  C   UNL     1       5.734   5.200  -0.395  1.00  0.00     0.049 A 
ATOM     36  N   UNL     1       5.325   6.814  -2.910  1.00  0.00    -0.248 NA
ATOM     37  C   UNL     1       4.465   4.894  -3.919  1.00  0.00     0.031 C 
ATOM     38  C   UNL     1       5.973   4.466   0.850  1.00  0.00     0.029 A 
ATOM     39  N   UNL     1       5.947   6.512  -0.046  1.00  0.00    -0.354 N 
ATOM     40  C   UNL     1       4.927   7.118  -4.208  1.00  0.00     0.074 A 
ATOM     41  C   UNL     1       4.450   5.885  -4.799  1.00  0.00     0.031 C 
ATOM     42  C   UNL     1       6.268   5.337   1.827  1.00  0.00     0.029 A 
ATOM     43  C   UNL     1       6.339   6.680   1.263  1.00  0.00     0.049 A 
ATOM     44  H   UNL     1       5.830   7.262  -0.673  1.00  0.00     0.167 HD
ATOM     45  C   UNL     1       4.958   8.316  -4.846  1.00  0.00     0.034 A 
ATOM     46  C   UNL     1       6.761   7.777   1.924  1.00  0.00     0.034 A 
ATOM     47  C   UNL     1       5.396   9.544  -4.225  1.00  0.00     0.049 A 
ATOM     48  C   UNL     1       6.853   9.083   1.177  1.00  0.00     0.074 A 
ATOM     49  C   UNL     1       5.461  10.813  -4.774  1.00  0.00     0.029 A 
ATOM     50  N   UNL     1       5.837   9.660  -2.912  1.00  0.00    -0.354 N 
ATOM     51  N   UNL     1       6.545   9.344  -0.073  1.00  0.00    -0.248 NA
ATOM     52  C   UNL     1       7.363  10.239   1.925  1.00  0.00     0.031 C 
ATOM     53  C   UNL     1       5.997  11.681  -3.817  1.00  0.00     0.029 A 
ATOM     54  C   UNL     1       6.200  10.972  -2.644  1.00  0.00     0.049 A 
ATOM     55  H   UNL     1       5.884   8.919  -2.266  1.00  0.00     0.167 HD
ATOM     56  C   UNL     1       6.811  10.698  -0.254  1.00  0.00     0.074 A 
ATOM     57  C   UNL     1       7.281  11.203   1.020  1.00  0.00     0.031 C 
ATOM     58  C   UNL     1       6.682  11.456  -1.372  1.00  0.00     0.034 A 
BRANCH  45  59
ATOM     59  C   UNL     1       4.570   8.338  -6.306  1.00  0.00     0.023 A 
ATOM     60  C   UNL     1       3.269   8.035  -6.743  1.00  0.00     0.031 A 
ATOM     61  C   UNL     1       5.537   8.640  -7.283  1.00  0.00     0.131 A 
ATOM     62  C   UNL     1       2.989   7.971  -8.117  1.00  0.00     0.055 A 
ATOM     63  C   UNL     1       5.233   8.653  -8.645  1.00  0.00     0.041 A 
ATOM     64  F   UNL     1       6.803   8.916  -6.929  1.00  0.00    -0.206 F 
ATOM     65  C   UNL     1       3.956   8.302  -9.070  1.00  0.00     0.022 A 
BRANCH  62  66
ATOM     66  S   UNL     1       1.385   7.311  -8.649  1.00  0.00     0.124 S 
ATOM     67  O   UNL     1       1.404   5.975  -8.058  1.00  0.00    -0.237 OA
ATOM     68  O   UNL     1       0.444   8.257  -8.060  1.00  0.00    -0.237 OA
ATOM     69  O   UNL     1       1.468   7.340 -10.108  1.00  0.00    -0.744 OA
ENDBRANCH  62  66
ENDBRANCH  45  59
BRANCH  46  70
ATOM     70  C   UNL     1       7.211   7.680   3.344  1.00  0.00     0.023 A 
ATOM     71  C   UNL     1       6.558   8.388   4.365  1.00  0.00     0.031 A 
ATOM     72  C   UNL     1       8.338   6.913   3.693  1.00  0.00     0.131 A 
ATOM     73  C   UNL     1       7.058   8.345   5.677  1.00  0.00     0.055 A 
ATOM     74  C   UNL     1       8.795   6.825   5.009  1.00  0.00     0.041 A 
ATOM     75  F   UNL     1       9.007   6.222   2.756  1.00  0.00    -0.206 F 
ATOM     76  C   UNL     1       8.161   7.555   6.008  1.00  0.00     0.022 A 
BRANCH  73  77
ATOM     77  S   UNL     1       6.300   9.412   6.934  1.00  0.00     0.124 S 
ATOM     78  O   UNL     1       6.467  10.734   6.341  1.00  0.00    -0.237 OA
ATOM     79  O   UNL     1       4.935   8.898   6.984  1.00  0.00    -0.237 OA
ATOM     80  O   UNL     1       7.104   9.156   8.127  1.00  0.00    -0.744 OA
ENDBRANCH  73  77
ENDBRANCH  46  70
BRANCH  58  81
ATOM     81  C   UNL     1       7.020  12.921  -1.244  1.00  0.00     0.023 A 
ATOM     82  C   UNL     1       8.338  13.358  -1.022  1.00  0.00     0.031 A 
ATOM     83  C   UNL     1       6.005  13.890  -1.323  1.00  0.00     0.131 A 
ATOM     84  C   UNL     1       8.598  14.723  -0.831  1.00  0.00     0.055 A 
ATOM     85  C   UNL     1       6.278  15.252  -1.189  1.00  0.00     0.041 A 
ATOM     86  F   UNL     1       4.729  13.528  -1.530  1.00  0.00    -0.206 F 
ATOM     87  C   UNL     1       7.579  15.674  -0.929  1.00  0.00     0.022 A 
BRANCH  84  88
ATOM     88  S   UNL     1      10.274  15.235  -0.364  1.00  0.00     0.124 S 
ATOM     89  O   UNL     1      10.478  14.504   0.883  1.00  0.00    -0.237 OA
ATOM     90  O   UNL     1      11.068  14.785  -1.503  1.00  0.00    -0.237 OA
ATOM     91  O   UNL     1      10.164  16.685  -0.222  1.00  0.00    -0.744 OA
ENDBRANCH  84  88
ENDBRANCH  58  81
ENDBRANCH  32  33
ENDBRANCH  25  27
ENDBRANCH  24  25
ENDBRANCH   1  24
TORSDOF 16
