REMARK SMILES Cc1c(CC(=O)OCCOC(=O)c2ccc(-c3c4nc(c(-c5cc(S(=O)(=O)[O-])ccc5F)c5ccc([nH]5)c(-c5cc(S(=O)(=O)[O-])ccc5F)c5nc(c(-c6cc(S(=O)(=O)[O-])ccc6F)c6ccc3[nH]6)C=C5)C=C4)cc2)cc(-c2ccccc2)cc1-c1ccccc1
REMARK SMILES IDX 9 1 8 2 7 3 5 4 6 5 4 6 3 7 1 8 2 9 85 10 76 11 84 12 77 13
REMARK SMILES IDX 86 14 87 15 91 16 88 17 90 18 89 19 78 20 79 21 83 22 80 23
REMARK SMILES IDX 82 24 81 25 10 26 11 27 12 28 13 29 14 30 75 31 15 32 74 33
REMARK SMILES IDX 16 34 17 35 18 36 68 37 19 38 73 39 67 40 69 41 20 42 72 43
REMARK SMILES IDX 66 44 65 45 21 47 53 48 33 49 52 50 34 51 37 52 51 53 70 54
REMARK SMILES IDX 35 55 36 56 50 58 71 59 38 60 22 61 23 62 31 63 24 64 30 65
REMARK SMILES IDX 32 66 29 67 25 68 26 69 27 70 28 71 54 72 55 73 63 74 56 75
REMARK SMILES IDX 62 76 64 77 61 78 57 79 58 80 59 81 60 82 39 83 40 84 48 85
REMARK SMILES IDX 41 86 47 87 49 88 46 89 42 90 43 91 44 92 45 93
REMARK H PARENT 69 46 37 57
REMARK Flexibility Score: inf
ROOT
ATOM      1  C   UNL     1      -1.853  -3.820   4.062  1.00  0.00     0.275 C 
ENDROOT
BRANCH   1   2
ATOM      2  C   UNL     1      -0.485  -4.490   4.215  1.00  0.00     0.274 C 
BRANCH   2   3
ATOM      3  O   UNL     1       0.482  -3.726   3.474  1.00  0.00    -0.462 OA
BRANCH   3   4
ATOM      4  C   UNL     1       0.512  -3.945   2.043  1.00  0.00     0.310 C 
ATOM      5  O   UNL     1       0.187  -5.164   1.904  1.00  0.00    -0.252 OA
BRANCH   4   6
ATOM      6  C   UNL     1       0.963  -2.427   0.563  1.00  0.00     0.158 C 
BRANCH   6   7
ATOM      7  C   UNL     1       0.266  -0.896   0.124  1.00  0.00    -0.033 A 
ATOM      8  C   UNL     1       2.518   0.314   0.254  1.00  0.00     0.045 C 
ATOM      9  C   UNL     1       1.014   0.319   0.127  1.00  0.00    -0.039 A 
ATOM     10  C   UNL     1       0.320   1.551  -0.028  1.00  0.00    -0.015 A 
ATOM     11  C   UNL     1      -1.057  -0.835  -0.348  1.00  0.00     0.013 A 
ATOM     12  C   UNL     1      -1.083   1.541  -0.147  1.00  0.00     0.017 A 
ATOM     13  C   UNL     1      -1.784   0.351  -0.306  1.00  0.00    -0.017 A 
BRANCH  10  14
ATOM     14  C   UNL     1       0.996   2.857  -0.064  1.00  0.00    -0.018 A 
ATOM     15  C   UNL     1       0.854   3.772   0.989  1.00  0.00     0.009 A 
ATOM     16  C   UNL     1       1.787   3.222  -1.167  1.00  0.00     0.009 A 
ATOM     17  C   UNL     1       1.504   5.007   0.951  1.00  0.00     0.001 A 
ATOM     18  C   UNL     1       2.451   4.448  -1.198  1.00  0.00     0.001 A 
ATOM     19  C   UNL     1       2.309   5.340  -0.138  1.00  0.00     0.000 A 
ENDBRANCH  10  14
BRANCH  13  20
ATOM     20  C   UNL     1      -3.248   0.291  -0.315  1.00  0.00    -0.018 A 
ATOM     21  C   UNL     1      -3.921  -0.359   0.736  1.00  0.00     0.009 A 
ATOM     22  C   UNL     1      -4.008   0.812  -1.363  1.00  0.00     0.009 A 
ATOM     23  C   UNL     1      -5.302  -0.544   0.713  1.00  0.00     0.001 A 
ATOM     24  C   UNL     1      -5.397   0.654  -1.375  1.00  0.00     0.001 A 
ATOM     25  C   UNL     1      -6.041  -0.035  -0.346  1.00  0.00     0.000 A 
ENDBRANCH  13  20
ENDBRANCH   6   7
ENDBRANCH   4   6
ENDBRANCH   3   4
ENDBRANCH   2   3
ENDBRANCH   1   2
BRANCH   1  26
ATOM     26  O   UNL     1      -2.578  -3.947   2.802  1.00  0.00    -0.458 OA
BRANCH  26  27
ATOM     27  C   UNL     1      -2.385  -3.380   1.590  1.00  0.00     0.338 C 
ATOM     28  O   UNL     1      -3.249  -3.324   0.725  1.00  0.00    -0.246 OA
BRANCH  27  29
ATOM     29  C   UNL     1      -1.026  -2.954   1.215  1.00  0.00     0.060 A 
ATOM     30  C   UNL     1      -0.220  -4.101   0.075  1.00  0.00     0.016 A 
ATOM     31  C   UNL     1      -0.051  -1.941   2.344  1.00  0.00     0.016 A 
ATOM     32  C   UNL     1       1.557  -4.436   0.267  1.00  0.00     0.010 A 
ATOM     33  C   UNL     1       1.719  -2.252   2.501  1.00  0.00     0.010 A 
ATOM     34  C   UNL     1       2.477  -3.587   1.542  1.00  0.00    -0.014 A 
BRANCH  34  35
ATOM     35  C   UNL     1       3.552  -4.232   2.275  1.00  0.00     0.031 A 
ATOM     36  C   UNL     1       4.799  -3.483   2.397  1.00  0.00     0.074 A 
ATOM     37  C   UNL     1       3.291  -5.361   2.980  1.00  0.00     0.049 A 
ATOM     38  N   UNL     1       5.921  -4.017   2.698  1.00  0.00    -0.248 NA
ATOM     39  C   UNL     1       4.924  -2.062   2.074  1.00  0.00     0.031 C 
ATOM     40  C   UNL     1       4.037  -5.939   4.095  1.00  0.00     0.029 A 
ATOM     41  N   UNL     1       2.291  -6.298   2.810  1.00  0.00    -0.354 N 
ATOM     42  C   UNL     1       6.765  -2.982   3.017  1.00  0.00     0.074 A 
ATOM     43  C   UNL     1       6.200  -1.828   2.383  1.00  0.00     0.031 C 
ATOM     44  C   UNL     1       3.641  -7.215   4.281  1.00  0.00     0.029 A 
ATOM     45  C   UNL     1       2.721  -7.555   3.211  1.00  0.00     0.049 A 
ATOM     46  H   UNL     1       1.395  -6.102   2.454  1.00  0.00     0.167 HD
ATOM     47  C   UNL     1       7.716  -3.211   3.958  1.00  0.00     0.034 A 
ATOM     48  C   UNL     1       2.891  -8.550   2.286  1.00  0.00     0.034 A 
ATOM     49  C   UNL     1       7.767  -4.644   4.280  1.00  0.00     0.049 A 
ATOM     50  C   UNL     1       4.378  -8.767   1.994  1.00  0.00     0.074 A 
ATOM     51  C   UNL     1       7.376  -5.430   5.348  1.00  0.00     0.029 A 
ATOM     52  N   UNL     1       7.962  -5.523   3.230  1.00  0.00    -0.354 N 
ATOM     53  N   UNL     1       5.337  -8.088   2.571  1.00  0.00    -0.248 NA
ATOM     54  C   UNL     1       4.910  -9.715   1.019  1.00  0.00     0.031 C 
ATOM     55  C   UNL     1       7.254  -6.782   4.872  1.00  0.00     0.029 A 
ATOM     56  C   UNL     1       7.629  -6.822   3.539  1.00  0.00     0.049 A 
ATOM     57  H   UNL     1       8.304  -5.247   2.349  1.00  0.00     0.167 HD
ATOM     58  C   UNL     1       6.557  -8.423   2.056  1.00  0.00     0.074 A 
ATOM     59  C   UNL     1       6.228  -9.438   1.060  1.00  0.00     0.031 C 
ATOM     60  C   UNL     1       7.722  -7.824   2.476  1.00  0.00     0.034 A 
BRANCH  47  61
ATOM     61  C   UNL     1       8.471  -2.148   4.713  1.00  0.00     0.023 A 
ATOM     62  C   UNL     1       9.453  -2.582   5.620  1.00  0.00     0.031 A 
ATOM     63  C   UNL     1       8.255  -0.750   4.683  1.00  0.00     0.131 A 
ATOM     64  C   UNL     1      10.153  -1.676   6.433  1.00  0.00     0.055 A 
ATOM     65  C   UNL     1       8.989   0.158   5.457  1.00  0.00     0.041 A 
ATOM     66  F   UNL     1       7.293  -0.175   3.953  1.00  0.00    -0.206 F 
ATOM     67  C   UNL     1       9.941  -0.303   6.345  1.00  0.00     0.022 A 
BRANCH  64  68
ATOM     68  S   UNL     1      11.319  -2.334   7.647  1.00  0.00     0.124 S 
ATOM     69  O   UNL     1      10.443  -3.111   8.518  1.00  0.00    -0.237 OA
ATOM     70  O   UNL     1      12.240  -3.092   6.808  1.00  0.00    -0.237 OA
ATOM     71  O   UNL     1      11.885  -1.132   8.257  1.00  0.00    -0.744 OA
ENDBRANCH  64  68
ENDBRANCH  47  61
BRANCH  48  72
ATOM     72  C   UNL     1       1.734  -8.621   1.327  1.00  0.00     0.023 A 
ATOM     73  C   UNL     1       0.454  -8.819   1.905  1.00  0.00     0.031 A 
ATOM     74  C   UNL     1       1.775  -8.075   0.037  1.00  0.00     0.131 A 
ATOM     75  C   UNL     1      -0.698  -8.288   1.301  1.00  0.00     0.055 A 
ATOM     76  C   UNL     1       0.608  -7.617  -0.601  1.00  0.00     0.041 A 
ATOM     77  F   UNL     1       2.948  -7.821  -0.563  1.00  0.00    -0.206 F 
ATOM     78  C   UNL     1      -0.624  -7.672   0.053  1.00  0.00     0.022 A 
BRANCH  75  79
ATOM     79  S   UNL     1      -2.224  -8.155   2.290  1.00  0.00     0.124 S 
ATOM     80  O   UNL     1      -2.767  -9.506   2.187  1.00  0.00    -0.237 OA
ATOM     81  O   UNL     1      -1.733  -7.775   3.613  1.00  0.00    -0.237 OA
ATOM     82  O   UNL     1      -2.993  -7.123   1.600  1.00  0.00    -0.744 OA
ENDBRANCH  75  79
ENDBRANCH  48  72
BRANCH  60  83
ATOM     83  C   UNL     1       9.082  -8.122   1.872  1.00  0.00     0.023 A 
ATOM     84  C   UNL     1       9.392  -9.394   1.387  1.00  0.00     0.031 A 
ATOM     85  C   UNL     1      10.133  -7.170   1.794  1.00  0.00     0.131 A 
ATOM     86  C   UNL     1      10.608  -9.638   0.729  1.00  0.00     0.055 A 
ATOM     87  C   UNL     1      11.386  -7.450   1.248  1.00  0.00     0.041 A 
ATOM     88  F   UNL     1       9.997  -5.899   2.191  1.00  0.00    -0.206 F 
ATOM     89  C   UNL     1      11.620  -8.685   0.677  1.00  0.00     0.022 A 
BRANCH  86  90
ATOM     90  S   UNL     1      10.782 -11.198  -0.162  1.00  0.00     0.124 S 
ATOM     91  O   UNL     1      10.454 -12.186   0.861  1.00  0.00    -0.237 OA
ATOM     92  O   UNL     1       9.794 -11.037  -1.226  1.00  0.00    -0.237 OA
ATOM     93  O   UNL     1      12.175 -11.190  -0.600  1.00  0.00    -0.744 OA
ENDBRANCH  86  90
ENDBRANCH  60  83
ENDBRANCH  34  35
ENDBRANCH  27  29
ENDBRANCH  26  27
ENDBRANCH   1  26
TORSDOF 17
