REMARK SMILES CC[C@@H]1CCCN(S(=O)(=O)c2cc(C(=O)OCCOC(=O)c3ccc(-c4c5nc(c(-c6cc(S(=O)(=O)[O-])ccc6F)c6ccc([nH]6)c(-c6cc(S(=O)(=O)[O-])ccc6F)c6nc(c(-c7cc(S(=O)(=O)[O-])ccc7F)c7ccc4[nH]7)C=C6)C=C5)cc3)ccc2F)C1
REMARK SMILES IDX 17 1 16 2 14 3 15 4 13 5 11 6 12 7 87 8 86 9 88 10 85 11
REMARK SMILES IDX 8 12 9 13 10 14 7 15 3 16 4 17 89 18 5 19 6 20 2 21 1 22
REMARK SMILES IDX 18 23 19 24 20 25 21 26 22 27 23 28 84 29 24 30 83 31 25 32
REMARK SMILES IDX 26 33 27 34 77 35 28 36 82 37 76 38 78 39 29 40 81 41 75 42
REMARK SMILES IDX 74 43 30 45 62 46 42 47 61 48 43 49 46 50 60 51 79 52 44 53
REMARK SMILES IDX 45 54 59 56 80 57 47 58 31 59 32 60 40 61 33 62 39 63 41 64
REMARK SMILES IDX 38 65 34 66 35 67 36 68 37 69 63 70 64 71 72 72 65 73 71 74
REMARK SMILES IDX 73 75 70 76 66 77 67 78 68 79 69 80 48 81 49 82 57 83 50 84
REMARK SMILES IDX 56 85 58 86 55 87 51 88 52 89 53 90 54 91
REMARK H PARENT 78 44 46 55
REMARK Flexibility Score: inf
ROOT
ATOM      1  C   UNL     1       3.147  -1.216  -8.045  1.00  0.00     0.275 C 
ENDROOT
BRANCH   1   2
ATOM      2  O   UNL     1       3.077  -0.052  -7.195  1.00  0.00    -0.458 OA
BRANCH   2   3
ATOM      3  C   UNL     1       2.456  -0.206  -5.998  1.00  0.00     0.338 C 
ATOM      4  O   UNL     1       1.937  -1.222  -5.572  1.00  0.00    -0.246 OA
BRANCH   3   5
ATOM      5  C   UNL     1       2.575   1.044  -5.204  1.00  0.00     0.061 A 
ATOM      6  C   UNL     1       2.996   2.121  -3.066  1.00  0.00     0.119 A 
ATOM      7  C   UNL     1       2.756   0.960  -3.814  1.00  0.00     0.040 A 
ATOM      8  C   UNL     1       2.967   3.360  -3.690  1.00  0.00     0.143 A 
ATOM      9  C   UNL     1       2.715   3.455  -5.058  1.00  0.00     0.041 A 
ATOM     10  F   UNL     1       3.146   4.497  -3.005  1.00  0.00    -0.206 F 
ATOM     11  C   UNL     1       2.542   2.299  -5.823  1.00  0.00     0.019 A 
BRANCH   6  12
ATOM     12  S   UNL     1       3.586   1.975  -1.401  1.00  0.00     0.246 S 
ATOM     13  O   UNL     1       4.415   3.124  -1.100  1.00  0.00    -0.207 OA
ATOM     14  O   UNL     1       4.115   0.636  -1.281  1.00  0.00    -0.207 OA
BRANCH  12  15
ATOM     15  N   UNL     1       2.177   2.068  -0.431  1.00  0.00    -0.197 NA
ATOM     16  C   UNL     1       1.147   1.504   1.786  1.00  0.00     0.004 C 
ATOM     17  C   UNL     1       0.331   2.804   1.696  1.00  0.00     0.006 C 
ATOM     18  C   UNL     1       2.450   1.626   0.982  1.00  0.00     0.106 C 
ATOM     19  C   UNL     1       0.153   3.285   0.264  1.00  0.00     0.017 C 
ATOM     20  C   UNL     1       1.493   3.387  -0.453  1.00  0.00     0.102 C 
BRANCH  16  21
ATOM     21  C   UNL     1       0.308   0.239   1.486  1.00  0.00     0.001 C 
ATOM     22  C   UNL     1       0.351  -0.321   0.071  1.00  0.00     0.004 C 
ENDBRANCH  16  21
ENDBRANCH  12  15
ENDBRANCH   6  12
ENDBRANCH   3   5
ENDBRANCH   2   3
ENDBRANCH   1   2
BRANCH   1  23
ATOM     23  C   UNL     1       4.571  -1.768  -8.107  1.00  0.00     0.275 C 
BRANCH  23  24
ATOM     24  O   UNL     1       4.925  -2.349  -6.839  1.00  0.00    -0.458 OA
BRANCH  24  25
ATOM     25  C   UNL     1       5.881  -1.690  -6.145  1.00  0.00     0.338 C 
ATOM     26  O   UNL     1       6.519  -0.716  -6.506  1.00  0.00    -0.246 OA
BRANCH  25  27
ATOM     27  C   UNL     1       5.992  -2.267  -4.797  1.00  0.00     0.060 A 
ATOM     28  C   UNL     1       5.010  -1.936  -3.872  1.00  0.00     0.016 A 
ATOM     29  C   UNL     1       7.122  -2.975  -4.394  1.00  0.00     0.016 A 
ATOM     30  C   UNL     1       5.200  -2.208  -2.522  1.00  0.00     0.010 A 
ATOM     31  C   UNL     1       7.263  -3.336  -3.044  1.00  0.00     0.010 A 
ATOM     32  C   UNL     1       6.329  -2.911  -2.080  1.00  0.00    -0.014 A 
BRANCH  32  33
ATOM     33  C   UNL     1       6.551  -3.110  -0.613  1.00  0.00     0.031 A 
ATOM     34  C   UNL     1       7.806  -2.583   0.043  1.00  0.00     0.074 A 
ATOM     35  C   UNL     1       5.604  -3.686   0.159  1.00  0.00     0.049 A 
ATOM     36  N   UNL     1       8.248  -2.776   1.261  1.00  0.00    -0.248 NA
ATOM     37  C   UNL     1       8.689  -1.743  -0.783  1.00  0.00     0.031 C 
ATOM     38  C   UNL     1       4.306  -4.174  -0.314  1.00  0.00     0.029 A 
ATOM     39  N   UNL     1       5.569  -3.931   1.512  1.00  0.00    -0.354 N 
ATOM     40  C   UNL     1       9.479  -2.129   1.329  1.00  0.00     0.074 A 
ATOM     41  C   UNL     1       9.721  -1.550   0.026  1.00  0.00     0.031 C 
ATOM     42  C   UNL     1       3.578  -4.584   0.735  1.00  0.00     0.029 A 
ATOM     43  C   UNL     1       4.390  -4.496   1.944  1.00  0.00     0.049 A 
ATOM     44  H   UNL     1       6.318  -3.722   2.116  1.00  0.00     0.167 HD
ATOM     45  C   UNL     1      10.326  -2.025   2.383  1.00  0.00     0.034 A 
ATOM     46  C   UNL     1       4.009  -4.933   3.162  1.00  0.00     0.034 A 
ATOM     47  C   UNL     1      10.043  -2.539   3.700  1.00  0.00     0.049 A 
ATOM     48  C   UNL     1       4.986  -4.861   4.304  1.00  0.00     0.074 A 
ATOM     49  C   UNL     1      10.834  -2.477   4.835  1.00  0.00     0.029 A 
ATOM     50  N   UNL     1       8.873  -3.189   4.067  1.00  0.00    -0.354 N 
ATOM     51  N   UNL     1       6.197  -4.356   4.319  1.00  0.00    -0.248 NA
ATOM     52  C   UNL     1       4.562  -5.446   5.583  1.00  0.00     0.031 C 
ATOM     53  C   UNL     1      10.167  -3.135   5.872  1.00  0.00     0.029 A 
ATOM     54  C   UNL     1       8.932  -3.551   5.404  1.00  0.00     0.049 A 
ATOM     55  H   UNL     1       8.113  -3.366   3.467  1.00  0.00     0.167 HD
ATOM     56  C   UNL     1       6.677  -4.559   5.607  1.00  0.00     0.074 A 
ATOM     57  C   UNL     1       5.623  -5.222   6.348  1.00  0.00     0.031 C 
ATOM     58  C   UNL     1       7.883  -4.225   6.128  1.00  0.00     0.034 A 
BRANCH  45  59
ATOM     59  C   UNL     1      11.667  -1.376   2.151  1.00  0.00     0.023 A 
ATOM     60  C   UNL     1      11.806   0.002   1.915  1.00  0.00     0.031 A 
ATOM     61  C   UNL     1      12.835  -2.160   2.204  1.00  0.00     0.131 A 
ATOM     62  C   UNL     1      13.083   0.547   1.705  1.00  0.00     0.055 A 
ATOM     63  C   UNL     1      14.105  -1.602   2.057  1.00  0.00     0.041 A 
ATOM     64  F   UNL     1      12.759  -3.485   2.412  1.00  0.00    -0.206 F 
ATOM     65  C   UNL     1      14.234  -0.241   1.799  1.00  0.00     0.022 A 
BRANCH  62  66
ATOM     66  S   UNL     1      13.225   2.293   1.238  1.00  0.00     0.124 S 
ATOM     67  O   UNL     1      12.576   2.302  -0.070  1.00  0.00    -0.237 OA
ATOM     68  O   UNL     1      12.509   2.970   2.313  1.00  0.00    -0.237 OA
ATOM     69  O   UNL     1      14.668   2.525   1.212  1.00  0.00    -0.744 OA
ENDBRANCH  62  66
ENDBRANCH  45  59
BRANCH  46  70
ATOM     70  C   UNL     1       2.663  -5.548   3.343  1.00  0.00     0.023 A 
ATOM     71  C   UNL     1       1.678  -4.925   4.125  1.00  0.00     0.031 A 
ATOM     72  C   UNL     1       2.342  -6.769   2.722  1.00  0.00     0.131 A 
ATOM     73  C   UNL     1       0.419  -5.531   4.271  1.00  0.00     0.055 A 
ATOM     74  C   UNL     1       1.076  -7.343   2.833  1.00  0.00     0.041 A 
ATOM     75  F   UNL     1       3.251  -7.405   1.966  1.00  0.00    -0.206 F 
ATOM     76  C   UNL     1       0.106  -6.725   3.615  1.00  0.00     0.022 A 
BRANCH  73  77
ATOM     77  S   UNL     1      -0.810  -4.748   5.352  1.00  0.00     0.124 S 
ATOM     78  O   UNL     1      -0.175  -4.870   6.660  1.00  0.00    -0.237 OA
ATOM     79  O   UNL     1      -0.890  -3.399   4.801  1.00  0.00    -0.237 OA
ATOM     80  O   UNL     1      -2.005  -5.567   5.159  1.00  0.00    -0.744 OA
ENDBRANCH  73  77
ENDBRANCH  46  70
BRANCH  58  81
ATOM     81  C   UNL     1       8.129  -4.543   7.577  1.00  0.00     0.023 A 
ATOM     82  C   UNL     1       8.379  -5.857   8.008  1.00  0.00     0.031 A 
ATOM     83  C   UNL     1       8.174  -3.508   8.527  1.00  0.00     0.131 A 
ATOM     84  C   UNL     1       8.648  -6.104   9.362  1.00  0.00     0.055 A 
ATOM     85  C   UNL     1       8.482  -3.755   9.865  1.00  0.00     0.041 A 
ATOM     86  F   UNL     1       7.945  -2.236   8.162  1.00  0.00    -0.206 F 
ATOM     87  C   UNL     1       8.719  -5.060  10.289  1.00  0.00     0.022 A 
BRANCH  84  88
ATOM     88  S   UNL     1       8.896  -7.816   9.908  1.00  0.00     0.124 S 
ATOM     89  O   UNL     1       7.568  -8.390   9.711  1.00  0.00    -0.237 OA
ATOM     90  O   UNL     1       9.936  -8.292   9.002  1.00  0.00    -0.237 OA
ATOM     91  O   UNL     1       9.310  -7.675  11.303  1.00  0.00    -0.744 OA
ENDBRANCH  84  88
ENDBRANCH  58  81
ENDBRANCH  32  33
ENDBRANCH  25  27
ENDBRANCH  24  25
ENDBRANCH  23  24
ENDBRANCH   1  23
TORSDOF 17
