REMARK SMILES O=C(OCCOC(=O)[C@H]1C[C@@H](O)CN1C(=O)c1cc(F)c(F)cc1Cl)c1ccc(-c2c3nc(c(-c4cc(S(=O)(=O)[O-])ccc4F)c4ccc([nH]4)c(-c4cc(S(=O)(=O)[O-])ccc4F)c4nc(c(-c5cc(S(=O)(=O)[O-])ccc5F)c5ccc2[nH]5)C=C4)C=C3)cc1
REMARK SMILES IDX 4 1 3 2 2 3 1 4 26 5 27 6 88 7 28 8 87 9 29 10 30 11 31 12
REMARK SMILES IDX 81 13 32 14 86 15 80 16 82 17 33 18 85 19 79 20 78 21 34 23
REMARK SMILES IDX 66 24 46 25 65 26 47 27 50 28 64 29 83 30 48 31 49 32 63 34
REMARK SMILES IDX 84 35 51 36 35 37 36 38 44 39 37 40 43 41 45 42 42 43 38 44
REMARK SMILES IDX 39 45 40 46 41 47 67 48 68 49 76 50 69 51 75 52 77 53 74 54
REMARK SMILES IDX 70 55 71 56 72 57 73 58 52 59 53 60 61 61 54 62 60 63 62 64
REMARK SMILES IDX 59 65 55 66 56 67 57 68 58 69 5 70 6 71 7 72 8 73 9 74 10 75
REMARK SMILES IDX 14 76 11 77 13 78 15 79 16 80 17 81 18 82 24 83 19 84 23 85
REMARK SMILES IDX 25 86 20 87 21 88 22 89 12 90
REMARK H PARENT 82 22 50 33 12 91
REMARK Flexibility Score: inf
ROOT
ATOM      1  C   UNL     1       4.561  -0.038  -1.359  1.00  0.00     0.275 C 
ENDROOT
BRANCH   1   2
ATOM      2  O   UNL     1       3.409  -0.795  -0.939  1.00  0.00    -0.458 OA
BRANCH   2   3
ATOM      3  C   UNL     1       3.147  -1.386   0.255  1.00  0.00     0.338 C 
ATOM      4  O   UNL     1       2.258  -2.235   0.305  1.00  0.00    -0.246 OA
BRANCH   3   5
ATOM      5  C   UNL     1       3.756  -0.944   1.553  1.00  0.00     0.060 A 
ATOM      6  C   UNL     1       2.914  -0.978   2.680  1.00  0.00     0.016 A 
ATOM      7  C   UNL     1       5.077  -0.527   1.746  1.00  0.00     0.016 A 
ATOM      8  C   UNL     1       3.351  -0.516   3.930  1.00  0.00     0.010 A 
ATOM      9  C   UNL     1       5.518  -0.060   2.996  1.00  0.00     0.010 A 
ATOM     10  C   UNL     1       4.654  -0.020   4.094  1.00  0.00    -0.014 A 
BRANCH  10  11
ATOM     11  C   UNL     1       5.149   0.346   5.444  1.00  0.00     0.031 A 
ATOM     12  C   UNL     1       5.343   1.758   5.915  1.00  0.00     0.074 A 
ATOM     13  C   UNL     1       5.453  -0.661   6.277  1.00  0.00     0.049 A 
ATOM     14  N   UNL     1       5.337   2.213   7.142  1.00  0.00    -0.248 NA
ATOM     15  C   UNL     1       5.538   2.802   4.907  1.00  0.00     0.031 C 
ATOM     16  C   UNL     1       5.380  -2.078   5.927  1.00  0.00     0.029 A 
ATOM     17  N   UNL     1       5.914  -0.647   7.564  1.00  0.00    -0.354 N 
ATOM     18  C   UNL     1       5.365   3.600   7.037  1.00  0.00     0.074 A 
ATOM     19  C   UNL     1       5.461   3.914   5.632  1.00  0.00     0.031 C 
ATOM     20  C   UNL     1       5.816  -2.800   6.966  1.00  0.00     0.029 A 
ATOM     21  C   UNL     1       6.212  -1.896   8.043  1.00  0.00     0.049 A 
ATOM     22  H   UNL     1       6.021   0.177   8.093  1.00  0.00     0.167 HD
ATOM     23  C   UNL     1       5.353   4.520   8.029  1.00  0.00     0.034 A 
ATOM     24  C   UNL     1       6.760  -2.268   9.214  1.00  0.00     0.034 A 
ATOM     25  C   UNL     1       5.646   4.184   9.398  1.00  0.00     0.049 A 
ATOM     26  C   UNL     1       6.984  -1.216  10.264  1.00  0.00     0.074 A 
ATOM     27  C   UNL     1       5.758   5.031  10.485  1.00  0.00     0.029 A 
ATOM     28  N   UNL     1       6.010   2.918   9.837  1.00  0.00    -0.354 N 
ATOM     29  N   UNL     1       6.712   0.068  10.212  1.00  0.00    -0.248 NA
ATOM     30  C   UNL     1       7.554  -1.659  11.540  1.00  0.00     0.031 C 
ATOM     31  C   UNL     1       6.341   4.309  11.529  1.00  0.00     0.029 A 
ATOM     32  C   UNL     1       6.462   2.982  11.143  1.00  0.00     0.049 A 
ATOM     33  H   UNL     1       5.954   2.096   9.298  1.00  0.00     0.167 HD
ATOM     34  C   UNL     1       7.054   0.585  11.457  1.00  0.00     0.074 A 
ATOM     35  C   UNL     1       7.536  -0.533  12.244  1.00  0.00     0.031 C 
ATOM     36  C   UNL     1       6.968   1.864  11.909  1.00  0.00     0.034 A 
BRANCH  23  37
ATOM     37  C   UNL     1       5.083   5.966   7.693  1.00  0.00     0.023 A 
ATOM     38  C   UNL     1       6.065   6.954   7.891  1.00  0.00     0.031 A 
ATOM     39  C   UNL     1       3.783   6.383   7.351  1.00  0.00     0.131 A 
ATOM     40  C   UNL     1       5.720   8.310   7.794  1.00  0.00     0.055 A 
ATOM     41  C   UNL     1       3.449   7.736   7.239  1.00  0.00     0.041 A 
ATOM     42  F   UNL     1       2.808   5.481   7.146  1.00  0.00    -0.206 F 
ATOM     43  C   UNL     1       4.418   8.707   7.473  1.00  0.00     0.022 A 
BRANCH  40  44
ATOM     44  S   UNL     1       6.936   9.615   8.128  1.00  0.00     0.124 S 
ATOM     45  O   UNL     1       6.868  10.409   6.903  1.00  0.00    -0.237 OA
ATOM     46  O   UNL     1       6.380  10.253   9.317  1.00  0.00    -0.237 OA
ATOM     47  O   UNL     1       8.184   8.885   8.322  1.00  0.00    -0.744 OA
ENDBRANCH  40  44
ENDBRANCH  23  37
BRANCH  24  48
ATOM     48  C   UNL     1       7.054  -3.713   9.413  1.00  0.00     0.023 A 
ATOM     49  C   UNL     1       7.939  -4.377   8.540  1.00  0.00     0.031 A 
ATOM     50  C   UNL     1       6.314  -4.483  10.321  1.00  0.00     0.131 A 
ATOM     51  C   UNL     1       7.980  -5.776   8.522  1.00  0.00     0.055 A 
ATOM     52  C   UNL     1       6.420  -5.874  10.355  1.00  0.00     0.041 A 
ATOM     53  F   UNL     1       5.445  -3.894  11.156  1.00  0.00    -0.206 F 
ATOM     54  C   UNL     1       7.235  -6.529   9.434  1.00  0.00     0.022 A 
BRANCH  51  55
ATOM     55  S   UNL     1       8.844  -6.657   7.189  1.00  0.00     0.124 S 
ATOM     56  O   UNL     1       9.872  -7.386   7.925  1.00  0.00    -0.237 OA
ATOM     57  O   UNL     1       7.771  -7.472   6.624  1.00  0.00    -0.237 OA
ATOM     58  O   UNL     1       9.327  -5.586   6.323  1.00  0.00    -0.744 OA
ENDBRANCH  51  55
ENDBRANCH  24  48
BRANCH  36  59
ATOM     59  C   UNL     1       7.425   2.160  13.317  1.00  0.00     0.023 A 
ATOM     60  C   UNL     1       6.519   2.712  14.241  1.00  0.00     0.031 A 
ATOM     61  C   UNL     1       8.774   2.048  13.695  1.00  0.00     0.131 A 
ATOM     62  C   UNL     1       6.979   3.179  15.477  1.00  0.00     0.055 A 
ATOM     63  C   UNL     1       9.217   2.455  14.954  1.00  0.00     0.041 A 
ATOM     64  F   UNL     1       9.682   1.544  12.844  1.00  0.00    -0.206 F 
ATOM     65  C   UNL     1       8.321   3.041  15.844  1.00  0.00     0.022 A 
BRANCH  62  66
ATOM     66  S   UNL     1       5.878   4.085  16.598  1.00  0.00     0.124 S 
ATOM     67  O   UNL     1       5.852   3.208  17.766  1.00  0.00    -0.237 OA
ATOM     68  O   UNL     1       6.595   5.345  16.779  1.00  0.00    -0.237 OA
ATOM     69  O   UNL     1       4.623   4.179  15.860  1.00  0.00    -0.744 OA
ENDBRANCH  62  66
ENDBRANCH  36  59
ENDBRANCH  10  11
ENDBRANCH   3   5
ENDBRANCH   2   3
ENDBRANCH   1   2
BRANCH   1  70
ATOM     70  C   UNL     1       4.403   1.466  -1.153  1.00  0.00     0.274 C 
BRANCH  70  71
ATOM     71  O   UNL     1       3.876   1.721   0.151  1.00  0.00    -0.461 OA
BRANCH  71  72
ATOM     72  C   UNL     1       2.667   2.347   0.235  1.00  0.00     0.329 C 
ATOM     73  O   UNL     1       2.075   2.850  -0.711  1.00  0.00    -0.250 OA
BRANCH  72  74
ATOM     74  C   UNL     1       2.149   2.288   1.683  1.00  0.00     0.198 C 
ATOM     75  C   UNL     1       3.226   2.682   2.689  1.00  0.00     0.071 C 
ATOM     76  N   UNL     1       1.075   3.239   1.959  1.00  0.00    -0.322 N 
ATOM     77  C   UNL     1       3.031   4.173   2.885  1.00  0.00     0.136 C 
ATOM     78  C   UNL     1       1.518   4.291   2.881  1.00  0.00     0.152 C 
BRANCH  76  79
ATOM     79  C   UNL     1      -0.225   2.934   1.608  1.00  0.00     0.256 C 
ATOM     80  O   UNL     1      -0.557   1.915   1.014  1.00  0.00    -0.269 OA
BRANCH  79  81
ATOM     81  C   UNL     1      -1.246   3.928   1.974  1.00  0.00     0.061 A 
ATOM     82  C   UNL     1      -1.100   5.218   1.447  1.00  0.00     0.057 A 
ATOM     83  C   UNL     1      -2.270   3.637   2.884  1.00  0.00     0.056 A 
ATOM     84  C   UNL     1      -1.917   6.233   1.912  1.00  0.00     0.159 A 
ATOM     85  C   UNL     1      -3.110   4.665   3.316  1.00  0.00     0.063 A 
ATOM     86  Cl  UNL     1      -2.512   2.065   3.551  1.00  0.00    -0.083 Cl
ATOM     87  F   UNL     1      -1.716   7.484   1.478  1.00  0.00    -0.204 F 
ATOM     88  C   UNL     1      -2.911   5.961   2.844  1.00  0.00     0.160 A 
ATOM     89  F   UNL     1      -3.685   6.952   3.304  1.00  0.00    -0.204 F 
ENDBRANCH  79  81
ENDBRANCH  76  79
BRANCH  77  90
ATOM     90  O   UNL     1       3.638   4.883   1.808  1.00  0.00    -0.391 OA
ATOM     91  H   UNL     1       3.280   4.561   0.966  1.00  0.00     0.211 HD
ENDBRANCH  77  90
ENDBRANCH  72  74
ENDBRANCH  71  72
ENDBRANCH  70  71
ENDBRANCH   1  70
TORSDOF 17
