REMARK SMILES CC1=Nc2nc(NC(=O)CCC(=O)OCCOC(=O)c3ccc(-c4c5nc(c(-c6cc(S(=O)(=O)[O-])ccc6F)c6ccc([nH]6)c(-c6cc(S(=O)(=O)[O-])ccc6F)c6nc(c(-c7cc(S(=O)(=O)[O-])ccc7F)c7ccc4[nH]7)C=C6)C=C5)cc3)nn2[C@@H](c2ccc(Cl)cc2)C1
REMARK SMILES IDX 15 1 14 2 12 3 13 4 11 5 10 6 8 7 7 8 9 10 6 11 1 12 2 13
REMARK SMILES IDX 3 14 93 15 4 16 85 17 5 18 84 19 83 20 86 21 87 22 92 23
REMARK SMILES IDX 88 24 91 25 89 26 90 27 16 28 17 29 18 30 19 31 20 32 21 33
REMARK SMILES IDX 82 34 22 35 81 36 23 37 24 38 25 39 75 40 26 41 80 42 74 43
REMARK SMILES IDX 76 44 27 45 79 46 73 47 72 48 28 50 60 51 40 52 59 53 41 54
REMARK SMILES IDX 44 55 58 56 77 57 42 58 43 59 57 61 78 62 45 63 29 64 30 65
REMARK SMILES IDX 38 66 31 67 37 68 39 69 36 70 32 71 33 72 34 73 35 74 61 75
REMARK SMILES IDX 62 76 70 77 63 78 69 79 71 80 68 81 64 82 65 83 66 84 67 85
REMARK SMILES IDX 46 86 47 87 55 88 48 89 54 90 56 91 53 92 49 93 50 94 51 95
REMARK SMILES IDX 52 96
REMARK H PARENT 7 9 76 49 44 60
REMARK Flexibility Score: inf
ROOT
ATOM      1  C   UNL     1      -3.777   1.207   4.815  1.00  0.00     0.274 C 
ENDROOT
BRANCH   1   2
ATOM      2  O   UNL     1      -3.666   2.135   5.902  1.00  0.00    -0.462 OA
BRANCH   2   3
ATOM      3  C   UNL     1      -3.694   1.455   7.081  1.00  0.00     0.306 C 
ATOM      4  O   UNL     1      -4.549   0.658   7.350  1.00  0.00    -0.252 OA
BRANCH   3   5
ATOM      5  C   UNL     1      -2.528   1.860   7.974  1.00  0.00     0.132 C 
BRANCH   5   6
ATOM      6  C   UNL     1      -1.084   1.858   7.389  1.00  0.00     0.112 C 
BRANCH   6   7
ATOM      7  C   UNL     1      -0.674   3.095   6.582  1.00  0.00     0.227 C 
ATOM      8  N   UNL     1       0.009   3.134   5.393  1.00  0.00    -0.293 N 
ATOM      9  H   UNL     1       0.440   4.010   5.267  1.00  0.00     0.173 HD
ATOM     10  O   UNL     1      -0.919   4.199   7.096  1.00  0.00    -0.275 OA
BRANCH   8  11
ATOM     11  C   UNL     1       0.268   2.301   4.320  1.00  0.00     0.250 A 
ATOM     12  C   UNL     1       1.479   0.801  -1.135  1.00  0.00     0.062 C 
ATOM     13  C   UNL     1       1.119   0.741   0.322  1.00  0.00     0.021 C 
ATOM     14  N   UNL     1       1.208   1.839   1.005  1.00  0.00    -0.221 NA
ATOM     15  C   UNL     1       0.706  -0.612   0.846  1.00  0.00     0.083 C 
ATOM     16  C   UNL     1       0.825   1.833   2.298  1.00  0.00     0.250 A 
ATOM     17  C   UNL     1       0.271  -0.628   2.302  1.00  0.00     0.147 C 
ATOM     18  N   UNL     1       0.860   2.809   3.195  1.00  0.00    -0.174 NA
ATOM     19  N   UNL     1       0.234   0.739   2.872  1.00  0.00    -0.220 N 
ATOM     20  N   UNL     1      -0.098   1.043   4.137  1.00  0.00    -0.130 NA
BRANCH  17  21
ATOM     21  C   UNL     1      -0.952  -1.571   2.423  1.00  0.00    -0.023 A 
ATOM     22  C   UNL     1      -2.271  -1.193   2.118  1.00  0.00     0.007 A 
ATOM     23  C   UNL     1      -0.746  -2.936   2.739  1.00  0.00     0.007 A 
ATOM     24  C   UNL     1      -3.352  -2.073   2.321  1.00  0.00     0.021 A 
ATOM     25  C   UNL     1      -1.817  -3.841   2.857  1.00  0.00     0.021 A 
ATOM     26  C   UNL     1      -3.120  -3.393   2.691  1.00  0.00     0.041 A 
ATOM     27  Cl  UNL     1      -4.444  -4.472   2.913  1.00  0.00    -0.084 Cl
ENDBRANCH  17  21
ENDBRANCH   8  11
ENDBRANCH   6   7
ENDBRANCH   5   6
ENDBRANCH   3   5
ENDBRANCH   2   3
ENDBRANCH   1   2
BRANCH   1  28
ATOM     28  C   UNL     1      -2.477   0.407   4.784  1.00  0.00     0.275 C 
BRANCH  28  29
ATOM     29  O   UNL     1      -2.260  -0.972   5.186  1.00  0.00    -0.458 OA
BRANCH  29  30
ATOM     30  C   UNL     1      -1.584  -1.292   6.346  1.00  0.00     0.338 C 
ATOM     31  O   UNL     1      -2.200  -1.381   7.402  1.00  0.00    -0.246 OA
BRANCH  30  32
ATOM     32  C   UNL     1      -0.126  -1.790   6.309  1.00  0.00     0.060 A 
ATOM     33  C   UNL     1       0.321  -2.733   7.230  1.00  0.00     0.016 A 
ATOM     34  C   UNL     1       0.908  -1.266   5.541  1.00  0.00     0.016 A 
ATOM     35  C   UNL     1       1.664  -3.202   7.215  1.00  0.00     0.010 A 
ATOM     36  C   UNL     1       2.203  -1.790   5.400  1.00  0.00     0.010 A 
ATOM     37  C   UNL     1       2.604  -2.790   6.242  1.00  0.00    -0.014 A 
BRANCH  37  38
ATOM     38  C   UNL     1       3.871  -3.523   6.029  1.00  0.00     0.031 A 
ATOM     39  C   UNL     1       3.653  -4.989   5.975  1.00  0.00     0.074 A 
ATOM     40  C   UNL     1       5.119  -3.135   5.661  1.00  0.00     0.049 A 
ATOM     41  N   UNL     1       3.881  -5.842   6.912  1.00  0.00    -0.248 NA
ATOM     42  C   UNL     1       2.948  -5.537   4.810  1.00  0.00     0.031 C 
ATOM     43  C   UNL     1       5.603  -1.824   5.232  1.00  0.00     0.029 A 
ATOM     44  N   UNL     1       6.245  -3.922   5.538  1.00  0.00    -0.354 N 
ATOM     45  C   UNL     1       3.536  -7.081   6.393  1.00  0.00     0.074 A 
ATOM     46  C   UNL     1       2.795  -6.808   5.188  1.00  0.00     0.031 C 
ATOM     47  C   UNL     1       6.858  -1.943   4.731  1.00  0.00     0.029 A 
ATOM     48  C   UNL     1       7.335  -3.305   4.926  1.00  0.00     0.049 A 
ATOM     49  H   UNL     1       6.277  -4.853   5.859  1.00  0.00     0.167 HD
ATOM     50  C   UNL     1       4.057  -8.229   6.908  1.00  0.00     0.034 A 
ATOM     51  C   UNL     1       8.536  -3.861   4.597  1.00  0.00     0.034 A 
ATOM     52  C   UNL     1       4.745  -7.972   8.158  1.00  0.00     0.049 A 
ATOM     53  C   UNL     1       8.724  -5.062   5.446  1.00  0.00     0.074 A 
ATOM     54  C   UNL     1       4.388  -7.393   9.364  1.00  0.00     0.029 A 
ATOM     55  N   UNL     1       6.123  -7.997   8.162  1.00  0.00    -0.354 N 
ATOM     56  N   UNL     1       8.925  -5.018   6.732  1.00  0.00    -0.248 NA
ATOM     57  C   UNL     1       8.322  -6.362   4.931  1.00  0.00     0.031 C 
ATOM     58  C   UNL     1       5.539  -6.657   9.777  1.00  0.00     0.029 A 
ATOM     59  C   UNL     1       6.548  -6.881   8.840  1.00  0.00     0.049 A 
ATOM     60  H   UNL     1       6.695  -8.687   7.755  1.00  0.00     0.167 HD
ATOM     61  C   UNL     1       8.271  -6.127   7.237  1.00  0.00     0.074 A 
ATOM     62  C   UNL     1       8.031  -6.980   6.079  1.00  0.00     0.031 C 
ATOM     63  C   UNL     1       7.733  -6.117   8.493  1.00  0.00     0.034 A 
BRANCH  50  64
ATOM     64  C   UNL     1       4.233  -9.530   6.158  1.00  0.00     0.023 A 
ATOM     65  C   UNL     1       4.769 -10.611   6.883  1.00  0.00     0.031 A 
ATOM     66  C   UNL     1       4.163  -9.707   4.759  1.00  0.00     0.131 A 
ATOM     67  C   UNL     1       5.303 -11.731   6.228  1.00  0.00     0.055 A 
ATOM     68  C   UNL     1       4.616 -10.864   4.117  1.00  0.00     0.041 A 
ATOM     69  F   UNL     1       3.747  -8.749   3.925  1.00  0.00    -0.206 F 
ATOM     70  C   UNL     1       5.224 -11.870   4.847  1.00  0.00     0.022 A 
BRANCH  67  71
ATOM     71  S   UNL     1       6.286 -12.895   7.205  1.00  0.00     0.124 S 
ATOM     72  O   UNL     1       7.262 -12.003   7.822  1.00  0.00    -0.237 OA
ATOM     73  O   UNL     1       5.279 -13.466   8.093  1.00  0.00    -0.237 OA
ATOM     74  O   UNL     1       6.823 -13.809   6.199  1.00  0.00    -0.744 OA
ENDBRANCH  67  71
ENDBRANCH  50  64
BRANCH  51  75
ATOM     75  C   UNL     1       9.487  -3.515   3.500  1.00  0.00     0.023 A 
ATOM     76  C   UNL     1      10.836  -3.944   3.490  1.00  0.00     0.031 A 
ATOM     77  C   UNL     1       8.997  -2.959   2.299  1.00  0.00     0.131 A 
ATOM     78  C   UNL     1      11.624  -3.812   2.321  1.00  0.00     0.055 A 
ATOM     79  C   UNL     1       9.783  -2.820   1.151  1.00  0.00     0.041 A 
ATOM     80  F   UNL     1       7.705  -2.617   2.171  1.00  0.00    -0.206 F 
ATOM     81  C   UNL     1      11.098  -3.255   1.154  1.00  0.00     0.022 A 
BRANCH  78  82
ATOM     82  S   UNL     1      13.317  -4.493   2.250  1.00  0.00     0.124 S 
ATOM     83  O   UNL     1      14.083  -3.501   2.994  1.00  0.00    -0.237 OA
ATOM     84  O   UNL     1      13.160  -5.801   2.875  1.00  0.00    -0.237 OA
ATOM     85  O   UNL     1      13.602  -4.538   0.814  1.00  0.00    -0.744 OA
ENDBRANCH  78  82
ENDBRANCH  51  75
BRANCH  63  86
ATOM     86  C   UNL     1       8.212  -5.079   9.489  1.00  0.00     0.023 A 
ATOM     87  C   UNL     1       8.282  -3.690   9.245  1.00  0.00     0.031 A 
ATOM     88  C   UNL     1       8.534  -5.523  10.786  1.00  0.00     0.131 A 
ATOM     89  C   UNL     1       8.683  -2.809  10.267  1.00  0.00     0.055 A 
ATOM     90  C   UNL     1       8.905  -4.646  11.805  1.00  0.00     0.041 A 
ATOM     91  F   UNL     1       8.471  -6.829  11.096  1.00  0.00    -0.206 F 
ATOM     92  C   UNL     1       8.991  -3.284  11.546  1.00  0.00     0.022 A 
BRANCH  89  93
ATOM     93  S   UNL     1       8.843  -1.026   9.938  1.00  0.00     0.124 S 
ATOM     94  O   UNL     1       9.506  -0.972   8.641  1.00  0.00    -0.237 OA
ATOM     95  O   UNL     1       7.453  -0.579   9.963  1.00  0.00    -0.237 OA
ATOM     96  O   UNL     1       9.655  -0.548  11.059  1.00  0.00    -0.744 OA
ENDBRANCH  89  93
ENDBRANCH  63  86
ENDBRANCH  37  38
ENDBRANCH  30  32
ENDBRANCH  29  30
ENDBRANCH  28  29
ENDBRANCH   1  28
TORSDOF 18
