REMARK SMILES C[NH2+][C@](C)(CCSc1ccncc1)C(=O)OCCOC(=O)c1ccc(-c2c3nc(c(-c4cc(S(=O)(=O)[O-])ccc4F)c4ccc([nH]4)c(-c4cc(S(=O)(=O)[O-])ccc4F)c4nc(c(-c5cc(S(=O)(=O)[O-])ccc5F)c5ccc2[nH]5)C=C4)C=C3)cc1
REMARK SMILES IDX 17 1 16 2 14 3 15 4 3 5 4 6 2 7 1 8 5 11 6 12 7 13 8 14 9 15
REMARK SMILES IDX 13 16 10 17 12 18 11 19 18 20 19 21 20 22 21 23 22 24 23 25
REMARK SMILES IDX 84 26 24 27 83 28 25 29 26 30 27 31 77 32 28 33 82 34 76 35
REMARK SMILES IDX 78 36 29 37 81 38 75 39 74 40 30 42 62 43 42 44 61 45 43 46
REMARK SMILES IDX 46 47 60 48 79 49 44 50 45 51 59 53 80 54 47 55 31 56 32 57
REMARK SMILES IDX 40 58 33 59 39 60 41 61 38 62 34 63 35 64 36 65 37 66 63 67
REMARK SMILES IDX 64 68 72 69 65 70 71 71 73 72 70 73 66 74 67 75 68 76 69 77
REMARK SMILES IDX 48 78 49 79 57 80 50 81 56 82 58 83 55 84 51 85 52 86 53 87
REMARK SMILES IDX 54 88
REMARK H PARENT 2 9 2 10 78 41 46 52
REMARK Flexibility Score: inf
ROOT
ATOM      1  C   UNL     1      -3.149   2.345   1.631  1.00  0.00     0.274 C 
ENDROOT
BRANCH   1   2
ATOM      2  O   UNL     1      -2.784   0.934   1.456  1.00  0.00    -0.457 OA
BRANCH   2   3
ATOM      3  C   UNL     1      -2.479   0.250   0.283  1.00  0.00     0.367 C 
ATOM      4  O   UNL     1      -2.757   0.667  -0.833  1.00  0.00    -0.245 OA
BRANCH   3   5
ATOM      5  C   UNL     1      -1.826  -1.248   0.604  1.00  0.00     0.192 C 
ATOM      6  C   UNL     1      -0.351  -1.722   0.378  1.00  0.00     0.092 C 
BRANCH   5   7
ATOM      7  N   UNL     1      -2.679  -2.261  -0.131  1.00  0.00    -0.335 N 
ATOM      8  C   UNL     1      -2.032  -2.776  -1.359  1.00  0.00     0.331 C 
ATOM      9  H   UNL     1      -2.862  -3.046   0.493  1.00  0.00     0.347 HD
ATOM     10  H   UNL     1      -3.538  -1.790  -0.413  1.00  0.00     0.347 HD
ENDBRANCH   5   7
BRANCH   5  11
ATOM     11  C   UNL     1      -1.946  -1.329   2.127  1.00  0.00     0.092 C 
BRANCH  11  12
ATOM     12  C   UNL     1      -1.056  -0.226   2.796  1.00  0.00     0.082 C 
BRANCH  12  13
ATOM     13  S   UNL     1       0.285   0.868   1.859  1.00  0.00    -0.126 SA
BRANCH  13  14
ATOM     14  C   UNL     1      -0.004   1.779   0.336  1.00  0.00     0.010 A 
ATOM     15  C   UNL     1       0.447   1.205  -0.849  1.00  0.00     0.035 A 
ATOM     16  C   UNL     1      -0.272   3.151   0.253  1.00  0.00     0.035 A 
ATOM     17  C   UNL     1       0.469   1.939  -2.030  1.00  0.00     0.112 A 
ATOM     18  C   UNL     1      -0.226   3.819  -0.968  1.00  0.00     0.112 A 
ATOM     19  N   UNL     1       0.116   3.232  -2.123  1.00  0.00    -0.265 NA
ENDBRANCH  13  14
ENDBRANCH  12  13
ENDBRANCH  11  12
ENDBRANCH   5  11
ENDBRANCH   3   5
ENDBRANCH   2   3
ENDBRANCH   1   2
BRANCH   1  20
ATOM     20  C   UNL     1      -2.611   2.962   3.006  1.00  0.00     0.275 C 
BRANCH  20  21
ATOM     21  O   UNL     1      -1.199   3.368   2.994  1.00  0.00    -0.458 OA
BRANCH  21  22
ATOM     22  C   UNL     1      -0.443   3.431   4.131  1.00  0.00     0.338 C 
ATOM     23  O   UNL     1      -0.886   3.294   5.273  1.00  0.00    -0.246 OA
BRANCH  22  24
ATOM     24  C   UNL     1       1.036   3.452   3.810  1.00  0.00     0.060 A 
ATOM     25  C   UNL     1       1.717   2.239   3.917  1.00  0.00     0.016 A 
ATOM     26  C   UNL     1       1.764   4.548   3.328  1.00  0.00     0.016 A 
ATOM     27  C   UNL     1       2.947   2.031   3.267  1.00  0.00     0.010 A 
ATOM     28  C   UNL     1       3.107   4.380   2.867  1.00  0.00     0.010 A 
ATOM     29  C   UNL     1       3.695   3.103   2.775  1.00  0.00    -0.014 A 
BRANCH  29  30
ATOM     30  C   UNL     1       5.155   2.844   2.511  1.00  0.00     0.031 A 
ATOM     31  C   UNL     1       6.015   2.550   3.727  1.00  0.00     0.074 A 
ATOM     32  C   UNL     1       5.714   2.698   1.287  1.00  0.00     0.049 A 
ATOM     33  N   UNL     1       7.302   2.334   3.824  1.00  0.00    -0.248 NA
ATOM     34  C   UNL     1       5.301   2.448   5.011  1.00  0.00     0.031 C 
ATOM     35  C   UNL     1       5.005   2.729   0.008  1.00  0.00     0.029 A 
ATOM     36  N   UNL     1       7.028   2.462   0.920  1.00  0.00    -0.354 N 
ATOM     37  C   UNL     1       7.540   2.074   5.172  1.00  0.00     0.074 A 
ATOM     38  C   UNL     1       6.267   2.121   5.846  1.00  0.00     0.031 C 
ATOM     39  C   UNL     1       5.890   2.543  -0.994  1.00  0.00     0.029 A 
ATOM     40  C   UNL     1       7.244   2.437  -0.444  1.00  0.00     0.049 A 
ATOM     41  H   UNL     1       7.748   2.323   1.577  1.00  0.00     0.167 HD
ATOM     42  C   UNL     1       8.712   1.855   5.814  1.00  0.00     0.034 A 
ATOM     43  C   UNL     1       8.396   2.387  -1.160  1.00  0.00     0.034 A 
ATOM     44  C   UNL     1       9.991   1.875   5.160  1.00  0.00     0.049 A 
ATOM     45  C   UNL     1       9.721   2.338  -0.416  1.00  0.00     0.074 A 
ATOM     46  C   UNL     1      11.251   1.788   5.723  1.00  0.00     0.029 A 
ATOM     47  N   UNL     1      10.172   2.010   3.791  1.00  0.00    -0.354 N 
ATOM     48  N   UNL     1       9.943   2.230   0.875  1.00  0.00    -0.248 NA
ATOM     49  C   UNL     1      10.949   2.426  -1.224  1.00  0.00     0.031 C 
ATOM     50  C   UNL     1      12.195   1.937   4.702  1.00  0.00     0.029 A 
ATOM     51  C   UNL     1      11.524   2.035   3.493  1.00  0.00     0.049 A 
ATOM     52  H   UNL     1       9.447   2.077   3.129  1.00  0.00     0.167 HD
ATOM     53  C   UNL     1      11.330   2.218   1.027  1.00  0.00     0.074 A 
ATOM     54  C   UNL     1      11.895   2.312  -0.302  1.00  0.00     0.031 C 
ATOM     55  C   UNL     1      12.072   2.136   2.162  1.00  0.00     0.034 A 
BRANCH  42  56
ATOM     56  C   UNL     1       8.643   1.734   7.317  1.00  0.00     0.023 A 
ATOM     57  C   UNL     1       8.002   0.654   7.952  1.00  0.00     0.031 A 
ATOM     58  C   UNL     1       9.127   2.781   8.120  1.00  0.00     0.131 A 
ATOM     59  C   UNL     1       7.794   0.689   9.341  1.00  0.00     0.055 A 
ATOM     60  C   UNL     1       8.991   2.768   9.508  1.00  0.00     0.041 A 
ATOM     61  F   UNL     1       9.708   3.856   7.563  1.00  0.00    -0.206 F 
ATOM     62  C   UNL     1       8.306   1.726  10.125  1.00  0.00     0.022 A 
BRANCH  59  63
ATOM     63  S   UNL     1       6.700  -0.552  10.087  1.00  0.00     0.124 S 
ATOM     64  O   UNL     1       5.450  -0.317   9.366  1.00  0.00    -0.237 OA
ATOM     65  O   UNL     1       7.386  -1.801   9.787  1.00  0.00    -0.237 OA
ATOM     66  O   UNL     1       6.672  -0.178  11.501  1.00  0.00    -0.744 OA
ENDBRANCH  59  63
ENDBRANCH  42  56
BRANCH  43  67
ATOM     67  C   UNL     1       8.397   2.515  -2.659  1.00  0.00     0.023 A 
ATOM     68  C   UNL     1       8.976   1.544  -3.500  1.00  0.00     0.031 A 
ATOM     69  C   UNL     1       7.913   3.689  -3.269  1.00  0.00     0.131 A 
ATOM     70  C   UNL     1       9.084   1.780  -4.886  1.00  0.00     0.055 A 
ATOM     71  C   UNL     1       7.973   3.894  -4.650  1.00  0.00     0.041 A 
ATOM     72  F   UNL     1       7.384   4.673  -2.524  1.00  0.00    -0.206 F 
ATOM     73  C   UNL     1       8.571   2.941  -5.466  1.00  0.00     0.022 A 
BRANCH  70  74
ATOM     74  S   UNL     1       9.988   0.590  -5.923  1.00  0.00     0.124 S 
ATOM     75  O   UNL     1      11.313   0.612  -5.316  1.00  0.00    -0.237 OA
ATOM     76  O   UNL     1       9.212  -0.631  -5.730  1.00  0.00    -0.237 OA
ATOM     77  O   UNL     1       9.905   1.170  -7.262  1.00  0.00    -0.744 OA
ENDBRANCH  70  74
ENDBRANCH  43  67
BRANCH  55  78
ATOM     78  C   UNL     1      13.574   2.095   2.015  1.00  0.00     0.023 A 
ATOM     79  C   UNL     1      14.309   3.206   1.568  1.00  0.00     0.031 A 
ATOM     80  C   UNL     1      14.281   0.925   2.349  1.00  0.00     0.131 A 
ATOM     81  C   UNL     1      15.702   3.109   1.420  1.00  0.00     0.055 A 
ATOM     82  C   UNL     1      15.671   0.852   2.253  1.00  0.00     0.041 A 
ATOM     83  F   UNL     1      13.630  -0.165   2.785  1.00  0.00    -0.206 F 
ATOM     84  C   UNL     1      16.389   1.945   1.776  1.00  0.00     0.022 A 
BRANCH  81  85
ATOM     85  S   UNL     1      16.601   4.500   0.681  1.00  0.00     0.124 S 
ATOM     86  O   UNL     1      15.950   4.627  -0.619  1.00  0.00    -0.237 OA
ATOM     87  O   UNL     1      16.345   5.579   1.630  1.00  0.00    -0.237 OA
ATOM     88  O   UNL     1      17.985   4.030   0.638  1.00  0.00    -0.744 OA
ENDBRANCH  81  85
ENDBRANCH  55  78
ENDBRANCH  29  30
ENDBRANCH  22  24
ENDBRANCH  21  22
ENDBRANCH  20  21
ENDBRANCH   1  20
TORSDOF 19
