REMARK SMILES O=C(OCCOC(=O)c1ccc(-c2c3nc(c(-c4cc(S(=O)(=O)[O-])ccc4F)c4ccc([nH]4)c(-c4cc(S(=O)(=O)[O-])ccc4F)c4nc(c(-c5cc(S(=O)(=O)[O-])ccc5F)c5ccc2[nH]5)C=C4)C=C3)cc1)C1=Cc2cc(Cl)cc(-c3ccc(O)cc3)c2O[C@@H]1C(F)(F)F
REMARK SMILES IDX 5 1 4 2 3 3 2 4 1 5 72 6 73 7 89 8 74 9 88 10 75 11 87 12
REMARK SMILES IDX 76 13 79 14 77 15 78 16 90 17 91 18 92 19 93 20 80 21 81 22
REMARK SMILES IDX 86 23 82 24 85 25 83 26 84 27 6 29 7 30 8 31 9 32 10 33
REMARK SMILES IDX 71 34 11 35 70 36 12 37 13 38 14 39 64 40 15 41 69 42 63 43
REMARK SMILES IDX 65 44 16 45 68 46 62 47 61 48 17 50 49 51 29 52 48 53 30 54
REMARK SMILES IDX 33 55 47 56 66 57 31 58 32 59 46 61 67 62 34 63 18 64 19 65
REMARK SMILES IDX 27 66 20 67 26 68 28 69 25 70 21 71 22 72 23 73 24 74 50 75
REMARK SMILES IDX 51 76 59 77 52 78 58 79 60 80 57 81 53 82 54 83 55 84 56 85
REMARK SMILES IDX 35 86 36 87 44 88 37 89 43 90 45 91 42 92 38 93 39 94 40 95
REMARK SMILES IDX 41 96
REMARK H PARENT 84 28 65 49 33 60
REMARK Flexibility Score: inf
ROOT
ATOM      1  C   UNL     1       2.686   0.618  -2.541  1.00  0.00     0.275 C 
ENDROOT
BRANCH   1   2
ATOM      2  C   UNL     1       2.399  -0.527  -1.534  1.00  0.00     0.275 C 
BRANCH   2   3
ATOM      3  O   UNL     1       1.878  -0.074  -0.258  1.00  0.00    -0.459 OA
BRANCH   3   4
ATOM      4  C   UNL     1       2.413  -0.628   0.871  1.00  0.00     0.338 C 
ATOM      5  O   UNL     1       1.902  -1.566   1.463  1.00  0.00    -0.246 OA
BRANCH   4   6
ATOM      6  C   UNL     1       3.667   0.049   1.313  1.00  0.00     0.087 C 
ATOM      7  C   UNL     1       4.668  -0.708   1.795  1.00  0.00     0.027 C 
ATOM      8  C   UNL     1       4.099   1.248   0.545  1.00  0.00     0.316 C 
ATOM      9  C   UNL     1       5.864  -0.789   0.941  1.00  0.00     0.019 A 
ATOM     10  O   UNL     1       4.945   0.850  -0.573  1.00  0.00    -0.475 OA
ATOM     11  C   UNL     1       6.923  -1.638   1.257  1.00  0.00     0.032 A 
ATOM     12  C   UNL     1       5.784  -0.219  -0.346  1.00  0.00     0.135 A 
ATOM     13  C   UNL     1       7.835  -1.984   0.264  1.00  0.00     0.042 A 
ATOM     14  C   UNL     1       6.517  -0.793  -1.405  1.00  0.00     0.026 A 
ATOM     15  Cl  UNL     1       9.153  -3.026   0.630  1.00  0.00    -0.084 Cl
ATOM     16  C   UNL     1       7.606  -1.613  -1.060  1.00  0.00     0.033 A 
BRANCH   8  17
ATOM     17  C   UNL     1       4.613   2.344   1.507  1.00  0.00     0.430 C 
ATOM     18  F   UNL     1       3.562   2.940   2.129  1.00  0.00    -0.167 F 
ATOM     19  F   UNL     1       5.419   1.873   2.486  1.00  0.00    -0.167 F 
ATOM     20  F   UNL     1       5.290   3.312   0.854  1.00  0.00    -0.167 F 
ENDBRANCH   8  17
BRANCH  14  21
ATOM     21  C   UNL     1       5.993  -0.953  -2.787  1.00  0.00    -0.014 A 
ATOM     22  C   UNL     1       5.407  -2.200  -3.124  1.00  0.00     0.012 A 
ATOM     23  C   UNL     1       6.091   0.005  -3.803  1.00  0.00     0.012 A 
ATOM     24  C   UNL     1       4.954  -2.487  -4.413  1.00  0.00     0.047 A 
ATOM     25  C   UNL     1       5.620  -0.277  -5.103  1.00  0.00     0.047 A 
ATOM     26  C   UNL     1       5.066  -1.522  -5.397  1.00  0.00     0.115 A 
BRANCH  26  27
ATOM     27  O   UNL     1       4.621  -1.845  -6.645  1.00  0.00    -0.508 OA
ATOM     28  H   UNL     1       4.254  -2.692  -6.806  1.00  0.00     0.293 HD
ENDBRANCH  26  27
ENDBRANCH  14  21
ENDBRANCH   4   6
ENDBRANCH   3   4
ENDBRANCH   2   3
ENDBRANCH   1   2
BRANCH   1  29
ATOM     29  O   UNL     1       2.559   1.930  -1.984  1.00  0.00    -0.458 OA
BRANCH  29  30
ATOM     30  C   UNL     1       1.287   2.374  -1.917  1.00  0.00     0.338 C 
ATOM     31  O   UNL     1       0.332   1.901  -2.520  1.00  0.00    -0.246 OA
BRANCH  30  32
ATOM     32  C   UNL     1       1.180   3.338  -0.801  1.00  0.00     0.060 A 
ATOM     33  C   UNL     1       0.057   3.209   0.018  1.00  0.00     0.016 A 
ATOM     34  C   UNL     1       2.159   4.299  -0.506  1.00  0.00     0.016 A 
ATOM     35  C   UNL     1      -0.132   4.082   1.083  1.00  0.00     0.010 A 
ATOM     36  C   UNL     1       1.981   5.157   0.590  1.00  0.00     0.010 A 
ATOM     37  C   UNL     1       0.806   5.087   1.360  1.00  0.00    -0.014 A 
BRANCH  37  38
ATOM     38  C   UNL     1       0.410   6.148   2.327  1.00  0.00     0.031 A 
ATOM     39  C   UNL     1      -0.028   7.485   1.787  1.00  0.00     0.074 A 
ATOM     40  C   UNL     1       0.274   5.873   3.639  1.00  0.00     0.049 A 
ATOM     41  N   UNL     1      -0.644   8.466   2.396  1.00  0.00    -0.248 NA
ATOM     42  C   UNL     1       0.260   7.749   0.368  1.00  0.00     0.031 C 
ATOM     43  C   UNL     1       0.662   4.618   4.284  1.00  0.00     0.029 A 
ATOM     44  N   UNL     1      -0.263   6.619   4.660  1.00  0.00    -0.354 N 
ATOM     45  C   UNL     1      -0.860   9.436   1.424  1.00  0.00     0.074 A 
ATOM     46  C   UNL     1      -0.221   8.971   0.214  1.00  0.00     0.031 C 
ATOM     47  C   UNL     1       0.325   4.672   5.585  1.00  0.00     0.029 A 
ATOM     48  C   UNL     1      -0.294   5.965   5.872  1.00  0.00     0.049 A 
ATOM     49  H   UNL     1      -0.596   7.538   4.537  1.00  0.00     0.167 HD
ATOM     50  C   UNL     1      -1.565  10.590   1.513  1.00  0.00     0.034 A 
ATOM     51  C   UNL     1      -0.775   6.361   7.070  1.00  0.00     0.034 A 
ATOM     52  C   UNL     1      -2.167  11.069   2.729  1.00  0.00     0.049 A 
ATOM     53  C   UNL     1      -1.473   7.702   7.167  1.00  0.00     0.074 A 
ATOM     54  C   UNL     1      -2.879  12.236   2.939  1.00  0.00     0.029 A 
ATOM     55  N   UNL     1      -2.115  10.410   3.951  1.00  0.00    -0.354 N 
ATOM     56  N   UNL     1      -1.720   8.581   6.221  1.00  0.00    -0.248 NA
ATOM     57  C   UNL     1      -1.982   8.089   8.489  1.00  0.00     0.031 C 
ATOM     58  C   UNL     1      -3.193  12.318   4.300  1.00  0.00     0.029 A 
ATOM     59  C   UNL     1      -2.755  11.161   4.925  1.00  0.00     0.049 A 
ATOM     60  H   UNL     1      -1.686   9.537   4.103  1.00  0.00     0.167 HD
ATOM     61  C   UNL     1      -2.443   9.604   6.832  1.00  0.00     0.074 A 
ATOM     62  C   UNL     1      -2.620   9.216   8.215  1.00  0.00     0.031 C 
ATOM     63  C   UNL     1      -2.917  10.763   6.303  1.00  0.00     0.034 A 
BRANCH  50  64
ATOM     64  C   UNL     1      -1.690  11.410   0.252  1.00  0.00     0.023 A 
ATOM     65  C   UNL     1      -2.359  10.909  -0.880  1.00  0.00     0.031 A 
ATOM     66  C   UNL     1      -1.091  12.677   0.157  1.00  0.00     0.131 A 
ATOM     67  C   UNL     1      -2.343  11.633  -2.080  1.00  0.00     0.055 A 
ATOM     68  C   UNL     1      -1.153  13.431  -1.017  1.00  0.00     0.041 A 
ATOM     69  F   UNL     1      -0.416  13.194   1.195  1.00  0.00    -0.206 F 
ATOM     70  C   UNL     1      -1.768  12.904  -2.149  1.00  0.00     0.022 A 
BRANCH  67  71
ATOM     71  S   UNL     1      -2.945  10.824  -3.588  1.00  0.00     0.124 S 
ATOM     72  O   UNL     1      -2.041   9.680  -3.689  1.00  0.00    -0.237 OA
ATOM     73  O   UNL     1      -4.330  10.517  -3.252  1.00  0.00    -0.237 OA
ATOM     74  O   UNL     1      -2.763  11.844  -4.620  1.00  0.00    -0.744 OA
ENDBRANCH  67  71
ENDBRANCH  50  64
BRANCH  51  75
ATOM     75  C   UNL     1      -0.601   5.515   8.292  1.00  0.00     0.023 A 
ATOM     76  C   UNL     1      -1.700   5.063   9.044  1.00  0.00     0.031 A 
ATOM     77  C   UNL     1       0.687   5.245   8.791  1.00  0.00     0.131 A 
ATOM     78  C   UNL     1      -1.491   4.439  10.287  1.00  0.00     0.055 A 
ATOM     79  C   UNL     1       0.889   4.566   9.994  1.00  0.00     0.041 A 
ATOM     80  F   UNL     1       1.775   5.656   8.120  1.00  0.00    -0.206 F 
ATOM     81  C   UNL     1      -0.204   4.177  10.760  1.00  0.00     0.022 A 
BRANCH  78  82
ATOM     82  S   UNL     1      -2.927   4.098  11.346  1.00  0.00     0.124 S 
ATOM     83  O   UNL     1      -3.526   5.421  11.469  1.00  0.00    -0.237 OA
ATOM     84  O   UNL     1      -3.669   3.129  10.546  1.00  0.00    -0.237 OA
ATOM     85  O   UNL     1      -2.329   3.566  12.569  1.00  0.00    -0.744 OA
ENDBRANCH  78  82
ENDBRANCH  51  75
BRANCH  63  86
ATOM     86  C   UNL     1      -3.706  11.669   7.222  1.00  0.00     0.023 A 
ATOM     87  C   UNL     1      -3.125  12.257   8.360  1.00  0.00     0.031 A 
ATOM     88  C   UNL     1      -5.066  11.928   6.971  1.00  0.00     0.131 A 
ATOM     89  C   UNL     1      -3.918  13.003   9.245  1.00  0.00     0.055 A 
ATOM     90  C   UNL     1      -5.830  12.738   7.812  1.00  0.00     0.041 A 
ATOM     91  F   UNL     1      -5.678  11.395   5.901  1.00  0.00    -0.206 F 
ATOM     92  C   UNL     1      -5.261  13.264   8.968  1.00  0.00     0.022 A 
BRANCH  89  93
ATOM     93  S   UNL     1      -3.200  13.514  10.831  1.00  0.00     0.124 S 
ATOM     94  O   UNL     1      -2.763  12.240  11.391  1.00  0.00    -0.237 OA
ATOM     95  O   UNL     1      -2.139  14.424  10.413  1.00  0.00    -0.237 OA
ATOM     96  O   UNL     1      -4.321  14.146  11.525  1.00  0.00    -0.744 OA
ENDBRANCH  89  93
ENDBRANCH  63  86
ENDBRANCH  37  38
ENDBRANCH  30  32
ENDBRANCH  29  30
ENDBRANCH   1  29
TORSDOF 17
