REMARK SMILES CC[C@H](C)CN(CC)C(=O)Nc1ccc(C(=O)OCCOC(=O)c2ccc(-c3c4nc(c(-c5cc(S(=O)(=O)[O-])ccc5F)c5ccc([nH]5)c(-c5cc(S(=O)(=O)[O-])ccc5F)c5nc(c(-c6cc(S(=O)(=O)[O-])ccc6F)c6ccc3[nH]6)C=C5)C=C4)cc2)cc1Cl
REMARK SMILES IDX 19 1 18 2 16 3 17 4 15 5 12 6 13 7 88 8 14 9 87 10 89 11
REMARK SMILES IDX 11 12 9 13 10 14 6 16 5 17 3 18 4 19 2 20 1 21 7 22 8 23
REMARK SMILES IDX 20 24 21 25 22 26 23 27 24 28 25 29 86 30 26 31 85 32 27 33
REMARK SMILES IDX 28 34 29 35 79 36 30 37 84 38 78 39 80 40 31 41 83 42 77 43
REMARK SMILES IDX 76 44 32 46 64 47 44 48 63 49 45 50 48 51 62 52 81 53 46 54
REMARK SMILES IDX 47 55 61 57 82 58 49 59 33 60 34 61 42 62 35 63 41 64 43 65
REMARK SMILES IDX 40 66 36 67 37 68 38 69 39 70 65 71 66 72 74 73 67 74 73 75
REMARK SMILES IDX 75 76 72 77 68 78 69 79 70 80 71 81 50 82 51 83 59 84 52 85
REMARK SMILES IDX 58 86 60 87 57 88 53 89 54 90 55 91 56 92
REMARK H PARENT 11 15 80 45 48 56
REMARK Flexibility Score: inf
ROOT
ATOM      1  C   UNL     1       4.719  -0.962  11.092  1.00  0.00     0.275 C 
ENDROOT
BRANCH   1   2
ATOM      2  O   UNL     1       3.788  -1.260  10.035  1.00  0.00    -0.458 OA
BRANCH   2   3
ATOM      3  C   UNL     1       4.322  -1.319   8.794  1.00  0.00     0.338 C 
ATOM      4  O   UNL     1       5.465  -1.022   8.481  1.00  0.00    -0.246 OA
BRANCH   3   5
ATOM      5  C   UNL     1       3.345  -1.853   7.814  1.00  0.00     0.061 A 
ATOM      6  C   UNL     1       1.584  -2.474   5.765  1.00  0.00     0.061 A 
ATOM      7  C   UNL     1       2.952  -2.645   5.552  1.00  0.00     0.028 A 
ATOM      8  C   UNL     1       1.090  -2.191   7.047  1.00  0.00     0.065 A 
ATOM      9  C   UNL     1       3.832  -2.278   6.565  1.00  0.00     0.018 A 
ATOM     10  C   UNL     1       1.974  -1.890   8.081  1.00  0.00     0.038 A 
ATOM     11  Cl  UNL     1      -0.605  -2.178   7.383  1.00  0.00    -0.082 Cl
BRANCH   6  12
ATOM     12  N   UNL     1       0.777  -2.431   4.631  1.00  0.00    -0.306 N 
ATOM     13  C   UNL     1       0.098  -1.388   4.082  1.00  0.00     0.321 C 
ATOM     14  O   UNL     1      -0.829  -1.691   3.321  1.00  0.00    -0.248 OA
ATOM     15  H   UNL     1       0.682  -3.287   4.155  1.00  0.00     0.171 HD
BRANCH  13  16
ATOM     16  N   UNL     1       0.500  -0.069   4.244  1.00  0.00    -0.325 N 
BRANCH  16  17
ATOM     17  C   UNL     1      -0.142   0.916   3.368  1.00  0.00     0.124 C 
BRANCH  17  18
ATOM     18  C   UNL     1       0.619   1.135   2.031  1.00  0.00     0.005 C 
ATOM     19  C   UNL     1       0.501  -0.080   1.105  1.00  0.00     0.009 C 
BRANCH  18  20
ATOM     20  C   UNL     1       0.139   2.464   1.402  1.00  0.00     0.002 C 
ATOM     21  C   UNL     1       0.110   2.523  -0.117  1.00  0.00     0.004 C 
ENDBRANCH  18  20
ENDBRANCH  17  18
ENDBRANCH  16  17
BRANCH  16  22
ATOM     22  C   UNL     1       1.572   0.495   5.077  1.00  0.00     0.118 C 
ATOM     23  C   UNL     1       1.045   1.149   6.349  1.00  0.00     0.027 C 
ENDBRANCH  16  22
ENDBRANCH  13  16
ENDBRANCH   6  12
ENDBRANCH   3   5
ENDBRANCH   2   3
ENDBRANCH   1   2
BRANCH   1  24
ATOM     24  C   UNL     1       5.045  -2.238  11.863  1.00  0.00     0.275 C 
BRANCH  24  25
ATOM     25  O   UNL     1       5.654  -3.198  10.980  1.00  0.00    -0.458 OA
BRANCH  25  26
ATOM     26  C   UNL     1       4.928  -4.313  10.721  1.00  0.00     0.338 C 
ATOM     27  O   UNL     1       3.859  -4.630  11.212  1.00  0.00    -0.246 OA
BRANCH  26  28
ATOM     28  C   UNL     1       5.620  -5.110   9.694  1.00  0.00     0.060 A 
ATOM     29  C   UNL     1       5.783  -4.578   8.418  1.00  0.00     0.016 A 
ATOM     30  C   UNL     1       6.034  -6.412   9.962  1.00  0.00     0.016 A 
ATOM     31  C   UNL     1       6.302  -5.353   7.387  1.00  0.00     0.010 A 
ATOM     32  C   UNL     1       6.660  -7.153   8.952  1.00  0.00     0.010 A 
ATOM     33  C   UNL     1       6.794  -6.636   7.649  1.00  0.00    -0.014 A 
BRANCH  33  34
ATOM     34  C   UNL     1       7.461  -7.419   6.570  1.00  0.00     0.031 A 
ATOM     35  C   UNL     1       6.939  -8.777   6.186  1.00  0.00     0.074 A 
ATOM     36  C   UNL     1       8.541  -6.915   5.936  1.00  0.00     0.049 A 
ATOM     37  N   UNL     1       7.494  -9.697   5.441  1.00  0.00    -0.248 NA
ATOM     38  C   UNL     1       5.623  -9.152   6.725  1.00  0.00     0.031 C 
ATOM     39  C   UNL     1       9.118  -5.587   6.165  1.00  0.00     0.029 A 
ATOM     40  N   UNL     1       9.353  -7.459   4.969  1.00  0.00    -0.354 N 
ATOM     41  C   UNL     1       6.623 -10.782   5.461  1.00  0.00     0.074 A 
ATOM     42  C   UNL     1       5.505 -10.402   6.301  1.00  0.00     0.031 C 
ATOM     43  C   UNL     1      10.163  -5.409   5.345  1.00  0.00     0.029 A 
ATOM     44  C   UNL     1      10.406  -6.646   4.614  1.00  0.00     0.049 A 
ATOM     45  H   UNL     1       9.196  -8.345   4.569  1.00  0.00     0.167 HD
ATOM     46  C   UNL     1       6.752 -11.981   4.840  1.00  0.00     0.034 A 
ATOM     47  C   UNL     1      11.486  -6.884   3.843  1.00  0.00     0.034 A 
ATOM     48  C   UNL     1       7.860 -12.325   3.981  1.00  0.00     0.049 A 
ATOM     49  C   UNL     1      11.652  -8.251   3.236  1.00  0.00     0.074 A 
ATOM     50  C   UNL     1       8.077 -13.500   3.281  1.00  0.00     0.029 A 
ATOM     51  N   UNL     1       8.941 -11.496   3.705  1.00  0.00    -0.354 N 
ATOM     52  N   UNL     1      10.853  -9.289   3.313  1.00  0.00    -0.248 NA
ATOM     53  C   UNL     1      12.876  -8.485   2.461  1.00  0.00     0.031 C 
ATOM     54  C   UNL     1       9.317 -13.407   2.638  1.00  0.00     0.029 A 
ATOM     55  C   UNL     1       9.844 -12.148   2.877  1.00  0.00     0.049 A 
ATOM     56  H   UNL     1       9.050 -10.579   4.046  1.00  0.00     0.167 HD
ATOM     57  C   UNL     1      11.479 -10.301   2.593  1.00  0.00     0.074 A 
ATOM     58  C   UNL     1      12.707  -9.739   2.067  1.00  0.00     0.031 C 
ATOM     59  C   UNL     1      11.079 -11.582   2.389  1.00  0.00     0.034 A 
BRANCH  46  60
ATOM     60  C   UNL     1       5.703 -13.030   5.124  1.00  0.00     0.023 A 
ATOM     61  C   UNL     1       4.363 -12.876   4.730  1.00  0.00     0.031 A 
ATOM     62  C   UNL     1       6.052 -14.198   5.826  1.00  0.00     0.131 A 
ATOM     63  C   UNL     1       3.411 -13.841   5.097  1.00  0.00     0.055 A 
ATOM     64  C   UNL     1       5.115 -15.190   6.122  1.00  0.00     0.041 A 
ATOM     65  F   UNL     1       7.312 -14.391   6.247  1.00  0.00    -0.206 F 
ATOM     66  C   UNL     1       3.782 -15.007   5.770  1.00  0.00     0.022 A 
BRANCH  63  67
ATOM     67  S   UNL     1       1.656 -13.485   4.803  1.00  0.00     0.124 S 
ATOM     68  O   UNL     1       1.479 -12.240   5.547  1.00  0.00    -0.237 OA
ATOM     69  O   UNL     1       1.597 -13.375   3.351  1.00  0.00    -0.237 OA
ATOM     70  O   UNL     1       0.971 -14.645   5.371  1.00  0.00    -0.744 OA
ENDBRANCH  63  67
ENDBRANCH  46  60
BRANCH  47  71
ATOM     71  C   UNL     1      12.543  -5.843   3.685  1.00  0.00     0.023 A 
ATOM     72  C   UNL     1      12.836  -5.288   2.430  1.00  0.00     0.031 A 
ATOM     73  C   UNL     1      13.298  -5.408   4.791  1.00  0.00     0.131 A 
ATOM     74  C   UNL     1      13.875  -4.351   2.307  1.00  0.00     0.055 A 
ATOM     75  C   UNL     1      14.291  -4.435   4.672  1.00  0.00     0.041 A 
ATOM     76  F   UNL     1      13.064  -5.911   6.014  1.00  0.00    -0.206 F 
ATOM     77  C   UNL     1      14.592  -3.908   3.421  1.00  0.00     0.022 A 
BRANCH  74  78
ATOM     78  S   UNL     1      14.330  -3.770   0.650  1.00  0.00     0.124 S 
ATOM     79  O   UNL     1      14.674  -5.020  -0.019  1.00  0.00    -0.237 OA
ATOM     80  O   UNL     1      13.100  -3.122   0.208  1.00  0.00    -0.237 OA
ATOM     81  O   UNL     1      15.452  -2.867   0.902  1.00  0.00    -0.744 OA
ENDBRANCH  74  78
ENDBRANCH  47  71
BRANCH  59  82
ATOM     82  C   UNL     1      11.981 -12.445   1.544  1.00  0.00     0.023 A 
ATOM     83  C   UNL     1      13.242 -12.859   2.007  1.00  0.00     0.031 A 
ATOM     84  C   UNL     1      11.584 -12.838   0.255  1.00  0.00     0.131 A 
ATOM     85  C   UNL     1      14.084 -13.601   1.167  1.00  0.00     0.055 A 
ATOM     86  C   UNL     1      12.404 -13.623  -0.557  1.00  0.00     0.041 A 
ATOM     87  F   UNL     1      10.392 -12.465  -0.237  1.00  0.00    -0.206 F 
ATOM     88  C   UNL     1      13.667 -13.999  -0.106  1.00  0.00     0.022 A 
BRANCH  85  89
ATOM     89  S   UNL     1      15.768 -13.974   1.728  1.00  0.00     0.124 S 
ATOM     90  O   UNL     1      16.334 -12.639   1.893  1.00  0.00    -0.237 OA
ATOM     91  O   UNL     1      15.530 -14.722   2.958  1.00  0.00    -0.237 OA
ATOM     92  O   UNL     1      16.331 -14.755   0.628  1.00  0.00    -0.744 OA
ENDBRANCH  85  89
ENDBRANCH  59  82
ENDBRANCH  33  34
ENDBRANCH  26  28
ENDBRANCH  25  26
ENDBRANCH  24  25
ENDBRANCH   1  24
TORSDOF 20
