REMARK SMILES CC[C@@H]1CCCN1C(=O)N(CC(=O)OCCOC(=O)c1ccc(-c2c3nc(c(-c4cc(S(=O)(=O)[O-])ccc4F)c4ccc([nH]4)c(-c4cc(S(=O)(=O)[O-])ccc4F)c4nc(c(-c5cc(S(=O)(=O)[O-])ccc5F)c5ccc2[nH]5)C=C4)C=C3)cc1)CC(F)(F)F
REMARK SMILES IDX 15 1 14 2 12 3 13 4 11 5 10 6 8 7 9 8 7 9 3 10 4 11 5 12
REMARK SMILES IDX 6 13 2 14 1 15 83 16 84 17 85 18 86 19 87 20 16 21 17 22
REMARK SMILES IDX 18 23 19 24 20 25 21 26 82 27 22 28 81 29 23 30 24 31 25 32
REMARK SMILES IDX 75 33 26 34 80 35 74 36 76 37 27 38 79 39 73 40 72 41 28 43
REMARK SMILES IDX 60 44 40 45 59 46 41 47 44 48 58 49 77 50 42 51 43 52 57 54
REMARK SMILES IDX 78 55 45 56 29 57 30 58 38 59 31 60 37 61 39 62 36 63 32 64
REMARK SMILES IDX 33 65 34 66 35 67 61 68 62 69 70 70 63 71 69 72 71 73 68 74
REMARK SMILES IDX 64 75 65 76 66 77 67 78 46 79 47 80 55 81 48 82 54 83 56 84
REMARK SMILES IDX 53 85 49 86 50 87 51 88 52 89
REMARK H PARENT 76 42 44 53
REMARK Flexibility Score: inf
ROOT
ATOM      1  C   UNL     1       0.547   1.310   4.065  1.00  0.00     0.274 C 
ENDROOT
BRANCH   1   2
ATOM      2  O   UNL     1       0.096   2.044   2.913  1.00  0.00    -0.461 OA
BRANCH   2   3
ATOM      3  C   UNL     1      -0.444   1.308   1.911  1.00  0.00     0.325 C 
ATOM      4  O   UNL     1      -0.502   0.082   1.918  1.00  0.00    -0.250 OA
BRANCH   3   5
ATOM      5  C   UNL     1      -1.059   2.156   0.787  1.00  0.00     0.244 C 
BRANCH   5   6
ATOM      6  N   UNL     1      -0.747   3.571   0.803  1.00  0.00    -0.304 N 
BRANCH   6   7
ATOM      7  C   UNL     1       0.274   4.213   0.169  1.00  0.00     0.321 C 
ATOM      8  O   UNL     1       0.333   5.443   0.316  1.00  0.00    -0.248 OA
BRANCH   7   9
ATOM      9  N   UNL     1       1.214   3.609  -0.637  1.00  0.00    -0.322 N 
ATOM     10  C   UNL     1       1.549   2.247  -1.173  1.00  0.00     0.086 C 
ATOM     11  C   UNL     1       2.886   2.483  -1.907  1.00  0.00     0.027 C 
ATOM     12  C   UNL     1       2.742   3.869  -2.473  1.00  0.00     0.024 C 
ATOM     13  C   UNL     1       2.046   4.595  -1.345  1.00  0.00     0.122 C 
BRANCH  10  14
ATOM     14  C   UNL     1       1.725   1.062  -0.211  1.00  0.00     0.022 C 
ATOM     15  C   UNL     1       2.573  -0.103  -0.721  1.00  0.00     0.006 C 
ENDBRANCH  10  14
ENDBRANCH   7   9
ENDBRANCH   6   7
BRANCH   6  16
ATOM     16  C   UNL     1      -1.725   4.426   1.548  1.00  0.00     0.237 C 
BRANCH  16  17
ATOM     17  C   UNL     1      -1.249   5.213   2.784  1.00  0.00     0.406 C 
ATOM     18  F   UNL     1      -0.623   6.370   2.480  1.00  0.00    -0.169 F 
ATOM     19  F   UNL     1      -2.323   5.561   3.542  1.00  0.00    -0.169 F 
ATOM     20  F   UNL     1      -0.425   4.502   3.584  1.00  0.00    -0.169 F 
ENDBRANCH  16  17
ENDBRANCH   6  16
ENDBRANCH   5   6
ENDBRANCH   3   5
ENDBRANCH   2   3
ENDBRANCH   1   2
BRANCH   1  21
ATOM     21  C   UNL     1      -0.536   1.206   5.146  1.00  0.00     0.275 C 
BRANCH  21  22
ATOM     22  O   UNL     1      -1.653   0.394   4.733  1.00  0.00    -0.458 OA
BRANCH  22  23
ATOM     23  C   UNL     1      -2.659   1.074   4.135  1.00  0.00     0.338 C 
ATOM     24  O   UNL     1      -2.712   2.274   3.923  1.00  0.00    -0.246 OA
BRANCH  23  25
ATOM     25  C   UNL     1      -3.668   0.145   3.608  1.00  0.00     0.060 A 
ATOM     26  C   UNL     1      -3.656  -0.125   2.238  1.00  0.00     0.016 A 
ATOM     27  C   UNL     1      -4.712  -0.315   4.408  1.00  0.00     0.016 A 
ATOM     28  C   UNL     1      -4.704  -0.806   1.643  1.00  0.00     0.010 A 
ATOM     29  C   UNL     1      -5.752  -1.040   3.815  1.00  0.00     0.010 A 
ATOM     30  C   UNL     1      -5.764  -1.266   2.426  1.00  0.00    -0.014 A 
BRANCH  30  31
ATOM     31  C   UNL     1      -6.915  -1.909   1.755  1.00  0.00     0.031 A 
ATOM     32  C   UNL     1      -8.225  -1.182   1.688  1.00  0.00     0.074 A 
ATOM     33  C   UNL     1      -6.757  -3.100   1.151  1.00  0.00     0.049 A 
ATOM     34  N   UNL     1      -9.391  -1.614   1.290  1.00  0.00    -0.248 NA
ATOM     35  C   UNL     1      -8.216   0.221   2.131  1.00  0.00     0.031 C 
ATOM     36  C   UNL     1      -5.497  -3.843   1.063  1.00  0.00     0.029 A 
ATOM     37  N   UNL     1      -7.657  -3.892   0.488  1.00  0.00    -0.354 N 
ATOM     38  C   UNL     1     -10.269  -0.551   1.473  1.00  0.00     0.074 A 
ATOM     39  C   UNL     1      -9.495   0.545   2.019  1.00  0.00     0.031 C 
ATOM     40  C   UNL     1      -5.704  -4.978   0.378  1.00  0.00     0.029 A 
ATOM     41  C   UNL     1      -7.122  -5.080   0.050  1.00  0.00     0.049 A 
ATOM     42  H   UNL     1      -8.596  -3.635   0.341  1.00  0.00     0.167 HD
ATOM     43  C   UNL     1     -11.599  -0.506   1.215  1.00  0.00     0.034 A 
ATOM     44  C   UNL     1      -7.721  -6.151  -0.504  1.00  0.00     0.034 A 
ATOM     45  C   UNL     1     -12.337  -1.614   0.660  1.00  0.00     0.049 A 
ATOM     46  C   UNL     1      -9.211  -6.112  -0.707  1.00  0.00     0.074 A 
ATOM     47  C   UNL     1     -13.692  -1.710   0.394  1.00  0.00     0.029 A 
ATOM     48  N   UNL     1     -11.773  -2.826   0.278  1.00  0.00    -0.354 N 
ATOM     49  N   UNL     1     -10.055  -5.143  -0.432  1.00  0.00    -0.248 NA
ATOM     50  C   UNL     1      -9.831  -7.313  -1.276  1.00  0.00     0.031 C 
ATOM     51  C   UNL     1     -13.952  -2.993  -0.105  1.00  0.00     0.029 A 
ATOM     52  C   UNL     1     -12.752  -3.680  -0.205  1.00  0.00     0.049 A 
ATOM     53  H   UNL     1     -10.815  -3.047   0.342  1.00  0.00     0.167 HD
ATOM     54  C   UNL     1     -11.308  -5.617  -0.803  1.00  0.00     0.074 A 
ATOM     55  C   UNL     1     -11.104  -6.950  -1.337  1.00  0.00     0.031 C 
ATOM     56  C   UNL     1     -12.518  -5.010  -0.712  1.00  0.00     0.034 A 
BRANCH  43  57
ATOM     57  C   UNL     1     -12.332   0.749   1.615  1.00  0.00     0.023 A 
ATOM     58  C   UNL     1     -12.092   1.984   0.990  1.00  0.00     0.031 A 
ATOM     59  C   UNL     1     -13.239   0.719   2.690  1.00  0.00     0.131 A 
ATOM     60  C   UNL     1     -12.695   3.150   1.489  1.00  0.00     0.055 A 
ATOM     61  C   UNL     1     -13.891   1.870   3.136  1.00  0.00     0.041 A 
ATOM     62  F   UNL     1     -13.487  -0.428   3.342  1.00  0.00    -0.206 F 
ATOM     63  C   UNL     1     -13.609   3.097   2.545  1.00  0.00     0.022 A 
BRANCH  60  64
ATOM     64  S   UNL     1     -12.158   4.755   0.836  1.00  0.00     0.124 S 
ATOM     65  O   UNL     1     -10.728   4.730   1.131  1.00  0.00    -0.237 OA
ATOM     66  O   UNL     1     -12.522   4.659  -0.573  1.00  0.00    -0.237 OA
ATOM     67  O   UNL     1     -12.931   5.719   1.616  1.00  0.00    -0.744 OA
ENDBRANCH  60  64
ENDBRANCH  43  57
BRANCH  44  68
ATOM     68  C   UNL     1      -6.930  -7.372  -0.820  1.00  0.00     0.023 A 
ATOM     69  C   UNL     1      -6.753  -7.803  -2.143  1.00  0.00     0.031 A 
ATOM     70  C   UNL     1      -6.351  -8.137   0.209  1.00  0.00     0.131 A 
ATOM     71  C   UNL     1      -6.035  -8.981  -2.401  1.00  0.00     0.055 A 
ATOM     72  C   UNL     1      -5.602  -9.284  -0.056  1.00  0.00     0.041 A 
ATOM     73  F   UNL     1      -6.489  -7.765   1.492  1.00  0.00    -0.206 F 
ATOM     74  C   UNL     1      -5.449  -9.717  -1.368  1.00  0.00     0.022 A 
BRANCH  71  75
ATOM     75  S   UNL     1      -5.923  -9.574  -4.112  1.00  0.00     0.124 S 
ATOM     76  O   UNL     1      -7.329  -9.743  -4.462  1.00  0.00    -0.237 OA
ATOM     77  O   UNL     1      -5.226  -8.473  -4.768  1.00  0.00    -0.237 OA
ATOM     78  O   UNL     1      -5.156 -10.812  -3.994  1.00  0.00    -0.744 OA
ENDBRANCH  71  75
ENDBRANCH  44  68
BRANCH  56  79
ATOM     79  C   UNL     1     -13.695  -5.787  -1.236  1.00  0.00     0.023 A 
ATOM     80  C   UNL     1     -14.198  -6.906  -0.552  1.00  0.00     0.031 A 
ATOM     81  C   UNL     1     -14.301  -5.415  -2.449  1.00  0.00     0.131 A 
ATOM     82  C   UNL     1     -15.248  -7.648  -1.112  1.00  0.00     0.055 A 
ATOM     83  C   UNL     1     -15.374  -6.131  -2.978  1.00  0.00     0.041 A 
ATOM     84  F   UNL     1     -13.853  -4.354  -3.138  1.00  0.00    -0.206 F 
ATOM     85  C   UNL     1     -15.846  -7.261  -2.315  1.00  0.00     0.022 A 
BRANCH  82  86
ATOM     86  S   UNL     1     -15.774  -9.174  -0.285  1.00  0.00     0.124 S 
ATOM     87  O   UNL     1     -14.551  -9.970  -0.309  1.00  0.00    -0.237 OA
ATOM     88  O   UNL     1     -16.194  -8.690   1.026  1.00  0.00    -0.237 OA
ATOM     89  O   UNL     1     -16.854  -9.671  -1.136  1.00  0.00    -0.744 OA
ENDBRANCH  82  86
ENDBRANCH  56  79
ENDBRANCH  30  31
ENDBRANCH  23  25
ENDBRANCH  22  23
ENDBRANCH  21  22
ENDBRANCH   1  21
TORSDOF 20
