REMARK SMILES CC(C)Oc1ccc([C@@H]2CC(=O)Nc3c(C(=O)OCCOC(=O)c4ccc(-c5c6nc(c(-c7cc(S(=O)(=O)[O-])ccc7F)c7ccc([nH]7)c(-c7cc(S(=O)(=O)[O-])ccc7F)c7nc(c(-c8cc(S(=O)(=O)[O-])ccc8F)c8ccc5[nH]8)C=C7)C=C6)cc4)nsc32)cc1
REMARK SMILES IDX 19 1 18 2 16 3 17 4 15 5 9 6 10 7 89 8 11 9 14 10 88 11
REMARK SMILES IDX 12 12 13 13 87 14 8 16 5 17 6 18 91 19 7 20 90 21 4 22 2 23
REMARK SMILES IDX 1 24 3 25 20 26 21 27 22 28 23 29 24 30 25 31 86 32 26 33
REMARK SMILES IDX 85 34 27 35 28 36 29 37 79 38 30 39 84 40 78 41 80 42 31 43
REMARK SMILES IDX 83 44 77 45 76 46 32 48 64 49 44 50 63 51 45 52 48 53 62 54
REMARK SMILES IDX 81 55 46 56 47 57 61 59 82 60 49 61 33 62 34 63 42 64 35 65
REMARK SMILES IDX 41 66 43 67 40 68 36 69 37 70 38 71 39 72 65 73 66 74 74 75
REMARK SMILES IDX 67 76 73 77 75 78 72 79 68 80 69 81 70 82 71 83 50 84 51 85
REMARK SMILES IDX 59 86 52 87 58 88 60 89 57 90 53 91 54 92 55 93 56 94
REMARK H PARENT 13 15 80 47 48 58
REMARK Flexibility Score: inf
ROOT
ATOM      1  C   UNL     1      -2.050  -1.542 -10.102  1.00  0.00     0.275 C 
ENDROOT
BRANCH   1   2
ATOM      2  O   UNL     1      -2.234  -1.016  -8.780  1.00  0.00    -0.457 OA
BRANCH   2   3
ATOM      3  C   UNL     1      -1.263  -0.154  -8.334  1.00  0.00     0.360 C 
ATOM      4  O   UNL     1      -0.164  -0.033  -8.876  1.00  0.00    -0.244 OA
BRANCH   3   5
ATOM      5  C   UNL     1      -1.695   0.599  -7.151  1.00  0.00     0.185 A 
ATOM      6  C   UNL     1      -3.904   0.991  -4.145  1.00  0.00     0.073 C 
ATOM      7  C   UNL     1      -4.691  -0.328  -4.308  1.00  0.00     0.114 C 
ATOM      8  C   UNL     1      -2.918   1.128  -5.260  1.00  0.00     0.058 A 
ATOM      9  C   UNL     1      -4.928  -0.774  -5.743  1.00  0.00     0.225 C 
ATOM     10  C   UNL     1      -2.895   0.359  -6.393  1.00  0.00     0.091 A 
ATOM     11  S   UNL     1      -1.649   2.256  -5.340  1.00  0.00    -0.038 S 
ATOM     12  O   UNL     1      -5.891  -1.477  -6.047  1.00  0.00    -0.275 OA
ATOM     13  N   UNL     1      -3.932  -0.518  -6.648  1.00  0.00    -0.323 N 
ATOM     14  N   UNL     1      -0.924   1.588  -6.670  1.00  0.00    -0.183 NA
ATOM     15  H   UNL     1      -3.957  -0.978  -7.518  1.00  0.00     0.170 HD
BRANCH   6  16
ATOM     16  C   UNL     1      -3.191   0.998  -2.795  1.00  0.00    -0.039 A 
ATOM     17  C   UNL     1      -1.668   1.113  -0.434  1.00  0.00     0.119 A 
ATOM     18  C   UNL     1      -2.726   2.002  -0.638  1.00  0.00     0.047 A 
ATOM     19  C   UNL     1      -1.419   0.121  -1.371  1.00  0.00     0.047 A 
ATOM     20  C   UNL     1      -3.483   1.953  -1.816  1.00  0.00     0.008 A 
ATOM     21  C   UNL     1      -2.159   0.074  -2.547  1.00  0.00     0.008 A 
BRANCH  17  22
ATOM     22  O   UNL     1      -0.988   1.200   0.746  1.00  0.00    -0.491 OA
BRANCH  22  23
ATOM     23  C   UNL     1       0.439   1.393   0.699  1.00  0.00     0.167 C 
ATOM     24  C   UNL     1       1.235   0.145   0.320  1.00  0.00     0.052 C 
ATOM     25  C   UNL     1       0.870   2.621  -0.102  1.00  0.00     0.052 C 
ENDBRANCH  22  23
ENDBRANCH  17  22
ENDBRANCH   6  16
ENDBRANCH   3   5
ENDBRANCH   2   3
ENDBRANCH   1   2
BRANCH   1  26
ATOM     26  C   UNL     1      -2.648  -0.595 -11.129  1.00  0.00     0.275 C 
BRANCH  26  27
ATOM     27  O   UNL     1      -1.844   0.574 -11.266  1.00  0.00    -0.458 OA
BRANCH  27  28
ATOM     28  C   UNL     1      -2.277   1.667 -10.593  1.00  0.00     0.338 C 
ATOM     29  O   UNL     1      -3.002   1.674  -9.613  1.00  0.00    -0.246 OA
BRANCH  28  30
ATOM     30  C   UNL     1      -1.925   2.858 -11.376  1.00  0.00     0.060 A 
ATOM     31  C   UNL     1      -2.232   4.114 -10.847  1.00  0.00     0.016 A 
ATOM     32  C   UNL     1      -1.546   2.699 -12.718  1.00  0.00     0.016 A 
ATOM     33  C   UNL     1      -2.311   5.189 -11.713  1.00  0.00     0.010 A 
ATOM     34  C   UNL     1      -1.648   3.763 -13.580  1.00  0.00     0.010 A 
ATOM     35  C   UNL     1      -2.095   4.982 -13.083  1.00  0.00    -0.014 A 
BRANCH  35  36
ATOM     36  C   UNL     1      -2.160   6.113 -13.987  1.00  0.00     0.031 A 
ATOM     37  C   UNL     1      -1.042   7.061 -13.772  1.00  0.00     0.074 A 
ATOM     38  C   UNL     1      -3.041   6.213 -15.003  1.00  0.00     0.049 A 
ATOM     39  N   UNL     1      -1.118   8.255 -13.292  1.00  0.00    -0.248 NA
ATOM     40  C   UNL     1       0.337   6.559 -13.908  1.00  0.00     0.031 C 
ATOM     41  C   UNL     1      -4.021   5.228 -15.465  1.00  0.00     0.029 A 
ATOM     42  N   UNL     1      -3.180   7.217 -15.910  1.00  0.00    -0.354 N 
ATOM     43  C   UNL     1       0.180   8.747 -13.306  1.00  0.00     0.074 A 
ATOM     44  C   UNL     1       1.039   7.607 -13.476  1.00  0.00     0.031 C 
ATOM     45  C   UNL     1      -4.481   5.591 -16.687  1.00  0.00     0.029 A 
ATOM     46  C   UNL     1      -3.928   6.891 -17.040  1.00  0.00     0.049 A 
ATOM     47  H   UNL     1      -2.782   8.108 -15.778  1.00  0.00     0.167 HD
ATOM     48  C   UNL     1       0.415  10.079 -13.444  1.00  0.00     0.034 A 
ATOM     49  C   UNL     1      -4.035   7.619 -18.189  1.00  0.00     0.034 A 
ATOM     50  C   UNL     1      -0.764  10.849 -13.111  1.00  0.00     0.049 A 
ATOM     51  C   UNL     1      -3.688   9.020 -17.829  1.00  0.00     0.074 A 
ATOM     52  C   UNL     1      -1.564  10.930 -11.984  1.00  0.00     0.029 A 
ATOM     53  N   UNL     1      -1.531  11.351 -14.139  1.00  0.00    -0.354 N 
ATOM     54  N   UNL     1      -4.415   9.745 -17.023  1.00  0.00    -0.248 NA
ATOM     55  C   UNL     1      -2.290   9.420 -17.930  1.00  0.00     0.031 C 
ATOM     56  C   UNL     1      -2.899  10.958 -12.487  1.00  0.00     0.029 A 
ATOM     57  C   UNL     1      -2.839  11.005 -13.881  1.00  0.00     0.049 A 
ATOM     58  H   UNL     1      -1.205  11.863 -14.915  1.00  0.00     0.167 HD
ATOM     59  C   UNL     1      -3.504  10.380 -16.192  1.00  0.00     0.074 A 
ATOM     60  C   UNL     1      -2.207  10.204 -16.850  1.00  0.00     0.031 C 
ATOM     61  C   UNL     1      -3.826  10.729 -14.911  1.00  0.00     0.034 A 
BRANCH  48  62
ATOM     62  C   UNL     1       1.571  10.649 -14.230  1.00  0.00     0.023 A 
ATOM     63  C   UNL     1       1.710  12.047 -14.258  1.00  0.00     0.031 A 
ATOM     64  C   UNL     1       2.358   9.933 -15.164  1.00  0.00     0.131 A 
ATOM     65  C   UNL     1       2.517  12.671 -15.226  1.00  0.00     0.055 A 
ATOM     66  C   UNL     1       3.212  10.555 -16.077  1.00  0.00     0.041 A 
ATOM     67  F   UNL     1       2.276   8.607 -15.322  1.00  0.00    -0.206 F 
ATOM     68  C   UNL     1       3.273  11.934 -16.133  1.00  0.00     0.022 A 
BRANCH  65  69
ATOM     69  S   UNL     1       2.422  14.471 -15.392  1.00  0.00     0.124 S 
ATOM     70  O   UNL     1       0.990  14.674 -15.582  1.00  0.00    -0.237 OA
ATOM     71  O   UNL     1       2.973  14.919 -14.117  1.00  0.00    -0.237 OA
ATOM     72  O   UNL     1       3.253  14.747 -16.561  1.00  0.00    -0.744 OA
ENDBRANCH  65  69
ENDBRANCH  48  62
BRANCH  49  73
ATOM     73  C   UNL     1      -4.056   7.119 -19.601  1.00  0.00     0.023 A 
ATOM     74  C   UNL     1      -4.416   7.926 -20.708  1.00  0.00     0.031 A 
ATOM     75  C   UNL     1      -3.459   5.874 -19.907  1.00  0.00     0.131 A 
ATOM     76  C   UNL     1      -4.172   7.482 -22.034  1.00  0.00     0.055 A 
ATOM     77  C   UNL     1      -3.216   5.445 -21.215  1.00  0.00     0.041 A 
ATOM     78  F   UNL     1      -3.006   5.063 -18.940  1.00  0.00    -0.206 F 
ATOM     79  C   UNL     1      -3.561   6.252 -22.285  1.00  0.00     0.022 A 
BRANCH  76  80
ATOM     80  S   UNL     1      -4.563   8.537 -23.475  1.00  0.00     0.124 S 
ATOM     81  O   UNL     1      -6.021   8.501 -23.499  1.00  0.00    -0.237 OA
ATOM     82  O   UNL     1      -3.950   9.809 -23.114  1.00  0.00    -0.237 OA
ATOM     83  O   UNL     1      -3.916   7.845 -24.591  1.00  0.00    -0.744 OA
ENDBRANCH  76  80
ENDBRANCH  49  73
BRANCH  61  84
ATOM     84  C   UNL     1      -5.279  10.642 -14.471  1.00  0.00     0.023 A 
ATOM     85  C   UNL     1      -6.089   9.482 -14.535  1.00  0.00     0.031 A 
ATOM     86  C   UNL     1      -5.825  11.776 -13.841  1.00  0.00     0.131 A 
ATOM     87  C   UNL     1      -7.392   9.496 -13.991  1.00  0.00     0.055 A 
ATOM     88  C   UNL     1      -7.102  11.778 -13.282  1.00  0.00     0.041 A 
ATOM     89  F   UNL     1      -5.104  12.904 -13.727  1.00  0.00    -0.206 F 
ATOM     90  C   UNL     1      -7.893  10.639 -13.360  1.00  0.00     0.022 A 
BRANCH  87  91
ATOM     91  S   UNL     1      -8.478   8.035 -14.112  1.00  0.00     0.124 S 
ATOM     92  O   UNL     1      -8.370   7.643 -15.512  1.00  0.00    -0.237 OA
ATOM     93  O   UNL     1      -7.886   7.117 -13.142  1.00  0.00    -0.237 OA
ATOM     94  O   UNL     1      -9.792   8.556 -13.726  1.00  0.00    -0.744 OA
ENDBRANCH  87  91
ENDBRANCH  61  84
ENDBRANCH  35  36
ENDBRANCH  28  30
ENDBRANCH  27  28
ENDBRANCH  26  27
ENDBRANCH   1  26
TORSDOF 17
