REMARK SMILES O=C(NNS(=O)(=O)c1cccc(C(=O)OCCOC(=O)c2ccc(-c3c4nc(c(-c5cc(S(=O)(=O)[O-])ccc5F)c5ccc([nH]5)c(-c5cc(S(=O)(=O)[O-])ccc5F)c5nc(c(-c6cc(S(=O)(=O)[O-])ccc6F)c6ccc3[nH]6)C=C5)C=C4)cc2)c1)c1ccc2c(c1)OCO2
REMARK SMILES IDX 16 1 15 2 13 3 14 4 12 5 8 6 9 7 84 8 10 9 11 10 5 11 6 12
REMARK SMILES IDX 7 13 4 14 3 16 1 17 2 18 85 20 86 21 90 22 87 23 89 24 88 25
REMARK SMILES IDX 91 26 93 27 92 28 17 29 18 30 19 31 20 32 21 33 22 34 83 35
REMARK SMILES IDX 23 36 82 37 24 38 25 39 26 40 76 41 27 42 81 43 75 44 77 45
REMARK SMILES IDX 28 46 80 47 74 48 73 49 29 51 61 52 41 53 60 54 42 55 45 56
REMARK SMILES IDX 59 57 78 58 43 59 44 60 58 62 79 63 46 64 30 65 31 66 39 67
REMARK SMILES IDX 32 68 38 69 40 70 37 71 33 72 34 73 35 74 36 75 62 76 63 77
REMARK SMILES IDX 71 78 64 79 70 80 72 81 69 82 65 83 66 84 67 85 68 86 47 87
REMARK SMILES IDX 48 88 56 89 49 90 55 91 57 92 54 93 50 94 51 95 52 96 53 97
REMARK H PARENT 4 15 3 19 77 50 45 61
REMARK Flexibility Score: inf
ROOT
ATOM      1  C   UNL     1       5.904  -6.339  -3.923  1.00  0.00     0.275 C 
ENDROOT
BRANCH   1   2
ATOM      2  O   UNL     1       5.494  -4.955  -3.921  1.00  0.00    -0.458 OA
BRANCH   2   3
ATOM      3  C   UNL     1       5.560  -4.306  -5.112  1.00  0.00     0.338 C 
ATOM      4  O   UNL     1       5.934  -4.770  -6.175  1.00  0.00    -0.246 OA
BRANCH   3   5
ATOM      5  C   UNL     1       5.024  -2.930  -4.971  1.00  0.00     0.061 A 
ATOM      6  C   UNL     1       4.808  -0.870  -3.761  1.00  0.00     0.084 A 
ATOM      7  C   UNL     1       3.947  -0.351  -4.733  1.00  0.00     0.022 A 
ATOM      8  C   UNL     1       5.325  -2.165  -3.849  1.00  0.00     0.037 A 
ATOM      9  C   UNL     1       3.657  -1.113  -5.854  1.00  0.00     0.002 A 
ATOM     10  C   UNL     1       4.238  -2.373  -5.993  1.00  0.00     0.016 A 
BRANCH   6  11
ATOM     11  S   UNL     1       5.272   0.133  -2.392  1.00  0.00     0.257 S 
ATOM     12  O   UNL     1       4.745   1.471  -2.578  1.00  0.00    -0.205 OA
ATOM     13  O   UNL     1       6.667  -0.098  -2.101  1.00  0.00    -0.205 OA
BRANCH  11  14
ATOM     14  N   UNL     1       4.380  -0.587  -1.151  1.00  0.00    -0.123 NA
ATOM     15  H   UNL     1       4.602  -1.583  -1.153  1.00  0.00     0.167 HD
BRANCH  14  16
ATOM     16  N   UNL     1       2.944  -0.467  -1.202  1.00  0.00    -0.273 N 
ATOM     17  O   UNL     1       0.942  -0.181  -0.162  1.00  0.00    -0.268 OA
ATOM     18  C   UNL     1       2.167  -0.158  -0.118  1.00  0.00     0.266 C 
ATOM     19  H   UNL     1       2.497  -0.614  -2.066  1.00  0.00     0.186 HD
BRANCH  18  20
ATOM     20  C   UNL     1       2.833   0.284   1.119  1.00  0.00     0.045 A 
ATOM     21  C   UNL     1       3.721   1.387   1.106  1.00  0.00     0.018 A 
ATOM     22  C   UNL     1       2.441  -0.322   2.313  1.00  0.00     0.064 A 
ATOM     23  C   UNL     1       4.216   1.905   2.304  1.00  0.00     0.051 A 
ATOM     24  C   UNL     1       2.906   0.247   3.472  1.00  0.00     0.166 A 
ATOM     25  C   UNL     1       3.757   1.333   3.470  1.00  0.00     0.165 A 
ATOM     26  O   UNL     1       2.534  -0.111   4.731  1.00  0.00    -0.454 OA
ATOM     27  O   UNL     1       3.999   1.788   4.731  1.00  0.00    -0.454 OA
ATOM     28  C   UNL     1       2.994   1.046   5.454  1.00  0.00     0.468 C 
ENDBRANCH  18  20
ENDBRANCH  14  16
ENDBRANCH  11  14
ENDBRANCH   6  11
ENDBRANCH   3   5
ENDBRANCH   2   3
ENDBRANCH   1   2
BRANCH   1  29
ATOM     29  C   UNL     1       4.708  -7.291  -3.835  1.00  0.00     0.275 C 
BRANCH  29  30
ATOM     30  O   UNL     1       3.925  -7.254  -5.041  1.00  0.00    -0.458 OA
BRANCH  30  31
ATOM     31  C   UNL     1       2.808  -6.495  -4.967  1.00  0.00     0.338 C 
ATOM     32  O   UNL     1       2.392  -5.888  -3.995  1.00  0.00    -0.246 OA
BRANCH  31  33
ATOM     33  C   UNL     1       2.203  -6.361  -6.299  1.00  0.00     0.060 A 
ATOM     34  C   UNL     1       2.674  -5.329  -7.097  1.00  0.00     0.016 A 
ATOM     35  C   UNL     1       1.086  -7.088  -6.693  1.00  0.00     0.016 A 
ATOM     36  C   UNL     1       1.968  -4.914  -8.216  1.00  0.00     0.010 A 
ATOM     37  C   UNL     1       0.451  -6.759  -7.900  1.00  0.00     0.010 A 
ATOM     38  C   UNL     1       0.858  -5.641  -8.658  1.00  0.00    -0.014 A 
BRANCH  38  39
ATOM     39  C   UNL     1       0.129  -5.213  -9.889  1.00  0.00     0.031 A 
ATOM     40  C   UNL     1      -1.352  -4.938  -9.836  1.00  0.00     0.074 A 
ATOM     41  C   UNL     1       0.794  -5.047 -11.054  1.00  0.00     0.049 A 
ATOM     42  N   UNL     1      -2.195  -4.742 -10.818  1.00  0.00    -0.248 NA
ATOM     43  C   UNL     1      -1.968  -4.894  -8.502  1.00  0.00     0.031 C 
ATOM     44  C   UNL     1       2.239  -5.211 -11.238  1.00  0.00     0.029 A 
ATOM     45  N   UNL     1       0.346  -4.699 -12.306  1.00  0.00    -0.354 N 
ATOM     46  C   UNL     1      -3.448  -4.607 -10.226  1.00  0.00     0.074 A 
ATOM     47  C   UNL     1      -3.253  -4.765  -8.800  1.00  0.00     0.031 C 
ATOM     48  C   UNL     1       2.561  -4.926 -12.507  1.00  0.00     0.029 A 
ATOM     49  C   UNL     1       1.339  -4.682 -13.261  1.00  0.00     0.049 A 
ATOM     50  H   UNL     1      -0.594  -4.484 -12.502  1.00  0.00     0.167 HD
ATOM     51  C   UNL     1      -4.646  -4.373 -10.820  1.00  0.00     0.034 A 
ATOM     52  C   UNL     1       1.277  -4.551 -14.601  1.00  0.00     0.034 A 
ATOM     53  C   UNL     1      -4.811  -4.188 -12.243  1.00  0.00     0.049 A 
ATOM     54  C   UNL     1      -0.072  -4.385 -15.248  1.00  0.00     0.074 A 
ATOM     55  C   UNL     1      -5.974  -3.932 -12.949  1.00  0.00     0.029 A 
ATOM     56  N   UNL     1      -3.785  -4.237 -13.180  1.00  0.00    -0.354 N 
ATOM     57  N   UNL     1      -1.255  -4.315 -14.682  1.00  0.00    -0.248 NA
ATOM     58  C   UNL     1      -0.097  -4.290 -16.712  1.00  0.00     0.031 C 
ATOM     59  C   UNL     1      -5.666  -3.911 -14.313  1.00  0.00     0.029 A 
ATOM     60  C   UNL     1      -4.296  -4.055 -14.457  1.00  0.00     0.049 A 
ATOM     61  H   UNL     1      -2.834  -4.380 -12.967  1.00  0.00     0.167 HD
ATOM     62  C   UNL     1      -2.162  -4.139 -15.723  1.00  0.00     0.074 A 
ATOM     63  C   UNL     1      -1.387  -4.096 -16.945  1.00  0.00     0.031 C 
ATOM     64  C   UNL     1      -3.513  -4.022 -15.671  1.00  0.00     0.034 A 
BRANCH  51  65
ATOM     65  C   UNL     1      -5.877  -4.373  -9.942  1.00  0.00     0.023 A 
ATOM     66  C   UNL     1      -6.066  -3.431  -8.916  1.00  0.00     0.031 A 
ATOM     67  C   UNL     1      -6.871  -5.353 -10.123  1.00  0.00     0.131 A 
ATOM     68  C   UNL     1      -7.179  -3.537  -8.065  1.00  0.00     0.055 A 
ATOM     69  C   UNL     1      -8.019  -5.398  -9.330  1.00  0.00     0.041 A 
ATOM     70  F   UNL     1      -6.737  -6.295 -11.070  1.00  0.00    -0.206 F 
ATOM     71  C   UNL     1      -8.170  -4.496  -8.282  1.00  0.00     0.022 A 
BRANCH  68  72
ATOM     72  S   UNL     1      -7.230  -2.503  -6.575  1.00  0.00     0.124 S 
ATOM     73  O   UNL     1      -5.989  -2.889  -5.908  1.00  0.00    -0.237 OA
ATOM     74  O   UNL     1      -7.266  -1.155  -7.128  1.00  0.00    -0.237 OA
ATOM     75  O   UNL     1      -8.452  -2.935  -5.900  1.00  0.00    -0.744 OA
ENDBRANCH  68  72
ENDBRANCH  51  65
BRANCH  52  76
ATOM     76  C   UNL     1       2.516  -4.652 -15.430  1.00  0.00     0.023 A 
ATOM     77  C   UNL     1       2.936  -3.586 -16.239  1.00  0.00     0.031 A 
ATOM     78  C   UNL     1       3.275  -5.838 -15.460  1.00  0.00     0.131 A 
ATOM     79  C   UNL     1       4.053  -3.740 -17.075  1.00  0.00     0.055 A 
ATOM     80  C   UNL     1       4.426  -5.961 -16.239  1.00  0.00     0.041 A 
ATOM     81  F   UNL     1       2.917  -6.895 -14.713  1.00  0.00    -0.206 F 
ATOM     82  C   UNL     1       4.812  -4.912 -17.066  1.00  0.00     0.022 A 
BRANCH  79  83
ATOM     83  S   UNL     1       4.439  -2.421 -18.258  1.00  0.00     0.124 S 
ATOM     84  O   UNL     1       3.199  -2.335 -19.020  1.00  0.00    -0.237 OA
ATOM     85  O   UNL     1       4.729  -1.297 -17.374  1.00  0.00    -0.237 OA
ATOM     86  O   UNL     1       5.588  -2.947 -18.991  1.00  0.00    -0.744 OA
ENDBRANCH  79  83
ENDBRANCH  52  76
BRANCH  64  87
ATOM     87  C   UNL     1      -4.230  -3.775 -16.976  1.00  0.00     0.023 A 
ATOM     88  C   UNL     1      -4.260  -4.736 -18.002  1.00  0.00     0.031 A 
ATOM     89  C   UNL     1      -4.884  -2.550 -17.200  1.00  0.00     0.131 A 
ATOM     90  C   UNL     1      -4.878  -4.433 -19.224  1.00  0.00     0.055 A 
ATOM     91  C   UNL     1      -5.558  -2.282 -18.391  1.00  0.00     0.041 A 
ATOM     92  F   UNL     1      -4.881  -1.592 -16.259  1.00  0.00    -0.206 F 
ATOM     93  C   UNL     1      -5.545  -3.221 -19.418  1.00  0.00     0.022 A 
BRANCH  90  94
ATOM     94  S   UNL     1      -4.708  -5.604 -20.599  1.00  0.00     0.124 S 
ATOM     95  O   UNL     1      -3.259  -5.683 -20.752  1.00  0.00    -0.237 OA
ATOM     96  O   UNL     1      -5.360  -6.800 -20.075  1.00  0.00    -0.237 OA
ATOM     97  O   UNL     1      -5.412  -4.947 -21.699  1.00  0.00    -0.744 OA
ENDBRANCH  90  94
ENDBRANCH  64  87
ENDBRANCH  38  39
ENDBRANCH  31  33
ENDBRANCH  30  31
ENDBRANCH  29  30
ENDBRANCH   1  29
TORSDOF 18
