REMARK SMILES COc1ccc(NC(=O)NCc2ccc(C(=O)OCCOC(=O)c3ccc(-c4c5nc(c(-c6cc(S(=O)(=O)[O-])ccc6F)c6ccc([nH]6)c(-c6cc(S(=O)(=O)[O-])ccc6F)c6nc(c(-c7cc(S(=O)(=O)[O-])ccc7F)c7ccc4[nH]7)C=C6)C=C5)cc3)cc2)c(OC)c1
REMARK SMILES IDX 19 1 18 2 16 3 17 4 15 5 12 6 13 7 88 8 14 9 87 10 11 11
REMARK SMILES IDX 10 12 7 13 8 14 9 16 6 18 3 19 4 20 92 21 5 22 89 23 2 24
REMARK SMILES IDX 1 25 90 26 91 27 20 28 21 29 22 30 23 31 24 32 25 33 86 34
REMARK SMILES IDX 26 35 85 36 27 37 28 38 29 39 79 40 30 41 84 42 78 43 80 44
REMARK SMILES IDX 31 45 83 46 77 47 76 48 32 50 64 51 44 52 63 53 45 54 48 55
REMARK SMILES IDX 62 56 81 57 46 58 47 59 61 61 82 62 49 63 33 64 34 65 42 66
REMARK SMILES IDX 35 67 41 68 43 69 40 70 36 71 37 72 38 73 39 74 65 75 66 76
REMARK SMILES IDX 74 77 67 78 73 79 75 80 72 81 68 82 69 83 70 84 71 85 50 86
REMARK SMILES IDX 51 87 59 88 52 89 58 90 60 91 57 92 53 93 54 94 55 95 56 96
REMARK H PARENT 7 15 10 17 80 49 48 60
REMARK Flexibility Score: inf
ROOT
ATOM      1  C   UNL     1      -7.357  -0.059  -4.631  1.00  0.00     0.275 C 
ENDROOT
BRANCH   1   2
ATOM      2  O   UNL     1      -6.440  -1.145  -4.377  1.00  0.00    -0.458 OA
BRANCH   2   3
ATOM      3  C   UNL     1      -5.221  -1.016  -4.961  1.00  0.00     0.338 C 
ATOM      4  O   UNL     1      -4.854  -0.070  -5.644  1.00  0.00    -0.246 OA
BRANCH   3   5
ATOM      5  C   UNL     1      -4.314  -2.141  -4.624  1.00  0.00     0.060 A 
ATOM      6  C   UNL     1      -2.471  -4.168  -3.978  1.00  0.00    -0.029 A 
ATOM      7  C   UNL     1      -2.044  -2.846  -4.126  1.00  0.00     0.006 A 
ATOM      8  C   UNL     1      -3.824  -4.476  -4.199  1.00  0.00     0.006 A 
ATOM      9  C   UNL     1      -2.953  -1.854  -4.473  1.00  0.00     0.016 A 
ATOM     10  C   UNL     1      -4.749  -3.464  -4.503  1.00  0.00     0.016 A 
BRANCH   6  11
ATOM     11  C   UNL     1      -1.489  -5.179  -3.452  1.00  0.00     0.153 C 
BRANCH  11  12
ATOM     12  N   UNL     1      -0.518  -5.645  -4.416  1.00  0.00    -0.334 N 
ATOM     13  N   UNL     1       1.716  -5.005  -3.801  1.00  0.00    -0.305 N 
ATOM     14  C   UNL     1       0.813  -5.645  -4.563  1.00  0.00     0.319 C 
ATOM     15  H   UNL     1       2.622  -5.063  -4.182  1.00  0.00     0.172 HD
ATOM     16  O   UNL     1       1.236  -6.229  -5.571  1.00  0.00    -0.248 OA
ATOM     17  H   UNL     1      -0.959  -6.085  -5.179  1.00  0.00     0.165 HD
BRANCH  13  18
ATOM     18  C   UNL     1       1.699  -4.278  -2.604  1.00  0.00     0.085 A 
ATOM     19  C   UNL     1       1.351  -2.416  -0.556  1.00  0.00     0.122 A 
ATOM     20  C   UNL     1       0.689  -3.642  -0.516  1.00  0.00     0.049 A 
ATOM     21  C   UNL     1       2.346  -2.213  -1.507  1.00  0.00     0.095 A 
ATOM     22  C   UNL     1       0.896  -4.589  -1.520  1.00  0.00     0.034 A 
ATOM     23  C   UNL     1       2.566  -3.179  -2.493  1.00  0.00     0.146 A 
BRANCH  19  24
ATOM     24  O   UNL     1       0.962  -1.519   0.395  1.00  0.00    -0.497 OA
ATOM     25  C   UNL     1       1.367  -0.167   0.195  1.00  0.00     0.278 C 
ENDBRANCH  19  24
BRANCH  23  26
ATOM     26  O   UNL     1       3.577  -3.066  -3.419  1.00  0.00    -0.494 OA
ATOM     27  C   UNL     1       4.814  -2.637  -2.835  1.00  0.00     0.278 C 
ENDBRANCH  23  26
ENDBRANCH  13  18
ENDBRANCH  11  12
ENDBRANCH   6  11
ENDBRANCH   3   5
ENDBRANCH   2   3
ENDBRANCH   1   2
BRANCH   1  28
ATOM     28  C   UNL     1      -7.405   0.965  -3.492  1.00  0.00     0.275 C 
BRANCH  28  29
ATOM     29  O   UNL     1      -6.175   1.704  -3.377  1.00  0.00    -0.458 OA
BRANCH  29  30
ATOM     30  C   UNL     1      -5.387   1.328  -2.344  1.00  0.00     0.338 C 
ATOM     31  O   UNL     1      -5.614   0.449  -1.529  1.00  0.00    -0.246 OA
BRANCH  30  32
ATOM     32  C   UNL     1      -4.125   2.083  -2.344  1.00  0.00     0.060 A 
ATOM     33  C   UNL     1      -3.080   1.583  -3.107  1.00  0.00     0.016 A 
ATOM     34  C   UNL     1      -3.893   3.122  -1.447  1.00  0.00     0.016 A 
ATOM     35  C   UNL     1      -1.775   2.010  -2.884  1.00  0.00     0.010 A 
ATOM     36  C   UNL     1      -2.597   3.647  -1.322  1.00  0.00     0.010 A 
ATOM     37  C   UNL     1      -1.507   3.065  -1.999  1.00  0.00    -0.014 A 
BRANCH  37  38
ATOM     38  C   UNL     1      -0.099   3.524  -1.769  1.00  0.00     0.031 A 
ATOM     39  C   UNL     1       0.469   3.595  -0.369  1.00  0.00     0.074 A 
ATOM     40  C   UNL     1       0.692   3.863  -2.811  1.00  0.00     0.049 A 
ATOM     41  N   UNL     1       1.611   4.090   0.043  1.00  0.00    -0.248 NA
ATOM     42  C   UNL     1      -0.358   3.038   0.711  1.00  0.00     0.031 C 
ATOM     43  C   UNL     1       0.304   3.803  -4.223  1.00  0.00     0.029 A 
ATOM     44  N   UNL     1       1.988   4.324  -2.851  1.00  0.00    -0.354 N 
ATOM     45  C   UNL     1       1.617   3.951   1.429  1.00  0.00     0.074 A 
ATOM     46  C   UNL     1       0.355   3.338   1.787  1.00  0.00     0.031 C 
ATOM     47  C   UNL     1       1.344   4.167  -4.986  1.00  0.00     0.029 A 
ATOM     48  C   UNL     1       2.435   4.602  -4.124  1.00  0.00     0.049 A 
ATOM     49  H   UNL     1       2.543   4.442  -2.047  1.00  0.00     0.167 HD
ATOM     50  C   UNL     1       2.582   4.297   2.318  1.00  0.00     0.034 A 
ATOM     51  C   UNL     1       3.562   5.199  -4.561  1.00  0.00     0.034 A 
ATOM     52  C   UNL     1       3.840   4.905   1.948  1.00  0.00     0.049 A 
ATOM     53  C   UNL     1       4.574   5.669  -3.552  1.00  0.00     0.074 A 
ATOM     54  C   UNL     1       4.887   5.288   2.769  1.00  0.00     0.029 A 
ATOM     55  N   UNL     1       4.218   5.231   0.652  1.00  0.00    -0.354 N 
ATOM     56  N   UNL     1       4.548   5.559  -2.244  1.00  0.00    -0.248 NA
ATOM     57  C   UNL     1       5.763   6.352  -4.077  1.00  0.00     0.031 C 
ATOM     58  C   UNL     1       5.860   5.914   1.982  1.00  0.00     0.029 A 
ATOM     59  C   UNL     1       5.465   5.843   0.656  1.00  0.00     0.049 A 
ATOM     60  H   UNL     1       3.680   5.055  -0.154  1.00  0.00     0.167 HD
ATOM     61  C   UNL     1       5.728   6.142  -1.792  1.00  0.00     0.074 A 
ATOM     62  C   UNL     1       6.450   6.583  -2.968  1.00  0.00     0.031 C 
ATOM     63  C   UNL     1       6.173   6.296  -0.519  1.00  0.00     0.034 A 
BRANCH  50  64
ATOM     64  C   UNL     1       2.283   4.090   3.788  1.00  0.00     0.023 A 
ATOM     65  C   UNL     1       2.071   2.812   4.334  1.00  0.00     0.031 A 
ATOM     66  C   UNL     1       2.174   5.197   4.650  1.00  0.00     0.131 A 
ATOM     67  C   UNL     1       1.683   2.679   5.677  1.00  0.00     0.055 A 
ATOM     68  C   UNL     1       1.871   5.051   6.006  1.00  0.00     0.041 A 
ATOM     69  F   UNL     1       2.346   6.444   4.186  1.00  0.00    -0.206 F 
ATOM     70  C   UNL     1       1.605   3.788   6.523  1.00  0.00     0.022 A 
BRANCH  67  71
ATOM     71  S   UNL     1       1.122   1.055   6.260  1.00  0.00     0.124 S 
ATOM     72  O   UNL     1       0.036   0.768   5.325  1.00  0.00    -0.237 OA
ATOM     73  O   UNL     1       2.322   0.240   6.118  1.00  0.00    -0.237 OA
ATOM     74  O   UNL     1       0.699   1.312   7.635  1.00  0.00    -0.744 OA
ENDBRANCH  67  71
ENDBRANCH  50  64
BRANCH  51  75
ATOM     75  C   UNL     1       3.756   5.462  -6.019  1.00  0.00     0.023 A 
ATOM     76  C   UNL     1       4.817   4.880  -6.729  1.00  0.00     0.031 A 
ATOM     77  C   UNL     1       2.891   6.325  -6.718  1.00  0.00     0.131 A 
ATOM     78  C   UNL     1       5.004   5.192  -8.085  1.00  0.00     0.055 A 
ATOM     79  C   UNL     1       3.043   6.582  -8.081  1.00  0.00     0.041 A 
ATOM     80  F   UNL     1       1.864   6.916  -6.087  1.00  0.00    -0.206 F 
ATOM     81  C   UNL     1       4.113   6.022  -8.771  1.00  0.00     0.022 A 
BRANCH  78  82
ATOM     82  S   UNL     1       6.481   4.559  -8.927  1.00  0.00     0.124 S 
ATOM     83  O   UNL     1       7.550   5.128  -8.114  1.00  0.00    -0.237 OA
ATOM     84  O   UNL     1       6.295   3.116  -8.822  1.00  0.00    -0.237 OA
ATOM     85  O   UNL     1       6.363   5.105 -10.277  1.00  0.00    -0.744 OA
ENDBRANCH  78  82
ENDBRANCH  51  75
BRANCH  63  86
ATOM     86  C   UNL     1       7.534   6.925  -0.342  1.00  0.00     0.023 A 
ATOM     87  C   UNL     1       7.782   8.266  -0.684  1.00  0.00     0.031 A 
ATOM     88  C   UNL     1       8.605   6.160   0.154  1.00  0.00     0.131 A 
ATOM     89  C   UNL     1       9.082   8.784  -0.582  1.00  0.00     0.055 A 
ATOM     90  C   UNL     1       9.881   6.700   0.316  1.00  0.00     0.041 A 
ATOM     91  F   UNL     1       8.427   4.872   0.490  1.00  0.00    -0.206 F 
ATOM     92  C   UNL     1      10.129   8.015  -0.066  1.00  0.00     0.022 A 
BRANCH  89  93
ATOM     93  S   UNL     1       9.412  10.445  -1.230  1.00  0.00     0.124 S 
ATOM     94  O   UNL     1       9.011  10.310  -2.627  1.00  0.00    -0.237 OA
ATOM     95  O   UNL     1       8.554  11.281  -0.398  1.00  0.00    -0.237 OA
ATOM     96  O   UNL     1      10.847  10.620  -1.012  1.00  0.00    -0.744 OA
ENDBRANCH  89  93
ENDBRANCH  63  86
ENDBRANCH  37  38
ENDBRANCH  30  32
ENDBRANCH  29  30
ENDBRANCH  28  29
ENDBRANCH   1  28
TORSDOF 19
