REMARK SMILES [NH3+][C@H]1CN(C(=O)OCC2c3ccccc3-c3ccccc32)C[C@@H]1C(=O)OCCOC(=O)c1ccc(-c2c3nc(c(-c4cc(S(=O)(=O)[O-])ccc4F)c4ccc([nH]4)c(-c4cc(S(=O)(=O)[O-])ccc4F)c4nc(c(-c5cc(S(=O)(=O)[O-])ccc5F)c5ccc2[nH]5)C=C4)C=C3)cc1
REMARK SMILES IDX 27 1 26 2 24 3 25 4 23 5 2 6 3 7 4 8 22 9 1 10 5 14 6 15
REMARK SMILES IDX 7 16 8 17 9 18 10 19 21 20 11 21 15 22 16 23 20 24 12 25
REMARK SMILES IDX 14 26 17 27 19 28 13 29 18 30 28 31 29 32 30 33 31 34 32 35
REMARK SMILES IDX 33 36 94 37 34 38 93 39 35 40 36 41 37 42 87 43 38 44 92 45
REMARK SMILES IDX 86 46 88 47 39 48 91 49 85 50 84 51 40 53 72 54 52 55 71 56
REMARK SMILES IDX 53 57 56 58 70 59 89 60 54 61 55 62 69 64 90 65 57 66 41 67
REMARK SMILES IDX 42 68 50 69 43 70 49 71 51 72 48 73 44 74 45 75 46 76 47 77
REMARK SMILES IDX 73 78 74 79 82 80 75 81 81 82 83 83 80 84 76 85 77 86 78 87
REMARK SMILES IDX 79 88 58 89 59 90 67 91 60 92 66 93 68 94 65 95 61 96 62 97
REMARK SMILES IDX 63 98 64 99
REMARK H PARENT 1 11 1 12 1 13 88 52 56 63
REMARK Flexibility Score: inf
ROOT
ATOM      1  C   UNL     1       2.725  -2.231   2.772  1.00  0.00     0.274 C 
ENDROOT
BRANCH   1   2
ATOM      2  O   UNL     1       2.420  -2.045   1.373  1.00  0.00    -0.462 OA
BRANCH   2   3
ATOM      3  C   UNL     1       1.520  -2.933   0.859  1.00  0.00     0.317 C 
ATOM      4  O   UNL     1       0.937  -3.773   1.529  1.00  0.00    -0.252 OA
BRANCH   3   5
ATOM      5  C   UNL     1       1.456  -2.832  -0.652  1.00  0.00     0.178 C 
ATOM      6  C   UNL     1       0.845  -1.519  -1.183  1.00  0.00     0.216 C 
ATOM      7  C   UNL     1      -0.639  -1.855  -1.501  1.00  0.00     0.188 C 
ATOM      8  N   UNL     1      -0.761  -3.277  -1.279  1.00  0.00    -0.301 N 
ATOM      9  C   UNL     1       0.534  -3.911  -1.199  1.00  0.00     0.145 C 
BRANCH   6  10
ATOM     10  N   UNL     1       1.555  -1.087  -2.402  1.00  0.00    -0.353 N 
ATOM     11  H   UNL     1       1.144  -0.219  -2.745  1.00  0.00     0.344 HD
ATOM     12  H   UNL     1       1.471  -1.809  -3.118  1.00  0.00     0.344 HD
ATOM     13  H   UNL     1       2.540  -0.935  -2.186  1.00  0.00     0.344 HD
ENDBRANCH   6  10
BRANCH   8  14
ATOM     14  C   UNL     1      -1.919  -3.920  -0.931  1.00  0.00     0.410 C 
ATOM     15  O   UNL     1      -1.933  -4.917  -0.224  1.00  0.00    -0.224 OA
BRANCH  14  16
ATOM     16  O   UNL     1      -3.017  -3.337  -1.477  1.00  0.00    -0.448 OA
BRANCH  16  17
ATOM     17  C   UNL     1      -4.293  -3.983  -1.220  1.00  0.00     0.248 C 
BRANCH  17  18
ATOM     18  C   UNL     1      -4.711  -4.923  -2.364  1.00  0.00     0.088 C 
ATOM     19  C   UNL     1      -4.210  -6.361  -2.189  1.00  0.00    -0.029 A 
ATOM     20  C   UNL     1      -6.226  -5.139  -2.395  1.00  0.00    -0.029 A 
ATOM     21  C   UNL     1      -2.912  -6.843  -2.155  1.00  0.00     0.005 A 
ATOM     22  C   UNL     1      -5.299  -7.242  -2.039  1.00  0.00    -0.014 A 
ATOM     23  C   UNL     1      -6.524  -6.510  -2.250  1.00  0.00    -0.014 A 
ATOM     24  C   UNL     1      -7.239  -4.205  -2.569  1.00  0.00     0.005 A 
ATOM     25  C   UNL     1      -2.702  -8.184  -1.827  1.00  0.00     0.000 A 
ATOM     26  C   UNL     1      -5.098  -8.576  -1.719  1.00  0.00     0.009 A 
ATOM     27  C   UNL     1      -7.825  -6.966  -2.365  1.00  0.00     0.009 A 
ATOM     28  C   UNL     1      -8.557  -4.663  -2.643  1.00  0.00     0.000 A 
ATOM     29  C   UNL     1      -3.786  -9.040  -1.589  1.00  0.00     0.001 A 
ATOM     30  C   UNL     1      -8.844  -6.033  -2.571  1.00  0.00     0.001 A 
ENDBRANCH  17  18
ENDBRANCH  16  17
ENDBRANCH  14  16
ENDBRANCH   8  14
ENDBRANCH   3   5
ENDBRANCH   2   3
ENDBRANCH   1   2
BRANCH   1  31
ATOM     31  C   UNL     1       2.019  -1.199   3.644  1.00  0.00     0.275 C 
BRANCH  31  32
ATOM     32  O   UNL     1       0.595  -1.345   3.531  1.00  0.00    -0.458 OA
BRANCH  32  33
ATOM     33  C   UNL     1      -0.063  -0.287   3.004  1.00  0.00     0.338 C 
ATOM     34  O   UNL     1       0.410   0.785   2.669  1.00  0.00    -0.246 OA
BRANCH  33  35
ATOM     35  C   UNL     1      -1.487  -0.620   2.842  1.00  0.00     0.060 A 
ATOM     36  C   UNL     1      -1.844  -1.679   2.017  1.00  0.00     0.016 A 
ATOM     37  C   UNL     1      -2.473   0.203   3.391  1.00  0.00     0.016 A 
ATOM     38  C   UNL     1      -3.178  -1.854   1.666  1.00  0.00     0.010 A 
ATOM     39  C   UNL     1      -3.825  -0.032   3.093  1.00  0.00     0.010 A 
ATOM     40  C   UNL     1      -4.191  -1.037   2.183  1.00  0.00    -0.014 A 
BRANCH  40  41
ATOM     41  C   UNL     1      -5.591  -1.198   1.682  1.00  0.00     0.031 A 
ATOM     42  C   UNL     1      -6.257  -0.059   0.948  1.00  0.00     0.074 A 
ATOM     43  C   UNL     1      -6.229  -2.385   1.781  1.00  0.00     0.049 A 
ATOM     44  N   UNL     1      -7.485   0.041   0.509  1.00  0.00    -0.248 NA
ATOM     45  C   UNL     1      -5.427   1.123   0.666  1.00  0.00     0.031 C 
ATOM     46  C   UNL     1      -5.646  -3.598   2.355  1.00  0.00     0.029 A 
ATOM     47  N   UNL     1      -7.473  -2.792   1.359  1.00  0.00    -0.354 N 
ATOM     48  C   UNL     1      -7.599   1.323  -0.023  1.00  0.00     0.074 A 
ATOM     49  C   UNL     1      -6.304   1.952   0.118  1.00  0.00     0.031 C 
ATOM     50  C   UNL     1      -6.486  -4.625   2.164  1.00  0.00     0.029 A 
ATOM     51  C   UNL     1      -7.729  -4.130   1.582  1.00  0.00     0.049 A 
ATOM     52  H   UNL     1      -8.122  -2.184   0.937  1.00  0.00     0.167 HD
ATOM     53  C   UNL     1      -8.693   1.923  -0.554  1.00  0.00     0.034 A 
ATOM     54  C   UNL     1      -8.842  -4.869   1.374  1.00  0.00     0.034 A 
ATOM     55  C   UNL     1      -9.962   1.258  -0.731  1.00  0.00     0.049 A 
ATOM     56  C   UNL     1     -10.050  -4.169   0.788  1.00  0.00     0.074 A 
ATOM     57  C   UNL     1     -11.151   1.782  -1.208  1.00  0.00     0.029 A 
ATOM     58  N   UNL     1     -10.204  -0.081  -0.449  1.00  0.00    -0.354 N 
ATOM     59  N   UNL     1     -10.166  -2.928   0.366  1.00  0.00    -0.248 NA
ATOM     60  C   UNL     1     -11.282  -4.958   0.664  1.00  0.00     0.031 C 
ATOM     61  C   UNL     1     -12.124   0.777  -1.158  1.00  0.00     0.029 A 
ATOM     62  C   UNL     1     -11.527  -0.394  -0.718  1.00  0.00     0.049 A 
ATOM     63  H   UNL     1      -9.533  -0.715  -0.107  1.00  0.00     0.167 HD
ATOM     64  C   UNL     1     -11.477  -2.798  -0.084  1.00  0.00     0.074 A 
ATOM     65  C   UNL     1     -12.098  -4.097   0.073  1.00  0.00     0.031 C 
ATOM     66  C   UNL     1     -12.122  -1.702  -0.563  1.00  0.00     0.034 A 
BRANCH  53  67
ATOM     67  C   UNL     1      -8.596   3.399  -0.862  1.00  0.00     0.023 A 
ATOM     68  C   UNL     1      -7.796   3.913  -1.897  1.00  0.00     0.031 A 
ATOM     69  C   UNL     1      -9.306   4.315  -0.062  1.00  0.00     0.131 A 
ATOM     70  C   UNL     1      -7.684   5.304  -2.066  1.00  0.00     0.055 A 
ATOM     71  C   UNL     1      -9.243   5.691  -0.279  1.00  0.00     0.041 A 
ATOM     72  F   UNL     1     -10.066   3.883   0.958  1.00  0.00    -0.206 F 
ATOM     73  C   UNL     1      -8.418   6.194  -1.278  1.00  0.00     0.022 A 
BRANCH  70  74
ATOM     74  S   UNL     1      -6.462   5.945  -3.246  1.00  0.00     0.124 S 
ATOM     75  O   UNL     1      -5.223   5.361  -2.738  1.00  0.00    -0.237 OA
ATOM     76  O   UNL     1      -6.944   5.417  -4.516  1.00  0.00    -0.237 OA
ATOM     77  O   UNL     1      -6.566   7.396  -3.094  1.00  0.00    -0.744 OA
ENDBRANCH  70  74
ENDBRANCH  53  67
BRANCH  54  78
ATOM     78  C   UNL     1      -8.876  -6.332   1.728  1.00  0.00     0.023 A 
ATOM     79  C   UNL     1      -9.230  -7.304   0.778  1.00  0.00     0.031 A 
ATOM     80  C   UNL     1      -8.555  -6.800   3.015  1.00  0.00     0.131 A 
ATOM     81  C   UNL     1      -9.218  -8.672   1.097  1.00  0.00     0.055 A 
ATOM     82  C   UNL     1      -8.499  -8.164   3.325  1.00  0.00     0.041 A 
ATOM     83  F   UNL     1      -8.263  -5.937   4.002  1.00  0.00    -0.206 F 
ATOM     84  C   UNL     1      -8.834  -9.109   2.362  1.00  0.00     0.022 A 
BRANCH  81  85
ATOM     85  S   UNL     1      -9.813  -9.881  -0.120  1.00  0.00     0.124 S 
ATOM     86  O   UNL     1     -10.886  -9.155  -0.793  1.00  0.00    -0.237 OA
ATOM     87  O   UNL     1      -8.614 -10.124  -0.915  1.00  0.00    -0.237 OA
ATOM     88  O   UNL     1     -10.247 -11.001   0.711  1.00  0.00    -0.744 OA
ENDBRANCH  81  85
ENDBRANCH  54  78
BRANCH  66  89
ATOM     89  C   UNL     1     -13.565  -1.875  -0.972  1.00  0.00     0.023 A 
ATOM     90  C   UNL     1     -14.566  -2.164  -0.028  1.00  0.00     0.031 A 
ATOM     91  C   UNL     1     -13.946  -1.741  -2.319  1.00  0.00     0.131 A 
ATOM     92  C   UNL     1     -15.889  -2.368  -0.450  1.00  0.00     0.055 A 
ATOM     93  C   UNL     1     -15.274  -1.885  -2.725  1.00  0.00     0.041 A 
ATOM     94  F   UNL     1     -13.033  -1.461  -3.263  1.00  0.00    -0.206 F 
ATOM     95  C   UNL     1     -16.252  -2.213  -1.790  1.00  0.00     0.022 A 
BRANCH  92  96
ATOM     96  S   UNL     1     -17.114  -2.921   0.767  1.00  0.00     0.124 S 
ATOM     97  O   UNL     1     -16.543  -4.187   1.218  1.00  0.00    -0.237 OA
ATOM     98  O   UNL     1     -17.102  -1.834   1.740  1.00  0.00    -0.237 OA
ATOM     99  O   UNL     1     -18.344  -3.039  -0.013  1.00  0.00    -0.744 OA
ENDBRANCH  92  96
ENDBRANCH  66  89
ENDBRANCH  40  41
ENDBRANCH  33  35
ENDBRANCH  32  33
ENDBRANCH  31  32
ENDBRANCH   1  31
TORSDOF 19
