REMARK SMILES C[C@H]1[C@H](C(=O)OCCOC(=O)c2ccc(-c3c4nc(c(-c5cc(S(=O)(=O)[O-])ccc5F)c5ccc([nH]5)c(-c5cc(S(=O)(=O)[O-])ccc5F)c5nc(c(-c6cc(S(=O)(=O)[O-])ccc6F)c6ccc3[nH]6)C=C5)C=C4)cc2)CCN1C(=O)[C@H]1CC[C@@H](C[NH3+])CC1
REMARK SMILES IDX 7 1 6 2 4 3 5 4 3 5 1 6 2 7 77 8 75 9 76 10 78 11 79 12
REMARK SMILES IDX 80 13 87 14 81 15 86 16 82 17 83 18 84 19 85 20 8 24 9 25
REMARK SMILES IDX 10 26 11 27 12 28 13 29 74 30 14 31 73 32 15 33 16 34 17 35
REMARK SMILES IDX 67 36 18 37 72 38 66 39 68 40 19 41 71 42 65 43 64 44 20 46
REMARK SMILES IDX 52 47 32 48 51 49 33 50 36 51 50 52 69 53 34 54 35 55 49 57
REMARK SMILES IDX 70 58 37 59 21 60 22 61 30 62 23 63 29 64 31 65 28 66 24 67
REMARK SMILES IDX 25 68 26 69 27 70 53 71 54 72 62 73 55 74 61 75 63 76 60 77
REMARK SMILES IDX 56 78 57 79 58 80 59 81 38 82 39 83 47 84 40 85 46 86 48 87
REMARK SMILES IDX 45 88 41 89 42 90 43 91 44 92
REMARK H PARENT 85 21 85 22 85 23 68 45 36 56
REMARK Flexibility Score: inf
ROOT
ATOM      1  C   UNL     1      -0.367   2.695   3.380  1.00  0.00     0.274 C 
ENDROOT
BRANCH   1   2
ATOM      2  O   UNL     1      -0.303   1.684   2.353  1.00  0.00    -0.462 OA
BRANCH   2   3
ATOM      3  C   UNL     1      -0.778   2.058   1.138  1.00  0.00     0.311 C 
ATOM      4  O   UNL     1      -1.278   3.152   0.898  1.00  0.00    -0.252 OA
BRANCH   3   5
ATOM      5  C   UNL     1      -0.714   0.975   0.087  1.00  0.00     0.123 C 
ATOM      6  C   UNL     1       1.341   0.168  -1.112  1.00  0.00     0.032 C 
ATOM      7  C   UNL     1       0.480  -0.011   0.150  1.00  0.00     0.096 C 
ATOM      8  N   UNL     1      -0.150  -1.342   0.175  1.00  0.00    -0.339 N 
ATOM      9  C   UNL     1      -1.971   0.106   0.136  1.00  0.00     0.039 C 
ATOM     10  C   UNL     1      -1.493  -1.240  -0.367  1.00  0.00     0.121 C 
BRANCH   8  11
ATOM     11  C   UNL     1       0.292  -2.561   0.643  1.00  0.00     0.225 C 
ATOM     12  O   UNL     1      -0.412  -3.570   0.493  1.00  0.00    -0.275 OA
BRANCH  11  13
ATOM     13  C   UNL     1       1.616  -2.737   1.401  1.00  0.00     0.078 C 
ATOM     14  C   UNL     1       2.868  -2.536   0.549  1.00  0.00     0.014 C 
ATOM     15  C   UNL     1       1.658  -2.015   2.753  1.00  0.00     0.014 C 
ATOM     16  C   UNL     1       4.153  -2.786   1.340  1.00  0.00     0.010 C 
ATOM     17  C   UNL     1       2.978  -2.261   3.486  1.00  0.00     0.010 C 
ATOM     18  C   UNL     1       4.212  -1.940   2.624  1.00  0.00     0.044 C 
BRANCH  18  19
ATOM     19  C   UNL     1       4.372  -0.445   2.276  1.00  0.00     0.262 C 
BRANCH  19  20
ATOM     20  N   UNL     1       4.425   0.420   3.454  1.00  0.00    -0.357 N 
ATOM     21  H   UNL     1       3.549   0.342   3.972  1.00  0.00     0.344 HD
ATOM     22  H   UNL     1       4.561   1.387   3.161  1.00  0.00     0.344 HD
ATOM     23  H   UNL     1       5.200   0.133   4.052  1.00  0.00     0.344 HD
ENDBRANCH  19  20
ENDBRANCH  18  19
ENDBRANCH  11  13
ENDBRANCH   8  11
ENDBRANCH   3   5
ENDBRANCH   2   3
ENDBRANCH   1   2
BRANCH   1  24
ATOM     24  C   UNL     1       0.973   3.410   3.575  1.00  0.00     0.275 C 
BRANCH  24  25
ATOM     25  O   UNL     1       1.369   4.153   2.408  1.00  0.00    -0.458 OA
BRANCH  25  26
ATOM     26  C   UNL     1       2.139   3.466   1.535  1.00  0.00     0.338 C 
ATOM     27  O   UNL     1       2.524   2.311   1.644  1.00  0.00    -0.246 OA
BRANCH  26  28
ATOM     28  C   UNL     1       2.393   4.272   0.338  1.00  0.00     0.060 A 
ATOM     29  C   UNL     1       1.723   3.940  -0.843  1.00  0.00     0.016 A 
ATOM     30  C   UNL     1       3.377   5.259   0.346  1.00  0.00     0.016 A 
ATOM     31  C   UNL     1       2.059   4.570  -2.036  1.00  0.00     0.010 A 
ATOM     32  C   UNL     1       3.691   5.912  -0.848  1.00  0.00     0.010 A 
ATOM     33  C   UNL     1       3.047   5.560  -2.048  1.00  0.00    -0.014 A 
BRANCH  33  34
ATOM     34  C   UNL     1       3.445   6.213  -3.318  1.00  0.00     0.031 A 
ATOM     35  C   UNL     1       4.800   5.933  -3.900  1.00  0.00     0.074 A 
ATOM     36  C   UNL     1       2.605   7.072  -3.923  1.00  0.00     0.049 A 
ATOM     37  N   UNL     1       5.433   6.551  -4.862  1.00  0.00    -0.248 NA
ATOM     38  C   UNL     1       5.542   4.809  -3.310  1.00  0.00     0.031 C 
ATOM     39  C   UNL     1       1.239   7.365  -3.488  1.00  0.00     0.029 A 
ATOM     40  N   UNL     1       2.786   7.874  -5.021  1.00  0.00    -0.354 N 
ATOM     41  C   UNL     1       6.665   5.916  -4.973  1.00  0.00     0.074 A 
ATOM     42  C   UNL     1       6.689   4.869  -3.972  1.00  0.00     0.031 C 
ATOM     43  C   UNL     1       0.712   8.296  -4.298  1.00  0.00     0.029 A 
ATOM     44  C   UNL     1       1.725   8.716  -5.261  1.00  0.00     0.049 A 
ATOM     45  H   UNL     1       3.594   7.849  -5.582  1.00  0.00     0.167 HD
ATOM     46  C   UNL     1       7.679   6.191  -5.830  1.00  0.00     0.034 A 
ATOM     47  C   UNL     1       1.607   9.749  -6.118  1.00  0.00     0.034 A 
ATOM     48  C   UNL     1       7.625   7.239  -6.821  1.00  0.00     0.049 A 
ATOM     49  C   UNL     1       2.777  10.097  -7.002  1.00  0.00     0.074 A 
ATOM     50  C   UNL     1       8.590   7.613  -7.739  1.00  0.00     0.029 A 
ATOM     51  N   UNL     1       6.540   8.085  -7.019  1.00  0.00    -0.354 N 
ATOM     52  N   UNL     1       3.958   9.526  -7.066  1.00  0.00    -0.248 NA
ATOM     53  C   UNL     1       2.603  11.229  -7.920  1.00  0.00     0.031 C 
ATOM     54  C   UNL     1       8.113   8.719  -8.452  1.00  0.00     0.029 A 
ATOM     55  C   UNL     1       6.823   8.994  -8.027  1.00  0.00     0.049 A 
ATOM     56  H   UNL     1       5.695   8.046  -6.517  1.00  0.00     0.167 HD
ATOM     57  C   UNL     1       4.657  10.213  -8.053  1.00  0.00     0.074 A 
ATOM     58  C   UNL     1       3.767  11.239  -8.556  1.00  0.00     0.031 C 
ATOM     59  C   UNL     1       5.918  10.008  -8.511  1.00  0.00     0.034 A 
BRANCH  46  60
ATOM     60  C   UNL     1       8.950   5.392  -5.680  1.00  0.00     0.023 A 
ATOM     61  C   UNL     1       8.994   4.010  -5.933  1.00  0.00     0.031 A 
ATOM     62  C   UNL     1      10.129   6.020  -5.240  1.00  0.00     0.131 A 
ATOM     63  C   UNL     1      10.172   3.291  -5.680  1.00  0.00     0.055 A 
ATOM     64  C   UNL     1      11.319   5.311  -5.062  1.00  0.00     0.041 A 
ATOM     65  F   UNL     1      10.141   7.333  -4.961  1.00  0.00    -0.206 F 
ATOM     66  C   UNL     1      11.341   3.935  -5.268  1.00  0.00     0.022 A 
BRANCH  63  67
ATOM     67  S   UNL     1      10.116   1.479  -5.762  1.00  0.00     0.124 S 
ATOM     68  O   UNL     1       9.082   1.171  -4.777  1.00  0.00    -0.237 OA
ATOM     69  O   UNL     1       9.764   1.238  -7.156  1.00  0.00    -0.237 OA
ATOM     70  O   UNL     1      11.469   1.077  -5.380  1.00  0.00    -0.744 OA
ENDBRANCH  63  67
ENDBRANCH  46  60
BRANCH  47  71
ATOM     71  C   UNL     1       0.366  10.574  -6.129  1.00  0.00     0.023 A 
ATOM     72  C   UNL     1      -0.474  10.606  -7.251  1.00  0.00     0.031 A 
ATOM     73  C   UNL     1       0.017  11.363  -5.017  1.00  0.00     0.131 A 
ATOM     74  C   UNL     1      -1.607  11.436  -7.250  1.00  0.00     0.055 A 
ATOM     75  C   UNL     1      -1.137  12.148  -5.003  1.00  0.00     0.041 A 
ATOM     76  F   UNL     1       0.787  11.367  -3.917  1.00  0.00    -0.206 F 
ATOM     77  C   UNL     1      -1.951  12.196  -6.130  1.00  0.00     0.022 A 
BRANCH  74  78
ATOM     78  S   UNL     1      -2.592  11.561  -8.768  1.00  0.00     0.124 S 
ATOM     79  O   UNL     1      -1.600  12.032  -9.728  1.00  0.00    -0.237 OA
ATOM     80  O   UNL     1      -3.054  10.188  -8.943  1.00  0.00    -0.237 OA
ATOM     81  O   UNL     1      -3.632  12.527  -8.419  1.00  0.00    -0.744 OA
ENDBRANCH  74  78
ENDBRANCH  47  71
BRANCH  59  82
ATOM     82  C   UNL     1       6.378  10.870  -9.657  1.00  0.00     0.023 A 
ATOM     83  C   UNL     1       6.695  12.227  -9.484  1.00  0.00     0.031 A 
ATOM     84  C   UNL     1       6.515  10.310 -10.940  1.00  0.00     0.131 A 
ATOM     85  C   UNL     1       7.104  12.991 -10.587  1.00  0.00     0.055 A 
ATOM     86  C   UNL     1       6.964  11.063 -12.024  1.00  0.00     0.041 A 
ATOM     87  F   UNL     1       6.224   9.016 -11.154  1.00  0.00    -0.206 F 
ATOM     88  C   UNL     1       7.255  12.414 -11.852  1.00  0.00     0.022 A 
BRANCH  85  89
ATOM     89  S   UNL     1       7.399  14.766 -10.361  1.00  0.00     0.124 S 
ATOM     90  O   UNL     1       6.073  15.249  -9.992  1.00  0.00    -0.237 OA
ATOM     91  O   UNL     1       8.403  14.786  -9.302  1.00  0.00    -0.237 OA
ATOM     92  O   UNL     1       7.877  15.204 -11.672  1.00  0.00    -0.744 OA
ENDBRANCH  85  89
ENDBRANCH  59  82
ENDBRANCH  33  34
ENDBRANCH  26  28
ENDBRANCH  25  26
ENDBRANCH  24  25
ENDBRANCH   1  24
TORSDOF 18
