REMARK SMILES COc1ccc([C@@H](CC(=O)OCCOC(=O)c2ccc(-c3c4nc(c(-c5cc(S(=O)(=O)[O-])ccc5F)c5ccc([nH]5)c(-c5cc(S(=O)(=O)[O-])ccc5F)c5nc(c(-c6cc(S(=O)(=O)[O-])ccc6F)c6ccc3[nH]6)C=C5)C=C4)cc2)N2C(=O)[C@H]3CC=CC[C@H]3C2=O)cc1OC
REMARK SMILES IDX 12 1 11 2 9 3 10 4 8 5 7 6 6 7 3 8 4 9 92 10 5 11 91 12 2 13
REMARK SMILES IDX 1 14 93 15 94 16 80 17 81 18 89 19 82 20 83 21 88 22 90 23
REMARK SMILES IDX 84 24 87 25 85 26 86 27 13 28 14 29 15 30 16 31 17 32 18 33
REMARK SMILES IDX 79 34 19 35 78 36 20 37 21 38 22 39 72 40 23 41 77 42 71 43
REMARK SMILES IDX 73 44 24 45 76 46 70 47 69 48 25 50 57 51 37 52 56 53 38 54
REMARK SMILES IDX 41 55 55 56 74 57 39 58 40 59 54 61 75 62 42 63 26 64 27 65
REMARK SMILES IDX 35 66 28 67 34 68 36 69 33 70 29 71 30 72 31 73 32 74 58 75
REMARK SMILES IDX 59 76 67 77 60 78 66 79 68 80 65 81 61 82 62 83 63 84 64 85
REMARK SMILES IDX 43 86 44 87 52 88 45 89 51 90 53 91 50 92 46 93 47 94 48 95
REMARK SMILES IDX 49 96
REMARK H PARENT 73 49 41 60
REMARK Flexibility Score: inf
ROOT
ATOM      1  C   UNL     1      -1.046   6.894   1.078  1.00  0.00     0.274 C 
ENDROOT
BRANCH   1   2
ATOM      2  O   UNL     1      -0.066   6.200   1.887  1.00  0.00    -0.462 OA
BRANCH   2   3
ATOM      3  C   UNL     1       1.084   6.863   2.139  1.00  0.00     0.308 C 
ATOM      4  O   UNL     1       1.314   7.994   1.711  1.00  0.00    -0.252 OA
BRANCH   3   5
ATOM      5  C   UNL     1       2.128   6.129   2.953  1.00  0.00     0.153 C 
BRANCH   5   6
ATOM      6  C   UNL     1       1.935   4.721   3.551  1.00  0.00     0.135 C 
BRANCH   6   7
ATOM      7  C   UNL     1       1.638   3.704   2.449  1.00  0.00    -0.020 A 
ATOM      8  C   UNL     1       1.160   1.742   0.487  1.00  0.00     0.160 A 
ATOM      9  C   UNL     1       0.091   2.383   1.121  1.00  0.00     0.051 A 
ATOM     10  C   UNL     1       2.474   2.097   0.817  1.00  0.00     0.161 A 
ATOM     11  C   UNL     1       0.328   3.338   2.110  1.00  0.00     0.010 A 
ATOM     12  C   UNL     1       2.704   3.089   1.773  1.00  0.00     0.056 A 
BRANCH   8  13
ATOM     13  O   UNL     1       0.947   0.818  -0.502  1.00  0.00    -0.493 OA
ATOM     14  C   UNL     1      -0.014  -0.173  -0.145  1.00  0.00     0.278 C 
ENDBRANCH   8  13
BRANCH  10  15
ATOM     15  O   UNL     1       3.610   1.566   0.260  1.00  0.00    -0.493 OA
ATOM     16  C   UNL     1       3.596   0.146   0.154  1.00  0.00     0.278 C 
ENDBRANCH  10  15
ENDBRANCH   6   7
BRANCH   6  17
ATOM     17  N   UNL     1       1.120   4.521   4.765  1.00  0.00    -0.274 N 
ATOM     18  C   UNL     1       0.918   5.451   5.742  1.00  0.00     0.234 C 
ATOM     19  C   UNL     1       1.004   3.281   5.338  1.00  0.00     0.234 C 
ATOM     20  O   UNL     1       1.421   6.562   5.787  1.00  0.00    -0.274 OA
ATOM     21  C   UNL     1       0.122   4.855   6.886  1.00  0.00     0.095 C 
ATOM     22  C   UNL     1       0.207   3.358   6.614  1.00  0.00     0.095 C 
ATOM     23  O   UNL     1       1.519   2.239   4.949  1.00  0.00    -0.274 OA
ATOM     24  C   UNL     1      -1.290   5.433   6.982  1.00  0.00     0.041 C 
ATOM     25  C   UNL     1      -1.111   2.607   6.423  1.00  0.00     0.041 C 
ATOM     26  C   UNL     1      -2.287   4.746   6.093  1.00  0.00    -0.030 C 
ATOM     27  C   UNL     1      -2.194   3.442   5.814  1.00  0.00    -0.030 C 
ENDBRANCH   6  17
ENDBRANCH   5   6
ENDBRANCH   3   5
ENDBRANCH   2   3
ENDBRANCH   1   2
BRANCH   1  28
ATOM     28  C   UNL     1      -2.223   7.421   1.907  1.00  0.00     0.275 C 
BRANCH  28  29
ATOM     29  O   UNL     1      -1.816   8.445   2.836  1.00  0.00    -0.458 OA
BRANCH  29  30
ATOM     30  C   UNL     1      -1.363   7.930   3.998  1.00  0.00     0.338 C 
ATOM     31  O   UNL     1      -1.320   6.740   4.274  1.00  0.00    -0.246 OA
BRANCH  30  32
ATOM     32  C   UNL     1      -0.834   8.941   4.915  1.00  0.00     0.060 A 
ATOM     33  C   UNL     1       0.540   9.166   4.901  1.00  0.00     0.016 A 
ATOM     34  C   UNL     1      -1.619   9.407   5.973  1.00  0.00     0.016 A 
ATOM     35  C   UNL     1       1.152   9.763   5.996  1.00  0.00     0.010 A 
ATOM     36  C   UNL     1      -1.008  10.084   7.036  1.00  0.00     0.010 A 
ATOM     37  C   UNL     1       0.388  10.233   7.074  1.00  0.00    -0.014 A 
BRANCH  37  38
ATOM     38  C   UNL     1       1.080  10.893   8.210  1.00  0.00     0.031 A 
ATOM     39  C   UNL     1       1.092  10.287   9.586  1.00  0.00     0.074 A 
ATOM     40  C   UNL     1       1.736  12.045   7.976  1.00  0.00     0.049 A 
ATOM     41  N   UNL     1       1.602  10.762  10.695  1.00  0.00    -0.248 NA
ATOM     42  C   UNL     1       0.433   8.983   9.739  1.00  0.00     0.031 C 
ATOM     43  C   UNL     1       1.809  12.717   6.676  1.00  0.00     0.029 A 
ATOM     44  N   UNL     1       2.469  12.848   8.808  1.00  0.00    -0.354 N 
ATOM     45  C   UNL     1       1.306   9.832  11.686  1.00  0.00     0.074 A 
ATOM     46  C   UNL     1       0.545   8.776  11.044  1.00  0.00     0.031 C 
ATOM     47  C   UNL     1       2.562  13.818   6.793  1.00  0.00     0.029 A 
ATOM     48  C   UNL     1       2.966  13.967   8.186  1.00  0.00     0.049 A 
ATOM     49  H   UNL     1       2.625  12.643   9.759  1.00  0.00     0.167 HD
ATOM     50  C   UNL     1       1.639   9.860  13.004  1.00  0.00     0.034 A 
ATOM     51  C   UNL     1       3.640  15.020   8.680  1.00  0.00     0.034 A 
ATOM     52  C   UNL     1       2.410  10.922  13.618  1.00  0.00     0.049 A 
ATOM     53  C   UNL     1       3.987  15.039  10.138  1.00  0.00     0.074 A 
ATOM     54  C   UNL     1       2.823  11.041  14.935  1.00  0.00     0.029 A 
ATOM     55  N   UNL     1       2.881  12.053  12.958  1.00  0.00    -0.354 N 
ATOM     56  N   UNL     1       3.682  14.166  11.069  1.00  0.00    -0.248 NA
ATOM     57  C   UNL     1       4.778  16.180  10.608  1.00  0.00     0.031 C 
ATOM     58  C   UNL     1       3.485  12.268  15.084  1.00  0.00     0.029 A 
ATOM     59  C   UNL     1       3.553  12.885  13.846  1.00  0.00     0.049 A 
ATOM     60  H   UNL     1       2.756  12.238  11.999  1.00  0.00     0.167 HD
ATOM     61  C   UNL     1       4.246  14.653  12.242  1.00  0.00     0.074 A 
ATOM     62  C   UNL     1       4.934  15.880  11.890  1.00  0.00     0.031 C 
ATOM     63  C   UNL     1       4.198  14.131  13.495  1.00  0.00     0.034 A 
BRANCH  50  64
ATOM     64  C   UNL     1       1.115   8.740  13.877  1.00  0.00     0.023 A 
ATOM     65  C   UNL     1       1.484   7.397  13.676  1.00  0.00     0.031 A 
ATOM     66  C   UNL     1       0.196   9.017  14.907  1.00  0.00     0.131 A 
ATOM     67  C   UNL     1       0.879   6.380  14.433  1.00  0.00     0.055 A 
ATOM     68  C   UNL     1      -0.340   8.009  15.712  1.00  0.00     0.041 A 
ATOM     69  F   UNL     1      -0.213  10.274  15.138  1.00  0.00    -0.206 F 
ATOM     70  C   UNL     1      -0.013   6.679  15.465  1.00  0.00     0.022 A 
BRANCH  67  71
ATOM     71  S   UNL     1       1.141   4.653  13.937  1.00  0.00     0.124 S 
ATOM     72  O   UNL     1       0.772   4.687  12.523  1.00  0.00    -0.237 OA
ATOM     73  O   UNL     1       2.556   4.455  14.225  1.00  0.00    -0.237 OA
ATOM     74  O   UNL     1       0.219   3.908  14.792  1.00  0.00    -0.744 OA
ENDBRANCH  67  71
ENDBRANCH  50  64
BRANCH  51  75
ATOM     75  C   UNL     1       3.970  16.155   7.779  1.00  0.00     0.023 A 
ATOM     76  C   UNL     1       5.289  16.416   7.384  1.00  0.00     0.031 A 
ATOM     77  C   UNL     1       2.944  16.967   7.262  1.00  0.00     0.131 A 
ATOM     78  C   UNL     1       5.550  17.475   6.501  1.00  0.00     0.055 A 
ATOM     79  C   UNL     1       3.204  17.991   6.353  1.00  0.00     0.041 A 
ATOM     80  F   UNL     1       1.664  16.742   7.602  1.00  0.00    -0.206 F 
ATOM     81  C   UNL     1       4.516  18.253   5.971  1.00  0.00     0.022 A 
BRANCH  78  82
ATOM     82  S   UNL     1       7.271  17.839   6.065  1.00  0.00     0.124 S 
ATOM     83  O   UNL     1       7.838  18.200   7.359  1.00  0.00    -0.237 OA
ATOM     84  O   UNL     1       7.718  16.570   5.500  1.00  0.00    -0.237 OA
ATOM     85  O   UNL     1       7.155  18.936   5.106  1.00  0.00    -0.744 OA
ENDBRANCH  78  82
ENDBRANCH  51  75
BRANCH  63  86
ATOM     86  C   UNL     1       4.932  14.900  14.566  1.00  0.00     0.023 A 
ATOM     87  C   UNL     1       4.509  16.179  14.973  1.00  0.00     0.031 A 
ATOM     88  C   UNL     1       6.103  14.377  15.140  1.00  0.00     0.131 A 
ATOM     89  C   UNL     1       5.291  16.921  15.871  1.00  0.00     0.055 A 
ATOM     90  C   UNL     1       6.846  15.097  16.079  1.00  0.00     0.041 A 
ATOM     91  F   UNL     1       6.556  13.164  14.786  1.00  0.00    -0.206 F 
ATOM     92  C   UNL     1       6.450  16.383  16.436  1.00  0.00     0.022 A 
BRANCH  89  93
ATOM     93  S   UNL     1       4.840  18.649  16.198  1.00  0.00     0.124 S 
ATOM     94  O   UNL     1       4.803  19.213  14.852  1.00  0.00    -0.237 OA
ATOM     95  O   UNL     1       3.552  18.512  16.869  1.00  0.00    -0.237 OA
ATOM     96  O   UNL     1       5.931  19.134  17.042  1.00  0.00    -0.744 OA
ENDBRANCH  89  93
ENDBRANCH  63  86
ENDBRANCH  37  38
ENDBRANCH  30  32
ENDBRANCH  29  30
ENDBRANCH  28  29
ENDBRANCH   1  28
TORSDOF 19
