REMARK SMILES C[C@@]1(O)N(CC(=O)OCCOC(=O)c2ccc(-c3c4nc(c(-c5cc(S(=O)(=O)[O-])ccc5F)c5ccc([nH]5)c(-c5cc(S(=O)(=O)[O-])ccc5F)c5nc(c(-c6cc(S(=O)(=O)[O-])ccc6F)c6ccc3[nH]6)C=C5)C=C4)cc2)C(=O)OC12CCCCC2
REMARK SMILES IDX 10 1 9 2 8 3 6 4 7 5 5 6 4 7 1 8 2 9 80 10 77 11 79 12 81 13
REMARK SMILES IDX 85 14 78 15 82 16 84 17 83 18 3 19 11 21 12 22 13 23 14 24
REMARK SMILES IDX 15 25 76 26 16 27 75 28 17 29 18 30 19 31 69 32 20 33 74 34
REMARK SMILES IDX 68 35 70 36 21 37 73 38 67 39 66 40 22 42 54 43 34 44 53 45
REMARK SMILES IDX 35 46 38 47 52 48 71 49 36 50 37 51 51 53 72 54 39 55 23 56
REMARK SMILES IDX 24 57 32 58 25 59 31 60 33 61 30 62 26 63 27 64 28 65 29 66
REMARK SMILES IDX 55 67 56 68 64 69 57 70 63 71 65 72 62 73 58 74 59 75 60 76
REMARK SMILES IDX 61 77 40 78 41 79 49 80 42 81 48 82 50 83 47 84 43 85 44 86
REMARK SMILES IDX 45 87 46 88
REMARK H PARENT 3 20 70 41 38 52
REMARK Flexibility Score: inf
ROOT
ATOM      1  C   UNL     1       3.843   3.349   2.799  1.00  0.00     0.275 C 
ENDROOT
BRANCH   1   2
ATOM      2  C   UNL     1       2.491   3.546   3.487  1.00  0.00     0.274 C 
BRANCH   2   3
ATOM      3  O   UNL     1       1.492   2.615   3.010  1.00  0.00    -0.461 OA
BRANCH   3   4
ATOM      4  C   UNL     1       0.555   3.133   2.180  1.00  0.00     0.326 C 
ATOM      5  O   UNL     1       0.550   4.304   1.803  1.00  0.00    -0.250 OA
BRANCH   4   6
ATOM      6  C   UNL     1      -0.528   2.156   1.715  1.00  0.00     0.248 C 
BRANCH   6   7
ATOM      7  N   UNL     1      -0.559   0.734   2.041  1.00  0.00    -0.265 N 
ATOM      8  C   UNL     1       0.919  -0.084   0.225  1.00  0.00     0.072 C 
ATOM      9  C   UNL     1       0.417  -0.248   1.655  1.00  0.00     0.181 C 
ATOM     10  C   UNL     1      -0.329  -1.601   1.908  1.00  0.00     0.161 C 
ATOM     11  C   UNL     1      -1.645   0.149   2.633  1.00  0.00     0.413 C 
ATOM     12  O   UNL     1      -1.530  -1.207   2.621  1.00  0.00    -0.438 OA
ATOM     13  C   UNL     1      -0.764  -2.332   0.615  1.00  0.00     0.054 C 
ATOM     14  C   UNL     1       0.430  -2.559   2.846  1.00  0.00     0.054 C 
ATOM     15  O   UNL     1      -2.621   0.731   3.082  1.00  0.00    -0.224 OA
ATOM     16  C   UNL     1      -1.462  -3.667   0.858  1.00  0.00     0.004 C 
ATOM     17  C   UNL     1      -0.320  -3.872   3.080  1.00  0.00     0.004 C 
ATOM     18  C   UNL     1      -0.640  -4.571   1.766  1.00  0.00     0.000 C 
BRANCH   9  19
ATOM     19  O   UNL     1       1.499  -0.103   2.565  1.00  0.00    -0.367 OA
ATOM     20  H   UNL     1       1.952   0.738   2.397  1.00  0.00     0.213 HD
ENDBRANCH   9  19
ENDBRANCH   6   7
ENDBRANCH   4   6
ENDBRANCH   3   4
ENDBRANCH   2   3
ENDBRANCH   1   2
BRANCH   1  21
ATOM     21  O   UNL     1       3.738   3.504   1.371  1.00  0.00    -0.458 OA
BRANCH  21  22
ATOM     22  C   UNL     1       3.609   2.336   0.707  1.00  0.00     0.338 C 
ATOM     23  O   UNL     1       3.570   1.217   1.200  1.00  0.00    -0.246 OA
BRANCH  22  24
ATOM     24  C   UNL     1       3.410   2.547  -0.735  1.00  0.00     0.060 A 
ATOM     25  C   UNL     1       2.147   2.925  -1.196  1.00  0.00     0.016 A 
ATOM     26  C   UNL     1       4.389   2.112  -1.627  1.00  0.00     0.016 A 
ATOM     27  C   UNL     1       1.831   2.768  -2.545  1.00  0.00     0.010 A 
ATOM     28  C   UNL     1       4.099   2.061  -2.994  1.00  0.00     0.010 A 
ATOM     29  C   UNL     1       2.810   2.359  -3.466  1.00  0.00    -0.014 A 
BRANCH  29  30
ATOM     30  C   UNL     1       2.507   2.298  -4.923  1.00  0.00     0.031 A 
ATOM     31  C   UNL     1       2.649   1.014  -5.698  1.00  0.00     0.074 A 
ATOM     32  C   UNL     1       2.148   3.430  -5.561  1.00  0.00     0.049 A 
ATOM     33  N   UNL     1       2.610   0.820  -6.992  1.00  0.00    -0.248 NA
ATOM     34  C   UNL     1       2.878  -0.210  -4.917  1.00  0.00     0.031 C 
ATOM     35  C   UNL     1       1.954   4.734  -4.920  1.00  0.00     0.029 A 
ATOM     36  N   UNL     1       1.900   3.675  -6.888  1.00  0.00    -0.354 N 
ATOM     37  C   UNL     1       2.844  -0.538  -7.188  1.00  0.00     0.074 A 
ATOM     38  C   UNL     1       3.037  -1.117  -5.873  1.00  0.00     0.031 C 
ATOM     39  C   UNL     1       1.606   5.634  -5.849  1.00  0.00     0.029 A 
ATOM     40  C   UNL     1       1.644   4.999  -7.159  1.00  0.00     0.049 A 
ATOM     41  H   UNL     1       1.905   2.973  -7.578  1.00  0.00     0.167 HD
ATOM     42  C   UNL     1       2.896  -1.230  -8.355  1.00  0.00     0.034 A 
ATOM     43  C   UNL     1       1.512   5.651  -8.330  1.00  0.00     0.034 A 
ATOM     44  C   UNL     1       2.686  -0.633  -9.656  1.00  0.00     0.049 A 
ATOM     45  C   UNL     1       1.632   4.875  -9.611  1.00  0.00     0.074 A 
ATOM     46  C   UNL     1       2.681  -1.250 -10.897  1.00  0.00     0.029 A 
ATOM     47  N   UNL     1       2.453   0.717  -9.889  1.00  0.00    -0.354 N 
ATOM     48  N   UNL     1       1.874   3.596  -9.780  1.00  0.00    -0.248 NA
ATOM     49  C   UNL     1       1.464   5.631 -10.857  1.00  0.00     0.031 C 
ATOM     50  C   UNL     1       2.518  -0.266 -11.879  1.00  0.00     0.029 A 
ATOM     51  C   UNL     1       2.339   0.956 -11.251  1.00  0.00     0.049 A 
ATOM     52  H   UNL     1       2.379   1.405  -9.188  1.00  0.00     0.167 HD
ATOM     53  C   UNL     1       1.866   3.390 -11.156  1.00  0.00     0.074 A 
ATOM     54  C   UNL     1       1.578   4.673 -11.766  1.00  0.00     0.031 C 
ATOM     55  C   UNL     1       2.075   2.243 -11.851  1.00  0.00     0.034 A 
BRANCH  42  56
ATOM     56  C   UNL     1       3.249  -2.700  -8.289  1.00  0.00     0.023 A 
ATOM     57  C   UNL     1       2.417  -3.643  -7.663  1.00  0.00     0.031 A 
ATOM     58  C   UNL     1       4.446  -3.163  -8.869  1.00  0.00     0.131 A 
ATOM     59  C   UNL     1       2.819  -4.987  -7.579  1.00  0.00     0.055 A 
ATOM     60  C   UNL     1       4.803  -4.513  -8.848  1.00  0.00     0.041 A 
ATOM     61  F   UNL     1       5.292  -2.308  -9.465  1.00  0.00    -0.206 F 
ATOM     62  C   UNL     1       3.994  -5.433  -8.189  1.00  0.00     0.022 A 
BRANCH  59  63
ATOM     63  S   UNL     1       1.850  -6.121  -6.546  1.00  0.00     0.124 S 
ATOM     64  O   UNL     1       1.893  -5.449  -5.249  1.00  0.00    -0.237 OA
ATOM     65  O   UNL     1       0.556  -6.131  -7.218  1.00  0.00    -0.237 OA
ATOM     66  O   UNL     1       2.600  -7.374  -6.615  1.00  0.00    -0.744 OA
ENDBRANCH  59  63
ENDBRANCH  42  56
BRANCH  43  67
ATOM     67  C   UNL     1       1.315   7.127  -8.338  1.00  0.00     0.023 A 
ATOM     68  C   UNL     1       0.126   7.695  -8.816  1.00  0.00     0.031 A 
ATOM     69  C   UNL     1       2.322   7.993  -7.871  1.00  0.00     0.131 A 
ATOM     70  C   UNL     1      -0.016   9.090  -8.846  1.00  0.00     0.055 A 
ATOM     71  C   UNL     1       2.154   9.377  -7.851  1.00  0.00     0.041 A 
ATOM     72  F   UNL     1       3.478   7.498  -7.398  1.00  0.00    -0.206 F 
ATOM     73  C   UNL     1       0.982   9.934  -8.351  1.00  0.00     0.022 A 
BRANCH  70  74
ATOM     74  S   UNL     1      -1.503   9.791  -9.609  1.00  0.00     0.124 S 
ATOM     75  O   UNL     1      -1.432   9.242 -10.957  1.00  0.00    -0.237 OA
ATOM     76  O   UNL     1      -2.560   9.261  -8.754  1.00  0.00    -0.237 OA
ATOM     77  O   UNL     1      -1.288  11.233  -9.509  1.00  0.00    -0.744 OA
ENDBRANCH  70  74
ENDBRANCH  43  67
BRANCH  55  78
ATOM     78  C   UNL     1       1.955   2.330 -13.352  1.00  0.00     0.023 A 
ATOM     79  C   UNL     1       2.874   3.061 -14.126  1.00  0.00     0.031 A 
ATOM     80  C   UNL     1       0.886   1.701 -14.014  1.00  0.00     0.131 A 
ATOM     81  C   UNL     1       2.673   3.194 -15.508  1.00  0.00     0.055 A 
ATOM     82  C   UNL     1       0.725   1.787 -15.397  1.00  0.00     0.041 A 
ATOM     83  F   UNL     1      -0.024   0.995 -13.323  1.00  0.00    -0.206 F 
ATOM     84  C   UNL     1       1.613   2.549 -16.151  1.00  0.00     0.022 A 
BRANCH  81  85
ATOM     85  S   UNL     1       3.758   4.307 -16.444  1.00  0.00     0.124 S 
ATOM     86  O   UNL     1       3.542   5.581 -15.766  1.00  0.00    -0.237 OA
ATOM     87  O   UNL     1       5.070   3.698 -16.252  1.00  0.00    -0.237 OA
ATOM     88  O   UNL     1       3.234   4.233 -17.806  1.00  0.00    -0.744 OA
ENDBRANCH  81  85
ENDBRANCH  55  78
ENDBRANCH  29  30
ENDBRANCH  22  24
ENDBRANCH  21  22
ENDBRANCH   1  21
TORSDOF 16
