REMARK SMILES O=C(OCCOC(=O)c1cc(-c2cccc(Cl)c2)ccc1Cl)c1ccc(-c2c3nc(c(-c4cc(S(=O)(=O)[O-])ccc4F)c4ccc([nH]4)c(-c4cc(S(=O)(=O)[O-])ccc4F)c4nc(c(-c5cc(S(=O)(=O)[O-])ccc5F)c5ccc2[nH]5)C=C4)C=C3)cc1
REMARK SMILES IDX 4 1 3 2 2 3 1 4 23 5 24 6 85 7 25 8 84 9 26 10 27 11 28 12
REMARK SMILES IDX 78 13 29 14 83 15 77 16 79 17 30 18 82 19 76 20 75 21 31 23
REMARK SMILES IDX 63 24 43 25 62 26 44 27 47 28 61 29 80 30 45 31 46 32 60 34
REMARK SMILES IDX 81 35 48 36 32 37 33 38 41 39 34 40 40 41 42 42 39 43 35 44
REMARK SMILES IDX 36 45 37 46 38 47 64 48 65 49 73 50 66 51 72 52 74 53 71 54
REMARK SMILES IDX 67 55 68 56 69 57 70 58 49 59 50 60 58 61 51 62 57 63 59 64
REMARK SMILES IDX 56 65 52 66 53 67 54 68 55 69 5 70 6 71 7 72 8 73 9 74 10 75
REMARK SMILES IDX 21 76 11 77 20 78 22 79 19 80 12 81 13 82 18 83 14 84 16 85
REMARK SMILES IDX 15 86 17 87
REMARK H PARENT 79 22 47 33
REMARK Flexibility Score: inf
ROOT
ATOM      1  C   UNL     1       4.065   1.525   0.702  1.00  0.00     0.275 C 
ENDROOT
BRANCH   1   2
ATOM      2  O   UNL     1       3.086   1.265  -0.314  1.00  0.00    -0.458 OA
BRANCH   2   3
ATOM      3  C   UNL     1       2.926   0.181  -1.107  1.00  0.00     0.338 C 
ATOM      4  O   UNL     1       2.027   0.215  -1.949  1.00  0.00    -0.246 OA
BRANCH   3   5
ATOM      5  C   UNL     1       3.682  -1.109  -0.950  1.00  0.00     0.060 A 
ATOM      6  C   UNL     1       4.917  -1.300  -0.328  1.00  0.00     0.016 A 
ATOM      7  C   UNL     1       3.050  -2.245  -1.480  1.00  0.00     0.016 A 
ATOM      8  C   UNL     1       5.459  -2.581  -0.166  1.00  0.00     0.010 A 
ATOM      9  C   UNL     1       3.564  -3.531  -1.295  1.00  0.00     0.010 A 
ATOM     10  C   UNL     1       4.784  -3.706  -0.637  1.00  0.00    -0.014 A 
BRANCH  10  11
ATOM     11  C   UNL     1       5.432  -5.037  -0.592  1.00  0.00     0.031 A 
ATOM     12  C   UNL     1       5.969  -5.604  -1.873  1.00  0.00     0.074 A 
ATOM     13  C   UNL     1       5.572  -5.704   0.570  1.00  0.00     0.049 A 
ATOM     14  N   UNL     1       6.590  -6.734  -2.081  1.00  0.00    -0.248 NA
ATOM     15  C   UNL     1       5.801  -4.775  -3.078  1.00  0.00     0.031 C 
ATOM     16  C   UNL     1       5.165  -5.201   1.879  1.00  0.00     0.029 A 
ATOM     17  N   UNL     1       6.084  -6.946   0.843  1.00  0.00    -0.354 N 
ATOM     18  C   UNL     1       6.924  -6.730  -3.430  1.00  0.00     0.074 A 
ATOM     19  C   UNL     1       6.353  -5.535  -4.008  1.00  0.00     0.031 C 
ATOM     20  C   UNL     1       5.385  -6.145   2.810  1.00  0.00     0.029 A 
ATOM     21  C   UNL     1       5.958  -7.319   2.163  1.00  0.00     0.049 A 
ATOM     22  H   UNL     1       6.503  -7.518   0.160  1.00  0.00     0.167 HD
ATOM     23  C   UNL     1       7.679  -7.623  -4.112  1.00  0.00     0.034 A 
ATOM     24  C   UNL     1       6.268  -8.480   2.775  1.00  0.00     0.034 A 
ATOM     25  C   UNL     1       8.205  -8.824  -3.518  1.00  0.00     0.049 A 
ATOM     26  C   UNL     1       6.967  -9.539   1.958  1.00  0.00     0.074 A 
ATOM     27  C   UNL     1       8.963  -9.819  -4.105  1.00  0.00     0.029 A 
ATOM     28  N   UNL     1       8.005  -9.201  -2.194  1.00  0.00    -0.354 N 
ATOM     29  N   UNL     1       7.311  -9.506   0.690  1.00  0.00    -0.248 NA
ATOM     30  C   UNL     1       7.360 -10.767   2.657  1.00  0.00     0.031 C 
ATOM     31  C   UNL     1       9.162 -10.829  -3.156  1.00  0.00     0.029 A 
ATOM     32  C   UNL     1       8.596 -10.430  -1.955  1.00  0.00     0.049 A 
ATOM     33  H   UNL     1       7.515  -8.671  -1.525  1.00  0.00     0.167 HD
ATOM     34  C   UNL     1       8.015 -10.682   0.456  1.00  0.00     0.074 A 
ATOM     35  C   UNL     1       8.040 -11.403   1.714  1.00  0.00     0.031 C 
ATOM     36  C   UNL     1       8.605 -11.121  -0.686  1.00  0.00     0.034 A 
BRANCH  23  37
ATOM     37  C   UNL     1       7.926  -7.327  -5.569  1.00  0.00     0.023 A 
ATOM     38  C   UNL     1       8.638  -6.181  -5.973  1.00  0.00     0.031 A 
ATOM     39  C   UNL     1       7.371  -8.144  -6.567  1.00  0.00     0.131 A 
ATOM     40  C   UNL     1       8.700  -5.837  -7.331  1.00  0.00     0.055 A 
ATOM     41  C   UNL     1       7.507  -7.840  -7.923  1.00  0.00     0.041 A 
ATOM     42  F   UNL     1       6.658  -9.233  -6.241  1.00  0.00    -0.206 F 
ATOM     43  C   UNL     1       8.159  -6.671  -8.311  1.00  0.00     0.022 A 
BRANCH  40  44
ATOM     44  S   UNL     1       9.355  -4.207  -7.784  1.00  0.00     0.124 S 
ATOM     45  O   UNL     1       8.426  -3.314  -7.095  1.00  0.00    -0.237 OA
ATOM     46  O   UNL     1      10.711  -4.251  -7.250  1.00  0.00    -0.237 OA
ATOM     47  O   UNL     1       9.259  -4.192  -9.242  1.00  0.00    -0.744 OA
ENDBRANCH  40  44
ENDBRANCH  23  37
BRANCH  24  48
ATOM     48  C   UNL     1       5.926  -8.709   4.210  1.00  0.00     0.023 A 
ATOM     49  C   UNL     1       6.918  -8.929   5.179  1.00  0.00     0.031 A 
ATOM     50  C   UNL     1       4.581  -8.775   4.623  1.00  0.00     0.131 A 
ATOM     51  C   UNL     1       6.553  -9.260   6.495  1.00  0.00     0.055 A 
ATOM     52  C   UNL     1       4.224  -9.060   5.944  1.00  0.00     0.041 A 
ATOM     53  F   UNL     1       3.589  -8.564   3.743  1.00  0.00    -0.206 F 
ATOM     54  C   UNL     1       5.214  -9.320   6.886  1.00  0.00     0.022 A 
BRANCH  51  55
ATOM     55  S   UNL     1       7.859  -9.707   7.674  1.00  0.00     0.124 S 
ATOM     56  O   UNL     1       8.545 -10.781   6.965  1.00  0.00    -0.237 OA
ATOM     57  O   UNL     1       8.591  -8.451   7.802  1.00  0.00    -0.237 OA
ATOM     58  O   UNL     1       7.117 -10.118   8.864  1.00  0.00    -0.744 OA
ENDBRANCH  51  55
ENDBRANCH  24  48
BRANCH  36  59
ATOM     59  C   UNL     1       9.377 -12.412  -0.599  1.00  0.00     0.023 A 
ATOM     60  C   UNL     1       8.740 -13.641  -0.364  1.00  0.00     0.031 A 
ATOM     61  C   UNL     1      10.775 -12.405  -0.753  1.00  0.00     0.131 A 
ATOM     62  C   UNL     1       9.507 -14.807  -0.232  1.00  0.00     0.055 A 
ATOM     63  C   UNL     1      11.525 -13.579  -0.689  1.00  0.00     0.041 A 
ATOM     64  F   UNL     1      11.433 -11.256  -0.977  1.00  0.00    -0.206 F 
ATOM     65  C   UNL     1      10.892 -14.787  -0.413  1.00  0.00     0.022 A 
BRANCH  62  66
ATOM     66  S   UNL     1       8.676 -16.335   0.276  1.00  0.00     0.124 S 
ATOM     67  O   UNL     1       8.109 -15.956   1.567  1.00  0.00    -0.237 OA
ATOM     68  O   UNL     1       7.717 -16.544  -0.804  1.00  0.00    -0.237 OA
ATOM     69  O   UNL     1       9.762 -17.311   0.338  1.00  0.00    -0.744 OA
ENDBRANCH  62  66
ENDBRANCH  36  59
ENDBRANCH  10  11
ENDBRANCH   3   5
ENDBRANCH   2   3
ENDBRANCH   1   2
BRANCH   1  70
ATOM     70  C   UNL     1       3.734   0.918   2.067  1.00  0.00     0.275 C 
BRANCH  70  71
ATOM     71  O   UNL     1       3.286  -0.443   1.992  1.00  0.00    -0.458 OA
BRANCH  71  72
ATOM     72  C   UNL     1       1.947  -0.646   2.092  1.00  0.00     0.339 C 
ATOM     73  O   UNL     1       1.083   0.209   2.197  1.00  0.00    -0.246 OA
BRANCH  72  74
ATOM     74  C   UNL     1       1.650  -2.084   1.939  1.00  0.00     0.079 A 
ATOM     75  C   UNL     1       0.755  -2.471   0.920  1.00  0.00     0.026 A 
ATOM     76  C   UNL     1       2.207  -3.046   2.784  1.00  0.00     0.055 A 
ATOM     77  C   UNL     1       0.457  -3.827   0.697  1.00  0.00    -0.017 A 
ATOM     78  C   UNL     1       1.925  -4.395   2.564  1.00  0.00     0.022 A 
ATOM     79  Cl  UNL     1       3.201  -2.642   4.138  1.00  0.00    -0.083 Cl
ATOM     80  C   UNL     1       1.080  -4.780   1.519  1.00  0.00     0.010 A 
BRANCH  77  81
ATOM     81  C   UNL     1      -0.501  -4.266  -0.332  1.00  0.00    -0.017 A 
ATOM     82  C   UNL     1      -1.663  -4.962   0.041  1.00  0.00     0.009 A 
ATOM     83  C   UNL     1      -0.284  -4.053  -1.701  1.00  0.00     0.029 A 
ATOM     84  C   UNL     1      -2.570  -5.431  -0.914  1.00  0.00     0.002 A 
ATOM     85  C   UNL     1      -1.188  -4.523  -2.656  1.00  0.00     0.041 A 
ATOM     86  C   UNL     1      -2.331  -5.212  -2.268  1.00  0.00     0.020 A 
ATOM     87  Cl  UNL     1      -0.879  -4.258  -4.329  1.00  0.00    -0.084 Cl
ENDBRANCH  77  81
ENDBRANCH  72  74
ENDBRANCH  71  72
ENDBRANCH  70  71
ENDBRANCH   1  70
TORSDOF 15
