REMARK SMILES Cc1ccnc(C(=O)c2[nH]c3cc(Cl)c(F)cc3c2CC(=O)OCCOC(=O)c2ccc(-c3c4nc(c(-c5cc(S(=O)(=O)[O-])ccc5F)c5ccc([nH]5)c(-c5cc(S(=O)(=O)[O-])ccc5F)c5nc(c(-c6cc(S(=O)(=O)[O-])ccc6F)c6ccc3[nH]6)C=C5)C=C4)cc2)c1
REMARK SMILES IDX 24 1 23 2 21 3 22 4 20 5 19 6 9 7 10 8 11 9 18 11 12 12
REMARK SMILES IDX 17 13 13 14 15 15 14 16 16 17 7 18 8 19 6 20 1 21 2 22 3 23
REMARK SMILES IDX 92 24 4 25 5 26 25 27 26 28 27 29 28 30 29 31 30 32 91 33
REMARK SMILES IDX 31 34 90 35 32 36 33 37 34 38 84 39 35 40 89 41 83 42 85 43
REMARK SMILES IDX 36 44 88 45 82 46 81 47 37 49 69 50 49 51 68 52 50 53 53 54
REMARK SMILES IDX 67 55 86 56 51 57 52 58 66 60 87 61 54 62 38 63 39 64 47 65
REMARK SMILES IDX 40 66 46 67 48 68 45 69 41 70 42 71 43 72 44 73 70 74 71 75
REMARK SMILES IDX 79 76 72 77 78 78 80 79 77 80 73 81 74 82 75 83 76 84 55 85
REMARK SMILES IDX 56 86 64 87 57 88 63 89 65 90 62 91 58 92 59 93 60 94 61 95
REMARK H PARENT 10 10 85 48 53 59
REMARK Flexibility Score: inf
ROOT
ATOM      1  C   UNL     1      -2.666  -0.598  -1.645  1.00  0.00     0.274 C 
ENDROOT
BRANCH   1   2
ATOM      2  O   UNL     1      -1.922  -1.769  -1.203  1.00  0.00    -0.462 OA
BRANCH   2   3
ATOM      3  C   UNL     1      -1.444  -2.518  -2.225  1.00  0.00     0.310 C 
ATOM      4  O   UNL     1      -1.633  -2.214  -3.403  1.00  0.00    -0.252 OA
BRANCH   3   5
ATOM      5  C   UNL     1      -0.773  -3.824  -1.912  1.00  0.00     0.161 C 
BRANCH   5   6
ATOM      6  C   UNL     1      -0.319  -4.358  -0.572  1.00  0.00     0.000 A 
ATOM      7  C   UNL     1       0.657  -3.961   0.356  1.00  0.00     0.093 A 
ATOM      8  N   UNL     1       0.890  -5.033   1.190  1.00  0.00    -0.351 N 
ATOM      9  C   UNL     1       0.065  -6.082   0.914  1.00  0.00     0.048 A 
ATOM     10  H   UNL     1       1.572  -5.040   1.900  1.00  0.00     0.167 HD
ATOM     11  C   UNL     1      -0.689  -5.714  -0.193  1.00  0.00     0.007 A 
ATOM     12  C   UNL     1      -0.017  -7.338   1.525  1.00  0.00     0.050 A 
ATOM     13  C   UNL     1      -1.544  -6.689  -0.758  1.00  0.00     0.051 A 
ATOM     14  C   UNL     1      -0.905  -8.263   0.973  1.00  0.00     0.078 A 
ATOM     15  C   UNL     1      -1.645  -7.945  -0.158  1.00  0.00     0.142 A 
ATOM     16  Cl  UNL     1      -1.066  -9.806   1.722  1.00  0.00    -0.081 Cl
ATOM     17  F   UNL     1      -2.486  -8.841  -0.697  1.00  0.00    -0.205 F 
BRANCH   7  18
ATOM     18  C   UNL     1       1.524  -2.805   0.559  1.00  0.00     0.227 C 
ATOM     19  O   UNL     1       2.724  -2.879   0.303  1.00  0.00    -0.285 OA
BRANCH  18  20
ATOM     20  C   UNL     1       0.983  -1.605   1.296  1.00  0.00     0.113 A 
ATOM     21  C   UNL     1      -2.402  -0.185   2.145  1.00  0.00     0.044 C 
ATOM     22  C   UNL     1      -0.920  -0.311   1.969  1.00  0.00    -0.047 A 
ATOM     23  C   UNL     1      -0.092   0.813   1.975  1.00  0.00     0.023 A 
ATOM     24  C   UNL     1      -0.364  -1.548   1.642  1.00  0.00     0.036 A 
ATOM     25  C   UNL     1       1.264   0.643   1.722  1.00  0.00     0.112 A 
ATOM     26  N   UNL     1       1.833  -0.549   1.440  1.00  0.00    -0.253 NA
ENDBRANCH  18  20
ENDBRANCH   7  18
ENDBRANCH   5   6
ENDBRANCH   3   5
ENDBRANCH   2   3
ENDBRANCH   1   2
BRANCH   1  27
ATOM     27  C   UNL     1      -1.867   0.717  -1.617  1.00  0.00     0.275 C 
BRANCH  27  28
ATOM     28  O   UNL     1      -0.760   0.727  -2.524  1.00  0.00    -0.458 OA
BRANCH  28  29
ATOM     29  C   UNL     1       0.359   0.125  -2.053  1.00  0.00     0.338 C 
ATOM     30  O   UNL     1       0.520  -0.234  -0.906  1.00  0.00    -0.246 OA
BRANCH  29  31
ATOM     31  C   UNL     1       1.174  -0.402  -3.148  1.00  0.00     0.060 A 
ATOM     32  C   UNL     1       0.925   0.101  -4.411  1.00  0.00     0.016 A 
ATOM     33  C   UNL     1       1.702  -1.690  -2.951  1.00  0.00     0.016 A 
ATOM     34  C   UNL     1       0.809  -0.819  -5.423  1.00  0.00     0.010 A 
ATOM     35  C   UNL     1       1.633  -2.600  -3.986  1.00  0.00     0.010 A 
ATOM     36  C   UNL     1       1.050  -2.186  -5.173  1.00  0.00    -0.014 A 
BRANCH  36  37
ATOM     37  C   UNL     1       0.973  -3.060  -6.323  1.00  0.00     0.031 A 
ATOM     38  C   UNL     1       2.119  -2.784  -7.199  1.00  0.00     0.074 A 
ATOM     39  C   UNL     1       0.002  -3.904  -6.706  1.00  0.00     0.049 A 
ATOM     40  N   UNL     1       2.113  -1.913  -8.148  1.00  0.00    -0.248 NA
ATOM     41  C   UNL     1       3.440  -3.259  -6.788  1.00  0.00     0.031 C 
ATOM     42  C   UNL     1      -1.099  -4.525  -5.977  1.00  0.00     0.029 A 
ATOM     43  N   UNL     1      -0.152  -4.390  -7.968  1.00  0.00    -0.354 N 
ATOM     44  C   UNL     1       3.424  -1.806  -8.561  1.00  0.00     0.074 A 
ATOM     45  C   UNL     1       4.214  -2.526  -7.588  1.00  0.00     0.031 C 
ATOM     46  C   UNL     1      -1.687  -5.460  -6.771  1.00  0.00     0.029 A 
ATOM     47  C   UNL     1      -1.122  -5.361  -8.109  1.00  0.00     0.049 A 
ATOM     48  H   UNL     1       0.389  -4.071  -8.726  1.00  0.00     0.167 HD
ATOM     49  C   UNL     1       3.724  -1.269  -9.771  1.00  0.00     0.034 A 
ATOM     50  C   UNL     1      -1.420  -6.026  -9.254  1.00  0.00     0.034 A 
ATOM     51  C   UNL     1       2.600  -0.550 -10.321  1.00  0.00     0.049 A 
ATOM     52  C   UNL     1      -0.977  -5.180 -10.395  1.00  0.00     0.074 A 
ATOM     53  C   UNL     1       1.925   0.600  -9.960  1.00  0.00     0.029 A 
ATOM     54  N   UNL     1       1.753  -1.242 -11.156  1.00  0.00    -0.354 N 
ATOM     55  N   UNL     1      -1.570  -4.075 -10.750  1.00  0.00    -0.248 NA
ATOM     56  C   UNL     1       0.391  -5.332 -10.871  1.00  0.00     0.031 C 
ATOM     57  C   UNL     1       0.554   0.334 -10.238  1.00  0.00     0.029 A 
ATOM     58  C   UNL     1       0.461  -0.943 -10.797  1.00  0.00     0.049 A 
ATOM     59  H   UNL     1       2.025  -1.847 -11.883  1.00  0.00     0.167 HD
ATOM     60  C   UNL     1      -0.534  -3.211 -11.071  1.00  0.00     0.074 A 
ATOM     61  C   UNL     1       0.640  -4.068 -11.226  1.00  0.00     0.031 C 
ATOM     62  C   UNL     1      -0.658  -1.860 -10.918  1.00  0.00     0.034 A 
BRANCH  49  63
ATOM     63  C   UNL     1       4.915  -1.702 -10.567  1.00  0.00     0.023 A 
ATOM     64  C   UNL     1       5.667  -2.844 -10.232  1.00  0.00     0.031 A 
ATOM     65  C   UNL     1       5.199  -1.116 -11.810  1.00  0.00     0.131 A 
ATOM     66  C   UNL     1       6.656  -3.350 -11.075  1.00  0.00     0.055 A 
ATOM     67  C   UNL     1       6.141  -1.662 -12.690  1.00  0.00     0.041 A 
ATOM     68  F   UNL     1       4.530  -0.031 -12.232  1.00  0.00    -0.206 F 
ATOM     69  C   UNL     1       6.876  -2.785 -12.324  1.00  0.00     0.022 A 
BRANCH  66  70
ATOM     70  S   UNL     1       7.652  -4.771 -10.551  1.00  0.00     0.124 S 
ATOM     71  O   UNL     1       7.363  -5.744 -11.599  1.00  0.00    -0.237 OA
ATOM     72  O   UNL     1       8.998  -4.206 -10.562  1.00  0.00    -0.237 OA
ATOM     73  O   UNL     1       7.128  -5.089  -9.226  1.00  0.00    -0.744 OA
ENDBRANCH  66  70
ENDBRANCH  49  63
BRANCH  50  74
ATOM     74  C   UNL     1      -1.496  -7.500  -9.399  1.00  0.00     0.023 A 
ATOM     75  C   UNL     1      -0.782  -8.326  -8.514  1.00  0.00     0.031 A 
ATOM     76  C   UNL     1      -1.970  -8.079 -10.591  1.00  0.00     0.131 A 
ATOM     77  C   UNL     1      -0.502  -9.655  -8.858  1.00  0.00     0.055 A 
ATOM     78  C   UNL     1      -1.708  -9.413 -10.921  1.00  0.00     0.041 A 
ATOM     79  F   UNL     1      -2.626  -7.335 -11.495  1.00  0.00    -0.206 F 
ATOM     80  C   UNL     1      -0.955 -10.204 -10.060  1.00  0.00     0.022 A 
BRANCH  77  81
ATOM     81  S   UNL     1       0.555 -10.674  -7.794  1.00  0.00     0.124 S 
ATOM     82  O   UNL     1      -0.223 -11.905  -7.677  1.00  0.00    -0.237 OA
ATOM     83  O   UNL     1       1.772 -10.774  -8.593  1.00  0.00    -0.237 OA
ATOM     84  O   UNL     1       0.661  -9.892  -6.566  1.00  0.00    -0.744 OA
ENDBRANCH  77  81
ENDBRANCH  50  74
BRANCH  62  85
ATOM     85  C   UNL     1      -2.030  -1.285 -10.628  1.00  0.00     0.023 A 
ATOM     86  C   UNL     1      -2.432  -0.176 -11.395  1.00  0.00     0.031 A 
ATOM     87  C   UNL     1      -2.836  -1.637  -9.527  1.00  0.00     0.131 A 
ATOM     88  C   UNL     1      -3.561   0.567 -11.035  1.00  0.00     0.055 A 
ATOM     89  C   UNL     1      -4.008  -0.936  -9.216  1.00  0.00     0.041 A 
ATOM     90  F   UNL     1      -2.479  -2.608  -8.676  1.00  0.00    -0.206 F 
ATOM     91  C   UNL     1      -4.365   0.184  -9.959  1.00  0.00     0.022 A 
BRANCH  88  92
ATOM     92  S   UNL     1      -3.916   2.142 -11.857  1.00  0.00     0.124 S 
ATOM     93  O   UNL     1      -5.200   1.874 -12.498  1.00  0.00    -0.237 OA
ATOM     94  O   UNL     1      -3.960   3.075 -10.733  1.00  0.00    -0.237 OA
ATOM     95  O   UNL     1      -2.790   2.328 -12.768  1.00  0.00    -0.744 OA
ENDBRANCH  88  92
ENDBRANCH  62  85
ENDBRANCH  36  37
ENDBRANCH  29  31
ENDBRANCH  28  29
ENDBRANCH  27  28
ENDBRANCH   1  27
TORSDOF 17
