REMARK SMILES O=C(OCCOC(=O)[C@H]1CC2=c3ccccc3=N[C@H]2[C@@H](c2ccccc2)[NH2+]1)c1ccc(-c2c3nc(c(-c4cc(S(=O)(=O)[O-])ccc4F)c4ccc([nH]4)c(-c4cc(S(=O)(=O)[O-])ccc4F)c4nc(c(-c5cc(S(=O)(=O)[O-])ccc5F)c5ccc2[nH]5)C=C4)C=C3)cc1
REMARK SMILES IDX 4 1 3 2 2 3 1 4 28 5 29 6 90 7 30 8 89 9 31 10 32 11 33 12
REMARK SMILES IDX 83 13 34 14 88 15 82 16 84 17 35 18 87 19 81 20 80 21 36 23
REMARK SMILES IDX 68 24 48 25 67 26 49 27 52 28 66 29 85 30 50 31 51 32 65 34
REMARK SMILES IDX 86 35 53 36 37 37 38 38 46 39 39 40 45 41 47 42 44 43 40 44
REMARK SMILES IDX 41 45 42 46 43 47 69 48 70 49 78 50 71 51 77 52 79 53 76 54
REMARK SMILES IDX 72 55 73 56 74 57 75 58 54 59 55 60 63 61 56 62 62 63 64 64
REMARK SMILES IDX 61 65 57 66 58 67 59 68 60 69 5 70 6 71 7 72 8 73 9 74 10 75
REMARK SMILES IDX 27 76 11 77 20 78 12 81 19 82 13 83 17 84 18 85 14 86 16 87
REMARK SMILES IDX 15 88 21 89 22 90 26 91 23 92 25 93 24 94
REMARK H PARENT 84 22 52 33 27 79 27 80
REMARK Flexibility Score: inf
ROOT
ATOM      1  C   UNL     1       3.853   0.857  -1.295  1.00  0.00     0.275 C 
ENDROOT
BRANCH   1   2
ATOM      2  O   UNL     1       3.369  -0.464  -1.020  1.00  0.00    -0.458 OA
BRANCH   2   3
ATOM      3  C   UNL     1       3.508  -1.143   0.143  1.00  0.00     0.338 C 
ATOM      4  O   UNL     1       2.918  -2.209   0.299  1.00  0.00    -0.246 OA
BRANCH   3   5
ATOM      5  C   UNL     1       4.265  -0.563   1.290  1.00  0.00     0.060 A 
ATOM      6  C   UNL     1       3.642  -0.665   2.525  1.00  0.00     0.016 A 
ATOM      7  C   UNL     1       5.535   0.036   1.239  1.00  0.00     0.016 A 
ATOM      8  C   UNL     1       4.242  -0.097   3.646  1.00  0.00     0.010 A 
ATOM      9  C   UNL     1       6.129   0.615   2.393  1.00  0.00     0.010 A 
ATOM     10  C   UNL     1       5.480   0.573   3.629  1.00  0.00    -0.014 A 
BRANCH  10  11
ATOM     11  C   UNL     1       6.041   1.021   4.957  1.00  0.00     0.031 A 
ATOM     12  C   UNL     1       6.227   2.464   5.383  1.00  0.00     0.074 A 
ATOM     13  C   UNL     1       6.238   0.081   5.908  1.00  0.00     0.049 A 
ATOM     14  N   UNL     1       6.274   2.959   6.602  1.00  0.00    -0.248 NA
ATOM     15  C   UNL     1       6.418   3.476   4.337  1.00  0.00     0.031 C 
ATOM     16  C   UNL     1       6.162  -1.361   5.685  1.00  0.00     0.029 A 
ATOM     17  N   UNL     1       6.477   0.198   7.260  1.00  0.00    -0.354 N 
ATOM     18  C   UNL     1       6.317   4.346   6.465  1.00  0.00     0.074 A 
ATOM     19  C   UNL     1       6.524   4.596   5.055  1.00  0.00     0.031 C 
ATOM     20  C   UNL     1       6.272  -1.990   6.863  1.00  0.00     0.029 A 
ATOM     21  C   UNL     1       6.504  -1.006   7.924  1.00  0.00     0.049 A 
ATOM     22  H   UNL     1       6.616   1.063   7.709  1.00  0.00     0.167 HD
ATOM     23  C   UNL     1       6.078   5.289   7.416  1.00  0.00     0.034 A 
ATOM     24  C   UNL     1       6.700  -1.306   9.228  1.00  0.00     0.034 A 
ATOM     25  C   UNL     1       6.116   5.044   8.832  1.00  0.00     0.049 A 
ATOM     26  C   UNL     1       6.867  -0.202  10.240  1.00  0.00     0.074 A 
ATOM     27  C   UNL     1       6.037   5.988   9.845  1.00  0.00     0.029 A 
ATOM     28  N   UNL     1       6.309   3.821   9.434  1.00  0.00    -0.354 N 
ATOM     29  N   UNL     1       6.623   1.078  10.111  1.00  0.00    -0.248 NA
ATOM     30  C   UNL     1       7.353  -0.580  11.576  1.00  0.00     0.031 C 
ATOM     31  C   UNL     1       6.280   5.348  11.053  1.00  0.00     0.029 A 
ATOM     32  C   UNL     1       6.462   4.000  10.798  1.00  0.00     0.049 A 
ATOM     33  H   UNL     1       6.334   2.955   8.967  1.00  0.00     0.167 HD
ATOM     34  C   UNL     1       6.897   1.648  11.353  1.00  0.00     0.074 A 
ATOM     35  C   UNL     1       7.305   0.575  12.228  1.00  0.00     0.031 C 
ATOM     36  C   UNL     1       6.824   2.952  11.716  1.00  0.00     0.034 A 
BRANCH  23  37
ATOM     37  C   UNL     1       5.661   6.703   7.076  1.00  0.00     0.023 A 
ATOM     38  C   UNL     1       6.577   7.754   6.927  1.00  0.00     0.031 A 
ATOM     39  C   UNL     1       4.294   7.037   7.261  1.00  0.00     0.131 A 
ATOM     40  C   UNL     1       6.111   9.083   6.943  1.00  0.00     0.055 A 
ATOM     41  C   UNL     1       3.836   8.355   7.245  1.00  0.00     0.041 A 
ATOM     42  F   UNL     1       3.389   6.073   7.503  1.00  0.00    -0.206 F 
ATOM     43  C   UNL     1       4.749   9.387   7.089  1.00  0.00     0.022 A 
BRANCH  40  44
ATOM     44  S   UNL     1       7.265  10.485   6.916  1.00  0.00     0.124 S 
ATOM     45  O   UNL     1       7.042  11.026   5.580  1.00  0.00    -0.237 OA
ATOM     46  O   UNL     1       6.790  11.314   8.016  1.00  0.00    -0.237 OA
ATOM     47  O   UNL     1       8.572   9.857   7.124  1.00  0.00    -0.744 OA
ENDBRANCH  40  44
ENDBRANCH  23  37
BRANCH  24  48
ATOM     48  C   UNL     1       6.780  -2.739   9.641  1.00  0.00     0.023 A 
ATOM     49  C   UNL     1       7.688  -3.602   9.001  1.00  0.00     0.031 A 
ATOM     50  C   UNL     1       5.933  -3.284  10.618  1.00  0.00     0.131 A 
ATOM     51  C   UNL     1       7.647  -4.975   9.253  1.00  0.00     0.055 A 
ATOM     52  C   UNL     1       5.971  -4.641  10.947  1.00  0.00     0.041 A 
ATOM     53  F   UNL     1       5.052  -2.505  11.265  1.00  0.00    -0.206 F 
ATOM     54  C   UNL     1       6.811  -5.499  10.242  1.00  0.00     0.022 A 
BRANCH  51  55
ATOM     55  S   UNL     1       8.539  -6.124   8.171  1.00  0.00     0.124 S 
ATOM     56  O   UNL     1       9.513  -6.708   9.086  1.00  0.00    -0.237 OA
ATOM     57  O   UNL     1       7.466  -7.013   7.731  1.00  0.00    -0.237 OA
ATOM     58  O   UNL     1       9.086  -5.259   7.130  1.00  0.00    -0.744 OA
ENDBRANCH  51  55
ENDBRANCH  24  48
BRANCH  36  59
ATOM     59  C   UNL     1       7.191   3.377  13.117  1.00  0.00     0.023 A 
ATOM     60  C   UNL     1       6.255   4.073  13.909  1.00  0.00     0.031 A 
ATOM     61  C   UNL     1       8.518   3.304  13.572  1.00  0.00     0.131 A 
ATOM     62  C   UNL     1       6.675   4.732  15.071  1.00  0.00     0.055 A 
ATOM     63  C   UNL     1       8.917   3.905  14.767  1.00  0.00     0.041 A 
ATOM     64  F   UNL     1       9.455   2.674  12.845  1.00  0.00    -0.206 F 
ATOM     65  C   UNL     1       8.000   4.644  15.509  1.00  0.00     0.022 A 
BRANCH  62  66
ATOM     66  S   UNL     1       5.560   5.856  15.961  1.00  0.00     0.124 S 
ATOM     67  O   UNL     1       5.388   5.161  17.235  1.00  0.00    -0.237 OA
ATOM     68  O   UNL     1       6.344   7.087  16.024  1.00  0.00    -0.237 OA
ATOM     69  O   UNL     1       4.372   5.915  15.117  1.00  0.00    -0.744 OA
ENDBRANCH  62  66
ENDBRANCH  36  59
ENDBRANCH  10  11
ENDBRANCH   3   5
ENDBRANCH   2   3
ENDBRANCH   1   2
BRANCH   1  70
ATOM     70  C   UNL     1       3.062   1.999  -0.659  1.00  0.00     0.274 C 
BRANCH  70  71
ATOM     71  O   UNL     1       2.775   1.865   0.739  1.00  0.00    -0.458 OA
BRANCH  71  72
ATOM     72  C   UNL     1       1.479   1.582   1.086  1.00  0.00     0.365 C 
ATOM     73  O   UNL     1       0.667   1.060   0.330  1.00  0.00    -0.245 OA
BRANCH  72  74
ATOM     74  C   UNL     1       1.087   2.185   2.452  1.00  0.00     0.298 C 
ATOM     75  C   UNL     1       0.216   1.307   3.422  1.00  0.00     0.111 C 
ATOM     76  N   UNL     1       2.235   2.829   3.114  1.00  0.00    -0.326 N 
ATOM     77  C   UNL     1       0.513   1.448   4.930  1.00  0.00    -0.024 C 
ATOM     78  C   UNL     1       1.689   3.498   4.305  1.00  0.00     0.243 C 
ATOM     79  H   UNL     1       2.667   3.511   2.490  1.00  0.00     0.347 HD
ATOM     80  H   UNL     1       2.955   2.150   3.362  1.00  0.00     0.347 HD
ATOM     81  C   UNL     1       0.514   0.412   5.765  1.00  0.00     0.002 A 
ATOM     82  C   UNL     1       1.506   2.484   5.457  1.00  0.00     0.196 C 
ATOM     83  C   UNL     1      -0.248  -0.792   5.814  1.00  0.00     0.010 A 
ATOM     84  C   UNL     1       1.939   0.474   6.185  1.00  0.00     0.066 A 
ATOM     85  N   UNL     1       2.600   1.581   5.921  1.00  0.00    -0.270 NA
ATOM     86  C   UNL     1       0.329  -1.924   6.237  1.00  0.00     0.001 A 
ATOM     87  C   UNL     1       2.498  -0.842   6.632  1.00  0.00     0.028 A 
ATOM     88  C   UNL     1       1.739  -1.953   6.571  1.00  0.00     0.002 A 
BRANCH  78  89
ATOM     89  C   UNL     1       2.115   4.945   4.295  1.00  0.00     0.012 A 
ATOM     90  C   UNL     1       1.243   5.915   3.749  1.00  0.00     0.010 A 
ATOM     91  C   UNL     1       3.410   5.337   4.561  1.00  0.00     0.010 A 
ATOM     92  C   UNL     1       1.660   7.217   3.476  1.00  0.00     0.001 A 
ATOM     93  C   UNL     1       3.851   6.625   4.228  1.00  0.00     0.001 A 
ATOM     94  C   UNL     1       2.977   7.572   3.707  1.00  0.00     0.000 A 
ENDBRANCH  78  89
ENDBRANCH  72  74
ENDBRANCH  71  72
ENDBRANCH  70  71
ENDBRANCH   1  70
TORSDOF 15
