REMARK SMILES O=C(OCCOC(=O)c1nccnc1C(=O)Nc1n[nH]c2ncccc12)c1ccc(-c2c3nc(c(-c4cc(S(=O)(=O)[O-])ccc4F)c4ccc([nH]4)c(-c4cc(S(=O)(=O)[O-])ccc4F)c4nc(c(-c5cc(S(=O)(=O)[O-])ccc5F)c5ccc2[nH]5)C=C4)C=C3)cc1
REMARK SMILES IDX 4 1 3 2 2 3 1 4 27 5 28 6 89 7 29 8 88 9 30 10 31 11 32 12
REMARK SMILES IDX 82 13 33 14 87 15 81 16 83 17 34 18 86 19 80 20 79 21 35 23
REMARK SMILES IDX 67 24 47 25 66 26 48 27 51 28 65 29 84 30 49 31 50 32 64 34
REMARK SMILES IDX 85 35 52 36 36 37 37 38 45 39 38 40 44 41 46 42 43 43 39 44
REMARK SMILES IDX 40 45 41 46 42 47 68 48 69 49 77 50 70 51 76 52 78 53 75 54
REMARK SMILES IDX 71 55 72 56 73 57 74 58 53 59 54 60 62 61 55 62 61 63 63 64
REMARK SMILES IDX 60 65 56 66 57 67 58 68 59 69 5 70 6 71 7 72 8 73 9 74 10 75
REMARK SMILES IDX 14 76 11 77 13 78 12 79 15 80 16 81 17 82 18 84 19 85 26 86
REMARK SMILES IDX 20 87 21 88 25 89 22 91 24 92 23 93
REMARK H PARENT 83 22 51 33 17 83 20 90
REMARK Flexibility Score: inf
ROOT
ATOM      1  C   UNL     1       4.646  -0.374   0.981  1.00  0.00     0.275 C 
ENDROOT
BRANCH   1   2
ATOM      2  O   UNL     1       3.284   0.317   1.187  1.00  0.00    -0.458 OA
BRANCH   2   3
ATOM      3  C   UNL     1       2.811   1.468   1.810  1.00  0.00     0.338 C 
ATOM      4  O   UNL     1       2.152   1.422   2.842  1.00  0.00    -0.246 OA
BRANCH   3   5
ATOM      5  C   UNL     1       2.741   2.739   0.974  1.00  0.00     0.060 A 
ATOM      6  C   UNL     1       2.564   2.613  -0.374  1.00  0.00     0.016 A 
ATOM      7  C   UNL     1       2.747   4.060   1.381  1.00  0.00     0.016 A 
ATOM      8  C   UNL     1       3.088   3.529  -1.290  1.00  0.00     0.010 A 
ATOM      9  C   UNL     1       3.049   5.082   0.426  1.00  0.00     0.010 A 
ATOM     10  C   UNL     1       3.500   4.760  -0.878  1.00  0.00    -0.014 A 
BRANCH  10  11
ATOM     11  C   UNL     1       4.508   5.593  -1.652  1.00  0.00     0.031 A 
ATOM     12  C   UNL     1       5.470   6.362  -0.793  1.00  0.00     0.074 A 
ATOM     13  C   UNL     1       4.875   5.584  -2.962  1.00  0.00     0.049 A 
ATOM     14  N   UNL     1       6.024   7.524  -0.968  1.00  0.00    -0.248 NA
ATOM     15  C   UNL     1       5.822   5.703   0.476  1.00  0.00     0.031 C 
ATOM     16  C   UNL     1       4.602   4.566  -3.969  1.00  0.00     0.029 A 
ATOM     17  N   UNL     1       5.590   6.519  -3.695  1.00  0.00    -0.354 N 
ATOM     18  C   UNL     1       6.641   7.809   0.244  1.00  0.00     0.074 A 
ATOM     19  C   UNL     1       6.379   6.702   1.134  1.00  0.00     0.031 C 
ATOM     20  C   UNL     1       4.977   4.986  -5.188  1.00  0.00     0.029 A 
ATOM     21  C   UNL     1       5.527   6.318  -5.065  1.00  0.00     0.049 A 
ATOM     22  H   UNL     1       6.094   7.257  -3.281  1.00  0.00     0.167 HD
ATOM     23  C   UNL     1       7.343   8.919   0.566  1.00  0.00     0.034 A 
ATOM     24  C   UNL     1       5.835   7.123  -6.105  1.00  0.00     0.034 A 
ATOM     25  C   UNL     1       7.690   9.905  -0.423  1.00  0.00     0.049 A 
ATOM     26  C   UNL     1       6.454   8.451  -5.770  1.00  0.00     0.074 A 
ATOM     27  C   UNL     1       8.322  11.121  -0.259  1.00  0.00     0.029 A 
ATOM     28  N   UNL     1       7.467   9.750  -1.789  1.00  0.00    -0.354 N 
ATOM     29  N   UNL     1       6.771   8.920  -4.584  1.00  0.00    -0.248 NA
ATOM     30  C   UNL     1       6.774   9.349  -6.884  1.00  0.00     0.031 C 
ATOM     31  C   UNL     1       8.420  11.728  -1.518  1.00  0.00     0.029 A 
ATOM     32  C   UNL     1       7.929  10.854  -2.478  1.00  0.00     0.049 A 
ATOM     33  H   UNL     1       7.041   8.965  -2.204  1.00  0.00     0.167 HD
ATOM     34  C   UNL     1       7.377  10.148  -4.811  1.00  0.00     0.074 A 
ATOM     35  C   UNL     1       7.369  10.350  -6.249  1.00  0.00     0.031 C 
ATOM     36  C   UNL     1       7.907  11.018  -3.914  1.00  0.00     0.034 A 
BRANCH  23  37
ATOM     37  C   UNL     1       7.606   9.148   2.033  1.00  0.00     0.023 A 
ATOM     38  C   UNL     1       8.344   8.252   2.826  1.00  0.00     0.031 A 
ATOM     39  C   UNL     1       6.941  10.204   2.684  1.00  0.00     0.131 A 
ATOM     40  C   UNL     1       8.281   8.347   4.225  1.00  0.00     0.055 A 
ATOM     41  C   UNL     1       6.982  10.361   4.069  1.00  0.00     0.041 A 
ATOM     42  F   UNL     1       6.189  11.070   1.988  1.00  0.00    -0.206 F 
ATOM     43  C   UNL     1       7.631   9.412   4.852  1.00  0.00     0.022 A 
BRANCH  40  44
ATOM     44  S   UNL     1       8.856   6.934   5.211  1.00  0.00     0.124 S 
ATOM     45  O   UNL     1       7.978   5.868   4.732  1.00  0.00    -0.237 OA
ATOM     46  O   UNL     1      10.257   6.826   4.822  1.00  0.00    -0.237 OA
ATOM     47  O   UNL     1       8.619   7.357   6.589  1.00  0.00    -0.744 OA
ENDBRANCH  40  44
ENDBRANCH  23  37
BRANCH  24  48
ATOM     48  C   UNL     1       5.482   6.749  -7.517  1.00  0.00     0.023 A 
ATOM     49  C   UNL     1       6.447   6.619  -8.531  1.00  0.00     0.031 A 
ATOM     50  C   UNL     1       4.132   6.562  -7.885  1.00  0.00     0.131 A 
ATOM     51  C   UNL     1       6.050   6.342  -9.856  1.00  0.00     0.055 A 
ATOM     52  C   UNL     1       3.747   6.250  -9.193  1.00  0.00     0.041 A 
ATOM     53  F   UNL     1       3.156   6.673  -6.968  1.00  0.00    -0.206 F 
ATOM     54  C   UNL     1       4.708   6.147 -10.190  1.00  0.00     0.022 A 
BRANCH  51  55
ATOM     55  S   UNL     1       7.310   6.302 -11.165  1.00  0.00     0.124 S 
ATOM     56  O   UNL     1       7.906   7.627 -11.047  1.00  0.00    -0.237 OA
ATOM     57  O   UNL     1       8.145   5.181 -10.744  1.00  0.00    -0.237 OA
ATOM     58  O   UNL     1       6.532   6.074 -12.382  1.00  0.00    -0.744 OA
ENDBRANCH  51  55
ENDBRANCH  24  48
BRANCH  36  59
ATOM     59  C   UNL     1       8.587  12.234  -4.476  1.00  0.00     0.023 A 
ATOM     60  C   UNL     1       7.867  13.249  -5.122  1.00  0.00     0.031 A 
ATOM     61  C   UNL     1       9.979  12.377  -4.341  1.00  0.00     0.131 A 
ATOM     62  C   UNL     1       8.552  14.346  -5.657  1.00  0.00     0.055 A 
ATOM     63  C   UNL     1      10.645  13.505  -4.813  1.00  0.00     0.041 A 
ATOM     64  F   UNL     1      10.709  11.426  -3.735  1.00  0.00    -0.206 F 
ATOM     65  C   UNL     1       9.932  14.493  -5.486  1.00  0.00     0.022 A 
BRANCH  62  66
ATOM     66  S   UNL     1       7.624  15.534  -6.661  1.00  0.00     0.124 S 
ATOM     67  O   UNL     1       7.118  14.687  -7.736  1.00  0.00    -0.237 OA
ATOM     68  O   UNL     1       6.628  16.030  -5.718  1.00  0.00    -0.237 OA
ATOM     69  O   UNL     1       8.638  16.507  -7.062  1.00  0.00    -0.744 OA
ENDBRANCH  62  66
ENDBRANCH  36  59
ENDBRANCH  10  11
ENDBRANCH   3   5
ENDBRANCH   2   3
ENDBRANCH   1   2
BRANCH   1  70
ATOM     70  C   UNL     1       5.233  -1.022  -0.651  1.00  0.00     0.275 C 
BRANCH  70  71
ATOM     71  O   UNL     1       4.403  -0.699  -2.487  1.00  0.00    -0.457 OA
BRANCH  71  72
ATOM     72  C   UNL     1       3.269  -0.442  -3.414  1.00  0.00     0.359 C 
ATOM     73  O   UNL     1       2.981  -1.296  -4.257  1.00  0.00    -0.244 OA
BRANCH  72  74
ATOM     74  C   UNL     1       2.412   0.829  -3.466  1.00  0.00     0.179 A 
ATOM     75  N   UNL     1       2.847   1.626  -4.507  1.00  0.00    -0.245 NA
ATOM     76  C   UNL     1       1.205   1.160  -2.809  1.00  0.00     0.161 A 
ATOM     77  C   UNL     1       2.119   2.729  -4.833  1.00  0.00     0.132 A 
ATOM     78  N   UNL     1       0.556   2.345  -3.128  1.00  0.00    -0.247 NA
ATOM     79  C   UNL     1       1.018   3.115  -4.121  1.00  0.00     0.132 A 
BRANCH  76  80
ATOM     80  C   UNL     1       0.387   0.549  -1.669  1.00  0.00     0.278 C 
ATOM     81  O   UNL     1      -0.772   0.952  -1.487  1.00  0.00    -0.267 OA
ATOM     82  N   UNL     1       0.785  -0.384  -0.756  1.00  0.00    -0.303 N 
ATOM     83  H   UNL     1       0.189  -0.518   0.016  1.00  0.00     0.172 HD
BRANCH  82  84
ATOM     84  C   UNL     1       1.898  -1.143  -0.786  1.00  0.00     0.164 A 
ATOM     85  N   UNL     1       1.706  -2.471  -0.755  1.00  0.00    -0.155 NA
ATOM     86  C   UNL     1       3.217  -0.727  -1.040  1.00  0.00     0.063 A 
ATOM     87  N   UNL     1       2.719  -3.061  -1.434  1.00  0.00    -0.259 N 
ATOM     88  C   UNL     1       3.793  -2.265  -1.633  1.00  0.00     0.157 A 
ATOM     89  C   UNL     1       4.352   0.724  -1.274  1.00  0.00     0.017 A 
ATOM     90  H   UNL     1       2.676  -3.990  -1.755  1.00  0.00     0.192 HD
ATOM     91  N   UNL     1       5.269  -2.493  -2.425  1.00  0.00    -0.237 NA
ATOM     92  C   UNL     1       5.887   0.518  -2.124  1.00  0.00     0.021 A 
ATOM     93  C   UNL     1       6.253  -1.083  -2.651  1.00  0.00     0.113 A 
ENDBRANCH  82  84
ENDBRANCH  76  80
ENDBRANCH  72  74
ENDBRANCH  71  72
ENDBRANCH  70  71
ENDBRANCH   1  70
TORSDOF 16
