REMARK SMILES C/C(C(=O)N[C@@H](C)CCCO)=C(\C)C(=O)OCCOC(=O)c1ccc(-c2c3nc(c(-c4cc(S(=O)(=O)[O-])ccc4F)c4ccc([nH]4)c(-c4cc(S(=O)(=O)[O-])ccc4F)c4nc(c(-c5cc(S(=O)(=O)[O-])ccc5F)c5ccc2[nH]5)C=C4)C=C3)cc1
REMARK SMILES IDX 16 1 14 2 15 3 12 4 1 5 2 6 13 7 3 8 4 9 5 10 6 12 7 13 8 14
REMARK SMILES IDX 9 15 10 16 11 17 17 19 18 20 19 21 20 22 21 23 22 24 23 25
REMARK SMILES IDX 84 26 24 27 83 28 25 29 26 30 27 31 77 32 28 33 82 34 76 35
REMARK SMILES IDX 78 36 29 37 81 38 75 39 74 40 30 42 62 43 42 44 61 45 43 46
REMARK SMILES IDX 46 47 60 48 79 49 44 50 45 51 59 53 80 54 47 55 31 56 32 57
REMARK SMILES IDX 40 58 33 59 39 60 41 61 38 62 34 63 35 64 36 65 37 66 63 67
REMARK SMILES IDX 64 68 72 69 65 70 71 71 73 72 70 73 66 74 67 75 68 76 69 77
REMARK SMILES IDX 48 78 49 79 57 80 50 81 56 82 58 83 55 84 51 85 52 86 53 87
REMARK SMILES IDX 54 88
REMARK H PARENT 5 11 11 18 78 41 46 52
REMARK Flexibility Score: inf
ROOT
ATOM      1  O   UNL     1       0.861  -3.036  -3.599  1.00  0.00    -0.459 OA
ENDROOT
BRANCH   1   2
ATOM      2  C   UNL     1       0.034  -2.271  -2.828  1.00  0.00     0.334 C 
ATOM      3  O   UNL     1      -1.135  -2.547  -2.619  1.00  0.00    -0.247 OA
BRANCH   2   4
ATOM      4  C   UNL     1       0.786  -1.055  -2.329  1.00  0.00     0.042 C 
ATOM      5  C   UNL     1       1.296   0.907  -0.886  1.00  0.00     0.051 C 
ATOM      6  C   UNL     1       0.484  -0.311  -1.223  1.00  0.00     0.024 C 
ATOM      7  C   UNL     1       1.918  -0.676  -3.267  1.00  0.00     0.053 C 
BRANCH   6   8
ATOM      8  C   UNL     1      -0.761  -0.544  -0.424  1.00  0.00     0.247 C 
ATOM      9  O   UNL     1      -1.843  -0.636  -1.004  1.00  0.00    -0.270 OA
ATOM     10  N   UNL     1      -0.783  -0.718   0.928  1.00  0.00    -0.350 N 
ATOM     11  H   UNL     1      -1.295  -1.512   1.204  1.00  0.00     0.164 HD
BRANCH  10  12
ATOM     12  C   UNL     1      -0.211   0.020   2.066  1.00  0.00     0.079 C 
ATOM     13  C   UNL     1      -1.377   0.772   2.743  1.00  0.00     0.031 C 
BRANCH  12  14
ATOM     14  C   UNL     1       0.450  -0.852   3.153  1.00  0.00     0.027 C 
BRANCH  14  15
ATOM     15  C   UNL     1       1.698  -1.662   2.795  1.00  0.00     0.030 C 
BRANCH  15  16
ATOM     16  C   UNL     1       2.712  -0.992   1.885  1.00  0.00     0.156 C 
BRANCH  16  17
ATOM     17  O   UNL     1       2.900   0.377   2.212  1.00  0.00    -0.396 OA
ATOM     18  H   UNL     1       2.061   0.853   2.107  1.00  0.00     0.210 HD
ENDBRANCH  16  17
ENDBRANCH  15  16
ENDBRANCH  14  15
ENDBRANCH  12  14
ENDBRANCH  10  12
ENDBRANCH   6   8
ENDBRANCH   2   4
ENDBRANCH   1   2
BRANCH   1  19
ATOM     19  C   UNL     1       0.281  -4.191  -4.241  1.00  0.00     0.275 C 
BRANCH  19  20
ATOM     20  C   UNL     1       0.736  -5.490  -3.576  1.00  0.00     0.275 C 
BRANCH  20  21
ATOM     21  O   UNL     1       0.168  -5.622  -2.263  1.00  0.00    -0.458 OA
BRANCH  21  22
ATOM     22  C   UNL     1       0.996  -5.286  -1.247  1.00  0.00     0.338 C 
ATOM     23  O   UNL     1       2.166  -4.954  -1.323  1.00  0.00    -0.246 OA
BRANCH  22  24
ATOM     24  C   UNL     1       0.241  -5.257   0.013  1.00  0.00     0.060 A 
ATOM     25  C   UNL     1      -0.409  -4.077   0.327  1.00  0.00     0.016 A 
ATOM     26  C   UNL     1       0.307  -6.288   0.952  1.00  0.00     0.016 A 
ATOM     27  C   UNL     1      -0.923  -3.896   1.602  1.00  0.00     0.010 A 
ATOM     28  C   UNL     1      -0.276  -6.115   2.222  1.00  0.00     0.010 A 
ATOM     29  C   UNL     1      -0.869  -4.893   2.579  1.00  0.00    -0.014 A 
BRANCH  29  30
ATOM     30  C   UNL     1      -1.340  -4.553   3.960  1.00  0.00     0.031 A 
ATOM     31  C   UNL     1      -0.388  -4.636   5.129  1.00  0.00     0.074 A 
ATOM     32  C   UNL     1      -2.562  -4.010   4.161  1.00  0.00     0.049 A 
ATOM     33  N   UNL     1      -0.627  -4.487   6.408  1.00  0.00    -0.248 NA
ATOM     34  C   UNL     1       1.022  -4.908   4.815  1.00  0.00     0.031 C 
ATOM     35  C   UNL     1      -3.543  -3.719   3.111  1.00  0.00     0.029 A 
ATOM     36  N   UNL     1      -3.179  -3.562   5.307  1.00  0.00    -0.354 N 
ATOM     37  C   UNL     1       0.586  -4.705   7.056  1.00  0.00     0.074 A 
ATOM     38  C   UNL     1       1.561  -4.987   6.023  1.00  0.00     0.031 C 
ATOM     39  C   UNL     1      -4.593  -3.082   3.647  1.00  0.00     0.029 A 
ATOM     40  C   UNL     1      -4.444  -3.058   5.096  1.00  0.00     0.049 A 
ATOM     41  H   UNL     1      -2.755  -3.598   6.196  1.00  0.00     0.167 HD
ATOM     42  C   UNL     1       0.854  -4.684   8.386  1.00  0.00     0.034 A 
ATOM     43  C   UNL     1      -5.411  -2.689   5.962  1.00  0.00     0.034 A 
ATOM     44  C   UNL     1      -0.129  -4.378   9.400  1.00  0.00     0.049 A 
ATOM     45  C   UNL     1      -5.139  -2.819   7.438  1.00  0.00     0.074 A 
ATOM     46  C   UNL     1       0.021  -4.384  10.777  1.00  0.00     0.029 A 
ATOM     47  N   UNL     1      -1.444  -4.008   9.150  1.00  0.00    -0.354 N 
ATOM     48  N   UNL     1      -4.026  -3.159   8.046  1.00  0.00    -0.248 NA
ATOM     49  C   UNL     1      -6.260  -2.542   8.345  1.00  0.00     0.031 C 
ATOM     50  C   UNL     1      -1.220  -4.099  11.357  1.00  0.00     0.029 A 
ATOM     51  C   UNL     1      -2.124  -3.819  10.345  1.00  0.00     0.049 A 
ATOM     52  H   UNL     1      -1.837  -3.895   8.255  1.00  0.00     0.167 HD
ATOM     53  C   UNL     1      -4.311  -3.118   9.408  1.00  0.00     0.074 A 
ATOM     54  C   UNL     1      -5.691  -2.696   9.531  1.00  0.00     0.031 C 
ATOM     55  C   UNL     1      -3.503  -3.406  10.461  1.00  0.00     0.034 A 
BRANCH  42  56
ATOM     56  C   UNL     1       2.238  -5.109   8.822  1.00  0.00     0.023 A 
ATOM     57  C   UNL     1       3.392  -4.379   8.489  1.00  0.00     0.031 A 
ATOM     58  C   UNL     1       2.405  -6.304   9.548  1.00  0.00     0.131 A 
ATOM     59  C   UNL     1       4.660  -4.891   8.810  1.00  0.00     0.055 A 
ATOM     60  C   UNL     1       3.663  -6.762   9.941  1.00  0.00     0.041 A 
ATOM     61  F   UNL     1       1.343  -7.058   9.874  1.00  0.00    -0.206 F 
ATOM     62  C   UNL     1       4.802  -6.064   9.557  1.00  0.00     0.022 A 
BRANCH  59  63
ATOM     63  S   UNL     1       6.123  -4.094   8.093  1.00  0.00     0.124 S 
ATOM     64  O   UNL     1       5.830  -4.174   6.663  1.00  0.00    -0.237 OA
ATOM     65  O   UNL     1       6.074  -2.760   8.679  1.00  0.00    -0.237 OA
ATOM     66  O   UNL     1       7.229  -4.936   8.543  1.00  0.00    -0.744 OA
ENDBRANCH  59  63
ENDBRANCH  42  56
BRANCH  43  67
ATOM     67  C   UNL     1      -6.766  -2.287   5.469  1.00  0.00     0.023 A 
ATOM     68  C   UNL     1      -7.331  -1.045   5.800  1.00  0.00     0.031 A 
ATOM     69  C   UNL     1      -7.551  -3.180   4.713  1.00  0.00     0.131 A 
ATOM     70  C   UNL     1      -8.649  -0.749   5.412  1.00  0.00     0.055 A 
ATOM     71  C   UNL     1      -8.830  -2.851   4.266  1.00  0.00     0.041 A 
ATOM     72  F   UNL     1      -7.079  -4.395   4.388  1.00  0.00    -0.206 F 
ATOM     73  C   UNL     1      -9.393  -1.634   4.628  1.00  0.00     0.022 A 
BRANCH  70  74
ATOM     74  S   UNL     1      -9.426   0.763   6.045  1.00  0.00     0.124 S 
ATOM     75  O   UNL     1      -9.324   0.566   7.487  1.00  0.00    -0.237 OA
ATOM     76  O   UNL     1      -8.574   1.803   5.478  1.00  0.00    -0.237 OA
ATOM     77  O   UNL     1     -10.781   0.704   5.502  1.00  0.00    -0.744 OA
ENDBRANCH  70  74
ENDBRANCH  43  67
BRANCH  55  78
ATOM     78  C   UNL     1      -4.083  -3.216  11.843  1.00  0.00     0.023 A 
ATOM     79  C   UNL     1      -5.145  -4.004  12.319  1.00  0.00     0.031 A 
ATOM     80  C   UNL     1      -3.572  -2.214  12.689  1.00  0.00     0.131 A 
ATOM     81  C   UNL     1      -5.702  -3.738  13.580  1.00  0.00     0.055 A 
ATOM     82  C   UNL     1      -4.084  -2.001  13.969  1.00  0.00     0.041 A 
ATOM     83  F   UNL     1      -2.563  -1.426  12.284  1.00  0.00    -0.206 F 
ATOM     84  C   UNL     1      -5.164  -2.756  14.416  1.00  0.00     0.022 A 
BRANCH  81  85
ATOM     85  S   UNL     1      -7.207  -4.622  14.072  1.00  0.00     0.124 S 
ATOM     86  O   UNL     1      -8.131  -4.266  13.000  1.00  0.00    -0.237 OA
ATOM     87  O   UNL     1      -6.761  -6.011  14.094  1.00  0.00    -0.237 OA
ATOM     88  O   UNL     1      -7.527  -4.053  15.380  1.00  0.00    -0.744 OA
ENDBRANCH  81  85
ENDBRANCH  55  78
ENDBRANCH  29  30
ENDBRANCH  22  24
ENDBRANCH  21  22
ENDBRANCH  20  21
ENDBRANCH  19  20
ENDBRANCH   1  19
TORSDOF 20
