REMARK SMILES Cc1cc(N(C)[C@H](C)C(=O)OCCOC(=O)c2ccc(-c3c4nc(c(-c5cc(S(=O)(=O)[O-])ccc5F)c5ccc([nH]5)c(-c5cc(S(=O)(=O)[O-])ccc5F)c5nc(c(-c6cc(S(=O)(=O)[O-])ccc6F)c6ccc3[nH]6)C=C5)C=C4)cc2)ncc1[N+](=O)[O-]
REMARK SMILES IDX 12 1 11 2 9 3 10 4 7 5 8 6 5 7 6 8 4 9 1 10 2 11 3 12 82 13
REMARK SMILES IDX 81 14 80 15 83 16 84 17 85 18 13 19 14 20 15 21 16 22 17 23
REMARK SMILES IDX 18 24 79 25 19 26 78 27 20 28 21 29 22 30 72 31 23 32 77 33
REMARK SMILES IDX 71 34 73 35 24 36 76 37 70 38 69 39 25 41 57 42 37 43 56 44
REMARK SMILES IDX 38 45 41 46 55 47 74 48 39 49 40 50 54 52 75 53 42 54 26 55
REMARK SMILES IDX 27 56 35 57 28 58 34 59 36 60 33 61 29 62 30 63 31 64 32 65
REMARK SMILES IDX 58 66 59 67 67 68 60 69 66 70 68 71 65 72 61 73 62 74 63 75
REMARK SMILES IDX 64 76 43 77 44 78 52 79 45 80 51 81 53 82 50 83 46 84 47 85
REMARK SMILES IDX 48 86 49 87
REMARK H PARENT 73 40 41 51
REMARK Flexibility Score: inf
ROOT
ATOM      1  C   UNL     1       3.856  -0.033  -2.683  1.00  0.00     0.274 C 
ENDROOT
BRANCH   1   2
ATOM      2  O   UNL     1       3.196   0.515  -1.526  1.00  0.00    -0.461 OA
BRANCH   2   3
ATOM      3  C   UNL     1       3.954   1.320  -0.726  1.00  0.00     0.328 C 
ATOM      4  O   UNL     1       5.154   1.514  -0.898  1.00  0.00    -0.250 OA
BRANCH   3   5
ATOM      5  C   UNL     1       3.156   1.906   0.456  1.00  0.00     0.190 C 
ATOM      6  C   UNL     1       1.639   1.915   0.277  1.00  0.00     0.044 C 
BRANCH   5   7
ATOM      7  N   UNL     1       3.519   1.232   1.725  1.00  0.00    -0.346 N 
ATOM      8  C   UNL     1       3.408  -0.213   1.796  1.00  0.00     0.146 C 
BRANCH   7   9
ATOM      9  C   UNL     1       4.181   1.976   2.688  1.00  0.00     0.129 A 
ATOM     10  C   UNL     1       5.847   1.468   6.067  1.00  0.00     0.052 C 
ATOM     11  C   UNL     1       5.335   2.175   4.845  1.00  0.00     0.032 A 
ATOM     12  C   UNL     1       4.707   1.399   3.849  1.00  0.00     0.057 A 
ATOM     13  C   UNL     1       5.391   3.555   4.639  1.00  0.00     0.290 A 
ATOM     14  C   UNL     1       4.888   4.072   3.460  1.00  0.00     0.199 A 
ATOM     15  N   UNL     1       4.291   3.310   2.509  1.00  0.00    -0.232 NA
BRANCH  13  16
ATOM     16  N   UNL     1       5.911   4.492   5.619  1.00  0.00     0.064 N 
ATOM     17  O   UNL     1       6.519   5.482   5.196  1.00  0.00    -0.258 OA
ATOM     18  O   UNL     1       5.688   4.256   6.816  1.00  0.00    -0.258 OA
ENDBRANCH  13  16
ENDBRANCH   7   9
ENDBRANCH   5   7
ENDBRANCH   3   5
ENDBRANCH   2   3
ENDBRANCH   1   2
BRANCH   1  19
ATOM     19  C   UNL     1       3.470   0.721  -3.958  1.00  0.00     0.275 C 
BRANCH  19  20
ATOM     20  O   UNL     1       3.977   2.067  -3.958  1.00  0.00    -0.458 OA
BRANCH  20  21
ATOM     21  C   UNL     1       3.127   2.994  -3.454  1.00  0.00     0.338 C 
ATOM     22  O   UNL     1       1.994   2.804  -3.046  1.00  0.00    -0.246 OA
BRANCH  21  23
ATOM     23  C   UNL     1       3.814   4.288  -3.337  1.00  0.00     0.060 A 
ATOM     24  C   UNL     1       4.066   4.783  -2.056  1.00  0.00     0.016 A 
ATOM     25  C   UNL     1       4.122   5.048  -4.465  1.00  0.00     0.016 A 
ATOM     26  C   UNL     1       4.617   6.048  -1.890  1.00  0.00     0.010 A 
ATOM     27  C   UNL     1       4.685   6.318  -4.298  1.00  0.00     0.010 A 
ATOM     28  C   UNL     1       4.924   6.830  -3.009  1.00  0.00    -0.014 A 
BRANCH  28  29
ATOM     29  C   UNL     1       5.439   8.207  -2.819  1.00  0.00     0.031 A 
ATOM     30  C   UNL     1       4.542   9.379  -3.093  1.00  0.00     0.074 A 
ATOM     31  C   UNL     1       6.693   8.396  -2.370  1.00  0.00     0.049 A 
ATOM     32  N   UNL     1       4.819  10.656  -3.084  1.00  0.00    -0.248 NA
ATOM     33  C   UNL     1       3.144   9.067  -3.427  1.00  0.00     0.031 C 
ATOM     34  C   UNL     1       7.629   7.329  -2.009  1.00  0.00     0.029 A 
ATOM     35  N   UNL     1       7.398   9.550  -2.140  1.00  0.00    -0.354 N 
ATOM     36  C   UNL     1       3.638  11.304  -3.428  1.00  0.00     0.074 A 
ATOM     37  C   UNL     1       2.648  10.273  -3.664  1.00  0.00     0.031 C 
ATOM     38  C   UNL     1       8.784   7.880  -1.603  1.00  0.00     0.029 A 
ATOM     39  C   UNL     1       8.692   9.331  -1.730  1.00  0.00     0.049 A 
ATOM     40  H   UNL     1       7.014  10.449  -2.257  1.00  0.00     0.167 HD
ATOM     41  C   UNL     1       3.405  12.636  -3.533  1.00  0.00     0.034 A 
ATOM     42  C   UNL     1       9.699  10.201  -1.517  1.00  0.00     0.034 A 
ATOM     43  C   UNL     1       4.408  13.646  -3.292  1.00  0.00     0.049 A 
ATOM     44  C   UNL     1       9.439  11.672  -1.724  1.00  0.00     0.074 A 
ATOM     45  C   UNL     1       4.287  15.022  -3.370  1.00  0.00     0.029 A 
ATOM     46  N   UNL     1       5.725  13.386  -2.928  1.00  0.00    -0.354 N 
ATOM     47  N   UNL     1       8.328  12.273  -2.085  1.00  0.00    -0.248 NA
ATOM     48  C   UNL     1      10.569  12.581  -1.497  1.00  0.00     0.031 C 
ATOM     49  C   UNL     1       5.541  15.590  -3.116  1.00  0.00     0.029 A 
ATOM     50  C   UNL     1       6.431  14.574  -2.808  1.00  0.00     0.049 A 
ATOM     51  H   UNL     1       6.101  12.489  -2.776  1.00  0.00     0.167 HD
ATOM     52  C   UNL     1       8.622  13.633  -2.108  1.00  0.00     0.074 A 
ATOM     53  C   UNL     1      10.009  13.763  -1.708  1.00  0.00     0.031 C 
ATOM     54  C   UNL     1       7.820  14.681  -2.427  1.00  0.00     0.034 A 
BRANCH  41  55
ATOM     55  C   UNL     1       2.030  13.063  -3.990  1.00  0.00     0.023 A 
ATOM     56  C   UNL     1       0.881  12.823  -3.217  1.00  0.00     0.031 A 
ATOM     57  C   UNL     1       1.865  13.686  -5.239  1.00  0.00     0.131 A 
ATOM     58  C   UNL     1      -0.387  13.140  -3.731  1.00  0.00     0.055 A 
ATOM     59  C   UNL     1       0.608  14.068  -5.713  1.00  0.00     0.041 A 
ATOM     60  F   UNL     1       2.923  13.920  -6.032  1.00  0.00    -0.206 F 
ATOM     61  C   UNL     1      -0.529  13.781  -4.963  1.00  0.00     0.022 A 
BRANCH  58  62
ATOM     62  S   UNL     1      -1.857  12.576  -2.829  1.00  0.00     0.124 S 
ATOM     63  O   UNL     1      -1.651  11.130  -2.804  1.00  0.00    -0.237 OA
ATOM     64  O   UNL     1      -1.726  13.263  -1.550  1.00  0.00    -0.237 OA
ATOM     65  O   UNL     1      -2.967  13.024  -3.668  1.00  0.00    -0.744 OA
ENDBRANCH  58  62
ENDBRANCH  41  55
BRANCH  42  66
ATOM     66  C   UNL     1      11.057   9.709  -1.149  1.00  0.00     0.023 A 
ATOM     67  C   UNL     1      11.642  10.038   0.084  1.00  0.00     0.031 A 
ATOM     68  C   UNL     1      11.810   8.936  -2.052  1.00  0.00     0.131 A 
ATOM     69  C   UNL     1      12.956   9.628   0.364  1.00  0.00     0.055 A 
ATOM     70  C   UNL     1      13.095   8.486  -1.746  1.00  0.00     0.041 A 
ATOM     71  F   UNL     1      11.299   8.596  -3.246  1.00  0.00    -0.206 F 
ATOM     72  C   UNL     1      13.680   8.843  -0.536  1.00  0.00     0.022 A 
BRANCH  69  73
ATOM     73  S   UNL     1      13.741  10.209   1.893  1.00  0.00     0.124 S 
ATOM     74  O   UNL     1      13.653  11.657   1.742  1.00  0.00    -0.237 OA
ATOM     75  O   UNL     1      12.886   9.617   2.917  1.00  0.00    -0.237 OA
ATOM     76  O   UNL     1      15.090   9.655   1.815  1.00  0.00    -0.744 OA
ENDBRANCH  69  73
ENDBRANCH  42  66
BRANCH  54  77
ATOM     77  C   UNL     1       8.427  16.057  -2.316  1.00  0.00     0.023 A 
ATOM     78  C   UNL     1       9.436  16.491  -3.194  1.00  0.00     0.031 A 
ATOM     79  C   UNL     1       8.003  16.936  -1.305  1.00  0.00     0.131 A 
ATOM     80  C   UNL     1      10.026  17.751  -3.009  1.00  0.00     0.055 A 
ATOM     81  C   UNL     1       8.555  18.209  -1.160  1.00  0.00     0.041 A 
ATOM     82  F   UNL     1       7.043  16.570  -0.440  1.00  0.00    -0.206 F 
ATOM     83  C   UNL     1       9.582  18.618  -2.007  1.00  0.00     0.022 A 
BRANCH  80  84
ATOM     84  S   UNL     1      11.443  18.210  -4.045  1.00  0.00     0.124 S 
ATOM     85  O   UNL     1      12.402  17.157  -3.732  1.00  0.00    -0.237 OA
ATOM     86  O   UNL     1      10.873  18.176  -5.388  1.00  0.00    -0.237 OA
ATOM     87  O   UNL     1      11.804  19.542  -3.561  1.00  0.00    -0.744 OA
ENDBRANCH  80  84
ENDBRANCH  54  77
ENDBRANCH  28  29
ENDBRANCH  21  23
ENDBRANCH  20  21
ENDBRANCH  19  20
ENDBRANCH   1  19
TORSDOF 17
