REMARK SMILES O=C(OCCOC(=O)c1ccccc1C(=O)N1CCOCCOCCOCC1)c1ccc(-c2c3nc(c(-c4cc(S(=O)(=O)[O-])ccc4F)c4ccc([nH]4)c(-c4cc(S(=O)(=O)[O-])ccc4F)c4nc(c(-c5cc(S(=O)(=O)[O-])ccc5F)c5ccc2[nH]5)C=C4)C=C3)cc1
REMARK SMILES IDX 7 1 8 2 6 3 5 4 4 5 3 6 2 7 1 8 29 9 30 10 91 11 31 12 90 13
REMARK SMILES IDX 32 14 33 15 34 16 84 17 35 18 89 19 83 20 85 21 36 22 88 23
REMARK SMILES IDX 82 24 81 25 37 27 69 28 49 29 68 30 50 31 53 32 67 33 86 34
REMARK SMILES IDX 51 35 52 36 66 38 87 39 54 40 38 41 39 42 47 43 40 44 46 45
REMARK SMILES IDX 48 46 45 47 41 48 42 49 43 50 44 51 70 52 71 53 79 54 72 55
REMARK SMILES IDX 78 56 80 57 77 58 73 59 74 60 75 61 76 62 55 63 56 64 64 65
REMARK SMILES IDX 57 66 63 67 65 68 62 69 58 70 59 71 60 72 61 73 9 74 10 75
REMARK SMILES IDX 14 76 11 77 13 78 12 79 15 80 16 81 17 82 18 83 19 84 20 85
REMARK SMILES IDX 21 86 28 88 27 89 26 90 25 91 24 92 23 93 22 94
REMARK H PARENT 85 26 53 37
REMARK Flexibility Score: 70.00
ROOT
ATOM      1  C   UNL     1       2.535   1.974  -0.513  1.00  0.00     0.339 C 
ATOM      2  O   UNL     1       1.898   2.177  -1.540  1.00  0.00    -0.246 OA
ENDROOT
BRANCH   1   3
ATOM      3  O   UNL     1       3.541   1.091  -0.338  1.00  0.00    -0.458 OA
BRANCH   3   4
ATOM      4  C   UNL     1       3.891   0.296  -1.478  1.00  0.00     0.275 C 
BRANCH   4   5
ATOM      5  C   UNL     1       4.117  -1.159  -1.082  1.00  0.00     0.275 C 
BRANCH   5   6
ATOM      6  O   UNL     1       3.034  -1.730  -0.319  1.00  0.00    -0.458 OA
BRANCH   6   7
ATOM      7  C   UNL     1       2.593  -1.454   0.932  1.00  0.00     0.338 C 
ATOM      8  O   UNL     1       1.459  -1.825   1.236  1.00  0.00    -0.246 OA
BRANCH   7   9
ATOM      9  C   UNL     1       3.378  -0.700   1.967  1.00  0.00     0.060 A 
ATOM     10  C   UNL     1       4.749  -0.444   1.923  1.00  0.00     0.016 A 
ATOM     11  C   UNL     1       2.665  -0.230   3.090  1.00  0.00     0.016 A 
ATOM     12  C   UNL     1       5.373   0.318   2.914  1.00  0.00     0.010 A 
ATOM     13  C   UNL     1       3.285   0.530   4.092  1.00  0.00     0.010 A 
ATOM     14  C   UNL     1       4.649   0.812   4.001  1.00  0.00    -0.014 A 
BRANCH  14  15
ATOM     15  C   UNL     1       5.406   1.401   5.130  1.00  0.00     0.031 A 
ATOM     16  C   UNL     1       5.955   0.451   6.144  1.00  0.00     0.074 A 
ATOM     17  C   UNL     1       5.715   2.708   5.175  1.00  0.00     0.049 A 
ATOM     18  N   UNL     1       6.790   0.678   7.118  1.00  0.00    -0.248 NA
ATOM     19  C   UNL     1       5.542  -0.954   6.003  1.00  0.00     0.031 C 
ATOM     20  C   UNL     1       5.326   3.678   4.165  1.00  0.00     0.029 A 
ATOM     21  N   UNL     1       6.441   3.449   6.070  1.00  0.00    -0.354 N 
ATOM     22  C   UNL     1       7.048  -0.565   7.676  1.00  0.00     0.074 A 
ATOM     23  C   UNL     1       6.239  -1.532   6.965  1.00  0.00     0.031 C 
ATOM     24  C   UNL     1       5.795   4.893   4.490  1.00  0.00     0.029 A 
ATOM     25  C   UNL     1       6.518   4.788   5.751  1.00  0.00     0.049 A 
ATOM     26  H   UNL     1       6.868   3.061   6.868  1.00  0.00     0.167 HD
ATOM     27  C   UNL     1       7.899  -0.869   8.683  1.00  0.00     0.034 A 
ATOM     28  C   UNL     1       7.109   5.807   6.407  1.00  0.00     0.034 A 
ATOM     29  C   UNL     1       8.610   0.131   9.436  1.00  0.00     0.049 A 
ATOM     30  C   UNL     1       7.887   5.468   7.654  1.00  0.00     0.074 A 
ATOM     31  C   UNL     1       9.415  -0.032  10.547  1.00  0.00     0.029 A 
ATOM     32  N   UNL     1       8.565   1.497   9.172  1.00  0.00    -0.354 N 
ATOM     33  N   UNL     1       8.125   4.286   8.178  1.00  0.00    -0.248 NA
ATOM     34  C   UNL     1       8.492   6.586   8.384  1.00  0.00     0.031 C 
ATOM     35  C   UNL     1       9.791   1.239  10.999  1.00  0.00     0.029 A 
ATOM     36  C   UNL     1       9.292   2.193  10.123  1.00  0.00     0.049 A 
ATOM     37  H   UNL     1       8.085   1.910   8.417  1.00  0.00     0.167 HD
ATOM     38  C   UNL     1       8.946   4.515   9.277  1.00  0.00     0.074 A 
ATOM     39  C   UNL     1       9.166   5.949   9.331  1.00  0.00     0.031 C 
ATOM     40  C   UNL     1       9.480   3.627  10.155  1.00  0.00     0.034 A 
BRANCH  27  41
ATOM     41  C   UNL     1       7.978  -2.325   9.057  1.00  0.00     0.023 A 
ATOM     42  C   UNL     1       8.463  -3.288   8.151  1.00  0.00     0.031 A 
ATOM     43  C   UNL     1       7.413  -2.775  10.261  1.00  0.00     0.131 A 
ATOM     44  C   UNL     1       8.275  -4.652   8.417  1.00  0.00     0.055 A 
ATOM     45  C   UNL     1       7.310  -4.135  10.559  1.00  0.00     0.041 A 
ATOM     46  F   UNL     1       6.898  -1.903  11.142  1.00  0.00    -0.206 F 
ATOM     47  C   UNL     1       7.722  -5.083   9.625  1.00  0.00     0.022 A 
BRANCH  44  48
ATOM     48  S   UNL     1       8.574  -5.845   7.081  1.00  0.00     0.124 S 
ATOM     49  O   UNL     1       7.643  -5.378   6.056  1.00  0.00    -0.237 OA
ATOM     50  O   UNL     1       9.990  -5.651   6.793  1.00  0.00    -0.237 OA
ATOM     51  O   UNL     1       8.229  -7.130   7.685  1.00  0.00    -0.744 OA
ENDBRANCH  44  48
ENDBRANCH  27  41
BRANCH  28  52
ATOM     52  C   UNL     1       6.981   7.219   5.932  1.00  0.00     0.023 A 
ATOM     53  C   UNL     1       8.106   7.984   5.582  1.00  0.00     0.031 A 
ATOM     54  C   UNL     1       5.724   7.852   5.890  1.00  0.00     0.131 A 
ATOM     55  C   UNL     1       7.960   9.344   5.254  1.00  0.00     0.055 A 
ATOM     56  C   UNL     1       5.578   9.190   5.517  1.00  0.00     0.041 A 
ATOM     57  F   UNL     1       4.612   7.176   6.221  1.00  0.00    -0.206 F 
ATOM     58  C   UNL     1       6.702   9.949   5.210  1.00  0.00     0.022 A 
BRANCH  55  59
ATOM     59  S   UNL     1       9.451  10.342   4.976  1.00  0.00     0.124 S 
ATOM     60  O   UNL     1      10.181  10.141   6.223  1.00  0.00    -0.237 OA
ATOM     61  O   UNL     1      10.022   9.711   3.791  1.00  0.00    -0.237 OA
ATOM     62  O   UNL     1       8.927  11.691   4.771  1.00  0.00    -0.744 OA
ENDBRANCH  55  59
ENDBRANCH  28  52
BRANCH  40  63
ATOM     63  C   UNL     1      10.387   4.193  11.218  1.00  0.00     0.023 A 
ATOM     64  C   UNL     1       9.903   5.045  12.225  1.00  0.00     0.031 A 
ATOM     65  C   UNL     1      11.758   3.884  11.209  1.00  0.00     0.131 A 
ATOM     66  C   UNL     1      10.796   5.611  13.145  1.00  0.00     0.055 A 
ATOM     67  C   UNL     1      12.630   4.396  12.169  1.00  0.00     0.041 A 
ATOM     68  F   UNL     1      12.272   3.077  10.267  1.00  0.00    -0.206 F 
ATOM     69  C   UNL     1      12.153   5.277  13.135  1.00  0.00     0.022 A 
BRANCH  66  70
ATOM     70  S   UNL     1      10.177   6.872  14.290  1.00  0.00     0.124 S 
ATOM     71  O   UNL     1       9.662   7.886  13.375  1.00  0.00    -0.237 OA
ATOM     72  O   UNL     1       9.176   6.135  15.054  1.00  0.00    -0.237 OA
ATOM     73  O   UNL     1      11.367   7.264  15.044  1.00  0.00    -0.744 OA
ENDBRANCH  66  70
ENDBRANCH  40  63
ENDBRANCH  14  15
ENDBRANCH   7   9
ENDBRANCH   6   7
ENDBRANCH   5   6
ENDBRANCH   4   5
ENDBRANCH   3   4
ENDBRANCH   1   3
BRANCH   1  74
ATOM     74  C   UNL     1       2.188   2.593   0.769  1.00  0.00     0.072 A 
ATOM     75  C   UNL     1       1.025   2.101   1.391  1.00  0.00     0.016 A 
ATOM     76  C   UNL     1       2.876   3.676   1.326  1.00  0.00     0.054 A 
ATOM     77  C   UNL     1       0.568   2.658   2.586  1.00  0.00     0.001 A 
ATOM     78  C   UNL     1       2.368   4.255   2.506  1.00  0.00     0.015 A 
ATOM     79  C   UNL     1       1.241   3.737   3.145  1.00  0.00     0.001 A 
BRANCH  76  80
ATOM     80  C   UNL     1       4.106   4.310   0.770  1.00  0.00     0.254 C 
ATOM     81  O   UNL     1       4.404   5.455   1.095  1.00  0.00    -0.269 OA
ATOM     82  N   UNL     1       4.908   3.558  -0.071  1.00  0.00    -0.334 N 
BRANCH  82  83
ATOM     83  C   UNL     1       6.099   2.929   0.527  1.00  0.00     0.148 C 
BRANCH  83  84
ATOM     84  C   UNL     1       7.271   3.888   0.824  1.00  0.00     0.181 C 
BRANCH  84  85
ATOM     85  O   UNL     1       8.194   3.815  -0.267  1.00  0.00    -0.377 OA
BRANCH  85  86
ATOM     86  C   UNL     1       8.783   5.069  -0.636  1.00  0.00     0.188 CG0
ATOM     87  G   UNL     1       8.560   5.233  -2.143  1.00  0.00     0.000 G0
ENDBRANCH  85  86
ENDBRANCH  84  85
ENDBRANCH  83  84
ENDBRANCH  82  83
BRANCH  82  88
ATOM     88  C   UNL     1       5.016   3.943  -1.474  1.00  0.00     0.148 C 
BRANCH  88  89
ATOM     89  C   UNL     1       4.082   5.055  -1.968  1.00  0.00     0.181 C 
BRANCH  89  90
ATOM     90  O   UNL     1       4.315   5.381  -3.343  1.00  0.00    -0.377 OA
BRANCH  90  91
ATOM     91  C   UNL     1       5.329   6.381  -3.537  1.00  0.00     0.188 C 
BRANCH  91  92
ATOM     92  C   UNL     1       6.735   5.777  -3.599  1.00  0.00     0.188 C 
BRANCH  92  93
ATOM     93  O   UNL     1       7.346   5.967  -2.324  1.00  0.00    -0.377 OA
BRANCH  93  94
ATOM     94  C   UNL     1       8.560   5.233  -2.143  1.00  0.00     0.188 CG0
ATOM     95  G   UNL     1       8.783   5.069  -0.636  1.00  0.00     0.000 G0
ENDBRANCH  93  94
ENDBRANCH  92  93
ENDBRANCH  91  92
ENDBRANCH  90  91
ENDBRANCH  89  90
ENDBRANCH  88  89
ENDBRANCH  82  88
ENDBRANCH  76  80
ENDBRANCH   1  74
TORSDOF 15
