REMARK SMILES C[C@@H]1CCN(c2cncc(C(=O)OCCOC(=O)c3ccc(-c4c5nc(c(-c6cc(S(=O)(=O)[O-])ccc6F)c6ccc([nH]6)c(-c6cc(S(=O)(=O)[O-])ccc6F)c6nc(c(-c7cc(S(=O)(=O)[O-])ccc7F)c7ccc4[nH]7)C=C6)C=C5)cc3)n2)[C@H](C)C1
REMARK SMILES IDX 15 1 14 2 13 3 11 4 12 5 10 6 6 7 7 8 82 9 8 10 9 11 5 12
REMARK SMILES IDX 1 13 2 14 3 15 85 16 4 17 83 18 84 19 16 20 17 21 18 22
REMARK SMILES IDX 19 23 20 24 81 25 21 26 80 27 22 28 23 29 24 30 74 31 25 32
REMARK SMILES IDX 79 33 73 34 75 35 26 36 78 37 72 38 71 39 27 41 59 42 39 43
REMARK SMILES IDX 58 44 40 45 43 46 57 47 76 48 41 49 42 50 56 52 77 53 44 54
REMARK SMILES IDX 28 55 29 56 37 57 30 58 36 59 38 60 35 61 31 62 32 63 33 64
REMARK SMILES IDX 34 65 60 66 61 67 69 68 62 69 68 70 70 71 67 72 63 73 64 74
REMARK SMILES IDX 65 75 66 76 45 77 46 78 54 79 47 80 53 81 55 82 52 83 48 84
REMARK SMILES IDX 49 85 50 86 51 87
REMARK H PARENT 75 40 43 51
REMARK Flexibility Score: inf
ROOT
ATOM      1  C   UNL     1       2.990  -8.607   5.644  1.00  0.00     0.275 C 
ENDROOT
BRANCH   1   2
ATOM      2  C   UNL     1       2.933  -8.595   4.117  1.00  0.00     0.275 C 
BRANCH   2   3
ATOM      3  O   UNL     1       2.157  -7.478   3.642  1.00  0.00    -0.457 OA
BRANCH   3   4
ATOM      4  C   UNL     1       0.880  -7.753   3.262  1.00  0.00     0.358 C 
ATOM      5  O   UNL     1       0.355  -8.853   3.249  1.00  0.00    -0.244 OA
BRANCH   4   6
ATOM      6  C   UNL     1       0.136  -6.504   2.969  1.00  0.00     0.169 A 
ATOM      7  C   UNL     1       0.093  -4.284   2.346  1.00  0.00     0.148 A 
ATOM      8  C   UNL     1      -1.265  -4.265   2.696  1.00  0.00     0.157 A 
ATOM      9  N   UNL     1       0.810  -5.422   2.498  1.00  0.00    -0.221 NA
ATOM     10  N   UNL     1      -1.959  -5.351   3.112  1.00  0.00    -0.258 NA
ATOM     11  C   UNL     1      -1.227  -6.478   3.220  1.00  0.00     0.147 A 
BRANCH   7  12
ATOM     12  N   UNL     1       0.721  -3.202   1.763  1.00  0.00    -0.353 N 
ATOM     13  C   UNL     1       1.365  -0.178  -0.413  1.00  0.00     0.008 C 
ATOM     14  C   UNL     1       0.220  -1.178  -0.250  1.00  0.00    -0.011 C 
ATOM     15  C   UNL     1      -0.403  -1.128   1.152  1.00  0.00     0.025 C 
ATOM     16  C   UNL     1       0.626  -2.615  -0.628  1.00  0.00     0.028 C 
ATOM     17  C   UNL     1       0.456  -1.838   2.190  1.00  0.00     0.118 C 
ATOM     18  C   UNL     1       1.346  -3.440   0.462  1.00  0.00     0.081 C 
ATOM     19  C   UNL     1       2.853  -3.216   0.541  1.00  0.00     0.031 C 
ENDBRANCH   7  12
ENDBRANCH   4   6
ENDBRANCH   3   4
ENDBRANCH   2   3
ENDBRANCH   1   2
BRANCH   1  20
ATOM     20  O   UNL     1       1.676  -8.859   6.171  1.00  0.00    -0.458 OA
BRANCH  20  21
ATOM     21  C   UNL     1       1.226  -7.973   7.089  1.00  0.00     0.338 C 
ATOM     22  O   UNL     1       1.832  -7.028   7.566  1.00  0.00    -0.246 OA
BRANCH  21  23
ATOM     23  C   UNL     1      -0.164  -8.306   7.443  1.00  0.00     0.060 A 
ATOM     24  C   UNL     1      -1.151  -8.228   6.464  1.00  0.00     0.016 A 
ATOM     25  C   UNL     1      -0.509  -8.582   8.763  1.00  0.00     0.016 A 
ATOM     26  C   UNL     1      -2.496  -8.343   6.809  1.00  0.00     0.010 A 
ATOM     27  C   UNL     1      -1.854  -8.789   9.094  1.00  0.00     0.010 A 
ATOM     28  C   UNL     1      -2.868  -8.634   8.129  1.00  0.00    -0.014 A 
BRANCH  28  29
ATOM     29  C   UNL     1      -4.309  -8.706   8.510  1.00  0.00     0.031 A 
ATOM     30  C   UNL     1      -4.858  -7.773   9.560  1.00  0.00     0.074 A 
ATOM     31  C   UNL     1      -5.138  -9.587   7.913  1.00  0.00     0.049 A 
ATOM     32  N   UNL     1      -6.018  -7.789  10.166  1.00  0.00    -0.248 NA
ATOM     33  C   UNL     1      -3.965  -6.693  10.001  1.00  0.00     0.031 C 
ATOM     34  C   UNL     1      -4.758 -10.521   6.852  1.00  0.00     0.029 A 
ATOM     35  N   UNL     1      -6.474  -9.839   8.113  1.00  0.00    -0.354 N 
ATOM     36  C   UNL     1      -5.975  -6.757  11.099  1.00  0.00     0.074 A 
ATOM     37  C   UNL     1      -4.662  -6.155  10.990  1.00  0.00     0.031 C 
ATOM     38  C   UNL     1      -5.839 -11.222   6.476  1.00  0.00     0.029 A 
ATOM     39  C   UNL     1      -6.966 -10.854   7.325  1.00  0.00     0.049 A 
ATOM     40  H   UNL     1      -7.026  -9.342   8.759  1.00  0.00     0.167 HD
ATOM     41  C   UNL     1      -6.940  -6.349  11.964  1.00  0.00     0.034 A 
ATOM     42  C   UNL     1      -8.171 -11.459   7.315  1.00  0.00     0.034 A 
ATOM     43  C   UNL     1      -8.259  -6.935  12.030  1.00  0.00     0.049 A 
ATOM     44  C   UNL     1      -9.220 -11.015   8.297  1.00  0.00     0.074 A 
ATOM     45  C   UNL     1      -9.317  -6.596  12.857  1.00  0.00     0.029 A 
ATOM     46  N   UNL     1      -8.708  -7.980  11.229  1.00  0.00    -0.354 N 
ATOM     47  N   UNL     1      -9.143 -10.088   9.224  1.00  0.00    -0.248 NA
ATOM     48  C   UNL     1     -10.515 -11.706   8.239  1.00  0.00     0.031 C 
ATOM     49  C   UNL     1     -10.381  -7.468  12.596  1.00  0.00     0.029 A 
ATOM     50  C   UNL     1     -10.015  -8.309  11.558  1.00  0.00     0.049 A 
ATOM     51  H   UNL     1      -8.175  -8.422  10.529  1.00  0.00     0.167 HD
ATOM     52  C   UNL     1     -10.380 -10.086   9.862  1.00  0.00     0.074 A 
ATOM     53  C   UNL     1     -11.192 -11.085   9.194  1.00  0.00     0.031 C 
ATOM     54  C   UNL     1     -10.804  -9.330  10.906  1.00  0.00     0.034 A 
BRANCH  41  55
ATOM     55  C   UNL     1      -6.570  -5.261  12.947  1.00  0.00     0.023 A 
ATOM     56  C   UNL     1      -6.205  -3.969  12.532  1.00  0.00     0.031 A 
ATOM     57  C   UNL     1      -6.518  -5.545  14.325  1.00  0.00     0.131 A 
ATOM     58  C   UNL     1      -5.714  -3.044  13.467  1.00  0.00     0.055 A 
ATOM     59  C   UNL     1      -6.114  -4.591  15.261  1.00  0.00     0.041 A 
ATOM     60  F   UNL     1      -6.835  -6.766  14.784  1.00  0.00    -0.206 F 
ATOM     61  C   UNL     1      -5.688  -3.338  14.832  1.00  0.00     0.022 A 
BRANCH  58  62
ATOM     62  S   UNL     1      -4.942  -1.519  12.856  1.00  0.00     0.124 S 
ATOM     63  O   UNL     1      -3.911  -2.046  11.964  1.00  0.00    -0.237 OA
ATOM     64  O   UNL     1      -6.058  -0.838  12.211  1.00  0.00    -0.237 OA
ATOM     65  O   UNL     1      -4.436  -0.880  14.069  1.00  0.00    -0.744 OA
ENDBRANCH  58  62
ENDBRANCH  41  55
BRANCH  42  66
ATOM     66  C   UNL     1      -8.414 -12.608   6.397  1.00  0.00     0.023 A 
ATOM     67  C   UNL     1      -9.326 -12.518   5.335  1.00  0.00     0.031 A 
ATOM     68  C   UNL     1      -7.721 -13.820   6.575  1.00  0.00     0.131 A 
ATOM     69  C   UNL     1      -9.533 -13.628   4.499  1.00  0.00     0.055 A 
ATOM     70  C   UNL     1      -7.896 -14.903   5.715  1.00  0.00     0.041 A 
ATOM     71  F   UNL     1      -6.837 -13.955   7.576  1.00  0.00    -0.206 F 
ATOM     72  C   UNL     1      -8.812 -14.813   4.672  1.00  0.00     0.022 A 
BRANCH  69  73
ATOM     73  S   UNL     1     -10.792 -13.519   3.198  1.00  0.00     0.124 S 
ATOM     74  O   UNL     1     -12.008 -13.310   3.977  1.00  0.00    -0.237 OA
ATOM     75  O   UNL     1     -10.326 -12.379   2.417  1.00  0.00    -0.237 OA
ATOM     76  O   UNL     1     -10.698 -14.812   2.524  1.00  0.00    -0.744 OA
ENDBRANCH  69  73
ENDBRANCH  42  66
BRANCH  54  77
ATOM     77  C   UNL     1     -12.223  -9.548  11.369  1.00  0.00     0.023 A 
ATOM     78  C   UNL     1     -12.614 -10.739  12.007  1.00  0.00     0.031 A 
ATOM     79  C   UNL     1     -13.200  -8.563  11.145  1.00  0.00     0.131 A 
ATOM     80  C   UNL     1     -13.960 -10.936  12.353  1.00  0.00     0.055 A 
ATOM     81  C   UNL     1     -14.527  -8.743  11.538  1.00  0.00     0.041 A 
ATOM     82  F   UNL     1     -12.881  -7.410  10.537  1.00  0.00    -0.206 F 
ATOM     83  C   UNL     1     -14.916  -9.940  12.135  1.00  0.00     0.022 A 
BRANCH  80  84
ATOM     84  S   UNL     1     -14.465 -12.547  13.016  1.00  0.00     0.124 S 
ATOM     85  O   UNL     1     -14.080 -13.453  11.938  1.00  0.00    -0.237 OA
ATOM     86  O   UNL     1     -13.679 -12.642  14.242  1.00  0.00    -0.237 OA
ATOM     87  O   UNL     1     -15.906 -12.400  13.215  1.00  0.00    -0.744 OA
ENDBRANCH  80  84
ENDBRANCH  54  77
ENDBRANCH  28  29
ENDBRANCH  21  23
ENDBRANCH  20  21
ENDBRANCH   1  20
TORSDOF 15
