REMARK SMILES C[C@H](CC(=O)OCCOC(=O)c1ccc(-c2c3nc(c(-c4cc(S(=O)(=O)[O-])ccc4F)c4ccc([nH]4)c(-c4cc(S(=O)(=O)[O-])ccc4F)c4nc(c(-c5cc(S(=O)(=O)[O-])ccc5F)c5ccc2[nH]5)C=C4)C=C3)cc1)NC(=O)Cn1nc2ccccn2c1=O
REMARK SMILES IDX 7 1 6 2 4 3 5 4 3 5 2 6 1 7 75 8 76 9 77 11 78 12 79 13
REMARK SMILES IDX 80 14 87 15 81 16 86 17 88 18 82 19 85 20 83 21 84 22 8 23
REMARK SMILES IDX 9 24 10 25 11 26 12 27 13 28 74 29 14 30 73 31 15 32 16 33
REMARK SMILES IDX 17 34 67 35 18 36 72 37 66 38 68 39 19 40 71 41 65 42 64 43
REMARK SMILES IDX 20 45 52 46 32 47 51 48 33 49 36 50 50 51 69 52 34 53 35 54
REMARK SMILES IDX 49 56 70 57 37 58 21 59 22 60 30 61 23 62 29 63 31 64 28 65
REMARK SMILES IDX 24 66 25 67 26 68 27 69 53 70 54 71 62 72 55 73 61 74 63 75
REMARK SMILES IDX 60 76 56 77 57 78 58 79 59 80 38 81 39 82 47 83 40 84 46 85
REMARK SMILES IDX 48 86 45 87 41 88 42 89 43 90 44 91
REMARK H PARENT 75 10 68 44 36 55
REMARK Flexibility Score: inf
ROOT
ATOM      1  C   UNL     1      -1.865   1.858  -1.413  1.00  0.00     0.274 C 
ENDROOT
BRANCH   1   2
ATOM      2  O   UNL     1      -1.234   0.996  -0.444  1.00  0.00    -0.462 OA
BRANCH   2   3
ATOM      3  C   UNL     1      -0.048   0.469  -0.840  1.00  0.00     0.307 C 
ATOM      4  O   UNL     1       0.485   0.684  -1.924  1.00  0.00    -0.252 OA
BRANCH   3   5
ATOM      5  C   UNL     1       0.536  -0.523   0.130  1.00  0.00     0.147 C 
BRANCH   5   6
ATOM      6  C   UNL     1       0.213  -0.413   1.623  1.00  0.00     0.090 C 
ATOM      7  C   UNL     1       0.539   0.944   2.235  1.00  0.00     0.031 C 
BRANCH   6   8
ATOM      8  N   UNL     1      -1.163  -0.803   1.898  1.00  0.00    -0.351 N 
ATOM      9  C   UNL     1      -1.664  -2.016   2.282  1.00  0.00     0.242 C 
ATOM     10  H   UNL     1      -1.832  -0.088   1.793  1.00  0.00     0.163 HD
ATOM     11  O   UNL     1      -2.889  -2.109   2.405  1.00  0.00    -0.273 OA
BRANCH   9  12
ATOM     12  C   UNL     1      -0.740  -3.185   2.656  1.00  0.00     0.249 C 
BRANCH  12  13
ATOM     13  N   UNL     1       0.049  -3.658   1.542  1.00  0.00    -0.203 N 
ATOM     14  N   UNL     1       1.374  -3.309   1.344  1.00  0.00    -0.149 NA
ATOM     15  C   UNL     1      -0.428  -4.419   0.463  1.00  0.00     0.350 A 
ATOM     16  C   UNL     1       1.639  -3.773   0.162  1.00  0.00     0.161 A 
ATOM     17  N   UNL     1       0.621  -4.450  -0.427  1.00  0.00    -0.250 N 
ATOM     18  O   UNL     1      -1.545  -4.894   0.327  1.00  0.00    -0.246 OA
ATOM     19  C   UNL     1       2.878  -3.576  -0.619  1.00  0.00     0.050 A 
ATOM     20  C   UNL     1       0.662  -4.958  -1.695  1.00  0.00     0.098 A 
ATOM     21  C   UNL     1       2.896  -4.046  -1.877  1.00  0.00     0.005 A 
ATOM     22  C   UNL     1       1.766  -4.769  -2.435  1.00  0.00     0.019 A 
ENDBRANCH  12  13
ENDBRANCH   9  12
ENDBRANCH   6   8
ENDBRANCH   5   6
ENDBRANCH   3   5
ENDBRANCH   2   3
ENDBRANCH   1   2
BRANCH   1  23
ATOM     23  C   UNL     1      -1.535   3.326  -1.158  1.00  0.00     0.275 C 
BRANCH  23  24
ATOM     24  O   UNL     1      -0.112   3.529  -1.174  1.00  0.00    -0.458 OA
BRANCH  24  25
ATOM     25  C   UNL     1       0.431   3.938  -0.007  1.00  0.00     0.338 C 
ATOM     26  O   UNL     1      -0.159   4.215   1.029  1.00  0.00    -0.246 OA
BRANCH  25  27
ATOM     27  C   UNL     1       1.891   4.023  -0.140  1.00  0.00     0.060 A 
ATOM     28  C   UNL     1       2.659   2.862  -0.261  1.00  0.00     0.016 A 
ATOM     29  C   UNL     1       2.505   5.269  -0.028  1.00  0.00     0.016 A 
ATOM     30  C   UNL     1       4.050   2.941  -0.225  1.00  0.00     0.010 A 
ATOM     31  C   UNL     1       3.897   5.352  -0.053  1.00  0.00     0.010 A 
ATOM     32  C   UNL     1       4.682   4.187  -0.128  1.00  0.00    -0.014 A 
BRANCH  32  33
ATOM     33  C   UNL     1       6.162   4.288  -0.075  1.00  0.00     0.031 A 
ATOM     34  C   UNL     1       6.832   4.791   1.173  1.00  0.00     0.074 A 
ATOM     35  C   UNL     1       6.895   3.963  -1.157  1.00  0.00     0.049 A 
ATOM     36  N   UNL     1       8.079   5.130   1.365  1.00  0.00    -0.248 NA
ATOM     37  C   UNL     1       5.974   4.944   2.358  1.00  0.00     0.031 C 
ATOM     38  C   UNL     1       6.360   3.428  -2.411  1.00  0.00     0.029 A 
ATOM     39  N   UNL     1       8.245   4.056  -1.383  1.00  0.00    -0.354 N 
ATOM     40  C   UNL     1       8.154   5.572   2.682  1.00  0.00     0.074 A 
ATOM     41  C   UNL     1       6.819   5.469   3.234  1.00  0.00     0.031 C 
ATOM     42  C   UNL     1       7.370   3.248  -3.276  1.00  0.00     0.029 A 
ATOM     43  C   UNL     1       8.609   3.717  -2.666  1.00  0.00     0.049 A 
ATOM     44  H   UNL     1       8.890   4.337  -0.695  1.00  0.00     0.167 HD
ATOM     45  C   UNL     1       9.238   6.023   3.361  1.00  0.00     0.034 A 
ATOM     46  C   UNL     1       9.796   3.820  -3.294  1.00  0.00     0.034 A 
ATOM     47  C   UNL     1      10.563   6.105   2.794  1.00  0.00     0.049 A 
ATOM     48  C   UNL     1      10.974   4.375  -2.537  1.00  0.00     0.074 A 
ATOM     49  C   UNL     1      11.736   6.525   3.397  1.00  0.00     0.029 A 
ATOM     50  N   UNL     1      10.890   5.764   1.487  1.00  0.00    -0.354 N 
ATOM     51  N   UNL     1      11.029   4.812  -1.300  1.00  0.00    -0.248 NA
ATOM     52  C   UNL     1      12.248   4.452  -3.262  1.00  0.00     0.031 C 
ATOM     53  C   UNL     1      12.758   6.494   2.441  1.00  0.00     0.029 A 
ATOM     54  C   UNL     1      12.240   5.990   1.259  1.00  0.00     0.049 A 
ATOM     55  H   UNL     1      10.257   5.414   0.821  1.00  0.00     0.167 HD
ATOM     56  C   UNL     1      12.350   5.198  -1.093  1.00  0.00     0.074 A 
ATOM     57  C   UNL     1      13.059   4.926  -2.327  1.00  0.00     0.031 C 
ATOM     58  C   UNL     1      12.926   5.727   0.016  1.00  0.00     0.034 A 
BRANCH  45  59
ATOM     59  C   UNL     1       9.017   6.519   4.770  1.00  0.00     0.023 A 
ATOM     60  C   UNL     1       8.616   5.660   5.808  1.00  0.00     0.031 A 
ATOM     61  C   UNL     1       9.185   7.883   5.071  1.00  0.00     0.131 A 
ATOM     62  C   UNL     1       8.334   6.184   7.079  1.00  0.00     0.055 A 
ATOM     63  C   UNL     1       8.973   8.386   6.356  1.00  0.00     0.041 A 
ATOM     64  F   UNL     1       9.546   8.754   4.115  1.00  0.00    -0.206 F 
ATOM     65  C   UNL     1       8.532   7.537   7.366  1.00  0.00     0.022 A 
BRANCH  62  66
ATOM     66  S   UNL     1       7.579   5.096   8.319  1.00  0.00     0.124 S 
ATOM     67  O   UNL     1       6.354   4.681   7.641  1.00  0.00    -0.237 OA
ATOM     68  O   UNL     1       8.595   4.064   8.492  1.00  0.00    -0.237 OA
ATOM     69  O   UNL     1       7.379   5.974   9.470  1.00  0.00    -0.744 OA
ENDBRANCH  62  66
ENDBRANCH  45  59
BRANCH  46  70
ATOM     70  C   UNL     1       9.918   3.452  -4.732  1.00  0.00     0.023 A 
ATOM     71  C   UNL     1      10.717   2.374  -5.140  1.00  0.00     0.031 A 
ATOM     72  C   UNL     1       9.257   4.199  -5.725  1.00  0.00     0.131 A 
ATOM     73  C   UNL     1      10.866   2.093  -6.507  1.00  0.00     0.055 A 
ATOM     74  C   UNL     1       9.369   3.886  -7.080  1.00  0.00     0.041 A 
ATOM     75  F   UNL     1       8.477   5.238  -5.387  1.00  0.00    -0.206 F 
ATOM     76  C   UNL     1      10.188   2.834  -7.479  1.00  0.00     0.022 A 
BRANCH  73  77
ATOM     77  S   UNL     1      12.020   0.785  -7.003  1.00  0.00     0.124 S 
ATOM     78  O   UNL     1      13.271   1.255  -6.419  1.00  0.00    -0.237 OA
ATOM     79  O   UNL     1      11.424  -0.394  -6.382  1.00  0.00    -0.237 OA
ATOM     80  O   UNL     1      11.960   0.815  -8.463  1.00  0.00    -0.744 OA
ENDBRANCH  73  77
ENDBRANCH  46  70
BRANCH  58  81
ATOM     81  C   UNL     1      14.407   6.001  -0.055  1.00  0.00     0.023 A 
ATOM     82  C   UNL     1      14.932   7.016  -0.874  1.00  0.00     0.031 A 
ATOM     83  C   UNL     1      15.306   5.218   0.689  1.00  0.00     0.131 A 
ATOM     84  C   UNL     1      16.321   7.185  -0.972  1.00  0.00     0.055 A 
ATOM     85  C   UNL     1      16.684   5.426   0.630  1.00  0.00     0.041 A 
ATOM     86  F   UNL     1      14.857   4.234   1.485  1.00  0.00    -0.206 F 
ATOM     87  C   UNL     1      17.200   6.406  -0.213  1.00  0.00     0.022 A 
BRANCH  84  88
ATOM     88  S   UNL     1      16.972   8.379  -2.172  1.00  0.00     0.124 S 
ATOM     89  O   UNL     1      16.428   7.874  -3.428  1.00  0.00    -0.237 OA
ATOM     90  O   UNL     1      16.410   9.639  -1.695  1.00  0.00    -0.237 OA
ATOM     91  O   UNL     1      18.421   8.254  -2.029  1.00  0.00    -0.744 OA
ENDBRANCH  84  88
ENDBRANCH  58  81
ENDBRANCH  32  33
ENDBRANCH  25  27
ENDBRANCH  24  25
ENDBRANCH  23  24
ENDBRANCH   1  23
TORSDOF 18
