REMARK SMILES O=C(OCCOC(=O)c1ccc(-c2c3nc(c(-c4cc(S(=O)(=O)[O-])ccc4F)c4ccc([nH]4)c(-c4cc(S(=O)(=O)[O-])ccc4F)c4nc(c(-c5cc(S(=O)(=O)[O-])ccc5F)c5ccc2[nH]5)C=C4)C=C3)cc1)c1ccc(NC(=O)[C@@H]2CC=CC[C@H]2C(=O)Nc2cccc([N+](=O)[O-])c2)cc1
REMARK SMILES IDX 4 1 3 2 2 3 1 4 72 5 73 6 98 7 74 8 97 9 75 10 76 11 77 12
REMARK SMILES IDX 78 14 79 15 80 16 84 17 81 18 83 19 82 20 85 21 86 22 87 23
REMARK SMILES IDX 88 25 89 26 96 27 90 28 92 29 91 30 93 31 94 32 95 33 5 34
REMARK SMILES IDX 6 35 7 36 8 37 9 38 10 39 71 40 11 41 70 42 12 43 13 44
REMARK SMILES IDX 14 45 64 46 15 47 69 48 63 49 65 50 16 51 68 52 62 53 61 54
REMARK SMILES IDX 17 56 49 57 29 58 48 59 30 60 33 61 47 62 66 63 31 64 32 65
REMARK SMILES IDX 46 67 67 68 34 69 18 70 19 71 27 72 20 73 26 74 28 75 25 76
REMARK SMILES IDX 21 77 22 78 23 79 24 80 50 81 51 82 59 83 52 84 58 85 60 86
REMARK SMILES IDX 57 87 53 88 54 89 55 90 56 91 35 92 36 93 44 94 37 95 43 96
REMARK SMILES IDX 45 97 42 98 38 99 39 100 40 101 41 102
REMARK H PARENT 76 13 87 24 65 55 33 66
REMARK Flexibility Score: inf
ROOT
ATOM      1  C   UNL     1      10.148  -1.061  -2.427  1.00  0.00     0.275 C 
ENDROOT
BRANCH   1   2
ATOM      2  O   UNL     1      10.518   0.342  -2.412  1.00  0.00    -0.458 OA
BRANCH   2   3
ATOM      3  C   UNL     1       9.674   1.372  -2.099  1.00  0.00     0.338 C 
ATOM      4  O   UNL     1       9.596   2.359  -2.821  1.00  0.00    -0.246 OA
BRANCH   3   5
ATOM      5  C   UNL     1       9.025   1.390  -0.750  1.00  0.00     0.060 A 
ATOM      6  C   UNL     1       8.969   0.259   0.025  1.00  0.00     0.018 A 
ATOM      7  C   UNL     1       8.517   2.564  -0.172  1.00  0.00     0.018 A 
ATOM      8  C   UNL     1       8.564   0.290   1.338  1.00  0.00     0.027 A 
ATOM      9  C   UNL     1       7.925   2.541   1.120  1.00  0.00     0.027 A 
ATOM     10  C   UNL     1       7.900   1.358   1.862  1.00  0.00     0.041 A 
BRANCH  10  11
ATOM     11  N   UNL     1       7.201   1.229   3.067  1.00  0.00    -0.326 N 
ATOM     12  C   UNL     1       6.738   0.133   3.748  1.00  0.00     0.228 C 
ATOM     13  H   UNL     1       7.005   2.086   3.509  1.00  0.00     0.169 HD
ATOM     14  O   UNL     1       6.143   0.367   4.811  1.00  0.00    -0.274 OA
BRANCH  12  15
ATOM     15  C   UNL     1       6.850  -1.355   3.321  1.00  0.00     0.095 C 
ATOM     16  C   UNL     1       8.156  -2.031   3.797  1.00  0.00     0.041 C 
ATOM     17  C   UNL     1       6.392  -1.762   1.899  1.00  0.00     0.095 C 
ATOM     18  C   UNL     1       8.425  -3.366   3.154  1.00  0.00    -0.030 C 
ATOM     19  C   UNL     1       6.417  -3.278   1.651  1.00  0.00     0.041 C 
ATOM     20  C   UNL     1       7.649  -3.928   2.216  1.00  0.00    -0.030 C 
BRANCH  17  21
ATOM     21  C   UNL     1       5.179  -0.986   1.381  1.00  0.00     0.228 C 
ATOM     22  O   UNL     1       5.334  -0.128   0.503  1.00  0.00    -0.274 OA
ATOM     23  N   UNL     1       3.895  -1.200   1.790  1.00  0.00    -0.326 N 
ATOM     24  H   UNL     1       3.259  -0.457   1.682  1.00  0.00     0.169 HD
BRANCH  23  25
ATOM     25  C   UNL     1       3.408  -2.379   2.348  1.00  0.00     0.048 A 
ATOM     26  C   UNL     1       2.677  -3.228   1.514  1.00  0.00     0.026 A 
ATOM     27  C   UNL     1       3.734  -2.764   3.644  1.00  0.00     0.111 A 
ATOM     28  C   UNL     1       2.383  -4.524   1.931  1.00  0.00     0.009 A 
ATOM     29  C   UNL     1       3.489  -4.082   4.037  1.00  0.00     0.271 A 
ATOM     30  C   UNL     1       2.818  -4.968   3.182  1.00  0.00     0.086 A 
BRANCH  29  31
ATOM     31  N   UNL     1       4.037  -4.571   5.306  1.00  0.00     0.062 N 
ATOM     32  O   UNL     1       3.751  -5.728   5.646  1.00  0.00    -0.258 OA
ATOM     33  O   UNL     1       4.777  -3.812   5.946  1.00  0.00    -0.258 OA
ENDBRANCH  29  31
ENDBRANCH  23  25
ENDBRANCH  17  21
ENDBRANCH  12  15
ENDBRANCH  10  11
ENDBRANCH   3   5
ENDBRANCH   2   3
ENDBRANCH   1   2
BRANCH   1  34
ATOM     34  C   UNL     1      11.070  -1.933  -1.529  1.00  0.00     0.275 C 
BRANCH  34  35
ATOM     35  O   UNL     1      11.310  -1.360  -0.223  1.00  0.00    -0.458 OA
BRANCH  35  36
ATOM     36  C   UNL     1      12.341  -0.476  -0.163  1.00  0.00     0.338 C 
ATOM     37  O   UNL     1      13.216  -0.362  -1.006  1.00  0.00    -0.246 OA
BRANCH  36  38
ATOM     38  C   UNL     1      12.150   0.490   0.957  1.00  0.00     0.060 A 
ATOM     39  C   UNL     1      12.508   1.822   0.714  1.00  0.00     0.016 A 
ATOM     40  C   UNL     1      11.605   0.148   2.200  1.00  0.00     0.016 A 
ATOM     41  C   UNL     1      12.377   2.791   1.715  1.00  0.00     0.010 A 
ATOM     42  C   UNL     1      11.425   1.137   3.188  1.00  0.00     0.010 A 
ATOM     43  C   UNL     1      11.865   2.457   2.976  1.00  0.00    -0.014 A 
BRANCH  43  44
ATOM     44  C   UNL     1      12.019   3.435   4.099  1.00  0.00     0.031 A 
ATOM     45  C   UNL     1      13.095   3.181   5.130  1.00  0.00     0.074 A 
ATOM     46  C   UNL     1      11.310   4.581   4.170  1.00  0.00     0.049 A 
ATOM     47  N   UNL     1      13.550   3.968   6.073  1.00  0.00    -0.248 NA
ATOM     48  C   UNL     1      13.741   1.861   5.091  1.00  0.00     0.031 C 
ATOM     49  C   UNL     1      10.236   4.976   3.260  1.00  0.00     0.029 A 
ATOM     50  N   UNL     1      11.404   5.639   5.047  1.00  0.00    -0.354 N 
ATOM     51  C   UNL     1      14.553   3.249   6.714  1.00  0.00     0.074 A 
ATOM     52  C   UNL     1      14.571   1.933   6.117  1.00  0.00     0.031 C 
ATOM     53  C   UNL     1       9.778   6.190   3.620  1.00  0.00     0.029 A 
ATOM     54  C   UNL     1      10.529   6.669   4.781  1.00  0.00     0.049 A 
ATOM     55  H   UNL     1      12.041   5.658   5.798  1.00  0.00     0.167 HD
ATOM     56  C   UNL     1      15.418   3.650   7.678  1.00  0.00     0.034 A 
ATOM     57  C   UNL     1      10.366   7.867   5.384  1.00  0.00     0.034 A 
ATOM     58  C   UNL     1      15.400   4.952   8.293  1.00  0.00     0.049 A 
ATOM     59  C   UNL     1      11.290   8.271   6.513  1.00  0.00     0.074 A 
ATOM     60  C   UNL     1      16.250   5.461   9.260  1.00  0.00     0.029 A 
ATOM     61  N   UNL     1      14.471   5.945   8.019  1.00  0.00    -0.354 N 
ATOM     62  N   UNL     1      12.296   7.612   7.040  1.00  0.00    -0.248 NA
ATOM     63  C   UNL     1      11.075   9.602   7.103  1.00  0.00     0.031 C 
ATOM     64  C   UNL     1      15.794   6.734   9.619  1.00  0.00     0.029 A 
ATOM     65  C   UNL     1      14.707   7.051   8.821  1.00  0.00     0.049 A 
ATOM     66  H   UNL     1      13.749   5.875   7.353  1.00  0.00     0.167 HD
ATOM     67  C   UNL     1      12.865   8.474   7.979  1.00  0.00     0.074 A 
ATOM     68  C   UNL     1      12.091   9.695   7.947  1.00  0.00     0.031 C 
ATOM     69  C   UNL     1      13.942   8.275   8.783  1.00  0.00     0.034 A 
BRANCH  56  70
ATOM     70  C   UNL     1      16.442   2.639   8.132  1.00  0.00     0.023 A 
ATOM     71  C   UNL     1      17.416   2.136   7.249  1.00  0.00     0.031 A 
ATOM     72  C   UNL     1      16.405   2.121   9.437  1.00  0.00     0.131 A 
ATOM     73  C   UNL     1      18.249   1.083   7.652  1.00  0.00     0.055 A 
ATOM     74  C   UNL     1      17.297   1.133   9.860  1.00  0.00     0.041 A 
ATOM     75  F   UNL     1      15.483   2.546  10.316  1.00  0.00    -0.206 F 
ATOM     76  C   UNL     1      18.213   0.595   8.960  1.00  0.00     0.022 A 
BRANCH  73  77
ATOM     77  S   UNL     1      19.257   0.249   6.396  1.00  0.00     0.124 S 
ATOM     78  O   UNL     1      18.236  -0.217   5.461  1.00  0.00    -0.237 OA
ATOM     79  O   UNL     1      20.120   1.323   5.918  1.00  0.00    -0.237 OA
ATOM     80  O   UNL     1      19.932  -0.808   7.146  1.00  0.00    -0.744 OA
ENDBRANCH  73  77
ENDBRANCH  56  70
BRANCH  57  81
ATOM     81  C   UNL     1       9.289   8.806   4.944  1.00  0.00     0.023 A 
ATOM     82  C   UNL     1       9.595  10.061   4.390  1.00  0.00     0.031 A 
ATOM     83  C   UNL     1       7.936   8.501   5.174  1.00  0.00     0.131 A 
ATOM     84  C   UNL     1       8.569  10.988   4.145  1.00  0.00     0.055 A 
ATOM     85  C   UNL     1       6.915   9.408   4.882  1.00  0.00     0.041 A 
ATOM     86  F   UNL     1       7.589   7.316   5.702  1.00  0.00    -0.206 F 
ATOM     87  C   UNL     1       7.230  10.666   4.380  1.00  0.00     0.022 A 
BRANCH  84  88
ATOM     88  S   UNL     1       9.015  12.664   3.606  1.00  0.00     0.124 S 
ATOM     89  O   UNL     1       9.854  13.116   4.710  1.00  0.00    -0.237 OA
ATOM     90  O   UNL     1       9.699  12.403   2.344  1.00  0.00    -0.237 OA
ATOM     91  O   UNL     1       7.724  13.338   3.485  1.00  0.00    -0.744 OA
ENDBRANCH  84  88
ENDBRANCH  57  81
BRANCH  69  92
ATOM     92  C   UNL     1      14.399   9.433   9.641  1.00  0.00     0.023 A 
ATOM     93  C   UNL     1      13.614   9.948  10.688  1.00  0.00     0.031 A 
ATOM     94  C   UNL     1      15.649  10.033   9.400  1.00  0.00     0.131 A 
ATOM     95  C   UNL     1      14.061  11.064  11.415  1.00  0.00     0.055 A 
ATOM     96  C   UNL     1      16.114  11.104  10.165  1.00  0.00     0.041 A 
ATOM     97  F   UNL     1      16.444   9.585   8.414  1.00  0.00    -0.206 F 
ATOM     98  C   UNL     1      15.313  11.634  11.171  1.00  0.00     0.022 A 
BRANCH  95  99
ATOM     99  S   UNL     1      12.943  11.825  12.626  1.00  0.00     0.124 S 
ATOM    100  O   UNL     1      11.762  12.106  11.816  1.00  0.00    -0.237 OA
ATOM    101  O   UNL     1      12.796  10.768  13.621  1.00  0.00    -0.237 OA
ATOM    102  O   UNL     1      13.678  13.004  13.079  1.00  0.00    -0.744 OA
ENDBRANCH  95  99
ENDBRANCH  69  92
ENDBRANCH  43  44
ENDBRANCH  36  38
ENDBRANCH  35  36
ENDBRANCH  34  35
ENDBRANCH   1  34
TORSDOF 19
