REMARK SMILES O=C(OCCOC(=O)[C@H]1CCN1C(=O)OCC1c2ccccc2-c2ccccc21)c1ccc(-c2c3nc(c(-c4cc(S(=O)(=O)[O-])ccc4F)c4ccc([nH]4)c(-c4cc(S(=O)(=O)[O-])ccc4F)c4nc(c(-c5cc(S(=O)(=O)[O-])ccc5F)c5ccc2[nH]5)C=C4)C=C3)cc1
REMARK SMILES IDX 5 1 4 2 3 3 2 4 1 5 30 6 31 7 92 8 32 9 91 10 33 11 34 12
REMARK SMILES IDX 35 13 85 14 36 15 90 16 84 17 86 18 37 19 89 20 83 21 82 22
REMARK SMILES IDX 38 24 70 25 50 26 69 27 51 28 54 29 68 30 87 31 52 32 53 33
REMARK SMILES IDX 67 35 88 36 55 37 39 38 40 39 48 40 41 41 47 42 49 43 46 44
REMARK SMILES IDX 42 45 43 46 44 47 45 48 71 49 72 50 80 51 73 52 79 53 81 54
REMARK SMILES IDX 78 55 74 56 75 57 76 58 77 59 56 60 57 61 65 62 58 63 64 64
REMARK SMILES IDX 66 65 63 66 59 67 60 68 61 69 62 70 6 71 7 72 8 73 9 74
REMARK SMILES IDX 10 75 12 76 11 77 13 78 14 79 15 80 16 81 17 82 18 83 29 84
REMARK SMILES IDX 19 85 23 86 24 87 28 88 20 89 22 90 25 91 27 92 21 93 26 94
REMARK H PARENT 86 23 54 34
REMARK Flexibility Score: inf
ROOT
ATOM      1  C   UNL     1       1.063  -1.738  -2.725  1.00  0.00     0.274 C 
ENDROOT
BRANCH   1   2
ATOM      2  C   UNL     1       2.128  -1.141  -3.645  1.00  0.00     0.275 C 
BRANCH   2   3
ATOM      3  O   UNL     1       3.391  -1.824  -3.602  1.00  0.00    -0.458 OA
BRANCH   3   4
ATOM      4  C   UNL     1       4.392  -1.726  -2.696  1.00  0.00     0.338 C 
ATOM      5  O   UNL     1       5.395  -2.419  -2.865  1.00  0.00    -0.246 OA
BRANCH   4   6
ATOM      6  C   UNL     1       4.298  -0.922  -1.431  1.00  0.00     0.060 A 
ATOM      7  C   UNL     1       3.558   0.242  -1.205  1.00  0.00     0.016 A 
ATOM      8  C   UNL     1       5.038  -1.423  -0.357  1.00  0.00     0.016 A 
ATOM      9  C   UNL     1       3.506   0.834   0.070  1.00  0.00     0.010 A 
ATOM     10  C   UNL     1       4.934  -0.887   0.922  1.00  0.00     0.010 A 
ATOM     11  C   UNL     1       4.199   0.272   1.142  1.00  0.00    -0.014 A 
BRANCH  11  12
ATOM     12  C   UNL     1       4.337   0.958   2.446  1.00  0.00     0.031 A 
ATOM     13  C   UNL     1       5.679   1.552   2.794  1.00  0.00     0.074 A 
ATOM     14  C   UNL     1       3.311   0.996   3.315  1.00  0.00     0.049 A 
ATOM     15  N   UNL     1       6.039   2.230   3.851  1.00  0.00    -0.248 NA
ATOM     16  C   UNL     1       6.776   1.315   1.837  1.00  0.00     0.031 C 
ATOM     17  C   UNL     1       2.006   0.362   3.113  1.00  0.00     0.029 A 
ATOM     18  N   UNL     1       3.204   1.587   4.548  1.00  0.00    -0.354 N 
ATOM     19  C   UNL     1       7.391   2.510   3.674  1.00  0.00     0.074 A 
ATOM     20  C   UNL     1       7.813   1.834   2.471  1.00  0.00     0.031 C 
ATOM     21  C   UNL     1       1.223   0.621   4.176  1.00  0.00     0.029 A 
ATOM     22  C   UNL     1       1.969   1.431   5.135  1.00  0.00     0.049 A 
ATOM     23  H   UNL     1       3.944   2.077   4.974  1.00  0.00     0.167 HD
ATOM     24  C   UNL     1       8.195   3.308   4.417  1.00  0.00     0.034 A 
ATOM     25  C   UNL     1       1.501   1.913   6.305  1.00  0.00     0.034 A 
ATOM     26  C   UNL     1       7.744   3.974   5.609  1.00  0.00     0.049 A 
ATOM     27  C   UNL     1       2.412   2.803   7.122  1.00  0.00     0.074 A 
ATOM     28  C   UNL     1       8.435   4.844   6.430  1.00  0.00     0.029 A 
ATOM     29  N   UNL     1       6.473   3.829   6.152  1.00  0.00    -0.354 N 
ATOM     30  N   UNL     1       3.654   3.161   6.878  1.00  0.00    -0.248 NA
ATOM     31  C   UNL     1       1.852   3.380   8.350  1.00  0.00     0.031 C 
ATOM     32  C   UNL     1       7.601   5.180   7.502  1.00  0.00     0.029 A 
ATOM     33  C   UNL     1       6.366   4.576   7.311  1.00  0.00     0.049 A 
ATOM     34  H   UNL     1       5.755   3.276   5.769  1.00  0.00     0.167 HD
ATOM     35  C   UNL     1       4.005   4.039   7.900  1.00  0.00     0.074 A 
ATOM     36  C   UNL     1       2.839   4.168   8.750  1.00  0.00     0.031 C 
ATOM     37  C   UNL     1       5.178   4.686   8.123  1.00  0.00     0.034 A 
BRANCH  24  38
ATOM     38  C   UNL     1       9.618   3.485   3.947  1.00  0.00     0.023 A 
ATOM     39  C   UNL     1       9.908   4.060   2.695  1.00  0.00     0.031 A 
ATOM     40  C   UNL     1      10.696   3.027   4.723  1.00  0.00     0.131 A 
ATOM     41  C   UNL     1      11.226   4.080   2.218  1.00  0.00     0.055 A 
ATOM     42  C   UNL     1      12.017   3.127   4.278  1.00  0.00     0.041 A 
ATOM     43  F   UNL     1      10.483   2.450   5.915  1.00  0.00    -0.206 F 
ATOM     44  C   UNL     1      12.287   3.640   3.011  1.00  0.00     0.022 A 
BRANCH  41  45
ATOM     45  S   UNL     1      11.514   4.551   0.490  1.00  0.00     0.124 S 
ATOM     46  O   UNL     1      10.779   3.510  -0.225  1.00  0.00    -0.237 OA
ATOM     47  O   UNL     1      10.942   5.891   0.427  1.00  0.00    -0.237 OA
ATOM     48  O   UNL     1      12.968   4.486   0.353  1.00  0.00    -0.744 OA
ENDBRANCH  41  45
ENDBRANCH  24  38
BRANCH  25  49
ATOM     49  C   UNL     1       0.112   1.611   6.767  1.00  0.00     0.023 A 
ATOM     50  C   UNL     1      -0.834   2.634   6.942  1.00  0.00     0.031 A 
ATOM     51  C   UNL     1      -0.273   0.302   7.108  1.00  0.00     0.131 A 
ATOM     52  C   UNL     1      -2.090   2.347   7.503  1.00  0.00     0.055 A 
ATOM     53  C   UNL     1      -1.542   0.011   7.616  1.00  0.00     0.041 A 
ATOM     54  F   UNL     1       0.585  -0.720   6.954  1.00  0.00    -0.206 F 
ATOM     55  C   UNL     1      -2.453   1.040   7.833  1.00  0.00     0.022 A 
BRANCH  52  56
ATOM     56  S   UNL     1      -3.202   3.726   7.898  1.00  0.00     0.124 S 
ATOM     57  O   UNL     1      -2.352   4.563   8.737  1.00  0.00    -0.237 OA
ATOM     58  O   UNL     1      -3.512   4.250   6.572  1.00  0.00    -0.237 OA
ATOM     59  O   UNL     1      -4.316   3.078   8.587  1.00  0.00    -0.744 OA
ENDBRANCH  52  56
ENDBRANCH  25  49
BRANCH  37  60
ATOM     60  C   UNL     1       5.229   5.625   9.300  1.00  0.00     0.023 A 
ATOM     61  C   UNL     1       5.156   5.154  10.621  1.00  0.00     0.031 A 
ATOM     62  C   UNL     1       5.366   7.009   9.093  1.00  0.00     0.131 A 
ATOM     63  C   UNL     1       5.164   6.065  11.685  1.00  0.00     0.055 A 
ATOM     64  C   UNL     1       5.439   7.905  10.158  1.00  0.00     0.041 A 
ATOM     65  F   UNL     1       5.442   7.509   7.849  1.00  0.00    -0.206 F 
ATOM     66  C   UNL     1       5.325   7.436  11.464  1.00  0.00     0.022 A 
BRANCH  63  67
ATOM     67  S   UNL     1       4.870   5.440  13.361  1.00  0.00     0.124 S 
ATOM     68  O   UNL     1       3.557   4.819  13.226  1.00  0.00    -0.237 OA
ATOM     69  O   UNL     1       5.991   4.526  13.554  1.00  0.00    -0.237 OA
ATOM     70  O   UNL     1       4.905   6.646  14.186  1.00  0.00    -0.744 OA
ENDBRANCH  63  67
ENDBRANCH  37  60
ENDBRANCH  11  12
ENDBRANCH   4   6
ENDBRANCH   3   4
ENDBRANCH   2   3
ENDBRANCH   1   2
BRANCH   1  71
ATOM     71  O   UNL     1       1.573  -1.997  -1.406  1.00  0.00    -0.461 OA
BRANCH  71  72
ATOM     72  C   UNL     1       1.571  -3.300  -0.975  1.00  0.00     0.329 C 
ATOM     73  O   UNL     1       1.062  -4.209  -1.630  1.00  0.00    -0.250 OA
BRANCH  72  74
ATOM     74  C   UNL     1       2.243  -3.448   0.447  1.00  0.00     0.200 C 
ATOM     75  C   UNL     1       1.292  -3.799   1.611  1.00  0.00     0.059 C 
ATOM     76  N   UNL     1       2.862  -4.742   0.728  1.00  0.00    -0.294 N 
ATOM     77  C   UNL     1       1.711  -5.267   1.427  1.00  0.00     0.127 C 
BRANCH  76  78
ATOM     78  C   UNL     1       4.068  -5.315   0.464  1.00  0.00     0.410 C 
ATOM     79  O   UNL     1       4.278  -6.516   0.581  1.00  0.00    -0.224 OA
BRANCH  78  80
ATOM     80  O   UNL     1       4.994  -4.405   0.077  1.00  0.00    -0.448 OA
BRANCH  80  81
ATOM     81  C   UNL     1       6.324  -4.862  -0.276  1.00  0.00     0.248 C 
BRANCH  81  82
ATOM     82  C   UNL     1       7.311  -5.133   0.891  1.00  0.00     0.088 C 
ATOM     83  C   UNL     1       6.914  -4.573   2.246  1.00  0.00    -0.029 A 
ATOM     84  C   UNL     1       7.361  -6.624   1.186  1.00  0.00    -0.029 A 
ATOM     85  C   UNL     1       6.957  -3.264   2.692  1.00  0.00     0.005 A 
ATOM     86  C   UNL     1       6.509  -5.622   3.102  1.00  0.00    -0.014 A 
ATOM     87  C   UNL     1       6.806  -6.885   2.455  1.00  0.00    -0.014 A 
ATOM     88  C   UNL     1       7.844  -7.633   0.367  1.00  0.00     0.005 A 
ATOM     89  C   UNL     1       6.454  -2.982   3.964  1.00  0.00     0.000 A 
ATOM     90  C   UNL     1       5.992  -5.343   4.356  1.00  0.00     0.009 A 
ATOM     91  C   UNL     1       6.679  -8.190   2.894  1.00  0.00     0.009 A 
ATOM     92  C   UNL     1       7.722  -8.945   0.815  1.00  0.00     0.000 A 
ATOM     93  C   UNL     1       5.944  -4.009   4.775  1.00  0.00     0.001 A 
ATOM     94  C   UNL     1       7.132  -9.221   2.061  1.00  0.00     0.001 A 
ENDBRANCH  81  82
ENDBRANCH  80  81
ENDBRANCH  78  80
ENDBRANCH  76  78
ENDBRANCH  72  74
ENDBRANCH  71  72
ENDBRANCH   1  71
TORSDOF 18
