REMARK SMILES O=C(OCCOC(=O)c1cn(C2CN(C(=O)Nc3ccsc3)C2)nn1)c1ccc(-c2c3nc(c(-c4cc(S(=O)(=O)[O-])ccc4F)c4ccc([nH]4)c(-c4cc(S(=O)(=O)[O-])ccc4F)c4nc(c(-c5cc(S(=O)(=O)[O-])ccc5F)c5ccc2[nH]5)C=C4)C=C3)cc1
REMARK SMILES IDX 4 1 3 2 2 3 1 4 26 5 27 6 88 7 28 8 87 9 29 10 30 11 31 12
REMARK SMILES IDX 81 13 32 14 86 15 80 16 82 17 33 18 85 19 79 20 78 21 34 23
REMARK SMILES IDX 66 24 46 25 65 26 47 27 50 28 64 29 83 30 48 31 49 32 63 34
REMARK SMILES IDX 84 35 51 36 35 37 36 38 44 39 37 40 43 41 45 42 42 43 38 44
REMARK SMILES IDX 39 45 40 46 41 47 67 48 68 49 76 50 69 51 75 52 77 53 74 54
REMARK SMILES IDX 70 55 71 56 72 57 73 58 52 59 53 60 61 61 54 62 60 63 62 64
REMARK SMILES IDX 59 65 55 66 56 67 57 68 58 69 5 70 6 71 7 72 8 73 9 74 10 75
REMARK SMILES IDX 25 76 11 77 24 78 12 79 13 80 23 81 14 82 15 83 16 84 17 85
REMARK SMILES IDX 18 87 19 88 22 89 20 90 21 91
REMARK H PARENT 82 22 50 33 17 86
REMARK Flexibility Score: inf
ROOT
ATOM      1  C   UNL     1       4.641  -1.114   0.451  1.00  0.00     0.275 C 
ENDROOT
BRANCH   1   2
ATOM      2  O   UNL     1       3.377  -1.069   1.144  1.00  0.00    -0.458 OA
BRANCH   2   3
ATOM      3  C   UNL     1       2.377  -0.289   0.672  1.00  0.00     0.338 C 
ATOM      4  O   UNL     1       1.541  -0.672  -0.131  1.00  0.00    -0.246 OA
BRANCH   3   5
ATOM      5  C   UNL     1       2.269   0.979   1.429  1.00  0.00     0.060 A 
ATOM      6  C   UNL     1       3.399   1.645   1.916  1.00  0.00     0.016 A 
ATOM      7  C   UNL     1       0.992   1.505   1.658  1.00  0.00     0.016 A 
ATOM      8  C   UNL     1       3.250   2.777   2.701  1.00  0.00     0.010 A 
ATOM      9  C   UNL     1       0.841   2.640   2.447  1.00  0.00     0.010 A 
ATOM     10  C   UNL     1       1.969   3.254   2.994  1.00  0.00    -0.014 A 
BRANCH  10  11
ATOM     11  C   UNL     1       1.865   4.515   3.726  1.00  0.00     0.031 A 
ATOM     12  C   UNL     1       2.380   5.691   2.974  1.00  0.00     0.074 A 
ATOM     13  C   UNL     1       1.234   4.651   4.910  1.00  0.00     0.049 A 
ATOM     14  N   UNL     1       3.378   6.456   3.275  1.00  0.00    -0.248 NA
ATOM     15  C   UNL     1       1.805   5.963   1.647  1.00  0.00     0.031 C 
ATOM     16  C   UNL     1       0.465   3.632   5.623  1.00  0.00     0.029 A 
ATOM     17  N   UNL     1       1.051   5.768   5.676  1.00  0.00    -0.354 N 
ATOM     18  C   UNL     1       3.390   7.461   2.311  1.00  0.00     0.074 A 
ATOM     19  C   UNL     1       2.550   6.992   1.244  1.00  0.00     0.031 C 
ATOM     20  C   UNL     1      -0.282   4.226   6.580  1.00  0.00     0.029 A 
ATOM     21  C   UNL     1       0.040   5.644   6.629  1.00  0.00     0.049 A 
ATOM     22  H   UNL     1       1.585   6.587   5.565  1.00  0.00     0.167 HD
ATOM     23  C   UNL     1       3.874   8.703   2.596  1.00  0.00     0.034 A 
ATOM     24  C   UNL     1      -0.542   6.637   7.359  1.00  0.00     0.034 A 
ATOM     25  C   UNL     1       4.757   8.663   3.745  1.00  0.00     0.049 A 
ATOM     26  C   UNL     1       0.406   7.777   7.383  1.00  0.00     0.074 A 
ATOM     27  C   UNL     1       5.890   7.936   4.066  1.00  0.00     0.029 A 
ATOM     28  N   UNL     1       4.315   9.186   4.941  1.00  0.00    -0.354 N 
ATOM     29  N   UNL     1       1.560   7.735   7.989  1.00  0.00    -0.248 NA
ATOM     30  C   UNL     1       0.288   8.793   6.349  1.00  0.00     0.031 C 
ATOM     31  C   UNL     1       5.747   7.628   5.452  1.00  0.00     0.029 A 
ATOM     32  C   UNL     1       4.593   8.261   5.916  1.00  0.00     0.049 A 
ATOM     33  H   UNL     1       3.881  10.060   5.072  1.00  0.00     0.167 HD
ATOM     34  C   UNL     1       2.436   8.381   7.130  1.00  0.00     0.074 A 
ATOM     35  C   UNL     1       1.578   9.105   6.194  1.00  0.00     0.031 C 
ATOM     36  C   UNL     1       3.758   8.041   7.081  1.00  0.00     0.034 A 
BRANCH  23  37
ATOM     37  C   UNL     1       3.228   9.993   2.116  1.00  0.00     0.023 A 
ATOM     38  C   UNL     1       3.771  11.194   2.611  1.00  0.00     0.031 A 
ATOM     39  C   UNL     1       1.963  10.111   1.495  1.00  0.00     0.131 A 
ATOM     40  C   UNL     1       3.008  12.373   2.644  1.00  0.00     0.055 A 
ATOM     41  C   UNL     1       1.238  11.307   1.463  1.00  0.00     0.041 A 
ATOM     42  F   UNL     1       1.312   9.077   0.954  1.00  0.00    -0.206 F 
ATOM     43  C   UNL     1       1.739  12.438   2.082  1.00  0.00     0.022 A 
BRANCH  40  44
ATOM     44  S   UNL     1       3.627  13.753   3.639  1.00  0.00     0.124 S 
ATOM     45  O   UNL     1       3.817  13.104   4.933  1.00  0.00    -0.237 OA
ATOM     46  O   UNL     1       4.841  14.120   2.917  1.00  0.00    -0.237 OA
ATOM     47  O   UNL     1       2.543  14.729   3.577  1.00  0.00    -0.744 OA
ENDBRANCH  40  44
ENDBRANCH  23  37
BRANCH  24  48
ATOM     48  C   UNL     1      -1.972   6.750   7.773  1.00  0.00     0.023 A 
ATOM     49  C   UNL     1      -2.418   7.631   8.785  1.00  0.00     0.031 A 
ATOM     50  C   UNL     1      -2.975   6.139   6.986  1.00  0.00     0.131 A 
ATOM     51  C   UNL     1      -3.804   7.861   8.973  1.00  0.00     0.055 A 
ATOM     52  C   UNL     1      -4.340   6.364   7.181  1.00  0.00     0.041 A 
ATOM     53  F   UNL     1      -2.663   5.366   5.935  1.00  0.00    -0.206 F 
ATOM     54  C   UNL     1      -4.761   7.235   8.171  1.00  0.00     0.022 A 
BRANCH  51  55
ATOM     55  S   UNL     1      -4.395   9.066  10.211  1.00  0.00     0.124 S 
ATOM     56  O   UNL     1      -4.097   8.392  11.469  1.00  0.00    -0.237 OA
ATOM     57  O   UNL     1      -3.602  10.250   9.904  1.00  0.00    -0.237 OA
ATOM     58  O   UNL     1      -5.822   9.194   9.909  1.00  0.00    -0.744 OA
ENDBRANCH  51  55
ENDBRANCH  24  48
BRANCH  36  59
ATOM     59  C   UNL     1       4.339   7.198   8.199  1.00  0.00     0.023 A 
ATOM     60  C   UNL     1       3.840   5.943   8.617  1.00  0.00     0.031 A 
ATOM     61  C   UNL     1       5.528   7.655   8.796  1.00  0.00     0.131 A 
ATOM     62  C   UNL     1       4.519   5.209   9.610  1.00  0.00     0.055 A 
ATOM     63  C   UNL     1       6.209   6.916   9.762  1.00  0.00     0.041 A 
ATOM     64  F   UNL     1       6.073   8.826   8.424  1.00  0.00    -0.206 F 
ATOM     65  C   UNL     1       5.702   5.692  10.179  1.00  0.00     0.022 A 
BRANCH  62  66
ATOM     66  S   UNL     1       3.867   3.614  10.203  1.00  0.00     0.124 S 
ATOM     67  O   UNL     1       2.443   3.869  10.386  1.00  0.00    -0.237 OA
ATOM     68  O   UNL     1       4.221   2.706   9.114  1.00  0.00    -0.237 OA
ATOM     69  O   UNL     1       4.609   3.386  11.445  1.00  0.00    -0.744 OA
ENDBRANCH  62  66
ENDBRANCH  36  59
ENDBRANCH  10  11
ENDBRANCH   3   5
ENDBRANCH   2   3
ENDBRANCH   1   2
BRANCH   1  70
ATOM     70  C   UNL     1       4.603  -1.049  -1.074  1.00  0.00     0.275 C 
BRANCH  70  71
ATOM     71  O   UNL     1       4.207   0.268  -1.476  1.00  0.00    -0.457 OA
BRANCH  71  72
ATOM     72  C   UNL     1       3.167   0.343  -2.354  1.00  0.00     0.360 C 
ATOM     73  O   UNL     1       2.713  -0.594  -3.001  1.00  0.00    -0.244 OA
BRANCH  72  74
ATOM     74  C   UNL     1       2.688   1.700  -2.448  1.00  0.00     0.190 A 
ATOM     75  C   UNL     1       3.307   2.763  -3.073  1.00  0.00     0.147 A 
ATOM     76  N   UNL     1       1.524   2.131  -1.869  1.00  0.00    -0.123 NA
ATOM     77  N   UNL     1       2.446   3.802  -2.870  1.00  0.00    -0.245 N 
ATOM     78  N   UNL     1       1.405   3.428  -2.105  1.00  0.00    -0.066 NA
BRANCH  77  79
ATOM     79  C   UNL     1       2.405   5.048  -3.562  1.00  0.00     0.148 C 
ATOM     80  C   UNL     1       3.691   5.645  -4.142  1.00  0.00     0.150 C 
ATOM     81  C   UNL     1       2.000   4.774  -5.029  1.00  0.00     0.150 C 
ATOM     82  N   UNL     1       2.901   5.853  -5.363  1.00  0.00    -0.320 N 
ATOM     83  C   UNL     1       3.284   6.497  -6.492  1.00  0.00     0.322 C 
ATOM     84  O   UNL     1       4.332   7.148  -6.525  1.00  0.00    -0.248 OA
ATOM     85  N   UNL     1       2.612   6.324  -7.661  1.00  0.00    -0.307 N 
ATOM     86  H   UNL     1       3.127   6.575  -8.461  1.00  0.00     0.171 HD
BRANCH  85  87
ATOM     87  C   UNL     1       1.337   5.862  -7.933  1.00  0.00     0.053 A 
ATOM     88  C   UNL     1       0.158   6.009  -7.147  1.00  0.00     0.038 A 
ATOM     89  C   UNL     1       1.051   5.232  -9.127  1.00  0.00     0.091 A 
ATOM     90  C   UNL     1      -0.911   5.306  -7.660  1.00  0.00     0.067 A 
ATOM     91  S   UNL     1      -0.544   4.610  -9.176  1.00  0.00    -0.150 S 
ENDBRANCH  85  87
ENDBRANCH  77  79
ENDBRANCH  72  74
ENDBRANCH  71  72
ENDBRANCH  70  71
ENDBRANCH   1  70
TORSDOF 16
