REMARK SMILES COc1cc([C@H]2CC(c3ccc(S(C)(=O)=O)cc3)=NN2c2ccc(C(=O)OCCOC(=O)c3ccc(-c4c5nc(c(-c6cc(S(=O)(=O)[O-])ccc6F)c6ccc([nH]6)c(-c6cc(S(=O)(=O)[O-])ccc6F)c6nc(c(-c7cc(S(=O)(=O)[O-])ccc7F)c7ccc4[nH]7)C=C6)C=C5)cc3)cc2)cc(OC)c1OC
REMARK SMILES IDX 28 1 27 2 25 3 26 4 24 5 21 6 22 7 97 8 23 9 96 10 20 11
REMARK SMILES IDX 6 12 7 13 8 14 19 15 5 16 3 17 4 18 102 19 99 20 98 21 2 22
REMARK SMILES IDX 1 23 103 24 104 25 100 26 101 27 9 28 10 29 18 30 11 31
REMARK SMILES IDX 17 32 12 33 13 34 14 35 15 36 16 37 29 38 30 39 31 40 32 41
REMARK SMILES IDX 33 42 34 43 95 44 35 45 94 46 36 47 37 48 38 49 88 50 39 51
REMARK SMILES IDX 93 52 87 53 89 54 40 55 92 56 86 57 85 58 41 60 73 61 53 62
REMARK SMILES IDX 72 63 54 64 57 65 71 66 90 67 55 68 56 69 70 71 91 72 58 73
REMARK SMILES IDX 42 74 43 75 51 76 44 77 50 78 52 79 49 80 45 81 46 82 47 83
REMARK SMILES IDX 48 84 74 85 75 86 83 87 76 88 82 89 84 90 81 91 77 92 78 93
REMARK SMILES IDX 79 94 80 95 59 96 60 97 68 98 61 99 67 100 69 101 66 102
REMARK SMILES IDX 62 103 63 104 64 105 65 106
REMARK H PARENT 89 59 57 70
REMARK Flexibility Score: inf
ROOT
ATOM      1  C   UNL     1       2.085  -6.596   5.013  1.00  0.00     0.275 C 
ENDROOT
BRANCH   1   2
ATOM      2  O   UNL     1       1.324  -6.643   3.789  1.00  0.00    -0.458 OA
BRANCH   2   3
ATOM      3  C   UNL     1       1.927  -6.087   2.710  1.00  0.00     0.338 C 
ATOM      4  O   UNL     1       3.020  -5.541   2.692  1.00  0.00    -0.246 OA
BRANCH   3   5
ATOM      5  C   UNL     1       1.103  -6.273   1.496  1.00  0.00     0.060 A 
ATOM      6  C   UNL     1      -0.339  -6.388  -0.914  1.00  0.00     0.060 A 
ATOM      7  C   UNL     1       1.000  -6.782  -0.869  1.00  0.00     0.029 A 
ATOM      8  C   UNL     1      -0.966  -6.001   0.279  1.00  0.00     0.029 A 
ATOM      9  C   UNL     1       1.725  -6.675   0.313  1.00  0.00     0.018 A 
ATOM     10  C   UNL     1      -0.258  -5.962   1.488  1.00  0.00     0.018 A 
BRANCH   6  11
ATOM     11  N   UNL     1      -0.983  -6.254  -2.146  1.00  0.00    -0.257 N 
ATOM     12  C   UNL     1      -1.102  -4.930  -2.793  1.00  0.00     0.144 C 
ATOM     13  C   UNL     1      -1.195  -5.290  -4.286  1.00  0.00     0.091 C 
ATOM     14  C   UNL     1      -1.037  -6.786  -4.223  1.00  0.00     0.071 C 
ATOM     15  N   UNL     1      -0.904  -7.285  -3.035  1.00  0.00    -0.176 NA
BRANCH  12  16
ATOM     16  C   UNL     1       0.015  -3.958  -2.415  1.00  0.00    -0.015 A 
ATOM     17  C   UNL     1       0.880  -2.254  -0.879  1.00  0.00     0.164 A 
ATOM     18  C   UNL     1      -0.183  -3.025  -1.385  1.00  0.00     0.056 A 
ATOM     19  C   UNL     1       2.186  -2.396  -1.382  1.00  0.00     0.203 A 
ATOM     20  C   UNL     1       2.383  -3.300  -2.447  1.00  0.00     0.164 A 
ATOM     21  C   UNL     1       1.306  -4.059  -2.946  1.00  0.00     0.056 A 
BRANCH  17  22
ATOM     22  O   UNL     1       0.602  -1.479   0.220  1.00  0.00    -0.493 OA
ATOM     23  C   UNL     1       0.013  -0.233  -0.149  1.00  0.00     0.278 C 
ENDBRANCH  17  22
BRANCH  19  24
ATOM     24  O   UNL     1       3.303  -1.769  -0.909  1.00  0.00    -0.490 OA
ATOM     25  C   UNL     1       3.224  -0.714   0.029  1.00  0.00     0.278 C 
ENDBRANCH  19  24
BRANCH  20  26
ATOM     26  O   UNL     1       3.545  -3.593  -3.118  1.00  0.00    -0.493 OA
ATOM     27  C   UNL     1       4.780  -3.067  -2.653  1.00  0.00     0.278 C 
ENDBRANCH  20  26
ENDBRANCH  12  16
BRANCH  14  28
ATOM     28  C   UNL     1      -1.129  -7.628  -5.434  1.00  0.00    -0.002 A 
ATOM     29  C   UNL     1      -1.832  -8.838  -5.343  1.00  0.00     0.011 A 
ATOM     30  C   UNL     1      -0.589  -7.223  -6.658  1.00  0.00     0.011 A 
ATOM     31  C   UNL     1      -2.047  -9.616  -6.482  1.00  0.00     0.021 A 
ATOM     32  C   UNL     1      -0.781  -8.013  -7.799  1.00  0.00     0.021 A 
ATOM     33  C   UNL     1      -1.523  -9.197  -7.708  1.00  0.00     0.067 A 
BRANCH  33  34
ATOM     34  S   UNL     1      -1.904 -10.132  -9.174  1.00  0.00     0.175 S 
ATOM     35  C   UNL     1      -1.142 -11.713  -8.924  1.00  0.00     0.163 C 
ATOM     36  O   UNL     1      -3.345 -10.312  -9.183  1.00  0.00    -0.224 OA
ATOM     37  O   UNL     1      -1.242  -9.485 -10.292  1.00  0.00    -0.224 OA
ENDBRANCH  33  34
ENDBRANCH  14  28
ENDBRANCH   6  11
ENDBRANCH   3   5
ENDBRANCH   2   3
ENDBRANCH   1   2
BRANCH   1  38
ATOM     38  C   UNL     1       2.778  -7.929   5.295  1.00  0.00     0.275 C 
BRANCH  38  39
ATOM     39  O   UNL     1       3.823  -8.169   4.335  1.00  0.00    -0.458 OA
BRANCH  39  40
ATOM     40  C   UNL     1       3.578  -9.166   3.454  1.00  0.00     0.338 C 
ATOM     41  O   UNL     1       2.607  -9.903   3.425  1.00  0.00    -0.246 OA
BRANCH  40  42
ATOM     42  C   UNL     1       4.662  -9.242   2.462  1.00  0.00     0.060 A 
ATOM     43  C   UNL     1       4.758  -8.242   1.503  1.00  0.00     0.016 A 
ATOM     44  C   UNL     1       5.462 -10.376   2.365  1.00  0.00     0.016 A 
ATOM     45  C   UNL     1       5.534  -8.433   0.364  1.00  0.00     0.010 A 
ATOM     46  C   UNL     1       6.358 -10.497   1.293  1.00  0.00     0.010 A 
ATOM     47  C   UNL     1       6.373  -9.550   0.251  1.00  0.00    -0.014 A 
BRANCH  47  48
ATOM     48  C   UNL     1       7.244  -9.729  -0.952  1.00  0.00     0.031 A 
ATOM     49  C   UNL     1       7.184 -11.006  -1.755  1.00  0.00     0.074 A 
ATOM     50  C   UNL     1       8.091  -8.749  -1.335  1.00  0.00     0.049 A 
ATOM     51  N   UNL     1       7.990 -11.438  -2.693  1.00  0.00    -0.248 NA
ATOM     52  C   UNL     1       6.080 -11.929  -1.448  1.00  0.00     0.031 C 
ATOM     53  C   UNL     1       8.221  -7.439  -0.689  1.00  0.00     0.029 A 
ATOM     54  N   UNL     1       9.003  -8.694  -2.362  1.00  0.00    -0.354 N 
ATOM     55  C   UNL     1       7.528 -12.704  -3.044  1.00  0.00     0.074 A 
ATOM     56  C   UNL     1       6.380 -12.975  -2.205  1.00  0.00     0.031 C 
ATOM     57  C   UNL     1       9.118  -6.701  -1.357  1.00  0.00     0.029 A 
ATOM     58  C   UNL     1       9.719  -7.519  -2.402  1.00  0.00     0.049 A 
ATOM     59  H   UNL     1       9.133  -9.427  -3.007  1.00  0.00     0.167 HD
ATOM     60  C   UNL     1       8.020 -13.558  -3.978  1.00  0.00     0.034 A 
ATOM     61  C   UNL     1      10.782  -7.152  -3.146  1.00  0.00     0.034 A 
ATOM     62  C   UNL     1       9.141 -13.250  -4.837  1.00  0.00     0.049 A 
ATOM     63  C   UNL     1      11.350  -8.138  -4.130  1.00  0.00     0.074 A 
ATOM     64  C   UNL     1       9.707 -14.031  -5.831  1.00  0.00     0.029 A 
ATOM     65  N   UNL     1       9.865 -12.064  -4.809  1.00  0.00    -0.354 N 
ATOM     66  N   UNL     1      10.942  -9.355  -4.408  1.00  0.00    -0.248 NA
ATOM     67  C   UNL     1      12.529  -7.708  -4.891  1.00  0.00     0.031 C 
ATOM     68  C   UNL     1      10.811 -13.349  -6.353  1.00  0.00     0.029 A 
ATOM     69  C   UNL     1      10.889 -12.107  -5.745  1.00  0.00     0.049 A 
ATOM     70  H   UNL     1       9.679 -11.304  -4.212  1.00  0.00     0.167 HD
ATOM     71  C   UNL     1      11.806  -9.827  -5.391  1.00  0.00     0.074 A 
ATOM     72  C   UNL     1      12.741  -8.757  -5.671  1.00  0.00     0.031 C 
ATOM     73  C   UNL     1      11.824 -11.037  -6.006  1.00  0.00     0.034 A 
BRANCH  60  74
ATOM     74  C   UNL     1       7.391 -14.931  -4.077  1.00  0.00     0.023 A 
ATOM     75  C   UNL     1       6.052 -15.120  -4.464  1.00  0.00     0.031 A 
ATOM     76  C   UNL     1       8.148 -16.074  -3.759  1.00  0.00     0.131 A 
ATOM     77  C   UNL     1       5.495 -16.409  -4.455  1.00  0.00     0.055 A 
ATOM     78  C   UNL     1       7.611 -17.361  -3.830  1.00  0.00     0.041 A 
ATOM     79  F   UNL     1       9.426 -15.959  -3.365  1.00  0.00    -0.206 F 
ATOM     80  C   UNL     1       6.272 -17.533  -4.165  1.00  0.00     0.022 A 
BRANCH  77  81
ATOM     81  S   UNL     1       3.704 -16.585  -4.694  1.00  0.00     0.124 S 
ATOM     82  O   UNL     1       3.179 -15.780  -3.594  1.00  0.00    -0.237 OA
ATOM     83  O   UNL     1       3.507 -16.041  -6.032  1.00  0.00    -0.237 OA
ATOM     84  O   UNL     1       3.480 -18.023  -4.566  1.00  0.00    -0.744 OA
ENDBRANCH  77  81
ENDBRANCH  60  74
BRANCH  61  85
ATOM     85  C   UNL     1      11.429  -5.824  -2.932  1.00  0.00     0.023 A 
ATOM     86  C   UNL     1      11.479  -4.865  -3.956  1.00  0.00     0.031 A 
ATOM     87  C   UNL     1      12.037  -5.505  -1.702  1.00  0.00     0.131 A 
ATOM     88  C   UNL     1      12.153  -3.651  -3.744  1.00  0.00     0.055 A 
ATOM     89  C   UNL     1      12.650  -4.272  -1.477  1.00  0.00     0.041 A 
ATOM     90  F   UNL     1      12.026  -6.386  -0.689  1.00  0.00    -0.206 F 
ATOM     91  C   UNL     1      12.721  -3.341  -2.507  1.00  0.00     0.022 A 
BRANCH  88  92
ATOM     92  S   UNL     1      12.353  -2.514  -5.143  1.00  0.00     0.124 S 
ATOM     93  O   UNL     1      13.048  -3.354  -6.112  1.00  0.00    -0.237 OA
ATOM     94  O   UNL     1      10.969  -2.177  -5.460  1.00  0.00    -0.237 OA
ATOM     95  O   UNL     1      13.146  -1.422  -4.582  1.00  0.00    -0.744 OA
ENDBRANCH  88  92
ENDBRANCH  61  85
BRANCH  73  96
ATOM     96  C   UNL     1      12.866 -11.240  -7.078  1.00  0.00     0.023 A 
ATOM     97  C   UNL     1      14.239 -11.287  -6.778  1.00  0.00     0.031 A 
ATOM     98  C   UNL     1      12.478 -11.365  -8.424  1.00  0.00     0.131 A 
ATOM     99  C   UNL     1      15.177 -11.397  -7.815  1.00  0.00     0.055 A 
ATOM    100  C   UNL     1      13.413 -11.537  -9.445  1.00  0.00     0.041 A 
ATOM    101  F   UNL     1      11.181 -11.322  -8.768  1.00  0.00    -0.206 F 
ATOM    102  C   UNL     1      14.772 -11.540  -9.145  1.00  0.00     0.022 A 
BRANCH  99 103
ATOM    103  S   UNL     1      16.940 -11.254  -7.415  1.00  0.00     0.124 S 
ATOM    104  O   UNL     1      17.007  -9.928  -6.810  1.00  0.00    -0.237 OA
ATOM    105  O   UNL     1      17.148 -12.379  -6.509  1.00  0.00    -0.237 OA
ATOM    106  O   UNL     1      17.598 -11.376  -8.715  1.00  0.00    -0.744 OA
ENDBRANCH  99 103
ENDBRANCH  73  96
ENDBRANCH  47  48
ENDBRANCH  40  42
ENDBRANCH  39  40
ENDBRANCH  38  39
ENDBRANCH   1  38
TORSDOF 21
