REMARK SMILES CC[C@@](C)(NC(=O)NCCc1cscn1)C(=O)OCCOC(=O)c1ccc(-c2c3nc(c(-c4cc(S(=O)(=O)[O-])ccc4F)c4ccc([nH]4)c(-c4cc(S(=O)(=O)[O-])ccc4F)c4nc(c(-c5cc(S(=O)(=O)[O-])ccc5F)c5ccc2[nH]5)C=C4)C=C3)cc1
REMARK SMILES IDX 19 1 18 2 16 3 17 4 3 5 4 6 2 7 1 8 5 9 6 10 7 12 8 13 9 15
REMARK SMILES IDX 10 16 11 17 12 18 15 19 13 20 14 21 20 22 21 23 22 24 23 25
REMARK SMILES IDX 24 26 25 27 86 28 26 29 85 30 27 31 28 32 29 33 79 34 30 35
REMARK SMILES IDX 84 36 78 37 80 38 31 39 83 40 77 41 76 42 32 44 64 45 44 46
REMARK SMILES IDX 63 47 45 48 48 49 62 50 81 51 46 52 47 53 61 55 82 56 49 57
REMARK SMILES IDX 33 58 34 59 42 60 35 61 41 62 43 63 40 64 36 65 37 66 38 67
REMARK SMILES IDX 39 68 65 69 66 70 74 71 67 72 73 73 75 74 72 75 68 76 69 77
REMARK SMILES IDX 70 78 71 79 50 80 51 81 59 82 52 83 58 84 60 85 57 86 53 87
REMARK SMILES IDX 54 88 55 89 56 90
REMARK H PARENT 5 11 8 14 80 43 48 54
REMARK Flexibility Score: inf
ROOT
ATOM      1  C   UNL     1       4.751   0.810   1.895  1.00  0.00     0.274 C 
ENDROOT
BRANCH   1   2
ATOM      2  O   UNL     1       3.401   0.663   2.391  1.00  0.00    -0.460 OA
BRANCH   2   3
ATOM      3  C   UNL     1       2.366   0.708   1.527  1.00  0.00     0.331 C 
ATOM      4  O   UNL     1       2.531   0.910   0.331  1.00  0.00    -0.249 OA
BRANCH   3   5
ATOM      5  C   UNL     1       0.966   0.661   2.240  1.00  0.00     0.136 C 
ATOM      6  C   UNL     1       0.574   2.107   2.585  1.00  0.00     0.047 C 
BRANCH   5   7
ATOM      7  C   UNL     1      -0.125   0.105   1.241  1.00  0.00     0.037 C 
ATOM      8  C   UNL     1      -0.255   0.712  -0.150  1.00  0.00     0.007 C 
ENDBRANCH   5   7
BRANCH   5   9
ATOM      9  N   UNL     1       0.809  -0.228   3.456  1.00  0.00    -0.322 N 
ATOM     10  C   UNL     1       1.040  -0.308   4.762  1.00  0.00     0.315 C 
ATOM     11  H   UNL     1       0.370  -1.062   3.171  1.00  0.00     0.166 HD
ATOM     12  O   UNL     1       0.356  -1.121   5.394  1.00  0.00    -0.249 OA
ATOM     13  N   UNL     1       1.923   0.398   5.468  1.00  0.00    -0.338 N 
ATOM     14  H   UNL     1       1.714   0.498   6.424  1.00  0.00     0.165 HD
BRANCH  13  15
ATOM     15  C   UNL     1       3.138   1.033   5.033  1.00  0.00     0.124 C 
BRANCH  15  16
ATOM     16  C   UNL     1       4.000   1.629   6.145  1.00  0.00     0.078 C 
BRANCH  16  17
ATOM     17  C   UNL     1       5.365   1.006   6.215  1.00  0.00     0.053 A 
ATOM     18  C   UNL     1       5.663  -0.342   6.330  1.00  0.00     0.090 A 
ATOM     19  N   UNL     1       6.475   1.837   6.138  1.00  0.00    -0.250 NA
ATOM     20  S   UNL     1       7.361  -0.576   6.345  1.00  0.00    -0.130 S 
ATOM     21  C   UNL     1       7.573   1.117   6.204  1.00  0.00     0.175 A 
ENDBRANCH  16  17
ENDBRANCH  15  16
ENDBRANCH  13  15
ENDBRANCH   5   9
ENDBRANCH   3   5
ENDBRANCH   2   3
ENDBRANCH   1   2
BRANCH   1  22
ATOM     22  C   UNL     1       5.559  -0.425   2.286  1.00  0.00     0.275 C 
BRANCH  22  23
ATOM     23  O   UNL     1       5.064  -1.561   1.566  1.00  0.00    -0.458 OA
BRANCH  23  24
ATOM     24  C   UNL     1       4.180  -2.348   2.223  1.00  0.00     0.338 C 
ATOM     25  O   UNL     1       3.857  -2.307   3.397  1.00  0.00    -0.246 OA
BRANCH  24  26
ATOM     26  C   UNL     1       3.536  -3.156   1.185  1.00  0.00     0.060 A 
ATOM     27  C   UNL     1       2.353  -2.671   0.627  1.00  0.00     0.016 A 
ATOM     28  C   UNL     1       4.153  -4.294   0.679  1.00  0.00     0.016 A 
ATOM     29  C   UNL     1       1.792  -3.284  -0.483  1.00  0.00     0.010 A 
ATOM     30  C   UNL     1       3.597  -4.910  -0.439  1.00  0.00     0.010 A 
ATOM     31  C   UNL     1       2.431  -4.392  -1.038  1.00  0.00    -0.014 A 
BRANCH  31  32
ATOM     32  C   UNL     1       1.882  -5.055  -2.236  1.00  0.00     0.031 A 
ATOM     33  C   UNL     1       1.257  -6.400  -2.074  1.00  0.00     0.074 A 
ATOM     34  C   UNL     1       2.024  -4.481  -3.443  1.00  0.00     0.049 A 
ATOM     35  N   UNL     1       1.002  -7.312  -2.969  1.00  0.00    -0.248 NA
ATOM     36  C   UNL     1       0.898  -6.771  -0.698  1.00  0.00     0.031 C 
ATOM     37  C   UNL     1       2.547  -3.134  -3.681  1.00  0.00     0.029 A 
ATOM     38  N   UNL     1       1.779  -4.973  -4.699  1.00  0.00    -0.354 N 
ATOM     39  C   UNL     1       0.501  -8.397  -2.260  1.00  0.00     0.074 A 
ATOM     40  C   UNL     1       0.494  -8.020  -0.861  1.00  0.00     0.031 C 
ATOM     41  C   UNL     1       2.622  -2.923  -5.005  1.00  0.00     0.029 A 
ATOM     42  C   UNL     1       2.230  -4.144  -5.700  1.00  0.00     0.049 A 
ATOM     43  H   UNL     1       1.327  -5.832  -4.867  1.00  0.00     0.167 HD
ATOM     44  C   UNL     1       0.109  -9.599  -2.748  1.00  0.00     0.034 A 
ATOM     45  C   UNL     1       2.382  -4.379  -7.019  1.00  0.00     0.034 A 
ATOM     46  C   UNL     1       0.156  -9.919  -4.155  1.00  0.00     0.049 A 
ATOM     47  C   UNL     1       2.005  -5.741  -7.541  1.00  0.00     0.074 A 
ATOM     48  C   UNL     1      -0.195 -11.095  -4.791  1.00  0.00     0.029 A 
ATOM     49  N   UNL     1       0.599  -9.047  -5.147  1.00  0.00    -0.354 N 
ATOM     50  N   UNL     1       1.575  -6.789  -6.873  1.00  0.00    -0.248 NA
ATOM     51  C   UNL     1       2.134  -5.958  -8.986  1.00  0.00     0.031 C 
ATOM     52  C   UNL     1       0.099 -10.957  -6.154  1.00  0.00     0.029 A 
ATOM     53  C   UNL     1       0.556  -9.667  -6.385  1.00  0.00     0.049 A 
ATOM     54  H   UNL     1       0.900  -8.123  -4.991  1.00  0.00     0.167 HD
ATOM     55  C   UNL     1       1.360  -7.785  -7.819  1.00  0.00     0.074 A 
ATOM     56  C   UNL     1       1.705  -7.208  -9.106  1.00  0.00     0.031 C 
ATOM     57  C   UNL     1       0.913  -9.057  -7.648  1.00  0.00     0.034 A 
BRANCH  44  58
ATOM     58  C   UNL     1      -0.288 -10.650  -1.737  1.00  0.00     0.023 A 
ATOM     59  C   UNL     1      -1.355 -10.457  -0.841  1.00  0.00     0.031 A 
ATOM     60  C   UNL     1       0.489 -11.813  -1.587  1.00  0.00     0.131 A 
ATOM     61  C   UNL     1      -1.540 -11.345   0.231  1.00  0.00     0.055 A 
ATOM     62  C   UNL     1       0.236 -12.745  -0.578  1.00  0.00     0.041 A 
ATOM     63  F   UNL     1       1.537 -12.045  -2.392  1.00  0.00    -0.206 F 
ATOM     64  C   UNL     1      -0.767 -12.501   0.355  1.00  0.00     0.022 A 
BRANCH  61  65
ATOM     65  S   UNL     1      -2.660 -10.856   1.574  1.00  0.00     0.124 S 
ATOM     66  O   UNL     1      -2.085  -9.578   1.986  1.00  0.00    -0.237 OA
ATOM     67  O   UNL     1      -3.950 -10.789   0.898  1.00  0.00    -0.237 OA
ATOM     68  O   UNL     1      -2.519 -11.936   2.548  1.00  0.00    -0.744 OA
ENDBRANCH  61  65
ENDBRANCH  44  58
BRANCH  45  69
ATOM     69  C   UNL     1       2.994  -3.340  -7.896  1.00  0.00     0.023 A 
ATOM     70  C   UNL     1       2.253  -2.700  -8.902  1.00  0.00     0.031 A 
ATOM     71  C   UNL     1       4.337  -2.953  -7.721  1.00  0.00     0.131 A 
ATOM     72  C   UNL     1       2.863  -1.718  -9.702  1.00  0.00     0.055 A 
ATOM     73  C   UNL     1       4.924  -1.946  -8.489  1.00  0.00     0.041 A 
ATOM     74  F   UNL     1       5.091  -3.530  -6.771  1.00  0.00    -0.206 F 
ATOM     75  C   UNL     1       4.187  -1.326  -9.491  1.00  0.00     0.022 A 
BRANCH  72  76
ATOM     76  S   UNL     1       1.908  -0.979 -11.056  1.00  0.00     0.124 S 
ATOM     77  O   UNL     1       1.603  -2.146 -11.877  1.00  0.00    -0.237 OA
ATOM     78  O   UNL     1       0.783  -0.382 -10.345  1.00  0.00    -0.237 OA
ATOM     79  O   UNL     1       2.842  -0.025 -11.651  1.00  0.00    -0.744 OA
ENDBRANCH  72  76
ENDBRANCH  45  69
BRANCH  57  80
ATOM     80  C   UNL     1       0.715  -9.882  -8.893  1.00  0.00     0.023 A 
ATOM     81  C   UNL     1       1.797 -10.353  -9.654  1.00  0.00     0.031 A 
ATOM     82  C   UNL     1      -0.587 -10.221  -9.303  1.00  0.00     0.131 A 
ATOM     83  C   UNL     1       1.555 -11.108 -10.811  1.00  0.00     0.055 A 
ATOM     84  C   UNL     1      -0.819 -11.019 -10.422  1.00  0.00     0.041 A 
ATOM     85  F   UNL     1      -1.655  -9.793  -8.610  1.00  0.00    -0.206 F 
ATOM     86  C   UNL     1       0.256 -11.461 -11.188  1.00  0.00     0.022 A 
BRANCH  83  87
ATOM     87  S   UNL     1       2.960 -11.576 -11.858  1.00  0.00     0.124 S 
ATOM     88  O   UNL     1       3.492 -10.274 -12.248  1.00  0.00    -0.237 OA
ATOM     89  O   UNL     1       3.788 -12.356 -10.944  1.00  0.00    -0.237 OA
ATOM     90  O   UNL     1       2.342 -12.342 -12.939  1.00  0.00    -0.744 OA
ENDBRANCH  83  87
ENDBRANCH  57  80
ENDBRANCH  31  32
ENDBRANCH  24  26
ENDBRANCH  23  24
ENDBRANCH  22  23
ENDBRANCH   1  22
TORSDOF 19
