REMARK SMILES CCCC[C@H]1C(=S)c2cc(C(=O)OCCOC(=O)c3ccc(-c4c5nc(c(-c6cc(S(=O)(=O)[O-])ccc6F)c6ccc([nH]6)c(-c6cc(S(=O)(=O)[O-])ccc6F)c6nc(c(-c7cc(S(=O)(=O)[O-])ccc7F)c7ccc4[nH]7)C=C6)C=C5)cc3)ccc2N=C1C
REMARK SMILES IDX 14 1 13 2 11 3 12 4 10 5 5 6 6 7 86 8 7 9 8 10 85 11 87 12
REMARK SMILES IDX 9 13 84 14 83 15 82 16 4 17 3 18 2 19 1 20 15 21 16 22 17 23
REMARK SMILES IDX 18 24 19 25 20 26 81 27 21 28 80 29 22 30 23 31 24 32 74 33
REMARK SMILES IDX 25 34 79 35 73 36 75 37 26 38 78 39 72 40 71 41 27 43 59 44
REMARK SMILES IDX 39 45 58 46 40 47 43 48 57 49 76 50 41 51 42 52 56 54 77 55
REMARK SMILES IDX 44 56 28 57 29 58 37 59 30 60 36 61 38 62 35 63 31 64 32 65
REMARK SMILES IDX 33 66 34 67 60 68 61 69 69 70 62 71 68 72 70 73 67 74 63 75
REMARK SMILES IDX 64 76 65 77 66 78 45 79 46 80 54 81 47 82 53 83 55 84 52 85
REMARK SMILES IDX 48 86 49 87 50 88 51 89
REMARK H PARENT 75 42 43 53
REMARK Flexibility Score: inf
ROOT
ATOM      1  C   UNL     1      -5.146   4.730   8.736  1.00  0.00     0.275 C 
ENDROOT
BRANCH   1   2
ATOM      2  O   UNL     1      -4.610   3.665   7.922  1.00  0.00    -0.458 OA
BRANCH   2   3
ATOM      3  C   UNL     1      -4.637   3.893   6.587  1.00  0.00     0.338 C 
ATOM      4  O   UNL     1      -5.100   4.865   6.021  1.00  0.00    -0.246 OA
BRANCH   3   5
ATOM      5  C   UNL     1      -3.928   2.825   5.853  1.00  0.00     0.060 A 
ATOM      6  C   UNL     1      -0.981   1.851   2.067  1.00  0.00     0.075 C 
ATOM      7  C   UNL     1      -1.086   2.602   3.381  1.00  0.00     0.033 C 
ATOM      8  C   UNL     1      -1.362   0.384   2.314  1.00  0.00     0.024 C 
ATOM      9  S   UNL     1       0.161   3.581   3.949  1.00  0.00    -0.083 S 
ATOM     10  C   UNL     1      -2.259   2.260   4.199  1.00  0.00     0.016 A 
ATOM     11  N   UNL     1      -2.150  -0.013   3.274  1.00  0.00    -0.257 NA
ATOM     12  C   UNL     1      -0.851  -0.654   1.348  1.00  0.00     0.062 C 
ATOM     13  C   UNL     1      -2.893   3.203   5.002  1.00  0.00     0.027 A 
ATOM     14  C   UNL     1      -2.692   0.937   4.160  1.00  0.00     0.071 A 
ATOM     15  C   UNL     1      -3.708   0.554   5.049  1.00  0.00     0.030 A 
ATOM     16  C   UNL     1      -4.320   1.488   5.906  1.00  0.00     0.018 A 
BRANCH   6  17
ATOM     17  C   UNL     1      -1.881   2.397   0.937  1.00  0.00     0.015 C 
BRANCH  17  18
ATOM     18  C   UNL     1      -1.982   3.916   0.737  1.00  0.00     0.001 C 
BRANCH  18  19
ATOM     19  C   UNL     1      -0.697   4.690   0.441  1.00  0.00    -0.003 C 
ATOM     20  C   UNL     1       0.065   4.217  -0.784  1.00  0.00     0.004 C 
ENDBRANCH  18  19
ENDBRANCH  17  18
ENDBRANCH   6  17
ENDBRANCH   3   5
ENDBRANCH   2   3
ENDBRANCH   1   2
BRANCH   1  21
ATOM     21  C   UNL     1      -4.033   5.566   9.371  1.00  0.00     0.275 C 
BRANCH  21  22
ATOM     22  O   UNL     1      -3.380   6.382   8.382  1.00  0.00    -0.458 OA
BRANCH  22  23
ATOM     23  C   UNL     1      -2.154   5.961   7.999  1.00  0.00     0.338 C 
ATOM     24  O   UNL     1      -1.544   4.989   8.414  1.00  0.00    -0.246 OA
BRANCH  23  25
ATOM     25  C   UNL     1      -1.651   6.835   6.930  1.00  0.00     0.060 A 
ATOM     26  C   UNL     1      -0.598   7.717   7.155  1.00  0.00     0.016 A 
ATOM     27  C   UNL     1      -2.165   6.678   5.649  1.00  0.00     0.016 A 
ATOM     28  C   UNL     1      -0.083   8.456   6.081  1.00  0.00     0.010 A 
ATOM     29  C   UNL     1      -1.540   7.280   4.564  1.00  0.00     0.010 A 
ATOM     30  C   UNL     1      -0.525   8.224   4.764  1.00  0.00    -0.014 A 
BRANCH  30  31
ATOM     31  C   UNL     1      -0.002   8.987   3.590  1.00  0.00     0.031 A 
ATOM     32  C   UNL     1      -0.966   9.696   2.662  1.00  0.00     0.074 A 
ATOM     33  C   UNL     1       1.318   9.001   3.311  1.00  0.00     0.049 A 
ATOM     34  N   UNL     1      -0.730  10.301   1.526  1.00  0.00    -0.248 NA
ATOM     35  C   UNL     1      -2.392   9.681   3.034  1.00  0.00     0.031 C 
ATOM     36  C   UNL     1       2.349   8.306   4.081  1.00  0.00     0.029 A 
ATOM     37  N   UNL     1       2.022   9.621   2.305  1.00  0.00    -0.354 N 
ATOM     38  C   UNL     1      -1.975  10.684   1.033  1.00  0.00     0.074 A 
ATOM     39  C   UNL     1      -2.966  10.178   1.950  1.00  0.00     0.031 C 
ATOM     40  C   UNL     1       3.553   8.585   3.559  1.00  0.00     0.029 A 
ATOM     41  C   UNL     1       3.384   9.425   2.376  1.00  0.00     0.049 A 
ATOM     42  H   UNL     1       1.592  10.156   1.599  1.00  0.00     0.167 HD
ATOM     43  C   UNL     1      -2.267  11.430  -0.059  1.00  0.00     0.034 A 
ATOM     44  C   UNL     1       4.383   9.866   1.582  1.00  0.00     0.034 A 
ATOM     45  C   UNL     1      -1.264  12.013  -0.909  1.00  0.00     0.049 A 
ATOM     46  C   UNL     1       4.044  10.743   0.400  1.00  0.00     0.074 A 
ATOM     47  C   UNL     1      -1.449  12.863  -1.983  1.00  0.00     0.029 A 
ATOM     48  N   UNL     1       0.104  11.834  -0.767  1.00  0.00    -0.354 N 
ATOM     49  N   UNL     1       2.866  11.158  -0.005  1.00  0.00    -0.248 NA
ATOM     50  C   UNL     1       5.159  11.219  -0.432  1.00  0.00     0.031 C 
ATOM     51  C   UNL     1      -0.199  13.156  -2.524  1.00  0.00     0.029 A 
ATOM     52  C   UNL     1       0.773  12.548  -1.745  1.00  0.00     0.049 A 
ATOM     53  H   UNL     1       0.534  11.281  -0.075  1.00  0.00     0.167 HD
ATOM     54  C   UNL     1       3.101  11.963  -1.116  1.00  0.00     0.074 A 
ATOM     55  C   UNL     1       4.534  11.993  -1.312  1.00  0.00     0.031 C 
ATOM     56  C   UNL     1       2.207  12.610  -1.904  1.00  0.00     0.034 A 
BRANCH  43  57
ATOM     57  C   UNL     1      -3.714  11.726  -0.381  1.00  0.00     0.023 A 
ATOM     58  C   UNL     1      -4.257  11.328  -1.618  1.00  0.00     0.031 A 
ATOM     59  C   UNL     1      -4.513  12.511   0.470  1.00  0.00     0.131 A 
ATOM     60  C   UNL     1      -5.545  11.742  -1.980  1.00  0.00     0.055 A 
ATOM     61  C   UNL     1      -5.816  12.875   0.129  1.00  0.00     0.041 A 
ATOM     62  F   UNL     1      -4.042  12.928   1.657  1.00  0.00    -0.206 F 
ATOM     63  C   UNL     1      -6.332  12.502  -1.108  1.00  0.00     0.022 A 
BRANCH  60  64
ATOM     64  S   UNL     1      -6.226  11.377  -3.621  1.00  0.00     0.124 S 
ATOM     65  O   UNL     1      -7.436  10.629  -3.285  1.00  0.00    -0.237 OA
ATOM     66  O   UNL     1      -6.452  12.714  -4.162  1.00  0.00    -0.237 OA
ATOM     67  O   UNL     1      -5.177  10.601  -4.273  1.00  0.00    -0.744 OA
ENDBRANCH  60  64
ENDBRANCH  43  57
BRANCH  44  68
ATOM     68  C   UNL     1       5.798   9.545   1.943  1.00  0.00     0.023 A 
ATOM     69  C   UNL     1       6.259   8.216   1.994  1.00  0.00     0.031 A 
ATOM     70  C   UNL     1       6.677  10.562   2.355  1.00  0.00     0.131 A 
ATOM     71  C   UNL     1       7.533   7.939   2.510  1.00  0.00     0.055 A 
ATOM     72  C   UNL     1       7.970  10.287   2.803  1.00  0.00     0.041 A 
ATOM     73  F   UNL     1       6.281  11.845   2.338  1.00  0.00    -0.206 F 
ATOM     74  C   UNL     1       8.397   8.966   2.899  1.00  0.00     0.022 A 
BRANCH  71  75
ATOM     75  S   UNL     1       8.064   6.231   2.818  1.00  0.00     0.124 S 
ATOM     76  O   UNL     1       9.269   6.134   2.000  1.00  0.00    -0.237 OA
ATOM     77  O   UNL     1       8.284   6.244   4.263  1.00  0.00    -0.237 OA
ATOM     78  O   UNL     1       6.931   5.430   2.368  1.00  0.00    -0.744 OA
ENDBRANCH  71  75
ENDBRANCH  44  68
BRANCH  56  79
ATOM     79  C   UNL     1       2.705  13.448  -3.056  1.00  0.00     0.023 A 
ATOM     80  C   UNL     1       2.440  14.832  -3.072  1.00  0.00     0.031 A 
ATOM     81  C   UNL     1       3.217  12.852  -4.219  1.00  0.00     0.131 A 
ATOM     82  C   UNL     1       2.618  15.560  -4.255  1.00  0.00     0.055 A 
ATOM     83  C   UNL     1       3.444  13.594  -5.380  1.00  0.00     0.041 A 
ATOM     84  F   UNL     1       3.472  11.534  -4.255  1.00  0.00    -0.206 F 
ATOM     85  C   UNL     1       3.123  14.949  -5.407  1.00  0.00     0.022 A 
BRANCH  82  86
ATOM     86  S   UNL     1       2.089  17.291  -4.375  1.00  0.00     0.124 S 
ATOM     87  O   UNL     1       3.321  17.957  -4.790  1.00  0.00    -0.237 OA
ATOM     88  O   UNL     1       1.044  17.222  -5.392  1.00  0.00    -0.237 OA
ATOM     89  O   UNL     1       1.634  17.616  -3.026  1.00  0.00    -0.744 OA
ENDBRANCH  82  86
ENDBRANCH  56  79
ENDBRANCH  30  31
ENDBRANCH  23  25
ENDBRANCH  22  23
ENDBRANCH  21  22
ENDBRANCH   1  21
TORSDOF 17
