REMARK SMILES C=CC[N@H+](CC(=O)OCCOC(=O)c1ccc(-c2c3nc(c(-c4cc(S(=O)(=O)[O-])ccc4F)c4ccc([nH]4)c(-c4cc(S(=O)(=O)[O-])ccc4F)c4nc(c(-c5cc(S(=O)(=O)[O-])ccc5F)c5ccc2[nH]5)C=C4)C=C3)cc1)[C@@H]1CCC[C@H](C(C)(C)C)CC1
REMARK SMILES IDX 8 1 6 2 7 3 5 4 4 5 3 7 2 8 1 9 77 10 78 11 79 12 80 13
REMARK SMILES IDX 87 15 86 16 81 17 82 19 83 20 84 21 85 22 9 23 10 24 11 25
REMARK SMILES IDX 12 26 13 27 14 28 15 29 76 30 16 31 75 32 17 33 18 34 19 35
REMARK SMILES IDX 69 36 20 37 74 38 68 39 70 40 21 41 73 42 67 43 66 44 22 46
REMARK SMILES IDX 54 47 34 48 53 49 35 50 38 51 52 52 71 53 36 54 37 55 51 57
REMARK SMILES IDX 72 58 39 59 23 60 24 61 32 62 25 63 31 64 33 65 30 66 26 67
REMARK SMILES IDX 27 68 28 69 29 70 55 71 56 72 64 73 57 74 63 75 65 76 62 77
REMARK SMILES IDX 58 78 59 79 60 80 61 81 40 82 41 83 49 84 42 85 48 86 50 87
REMARK SMILES IDX 47 88 43 89 44 90 45 91 46 92
REMARK H PARENT 4 6 70 45 38 56
REMARK Flexibility Score: 90.00
ROOT
ATOM      1  O   UNL     1      -3.562   0.287   0.273  1.00  0.00    -0.458 OA
ENDROOT
BRANCH   1   2
ATOM      2  C   UNL     1      -3.453  -1.005  -0.172  1.00  0.00     0.361 C 
ATOM      3  O   UNL     1      -4.237  -1.906   0.109  1.00  0.00    -0.245 OA
BRANCH   2   4
ATOM      4  C   UNL     1      -2.273  -1.163  -1.160  1.00  0.00     0.387 C 
BRANCH   4   5
ATOM      5  N   UNL     1      -1.180  -0.215  -0.851  1.00  0.00    -0.320 N 
ATOM      6  H   UNL     1      -1.586   0.682  -0.587  1.00  0.00     0.349 HD
BRANCH   5   7
ATOM      7  C   UNL     1      -0.480  -0.598   0.369  1.00  0.00     0.291 C 
BRANCH   7   8
ATOM      8  C   UNL     1       0.784  -1.385   0.200  1.00  0.00     0.025 C 
ATOM      9  C   UNL     1       1.910  -1.090   0.866  1.00  0.00     0.010 C 
ENDBRANCH   7   8
ENDBRANCH   5   7
BRANCH   5  10
ATOM     10  C   UNL     1      -0.459   0.377  -2.003  1.00  0.00     0.184 C 
BRANCH  10  11
ATOM     11  C   UNL     1       0.860   1.097  -1.626  1.00  0.00     0.065 C 
BRANCH  11  12
ATOM     12  C   UNL     1       1.216   2.378  -2.380  1.00  0.00     0.006 C 
BRANCH  12  13
ATOM     13  C   UNL     1       0.513   3.602  -1.790  1.00  0.00     0.004 CG0
ATOM     14  G   UNL     1      -0.971   3.817  -2.157  1.00  0.00     0.000 G0
ENDBRANCH  12  13
ENDBRANCH  11  12
ENDBRANCH  10  11
BRANCH  10  15
ATOM     15  C   UNL     1      -1.373   1.309  -2.834  1.00  0.00     0.065 C 
BRANCH  15  16
ATOM     16  C   UNL     1      -1.852   2.550  -2.080  1.00  0.00     0.010 C 
BRANCH  16  17
ATOM     17  C   UNL     1      -0.971   3.817  -2.157  1.00  0.00    -0.005 CG0
ATOM     18  G   UNL     1       0.513   3.602  -1.790  1.00  0.00     0.000 G0
BRANCH  17  19
ATOM     19  C   UNL     1      -1.612   5.023  -1.333  1.00  0.00    -0.035 C 
ATOM     20  C   UNL     1      -0.826   6.330  -1.573  1.00  0.00     0.011 C 
ATOM     21  C   UNL     1      -3.066   5.292  -1.781  1.00  0.00     0.011 C 
ATOM     22  C   UNL     1      -1.625   4.757   0.189  1.00  0.00     0.011 C 
ENDBRANCH  17  19
ENDBRANCH  16  17
ENDBRANCH  15  16
ENDBRANCH  10  15
ENDBRANCH   5  10
ENDBRANCH   4   5
ENDBRANCH   2   4
ENDBRANCH   1   2
BRANCH   1  23
ATOM     23  C   UNL     1      -4.880   0.753   0.625  1.00  0.00     0.274 C 
BRANCH  23  24
ATOM     24  C   UNL     1      -5.070   2.169   0.031  1.00  0.00     0.275 C 
BRANCH  24  25
ATOM     25  O   UNL     1      -5.347   2.347  -1.392  1.00  0.00    -0.458 OA
BRANCH  25  26
ATOM     26  C   UNL     1      -5.151   1.323  -2.237  1.00  0.00     0.338 C 
ATOM     27  O   UNL     1      -4.951   0.158  -1.911  1.00  0.00    -0.246 OA
BRANCH  26  28
ATOM     28  C   UNL     1      -5.133   1.634  -3.675  1.00  0.00     0.060 A 
ATOM     29  C   UNL     1      -4.899   0.515  -4.495  1.00  0.00     0.016 A 
ATOM     30  C   UNL     1      -5.298   2.899  -4.245  1.00  0.00     0.016 A 
ATOM     31  C   UNL     1      -4.860   0.632  -5.867  1.00  0.00     0.010 A 
ATOM     32  C   UNL     1      -5.306   3.014  -5.643  1.00  0.00     0.010 A 
ATOM     33  C   UNL     1      -5.128   1.872  -6.447  1.00  0.00    -0.014 A 
BRANCH  33  34
ATOM     34  C   UNL     1      -5.510   1.847  -7.869  1.00  0.00     0.031 A 
ATOM     35  C   UNL     1      -4.531   2.139  -8.953  1.00  0.00     0.074 A 
ATOM     36  C   UNL     1      -6.759   1.415  -8.128  1.00  0.00     0.049 A 
ATOM     37  N   UNL     1      -4.715   2.104 -10.245  1.00  0.00    -0.248 NA
ATOM     38  C   UNL     1      -3.172   2.515  -8.540  1.00  0.00     0.031 C 
ATOM     39  C   UNL     1      -7.738   1.029  -7.101  1.00  0.00     0.029 A 
ATOM     40  N   UNL     1      -7.414   1.198  -9.306  1.00  0.00    -0.354 N 
ATOM     41  C   UNL     1      -3.499   2.464 -10.811  1.00  0.00     0.074 A 
ATOM     42  C   UNL     1      -2.586   2.720  -9.714  1.00  0.00     0.031 C 
ATOM     43  C   UNL     1      -8.863   0.618  -7.697  1.00  0.00     0.029 A 
ATOM     44  C   UNL     1      -8.708   0.767  -9.135  1.00  0.00     0.049 A 
ATOM     45  H   UNL     1      -7.002   1.337 -10.188  1.00  0.00     0.167 HD
ATOM     46  C   UNL     1      -3.200   2.576 -12.128  1.00  0.00     0.034 A 
ATOM     47  C   UNL     1      -9.676   0.550 -10.040  1.00  0.00     0.034 A 
ATOM     48  C   UNL     1      -4.158   2.324 -13.183  1.00  0.00     0.049 A 
ATOM     49  C   UNL     1      -9.331   0.742 -11.485  1.00  0.00     0.074 A 
ATOM     50  C   UNL     1      -3.976   2.401 -14.553  1.00  0.00     0.029 A 
ATOM     51  N   UNL     1      -5.486   1.957 -12.983  1.00  0.00    -0.354 N 
ATOM     52  N   UNL     1      -8.184   1.107 -12.011  1.00  0.00    -0.248 NA
ATOM     53  C   UNL     1     -10.398   0.489 -12.454  1.00  0.00     0.031 C 
ATOM     54  C   UNL     1      -5.205   2.144 -15.175  1.00  0.00     0.029 A 
ATOM     55  C   UNL     1      -6.142   1.839 -14.200  1.00  0.00     0.049 A 
ATOM     56  H   UNL     1      -5.900   1.802 -12.103  1.00  0.00     0.167 HD
ATOM     57  C   UNL     1      -8.389   1.126 -13.382  1.00  0.00     0.074 A 
ATOM     58  C   UNL     1      -9.764   0.707 -13.597  1.00  0.00     0.031 C 
ATOM     59  C   UNL     1      -7.526   1.460 -14.375  1.00  0.00     0.034 A 
BRANCH  46  60
ATOM     60  C   UNL     1      -1.819   3.062 -12.492  1.00  0.00     0.023 A 
ATOM     61  C   UNL     1      -0.664   2.301 -12.238  1.00  0.00     0.031 A 
ATOM     62  C   UNL     1      -1.656   4.319 -13.102  1.00  0.00     0.131 A 
ATOM     63  C   UNL     1       0.603   2.824 -12.551  1.00  0.00     0.055 A 
ATOM     64  C   UNL     1      -0.400   4.807 -13.467  1.00  0.00     0.041 A 
ATOM     65  F   UNL     1      -2.720   5.101 -13.346  1.00  0.00    -0.206 F 
ATOM     66  C   UNL     1       0.740   4.062 -13.184  1.00  0.00     0.022 A 
BRANCH  63  67
ATOM     67  S   UNL     1       2.081   1.911 -12.026  1.00  0.00     0.124 S 
ATOM     68  O   UNL     1       1.890   1.844 -10.579  1.00  0.00    -0.237 OA
ATOM     69  O   UNL     1       1.946   0.651 -12.747  1.00  0.00    -0.237 OA
ATOM     70  O   UNL     1       3.184   2.764 -12.462  1.00  0.00    -0.744 OA
ENDBRANCH  63  67
ENDBRANCH  46  60
BRANCH  47  71
ATOM     71  C   UNL     1     -11.043   0.189  -9.583  1.00  0.00     0.023 A 
ATOM     72  C   UNL     1     -11.593  -1.071  -9.853  1.00  0.00     0.031 A 
ATOM     73  C   UNL     1     -11.806   1.099  -8.826  1.00  0.00     0.131 A 
ATOM     74  C   UNL     1     -12.878  -1.382  -9.382  1.00  0.00     0.055 A 
ATOM     75  C   UNL     1     -13.063   0.769  -8.323  1.00  0.00     0.041 A 
ATOM     76  F   UNL     1     -11.315   2.314  -8.530  1.00  0.00    -0.206 F 
ATOM     77  C   UNL     1     -13.610  -0.477  -8.607  1.00  0.00     0.022 A 
BRANCH  74  78
ATOM     78  S   UNL     1     -13.605  -2.979  -9.837  1.00  0.00     0.124 S 
ATOM     79  O   UNL     1     -13.536  -2.936 -11.293  1.00  0.00    -0.237 OA
ATOM     80  O   UNL     1     -12.704  -3.919  -9.179  1.00  0.00    -0.237 OA
ATOM     81  O   UNL     1     -14.953  -2.911  -9.275  1.00  0.00    -0.744 OA
ENDBRANCH  74  78
ENDBRANCH  47  71
BRANCH  59  82
ATOM     82  C   UNL     1      -8.074   1.367 -15.774  1.00  0.00     0.023 A 
ATOM     83  C   UNL     1      -9.062   2.258 -16.227  1.00  0.00     0.031 A 
ATOM     84  C   UNL     1      -7.652   0.340 -16.634  1.00  0.00     0.131 A 
ATOM     85  C   UNL     1      -9.648   2.062 -17.485  1.00  0.00     0.055 A 
ATOM     86  C   UNL     1      -8.198   0.187 -17.908  1.00  0.00     0.041 A 
ATOM     87  F   UNL     1      -6.715  -0.538 -16.243  1.00  0.00    -0.206 F 
ATOM     88  C   UNL     1      -9.213   1.041 -18.334  1.00  0.00     0.022 A 
BRANCH  85  89
ATOM     89  S   UNL     1     -11.062   3.097 -17.952  1.00  0.00     0.124 S 
ATOM     90  O   UNL     1     -12.024   2.787 -16.900  1.00  0.00    -0.237 OA
ATOM     91  O   UNL     1     -10.491   4.440 -17.919  1.00  0.00    -0.237 OA
ATOM     92  O   UNL     1     -11.418   2.609 -19.283  1.00  0.00    -0.744 OA
ENDBRANCH  85  89
ENDBRANCH  59  82
ENDBRANCH  33  34
ENDBRANCH  26  28
ENDBRANCH  25  26
ENDBRANCH  24  25
ENDBRANCH  23  24
ENDBRANCH   1  23
TORSDOF 19
