REMARK SMILES C=CCN(CC(=O)OCCOC(=O)c1ccc(-c2c3nc(c(-c4cc(S(=O)(=O)[O-])ccc4F)c4ccc([nH]4)c(-c4cc(S(=O)(=O)[O-])ccc4F)c4nc(c(-c5cc(S(=O)(=O)[O-])ccc5F)c5ccc2[nH]5)C=C4)C=C3)cc1)S(=O)(=O)Cc1cc(C)on1
REMARK SMILES IDX 9 1 8 2 6 3 7 4 5 5 4 6 3 7 2 8 1 9 77 10 78 11 79 12 80 13
REMARK SMILES IDX 81 14 82 15 86 16 83 17 85 18 84 19 10 20 11 21 12 22 13 23
REMARK SMILES IDX 14 24 15 25 76 26 16 27 75 28 17 29 18 30 19 31 69 32 20 33
REMARK SMILES IDX 74 34 68 35 70 36 21 37 73 38 67 39 66 40 22 42 54 43 34 44
REMARK SMILES IDX 53 45 35 46 38 47 52 48 71 49 36 50 37 51 51 53 72 54 39 55
REMARK SMILES IDX 23 56 24 57 32 58 25 59 31 60 33 61 30 62 26 63 27 64 28 65
REMARK SMILES IDX 29 66 55 67 56 68 64 69 57 70 63 71 65 72 62 73 58 74 59 75
REMARK SMILES IDX 60 76 61 77 40 78 41 79 49 80 42 81 48 82 50 83 47 84 43 85
REMARK SMILES IDX 44 86 45 87 46 88
REMARK H PARENT 70 41 38 52
REMARK Flexibility Score: inf
ROOT
ATOM      1  C   UNL     1      -3.995  -0.949  -1.414  1.00  0.00     0.274 C 
ENDROOT
BRANCH   1   2
ATOM      2  O   UNL     1      -3.019  -0.692  -0.381  1.00  0.00    -0.461 OA
BRANCH   2   3
ATOM      3  C   UNL     1      -3.507  -0.543   0.872  1.00  0.00     0.321 C 
ATOM      4  O   UNL     1      -4.702  -0.616   1.151  1.00  0.00    -0.251 OA
BRANCH   3   5
ATOM      5  C   UNL     1      -2.486  -0.205   1.927  1.00  0.00     0.225 C 
BRANCH   5   6
ATOM      6  N   UNL     1      -1.014  -0.157   1.740  1.00  0.00    -0.187 NA
BRANCH   6   7
ATOM      7  C   UNL     1      -0.631   0.777   0.645  1.00  0.00     0.129 C 
BRANCH   7   8
ATOM      8  C   UNL     1       0.793   1.215   0.773  1.00  0.00    -0.018 C 
ATOM      9  C   UNL     1       1.743   0.903  -0.121  1.00  0.00     0.005 C 
ENDBRANCH   7   8
ENDBRANCH   6   7
BRANCH   6  10
ATOM     10  S   UNL     1      -0.100  -1.597   1.779  1.00  0.00     0.220 S 
ATOM     11  O   UNL     1      -0.159  -2.142   0.437  1.00  0.00    -0.212 OA
ATOM     12  O   UNL     1       1.190  -1.251   2.345  1.00  0.00    -0.212 OA
BRANCH  10  13
ATOM     13  C   UNL     1      -0.906  -2.737   2.908  1.00  0.00     0.214 C 
BRANCH  13  14
ATOM     14  C   UNL     1      -0.936  -2.345   4.342  1.00  0.00     0.100 A 
ATOM     15  C   UNL     1      -0.737  -1.097   4.985  1.00  0.00     0.073 A 
ATOM     16  N   UNL     1      -1.251  -3.288   5.243  1.00  0.00    -0.084 NA
ATOM     17  C   UNL     1      -0.903  -1.364   6.323  1.00  0.00     0.133 A 
ATOM     18  O   UNL     1      -1.202  -2.678   6.479  1.00  0.00    -0.361 OA
ATOM     19  C   UNL     1      -0.819  -0.561   7.556  1.00  0.00     0.091 C 
ENDBRANCH  13  14
ENDBRANCH  10  13
ENDBRANCH   6  10
ENDBRANCH   5   6
ENDBRANCH   3   5
ENDBRANCH   2   3
ENDBRANCH   1   2
BRANCH   1  20
ATOM     20  C   UNL     1      -4.096  -2.433  -1.774  1.00  0.00     0.275 C 
BRANCH  20  21
ATOM     21  O   UNL     1      -4.677  -3.211  -0.710  1.00  0.00    -0.458 OA
BRANCH  21  22
ATOM     22  C   UNL     1      -3.768  -3.739   0.134  1.00  0.00     0.338 C 
ATOM     23  O   UNL     1      -2.555  -3.605   0.089  1.00  0.00    -0.246 OA
BRANCH  22  24
ATOM     24  C   UNL     1      -4.384  -4.468   1.240  1.00  0.00     0.060 A 
ATOM     25  C   UNL     1      -4.530  -3.801   2.457  1.00  0.00     0.016 A 
ATOM     26  C   UNL     1      -4.513  -5.855   1.158  1.00  0.00     0.016 A 
ATOM     27  C   UNL     1      -4.720  -4.535   3.620  1.00  0.00     0.010 A 
ATOM     28  C   UNL     1      -4.769  -6.583   2.321  1.00  0.00     0.010 A 
ATOM     29  C   UNL     1      -4.832  -5.932   3.564  1.00  0.00    -0.014 A 
BRANCH  29  30
ATOM     30  C   UNL     1      -4.971  -6.699   4.824  1.00  0.00     0.031 A 
ATOM     31  C   UNL     1      -3.857  -7.591   5.301  1.00  0.00     0.074 A 
ATOM     32  C   UNL     1      -6.093  -6.557   5.553  1.00  0.00     0.049 A 
ATOM     33  N   UNL     1      -3.833  -8.408   6.322  1.00  0.00    -0.248 NA
ATOM     34  C   UNL     1      -2.616  -7.575   4.513  1.00  0.00     0.031 C 
ATOM     35  C   UNL     1      -7.224  -5.695   5.199  1.00  0.00     0.029 A 
ATOM     36  N   UNL     1      -6.461  -7.117   6.747  1.00  0.00    -0.354 N 
ATOM     37  C   UNL     1      -2.592  -9.036   6.278  1.00  0.00     0.074 A 
ATOM     38  C   UNL     1      -1.897  -8.508   5.122  1.00  0.00     0.031 C 
ATOM     39  C   UNL     1      -8.145  -5.759   6.172  1.00  0.00     0.029 A 
ATOM     40  C   UNL     1      -7.697  -6.708   7.185  1.00  0.00     0.049 A 
ATOM     41  H   UNL     1      -5.895  -7.752   7.242  1.00  0.00     0.167 HD
ATOM     42  C   UNL     1      -2.089  -9.972   7.122  1.00  0.00     0.034 A 
ATOM     43  C   UNL     1      -8.401  -7.075   8.271  1.00  0.00     0.034 A 
ATOM     44  C   UNL     1      -2.787 -10.456   8.291  1.00  0.00     0.049 A 
ATOM     45  C   UNL     1      -7.811  -8.092   9.205  1.00  0.00     0.074 A 
ATOM     46  C   UNL     1      -2.375 -11.398   9.218  1.00  0.00     0.029 A 
ATOM     47  N   UNL     1      -4.042 -10.023   8.701  1.00  0.00    -0.354 N 
ATOM     48  N   UNL     1      -6.666  -8.728   9.115  1.00  0.00    -0.248 NA
ATOM     49  C   UNL     1      -8.611  -8.445  10.383  1.00  0.00     0.031 C 
ATOM     50  C   UNL     1      -3.397 -11.566  10.161  1.00  0.00     0.029 A 
ATOM     51  C   UNL     1      -4.426 -10.690   9.855  1.00  0.00     0.049 A 
ATOM     52  H   UNL     1      -4.582  -9.342   8.238  1.00  0.00     0.167 HD
ATOM     53  C   UNL     1      -6.613  -9.567  10.220  1.00  0.00     0.074 A 
ATOM     54  C   UNL     1      -7.825  -9.328  10.981  1.00  0.00     0.031 C 
ATOM     55  C   UNL     1      -5.656 -10.462  10.573  1.00  0.00     0.034 A 
BRANCH  42  56
ATOM     56  C   UNL     1      -0.754 -10.581   6.767  1.00  0.00     0.023 A 
ATOM     57  C   UNL     1       0.443  -9.845   6.801  1.00  0.00     0.031 A 
ATOM     58  C   UNL     1      -0.690 -11.925   6.356  1.00  0.00     0.131 A 
ATOM     59  C   UNL     1       1.643 -10.442   6.378  1.00  0.00     0.055 A 
ATOM     60  C   UNL     1       0.516 -12.531   5.998  1.00  0.00     0.041 A 
ATOM     61  F   UNL     1      -1.804 -12.671   6.283  1.00  0.00    -0.206 F 
ATOM     62  C   UNL     1       1.690 -11.785   5.997  1.00  0.00     0.022 A 
BRANCH  59  63
ATOM     63  S   UNL     1       3.128  -9.411   6.225  1.00  0.00     0.124 S 
ATOM     64  O   UNL     1       2.708  -8.436   5.221  1.00  0.00    -0.237 OA
ATOM     65  O   UNL     1       3.302  -8.903   7.580  1.00  0.00    -0.237 OA
ATOM     66  O   UNL     1       4.154 -10.352   5.777  1.00  0.00    -0.744 OA
ENDBRANCH  59  63
ENDBRANCH  42  56
BRANCH  43  67
ATOM     67  C   UNL     1      -9.757  -6.513   8.501  1.00  0.00     0.023 A 
ATOM     68  C   UNL     1     -10.003  -5.622   9.555  1.00  0.00     0.031 A 
ATOM     69  C   UNL     1     -10.828  -6.862   7.659  1.00  0.00     0.131 A 
ATOM     70  C   UNL     1     -11.299  -5.124   9.756  1.00  0.00     0.055 A 
ATOM     71  C   UNL     1     -12.107  -6.336   7.841  1.00  0.00     0.041 A 
ATOM     72  F   UNL     1     -10.636  -7.701   6.629  1.00  0.00    -0.206 F 
ATOM     73  C   UNL     1     -12.350  -5.468   8.900  1.00  0.00     0.022 A 
BRANCH  70  74
ATOM     74  S   UNL     1     -11.605  -4.047  11.182  1.00  0.00     0.124 S 
ATOM     75  O   UNL     1     -11.224  -4.907  12.296  1.00  0.00    -0.237 OA
ATOM     76  O   UNL     1     -10.718  -2.921  10.908  1.00  0.00    -0.237 OA
ATOM     77  O   UNL     1     -13.033  -3.748  11.084  1.00  0.00    -0.744 OA
ENDBRANCH  70  74
ENDBRANCH  43  67
BRANCH  55  78
ATOM     78  C   UNL     1      -5.908 -11.237  11.839  1.00  0.00     0.023 A 
ATOM     79  C   UNL     1      -6.914 -12.217  11.904  1.00  0.00     0.031 A 
ATOM     80  C   UNL     1      -5.176 -10.953  13.004  1.00  0.00     0.131 A 
ATOM     81  C   UNL     1      -7.202 -12.840  13.126  1.00  0.00     0.055 A 
ATOM     82  C   UNL     1      -5.436 -11.610  14.207  1.00  0.00     0.041 A 
ATOM     83  F   UNL     1      -4.209 -10.022  12.993  1.00  0.00    -0.206 F 
ATOM     84  C   UNL     1      -6.463 -12.548  14.277  1.00  0.00     0.022 A 
BRANCH  81  85
ATOM     85  S   UNL     1      -8.623 -13.963  13.218  1.00  0.00     0.124 S 
ATOM     86  O   UNL     1      -9.712 -13.117  12.737  1.00  0.00    -0.237 OA
ATOM     87  O   UNL     1      -8.220 -15.049  12.331  1.00  0.00    -0.237 OA
ATOM     88  O   UNL     1      -8.693 -14.313  14.635  1.00  0.00    -0.744 OA
ENDBRANCH  81  85
ENDBRANCH  55  78
ENDBRANCH  29  30
ENDBRANCH  22  24
ENDBRANCH  21  22
ENDBRANCH  20  21
ENDBRANCH   1  20
TORSDOF 20
