REMARK SMILES CCOc1ccc(C=C2C[N@@H+](CC)Cc3c2nc2ccccc2c3C(=O)OCCOC(=O)c2ccc(-c3c4nc(c(-c5cc(S(=O)(=O)[O-])ccc5F)c5ccc([nH]5)c(-c5cc(S(=O)(=O)[O-])ccc5F)c5nc(c(-c6cc(S(=O)(=O)[O-])ccc6F)c6ccc3[nH]6)C=C5)C=C4)cc2)cc1
REMARK SMILES IDX 28 1 27 2 25 3 26 4 24 5 8 6 9 7 10 8 16 9 11 10 15 11 17 12
REMARK SMILES IDX 14 13 18 15 23 16 19 17 22 18 20 19 21 20 7 21 4 22 5 23
REMARK SMILES IDX 97 24 6 25 96 26 3 27 2 28 1 29 12 30 13 31 29 32 30 33
REMARK SMILES IDX 31 34 32 35 33 36 34 37 95 38 35 39 94 40 36 41 37 42 38 43
REMARK SMILES IDX 88 44 39 45 93 46 87 47 89 48 40 49 92 50 86 51 85 52 41 54
REMARK SMILES IDX 73 55 53 56 72 57 54 58 57 59 71 60 90 61 55 62 56 63 70 65
REMARK SMILES IDX 91 66 58 67 42 68 43 69 51 70 44 71 50 72 52 73 49 74 45 75
REMARK SMILES IDX 46 76 47 77 48 78 74 79 75 80 83 81 76 82 82 83 84 84 81 85
REMARK SMILES IDX 77 86 78 87 79 88 80 89 59 90 60 91 68 92 61 93 67 94 69 95
REMARK SMILES IDX 66 96 62 97 63 98 64 99 65 100
REMARK H PARENT 11 14 89 53 57 64
REMARK Flexibility Score: inf
ROOT
ATOM      1  C   UNL     1      12.195  -9.373  -1.246  1.00  0.00     0.275 C 
ENDROOT
BRANCH   1   2
ATOM      2  O   UNL     1      11.877  -7.957  -1.190  1.00  0.00    -0.458 OA
BRANCH   2   3
ATOM      3  C   UNL     1      10.908  -7.377  -1.964  1.00  0.00     0.339 C 
ATOM      4  O   UNL     1      10.281  -7.926  -2.849  1.00  0.00    -0.246 OA
BRANCH   3   5
ATOM      5  C   UNL     1      10.650  -5.947  -1.439  1.00  0.00     0.080 A 
ATOM      6  C   UNL     1       6.524  -3.424   1.198  1.00  0.00     0.020 C 
ATOM      7  C   UNL     1       7.648  -4.208   1.156  1.00  0.00     0.033 C 
ATOM      8  C   UNL     1       8.630  -3.061   0.908  1.00  0.00     0.301 C 
ATOM      9  C   UNL     1       9.013  -5.067   1.102  1.00  0.00     0.082 A 
ATOM     10  N   UNL     1       9.157  -3.318  -0.465  1.00  0.00    -0.328 N 
ATOM     11  C   UNL     1       9.064  -5.651  -0.609  1.00  0.00     0.048 A 
ATOM     12  N   UNL     1      10.583  -4.475   1.777  1.00  0.00    -0.247 NA
ATOM     13  C   UNL     1       8.448  -4.334  -1.264  1.00  0.00     0.302 C 
ATOM     14  H   UNL     1       9.156  -2.416  -0.941  1.00  0.00     0.348 HD
ATOM     15  C   UNL     1      12.140  -4.555   0.859  1.00  0.00     0.072 A 
ATOM     16  C   UNL     1      12.169  -5.316  -0.759  1.00  0.00     0.015 A 
ATOM     17  C   UNL     1      13.302  -3.804   1.030  1.00  0.00     0.029 A 
ATOM     18  C   UNL     1      13.312  -5.288  -1.546  1.00  0.00     0.011 A 
ATOM     19  C   UNL     1      14.306  -3.698   0.023  1.00  0.00     0.002 A 
ATOM     20  C   UNL     1      14.344  -4.448  -1.173  1.00  0.00     0.001 A 
BRANCH   6  21
ATOM     21  C   UNL     1       5.033  -3.306   1.152  1.00  0.00    -0.025 A 
ATOM     22  C   UNL     1       2.329  -2.564   0.555  1.00  0.00     0.119 A 
ATOM     23  C   UNL     1       2.760  -3.898   0.501  1.00  0.00     0.047 A 
ATOM     24  C   UNL     1       3.243  -1.596   0.913  1.00  0.00     0.047 A 
ATOM     25  C   UNL     1       4.108  -4.265   0.769  1.00  0.00     0.012 A 
ATOM     26  C   UNL     1       4.559  -1.962   1.200  1.00  0.00     0.012 A 
BRANCH  22  27
ATOM     27  O   UNL     1       0.996  -2.290   0.435  1.00  0.00    -0.494 OA
BRANCH  27  28
ATOM     28  C   UNL     1       0.586  -1.328  -0.547  1.00  0.00     0.226 C 
ATOM     29  C   UNL     1       0.758   0.132  -0.141  1.00  0.00     0.049 C 
ENDBRANCH  27  28
ENDBRANCH  22  27
ENDBRANCH   6  21
BRANCH  10  30
ATOM     30  C   UNL     1      10.441  -4.123  -0.200  1.00  0.00     0.259 C 
ATOM     31  C   UNL     1      10.747  -6.081   0.660  1.00  0.00     0.071 C 
ENDBRANCH  10  30
ENDBRANCH   3   5
ENDBRANCH   2   3
ENDBRANCH   1   2
BRANCH   1  32
ATOM     32  C   UNL     1      11.522 -10.158  -0.117  1.00  0.00     0.275 C 
BRANCH  32  33
ATOM     33  O   UNL     1      10.106 -10.122  -0.329  1.00  0.00    -0.458 OA
BRANCH  33  34
ATOM     34  C   UNL     1       9.432  -9.418   0.601  1.00  0.00     0.338 C 
ATOM     35  O   UNL     1       9.863  -8.968   1.649  1.00  0.00    -0.246 OA
BRANCH  34  36
ATOM     36  C   UNL     1       8.042  -9.232   0.190  1.00  0.00     0.060 A 
ATOM     37  C   UNL     1       7.696  -8.276  -0.759  1.00  0.00     0.016 A 
ATOM     38  C   UNL     1       7.063  -9.875   0.928  1.00  0.00     0.016 A 
ATOM     39  C   UNL     1       6.392  -7.817  -0.841  1.00  0.00     0.010 A 
ATOM     40  C   UNL     1       5.731  -9.551   0.705  1.00  0.00     0.010 A 
ATOM     41  C   UNL     1       5.384  -8.492  -0.150  1.00  0.00    -0.014 A 
BRANCH  41  42
ATOM     42  C   UNL     1       3.965  -8.125  -0.353  1.00  0.00     0.031 A 
ATOM     43  C   UNL     1       3.104  -7.766   0.821  1.00  0.00     0.074 A 
ATOM     44  C   UNL     1       3.453  -8.146  -1.601  1.00  0.00     0.049 A 
ATOM     45  N   UNL     1       1.818  -7.544   0.848  1.00  0.00    -0.248 NA
ATOM     46  C   UNL     1       3.769  -7.631   2.129  1.00  0.00     0.031 C 
ATOM     47  C   UNL     1       4.208  -8.453  -2.820  1.00  0.00     0.029 A 
ATOM     48  N   UNL     1       2.180  -7.918  -2.057  1.00  0.00    -0.354 N 
ATOM     49  C   UNL     1       1.514  -7.255   2.171  1.00  0.00     0.074 A 
ATOM     50  C   UNL     1       2.743  -7.371   2.925  1.00  0.00     0.031 C 
ATOM     51  C   UNL     1       3.395  -8.367  -3.880  1.00  0.00     0.029 A 
ATOM     52  C   UNL     1       2.042  -8.101  -3.414  1.00  0.00     0.049 A 
ATOM     53  H   UNL     1       1.437  -7.649  -1.470  1.00  0.00     0.167 HD
ATOM     54  C   UNL     1       0.315  -6.912   2.696  1.00  0.00     0.034 A 
ATOM     55  C   UNL     1       0.946  -8.111  -4.197  1.00  0.00     0.034 A 
ATOM     56  C   UNL     1      -0.899  -6.822   1.928  1.00  0.00     0.049 A 
ATOM     57  C   UNL     1      -0.393  -7.868  -3.556  1.00  0.00     0.074 A 
ATOM     58  C   UNL     1      -2.166  -6.491   2.373  1.00  0.00     0.029 A 
ATOM     59  N   UNL     1      -1.010  -7.083   0.569  1.00  0.00    -0.354 N 
ATOM     60  N   UNL     1      -0.666  -7.614  -2.297  1.00  0.00    -0.248 NA
ATOM     61  C   UNL     1      -1.568  -7.913  -4.433  1.00  0.00     0.031 C 
ATOM     62  C   UNL     1      -3.058  -6.660   1.315  1.00  0.00     0.029 A 
ATOM     63  C   UNL     1      -2.333  -6.970   0.176  1.00  0.00     0.049 A 
ATOM     64  H   UNL     1      -0.260  -7.312  -0.026  1.00  0.00     0.167 HD
ATOM     65  C   UNL     1      -2.043  -7.426  -2.243  1.00  0.00     0.074 A 
ATOM     66  C   UNL     1      -2.539  -7.586  -3.594  1.00  0.00     0.031 C 
ATOM     67  C   UNL     1      -2.822  -7.136  -1.171  1.00  0.00     0.034 A 
BRANCH  54  68
ATOM     68  C   UNL     1       0.244  -6.674   4.180  1.00  0.00     0.023 A 
ATOM     69  C   UNL     1       0.950  -5.630   4.798  1.00  0.00     0.031 A 
ATOM     70  C   UNL     1      -0.546  -7.512   4.987  1.00  0.00     0.131 A 
ATOM     71  C   UNL     1       0.905  -5.496   6.192  1.00  0.00     0.055 A 
ATOM     72  C   UNL     1      -0.668  -7.308   6.360  1.00  0.00     0.041 A 
ATOM     73  F   UNL     1      -1.213  -8.548   4.452  1.00  0.00    -0.206 F 
ATOM     74  C   UNL     1       0.072  -6.302   6.973  1.00  0.00     0.022 A 
BRANCH  71  75
ATOM     75  S   UNL     1       2.091  -4.381   6.992  1.00  0.00     0.124 S 
ATOM     76  O   UNL     1       3.364  -4.919   6.519  1.00  0.00    -0.237 OA
ATOM     77  O   UNL     1       1.709  -3.076   6.466  1.00  0.00    -0.237 OA
ATOM     78  O   UNL     1       1.834  -4.577   8.418  1.00  0.00    -0.744 OA
ENDBRANCH  71  75
ENDBRANCH  54  68
BRANCH  55  79
ATOM     79  C   UNL     1       1.053  -8.426  -5.651  1.00  0.00     0.023 A 
ATOM     80  C   UNL     1       0.600  -7.522  -6.623  1.00  0.00     0.031 A 
ATOM     81  C   UNL     1       1.534  -9.675  -6.086  1.00  0.00     0.131 A 
ATOM     82  C   UNL     1       0.566  -7.910  -7.971  1.00  0.00     0.055 A 
ATOM     83  C   UNL     1       1.587 -10.018  -7.436  1.00  0.00     0.041 A 
ATOM     84  F   UNL     1       1.962 -10.588  -5.199  1.00  0.00    -0.206 F 
ATOM     85  C   UNL     1       1.081  -9.139  -8.387  1.00  0.00     0.022 A 
BRANCH  82  86
ATOM     86  S   UNL     1      -0.328  -6.860  -9.148  1.00  0.00     0.124 S 
ATOM     87  O   UNL     1      -1.651  -6.800  -8.537  1.00  0.00    -0.237 OA
ATOM     88  O   UNL     1       0.452  -5.628  -9.114  1.00  0.00    -0.237 OA
ATOM     89  O   UNL     1      -0.251  -7.612 -10.399  1.00  0.00    -0.744 OA
ENDBRANCH  82  86
ENDBRANCH  55  79
BRANCH  67  90
ATOM     90  C   UNL     1      -4.290  -6.899  -1.421  1.00  0.00     0.023 A 
ATOM     91  C   UNL     1      -5.133  -7.903  -1.924  1.00  0.00     0.031 A 
ATOM     92  C   UNL     1      -4.851  -5.637  -1.150  1.00  0.00     0.131 A 
ATOM     93  C   UNL     1      -6.471  -7.603  -2.214  1.00  0.00     0.055 A 
ATOM     94  C   UNL     1      -6.207  -5.378  -1.342  1.00  0.00     0.041 A 
ATOM     95  F   UNL     1      -4.090  -4.634  -0.684  1.00  0.00    -0.206 F 
ATOM     96  C   UNL     1      -7.022  -6.359  -1.895  1.00  0.00     0.022 A 
BRANCH  93  97
ATOM     97  S   UNL     1      -7.436  -8.804  -3.169  1.00  0.00     0.124 S 
ATOM     98  O   UNL     1      -6.617  -8.961  -4.366  1.00  0.00    -0.237 OA
ATOM     99  O   UNL     1      -7.483  -9.954  -2.272  1.00  0.00    -0.237 OA
ATOM    100  O   UNL     1      -8.715  -8.126  -3.376  1.00  0.00    -0.744 OA
ENDBRANCH  93  97
ENDBRANCH  67  90
ENDBRANCH  41  42
ENDBRANCH  34  36
ENDBRANCH  33  34
ENDBRANCH  32  33
ENDBRANCH   1  32
TORSDOF 18
