REMARK SMILES CC[C@@H]1CCC[N@H+]([C@@H]2CC[C@]([NH2+]C3CC3)(C(=O)OCCOC(=O)c3ccc(-c4c5nc(c(-c6cc(S(=O)(=O)[O-])ccc6F)c6ccc([nH]6)c(-c6cc(S(=O)(=O)[O-])ccc6F)c6nc(c(-c7cc(S(=O)(=O)[O-])ccc7F)c7ccc4[nH]7)C=C6)C=C5)cc3)C2)CC1
REMARK SMILES IDX 19 1 18 2 16 3 17 4 11 5 8 6 9 7 87 8 10 9 7 10 88 12 89 13
REMARK SMILES IDX 3 14 2 16 1 17 6 18 5 19 4 20 12 22 13 25 14 26 15 27 20 28
REMARK SMILES IDX 21 29 22 30 23 31 24 32 25 33 86 34 26 35 85 36 27 37 28 38
REMARK SMILES IDX 29 39 79 40 30 41 84 42 78 43 80 44 31 45 83 46 77 47 76 48
REMARK SMILES IDX 32 50 64 51 44 52 63 53 45 54 48 55 62 56 81 57 46 58 47 59
REMARK SMILES IDX 61 61 82 62 49 63 33 64 34 65 42 66 35 67 41 68 43 69 40 70
REMARK SMILES IDX 36 71 37 72 38 73 39 74 65 75 66 76 74 77 67 78 73 79 75 80
REMARK SMILES IDX 72 81 68 82 69 83 70 84 71 85 50 86 51 87 59 88 52 89 58 90
REMARK SMILES IDX 60 91 57 92 53 93 54 94 55 95 56 96
REMARK H PARENT 7 11 12 23 12 24 80 49 48 60
REMARK Flexibility Score: 80.00
ROOT
ATOM      1  C   UNL     1      -3.059   9.748  -0.114  1.00  0.00     0.274 C 
ENDROOT
BRANCH   1   2
ATOM      2  O   UNL     1      -2.110   9.200   0.825  1.00  0.00    -0.457 OA
BRANCH   2   3
ATOM      3  C   UNL     1      -0.894   8.843   0.323  1.00  0.00     0.368 C 
ATOM      4  O   UNL     1      -0.585   8.965  -0.859  1.00  0.00    -0.245 OA
BRANCH   3   5
ATOM      5  C   UNL     1       0.069   8.284   1.411  1.00  0.00     0.200 C 
ATOM      6  C   UNL     1       1.009   6.136   2.065  1.00  0.00     0.191 C 
ATOM      7  C   UNL     1       0.015   6.539   3.165  1.00  0.00     0.072 C 
ATOM      8  C   UNL     1       0.597   6.949   0.841  1.00  0.00     0.146 C 
ATOM      9  C   UNL     1      -0.637   7.848   2.711  1.00  0.00     0.087 C 
BRANCH   6  10
ATOM     10  N   UNL     1       1.197   4.694   1.865  1.00  0.00    -0.332 N 
ATOM     11  H   UNL     1       1.867   4.574   1.105  1.00  0.00     0.348 HD
BRANCH  10  12
ATOM     12  C   UNL     1       0.039   4.005   1.303  1.00  0.00     0.262 C 
BRANCH  12  13
ATOM     13  C   UNL     1      -0.165   2.521   1.627  1.00  0.00     0.065 C 
BRANCH  13  14
ATOM     14  C   UNL     1       1.017   1.623   1.234  1.00  0.00    -0.006 CG0
ATOM     15  G   UNL     1       2.106   1.616   2.319  1.00  0.00     0.000 G0
BRANCH  14  16
ATOM     16  C   UNL     1       0.524   0.173   1.008  1.00  0.00     0.000 C 
ATOM     17  C   UNL     1       1.249  -0.492  -0.154  1.00  0.00     0.004 C 
ENDBRANCH  14  16
ENDBRANCH  13  14
ENDBRANCH  12  13
ENDBRANCH  10  12
BRANCH  10  18
ATOM     18  C   UNL     1       1.848   4.074   3.016  1.00  0.00     0.262 C 
BRANCH  18  19
ATOM     19  C   UNL     1       2.786   2.954   2.575  1.00  0.00     0.062 C 
BRANCH  19  20
ATOM     20  C   UNL     1       2.106   1.616   2.319  1.00  0.00     0.009 CG0
ATOM     21  G   UNL     1       1.017   1.623   1.234  1.00  0.00     0.000 G0
ENDBRANCH  19  20
ENDBRANCH  18  19
ENDBRANCH  10  18
ENDBRANCH   6  10
BRANCH   5  22
ATOM     22  N   UNL     1       1.082   9.336   1.687  1.00  0.00    -0.329 N 
ATOM     23  H   UNL     1       0.625  10.049   2.256  1.00  0.00     0.347 HD
ATOM     24  H   UNL     1       1.394   9.623   0.759  1.00  0.00     0.347 HD
BRANCH  22  25
ATOM     25  C   UNL     1       2.320   8.966   2.374  1.00  0.00     0.183 C 
ATOM     26  C   UNL     1       3.542   8.685   1.542  1.00  0.00     0.071 C 
ATOM     27  C   UNL     1       3.485   9.916   2.393  1.00  0.00     0.071 C 
ENDBRANCH  22  25
ENDBRANCH   5  22
ENDBRANCH   3   5
ENDBRANCH   2   3
ENDBRANCH   1   2
BRANCH   1  28
ATOM     28  C   UNL     1      -3.369  11.197   0.246  1.00  0.00     0.275 C 
BRANCH  28  29
ATOM     29  O   UNL     1      -2.174  11.981   0.116  1.00  0.00    -0.458 OA
BRANCH  29  30
ATOM     30  C   UNL     1      -1.596  12.361   1.280  1.00  0.00     0.338 C 
ATOM     31  O   UNL     1      -2.032  12.217   2.408  1.00  0.00    -0.246 OA
BRANCH  30  32
ATOM     32  C   UNL     1      -0.279  12.950   0.992  1.00  0.00     0.060 A 
ATOM     33  C   UNL     1       0.684  12.172   0.358  1.00  0.00     0.016 A 
ATOM     34  C   UNL     1       0.043  14.220   1.465  1.00  0.00     0.016 A 
ATOM     35  C   UNL     1       1.997  12.621   0.286  1.00  0.00     0.010 A 
ATOM     36  C   UNL     1       1.339  14.716   1.275  1.00  0.00     0.010 A 
ATOM     37  C   UNL     1       2.344  13.912   0.707  1.00  0.00    -0.014 A 
BRANCH  37  38
ATOM     38  C   UNL     1       3.743  14.412   0.552  1.00  0.00     0.031 A 
ATOM     39  C   UNL     1       4.486  14.984   1.732  1.00  0.00     0.074 A 
ATOM     40  C   UNL     1       4.356  14.357  -0.650  1.00  0.00     0.049 A 
ATOM     41  N   UNL     1       5.579  15.705   1.754  1.00  0.00    -0.248 NA
ATOM     42  C   UNL     1       3.915  14.725   3.062  1.00  0.00     0.031 C 
ATOM     43  C   UNL     1       3.790  13.771  -1.868  1.00  0.00     0.029 A 
ATOM     44  N   UNL     1       5.595  14.798  -1.049  1.00  0.00    -0.354 N 
ATOM     45  C   UNL     1       5.789  16.043   3.088  1.00  0.00     0.074 A 
ATOM     46  C   UNL     1       4.710  15.442   3.845  1.00  0.00     0.031 C 
ATOM     47  C   UNL     1       4.691  13.840  -2.856  1.00  0.00     0.029 A 
ATOM     48  C   UNL     1       5.842  14.598  -2.389  1.00  0.00     0.049 A 
ATOM     49  H   UNL     1       6.242  15.216  -0.437  1.00  0.00     0.167 HD
ATOM     50  C   UNL     1       6.786  16.794   3.621  1.00  0.00     0.034 A 
ATOM     51  C   UNL     1       6.836  15.041  -3.182  1.00  0.00     0.034 A 
ATOM     52  C   UNL     1       7.881  17.336   2.851  1.00  0.00     0.049 A 
ATOM     53  C   UNL     1       7.885  15.937  -2.588  1.00  0.00     0.074 A 
ATOM     54  C   UNL     1       8.961  18.085   3.290  1.00  0.00     0.029 A 
ATOM     55  N   UNL     1       8.042  17.180   1.480  1.00  0.00    -0.354 N 
ATOM     56  N   UNL     1       8.016  16.340  -1.346  1.00  0.00    -0.248 NA
ATOM     57  C   UNL     1       8.894  16.471  -3.510  1.00  0.00     0.031 C 
ATOM     58  C   UNL     1       9.740  18.429   2.178  1.00  0.00     0.029 A 
ATOM     59  C   UNL     1       9.181  17.846   1.053  1.00  0.00     0.049 A 
ATOM     60  H   UNL     1       7.435  16.671   0.896  1.00  0.00     0.167 HD
ATOM     61  C   UNL     1       9.116  17.189  -1.341  1.00  0.00     0.074 A 
ATOM     62  C   UNL     1       9.630  17.213  -2.696  1.00  0.00     0.031 C 
ATOM     63  C   UNL     1       9.649  17.893  -0.311  1.00  0.00     0.034 A 
BRANCH  50  64
ATOM     64  C   UNL     1       6.698  17.134   5.090  1.00  0.00     0.023 A 
ATOM     65  C   UNL     1       6.819  16.163   6.098  1.00  0.00     0.031 A 
ATOM     66  C   UNL     1       6.468  18.466   5.484  1.00  0.00     0.131 A 
ATOM     67  C   UNL     1       6.650  16.527   7.445  1.00  0.00     0.055 A 
ATOM     68  C   UNL     1       6.370  18.833   6.828  1.00  0.00     0.041 A 
ATOM     69  F   UNL     1       6.324  19.434   4.566  1.00  0.00    -0.206 F 
ATOM     70  C   UNL     1       6.448  17.859   7.817  1.00  0.00     0.022 A 
BRANCH  67  71
ATOM     71  S   UNL     1       6.574  15.218   8.699  1.00  0.00     0.124 S 
ATOM     72  O   UNL     1       5.455  14.411   8.218  1.00  0.00    -0.237 OA
ATOM     73  O   UNL     1       7.894  14.606   8.597  1.00  0.00    -0.237 OA
ATOM     74  O   UNL     1       6.319  15.946   9.941  1.00  0.00    -0.744 OA
ENDBRANCH  67  71
ENDBRANCH  50  64
BRANCH  51  75
ATOM     75  C   UNL     1       6.810  14.750  -4.644  1.00  0.00     0.023 A 
ATOM     76  C   UNL     1       7.799  13.960  -5.247  1.00  0.00     0.031 A 
ATOM     77  C   UNL     1       5.788  15.270  -5.462  1.00  0.00     0.131 A 
ATOM     78  C   UNL     1       7.752  13.722  -6.630  1.00  0.00     0.055 A 
ATOM     79  C   UNL     1       5.717  14.987  -6.825  1.00  0.00     0.041 A 
ATOM     80  F   UNL     1       4.821  16.038  -4.934  1.00  0.00    -0.206 F 
ATOM     81  C   UNL     1       6.708  14.214  -7.419  1.00  0.00     0.022 A 
BRANCH  78  82
ATOM     82  S   UNL     1       9.113  12.805  -7.404  1.00  0.00     0.124 S 
ATOM     83  O   UNL     1      10.261  13.640  -7.071  1.00  0.00    -0.237 OA
ATOM     84  O   UNL     1       9.037  11.517  -6.723  1.00  0.00    -0.237 OA
ATOM     85  O   UNL     1       8.747  12.782  -8.818  1.00  0.00    -0.744 OA
ENDBRANCH  78  82
ENDBRANCH  51  75
BRANCH  63  86
ATOM     86  C   UNL     1      10.849  18.741  -0.634  1.00  0.00     0.023 A 
ATOM     87  C   UNL     1      10.725  19.916  -1.396  1.00  0.00     0.031 A 
ATOM     88  C   UNL     1      12.131  18.353  -0.209  1.00  0.00     0.131 A 
ATOM     89  C   UNL     1      11.872  20.639  -1.753  1.00  0.00     0.055 A 
ATOM     90  C   UNL     1      13.264  19.102  -0.527  1.00  0.00     0.041 A 
ATOM     91  F   UNL     1      12.301  17.236   0.516  1.00  0.00    -0.206 F 
ATOM     92  C   UNL     1      13.139  20.246  -1.312  1.00  0.00     0.022 A 
BRANCH  89  93
ATOM     93  S   UNL     1      11.696  22.064  -2.860  1.00  0.00     0.124 S 
ATOM     94  O   UNL     1      11.185  21.440  -4.077  1.00  0.00    -0.237 OA
ATOM     95  O   UNL     1      10.755  22.912  -2.135  1.00  0.00    -0.237 OA
ATOM     96  O   UNL     1      13.055  22.592  -2.958  1.00  0.00    -0.744 OA
ENDBRANCH  89  93
ENDBRANCH  63  86
ENDBRANCH  37  38
ENDBRANCH  30  32
ENDBRANCH  29  30
ENDBRANCH  28  29
ENDBRANCH   1  28
TORSDOF 18
