REMARK SMILES Cn1ncc(C(=O)OCCOC(=O)c2ccc(-c3c4nc(c(-c5cc(S(=O)(=O)[O-])ccc5F)c5ccc([nH]5)c(-c5cc(S(=O)(=O)[O-])ccc5F)c5nc(c(-c6cc(S(=O)(=O)[O-])ccc6F)c6ccc3[nH]6)C=C5)C=C4)cc2)c1C(=O)Nc1ccccn1
REMARK SMILES IDX 10 1 9 2 8 3 6 4 7 5 5 6 1 7 2 8 3 9 77 10 4 11 78 12 79 13
REMARK SMILES IDX 80 14 81 16 82 17 86 18 83 19 85 20 84 21 11 22 12 23 13 24
REMARK SMILES IDX 14 25 15 26 76 27 16 28 75 29 17 30 18 31 19 32 69 33 20 34
REMARK SMILES IDX 74 35 68 36 70 37 21 38 73 39 67 40 66 41 22 43 54 44 34 45
REMARK SMILES IDX 53 46 35 47 38 48 52 49 71 50 36 51 37 52 51 54 72 55 39 56
REMARK SMILES IDX 23 57 24 58 32 59 25 60 31 61 33 62 30 63 26 64 27 65 28 66
REMARK SMILES IDX 29 67 55 68 56 69 64 70 57 71 63 72 65 73 62 74 58 75 59 76
REMARK SMILES IDX 60 77 61 78 40 79 41 80 49 81 42 82 48 83 50 84 47 85 43 86
REMARK SMILES IDX 44 87 45 88 46 89
REMARK H PARENT 80 15 70 42 38 53
REMARK Flexibility Score: inf
ROOT
ATOM      1  C   UNL     1       4.576  -3.224  -1.377  1.00  0.00     0.275 C 
ENDROOT
BRANCH   1   2
ATOM      2  C   UNL     1       3.643  -3.500  -0.198  1.00  0.00     0.275 C 
BRANCH   2   3
ATOM      3  O   UNL     1       2.434  -2.722  -0.305  1.00  0.00    -0.458 OA
BRANCH   3   4
ATOM      4  C   UNL     1       2.325  -1.679   0.563  1.00  0.00     0.342 C 
ATOM      5  O   UNL     1       3.184  -1.378   1.388  1.00  0.00    -0.246 OA
BRANCH   4   6
ATOM      6  C   UNL     1       1.145  -0.853   0.379  1.00  0.00     0.111 A 
ATOM      7  C   UNL     1      -2.030   0.316   1.298  1.00  0.00     0.174 C 
ATOM      8  N   UNL     1      -0.852  -0.004   0.523  1.00  0.00    -0.262 N 
ATOM      9  N   UNL     1      -0.081   1.055   0.240  1.00  0.00    -0.180 NA
ATOM     10  C   UNL     1      -0.210  -1.218   0.330  1.00  0.00     0.140 A 
ATOM     11  C   UNL     1       1.141   0.556   0.347  1.00  0.00     0.151 A 
BRANCH  10  12
ATOM     12  C   UNL     1      -0.737  -2.570   0.359  1.00  0.00     0.275 C 
ATOM     13  O   UNL     1      -0.019  -3.529   0.663  1.00  0.00    -0.267 OA
ATOM     14  N   UNL     1      -2.058  -2.883   0.167  1.00  0.00    -0.305 N 
ATOM     15  H   UNL     1      -2.264  -3.834   0.316  1.00  0.00     0.171 HD
BRANCH  14  16
ATOM     16  C   UNL     1      -3.158  -2.128  -0.196  1.00  0.00     0.132 A 
ATOM     17  C   UNL     1      -3.157  -1.224  -1.247  1.00  0.00     0.047 A 
ATOM     18  N   UNL     1      -4.208  -2.294   0.635  1.00  0.00    -0.239 NA
ATOM     19  C   UNL     1      -4.260  -0.380  -1.385  1.00  0.00     0.005 A 
ATOM     20  C   UNL     1      -5.237  -1.430   0.514  1.00  0.00     0.113 A 
ATOM     21  C   UNL     1      -5.302  -0.455  -0.464  1.00  0.00     0.020 A 
ENDBRANCH  14  16
ENDBRANCH  10  12
ENDBRANCH   4   6
ENDBRANCH   3   4
ENDBRANCH   2   3
ENDBRANCH   1   2
BRANCH   1  22
ATOM     22  O   UNL     1       5.058  -1.868  -1.335  1.00  0.00    -0.458 OA
BRANCH  22  23
ATOM     23  C   UNL     1       4.446  -1.022  -2.197  1.00  0.00     0.338 C 
ATOM     24  O   UNL     1       3.587  -1.295  -3.014  1.00  0.00    -0.246 OA
BRANCH  23  25
ATOM     25  C   UNL     1       4.891   0.358  -1.950  1.00  0.00     0.060 A 
ATOM     26  C   UNL     1       4.339   1.031  -0.869  1.00  0.00     0.016 A 
ATOM     27  C   UNL     1       5.675   1.046  -2.869  1.00  0.00     0.016 A 
ATOM     28  C   UNL     1       4.427   2.417  -0.783  1.00  0.00     0.010 A 
ATOM     29  C   UNL     1       5.891   2.421  -2.692  1.00  0.00     0.010 A 
ATOM     30  C   UNL     1       5.229   3.138  -1.674  1.00  0.00    -0.014 A 
BRANCH  30  31
ATOM     31  C   UNL     1       5.350   4.624  -1.551  1.00  0.00     0.031 A 
ATOM     32  C   UNL     1       5.061   5.514  -2.737  1.00  0.00     0.074 A 
ATOM     33  C   UNL     1       5.702   5.190  -0.376  1.00  0.00     0.049 A 
ATOM     34  N   UNL     1       5.302   6.791  -2.897  1.00  0.00    -0.248 NA
ATOM     35  C   UNL     1       4.436   4.875  -3.906  1.00  0.00     0.031 C 
ATOM     36  C   UNL     1       5.950   4.468   0.875  1.00  0.00     0.029 A 
ATOM     37  N   UNL     1       5.909   6.506  -0.033  1.00  0.00    -0.354 N 
ATOM     38  C   UNL     1       4.912   7.096  -4.199  1.00  0.00     0.074 A 
ATOM     39  C   UNL     1       4.439   5.862  -4.790  1.00  0.00     0.031 C 
ATOM     40  C   UNL     1       6.226   5.346   1.849  1.00  0.00     0.029 A 
ATOM     41  C   UNL     1       6.303   6.681   1.275  1.00  0.00     0.049 A 
ATOM     42  H   UNL     1       5.787   7.252  -0.664  1.00  0.00     0.167 HD
ATOM     43  C   UNL     1       4.946   8.294  -4.837  1.00  0.00     0.034 A 
ATOM     44  C   UNL     1       6.741   7.774   1.932  1.00  0.00     0.034 A 
ATOM     45  C   UNL     1       5.381   9.524  -4.215  1.00  0.00     0.049 A 
ATOM     46  C   UNL     1       6.849   9.075   1.180  1.00  0.00     0.074 A 
ATOM     47  C   UNL     1       5.440  10.793  -4.764  1.00  0.00     0.029 A 
ATOM     48  N   UNL     1       5.827   9.642  -2.904  1.00  0.00    -0.354 N 
ATOM     49  N   UNL     1       6.537   9.335  -0.069  1.00  0.00    -0.248 NA
ATOM     50  C   UNL     1       7.380  10.225   1.922  1.00  0.00     0.031 C 
ATOM     51  C   UNL     1       5.991  11.660  -3.815  1.00  0.00     0.029 A 
ATOM     52  C   UNL     1       6.195  10.953  -2.641  1.00  0.00     0.049 A 
ATOM     53  H   UNL     1       5.875   8.902  -2.256  1.00  0.00     0.167 HD
ATOM     54  C   UNL     1       6.814  10.686  -0.253  1.00  0.00     0.074 A 
ATOM     55  C   UNL     1       7.294  11.189   1.018  1.00  0.00     0.031 C 
ATOM     56  C   UNL     1       6.684  11.442  -1.373  1.00  0.00     0.034 A 
BRANCH  43  57
ATOM     57  C   UNL     1       4.562   8.322  -6.300  1.00  0.00     0.023 A 
ATOM     58  C   UNL     1       3.267   8.003  -6.745  1.00  0.00     0.031 A 
ATOM     59  C   UNL     1       5.523   8.662  -7.271  1.00  0.00     0.131 A 
ATOM     60  C   UNL     1       2.990   7.961  -8.121  1.00  0.00     0.055 A 
ATOM     61  C   UNL     1       5.218   8.700  -8.633  1.00  0.00     0.041 A 
ATOM     62  F   UNL     1       6.783   8.956  -6.913  1.00  0.00    -0.206 F 
ATOM     63  C   UNL     1       3.948   8.333  -9.067  1.00  0.00     0.022 A 
BRANCH  60  64
ATOM     64  S   UNL     1       1.402   7.274  -8.668  1.00  0.00     0.124 S 
ATOM     65  O   UNL     1       1.446   5.932  -8.091  1.00  0.00    -0.237 OA
ATOM     66  O   UNL     1       0.438   8.193  -8.074  1.00  0.00    -0.237 OA
ATOM     67  O   UNL     1       1.491   7.319 -10.126  1.00  0.00    -0.744 OA
ENDBRANCH  60  64
ENDBRANCH  43  57
BRANCH  44  68
ATOM     68  C   UNL     1       7.193   7.675   3.353  1.00  0.00     0.023 A 
ATOM     69  C   UNL     1       6.569   8.417   4.367  1.00  0.00     0.031 A 
ATOM     70  C   UNL     1       8.293   6.872   3.710  1.00  0.00     0.131 A 
ATOM     71  C   UNL     1       7.074   8.376   5.676  1.00  0.00     0.055 A 
ATOM     72  C   UNL     1       8.748   6.780   5.026  1.00  0.00     0.041 A 
ATOM     73  F   UNL     1       8.937   6.147   2.780  1.00  0.00    -0.206 F 
ATOM     74  C   UNL     1       8.146   7.548   6.016  1.00  0.00     0.022 A 
BRANCH  71  75
ATOM     75  S   UNL     1       6.376   9.505   6.912  1.00  0.00     0.124 S 
ATOM     76  O   UNL     1       6.593  10.803   6.284  1.00  0.00    -0.237 OA
ATOM     77  O   UNL     1       4.991   9.052   6.989  1.00  0.00    -0.237 OA
ATOM     78  O   UNL     1       7.182   9.245   8.104  1.00  0.00    -0.744 OA
ENDBRANCH  71  75
ENDBRANCH  44  68
BRANCH  56  79
ATOM     79  C   UNL     1       7.023  12.908  -1.250  1.00  0.00     0.023 A 
ATOM     80  C   UNL     1       8.334  13.347  -0.994  1.00  0.00     0.031 A 
ATOM     81  C   UNL     1       6.013  13.879  -1.369  1.00  0.00     0.131 A 
ATOM     82  C   UNL     1       8.590  14.713  -0.805  1.00  0.00     0.055 A 
ATOM     83  C   UNL     1       6.285  15.242  -1.248  1.00  0.00     0.041 A 
ATOM     84  F   UNL     1       4.742  13.518  -1.607  1.00  0.00    -0.206 F 
ATOM     85  C   UNL     1       7.577  15.665  -0.951  1.00  0.00     0.022 A 
BRANCH  82  86
ATOM     86  S   UNL     1      10.244  15.224  -0.266  1.00  0.00     0.124 S 
ATOM     87  O   UNL     1      10.393  14.494   0.989  1.00  0.00    -0.237 OA
ATOM     88  O   UNL     1      11.086  14.774  -1.369  1.00  0.00    -0.237 OA
ATOM     89  O   UNL     1      10.128  16.675  -0.128  1.00  0.00    -0.744 OA
ENDBRANCH  82  86
ENDBRANCH  56  79
ENDBRANCH  30  31
ENDBRANCH  23  25
ENDBRANCH  22  23
ENDBRANCH   1  22
TORSDOF 16
