REMARK SMILES O=C(CN(CC(F)(F)F)C(=O)CC[C@H]1CCC[NH2+]C1)OCCOC(=O)c1ccc(-c2c3nc(c(-c4cc(S(=O)(=O)[O-])ccc4F)c4ccc([nH]4)c(-c4cc(S(=O)(=O)[O-])ccc4F)c4nc(c(-c5cc(S(=O)(=O)[O-])ccc5F)c5ccc2[nH]5)C=C4)C=C3)cc1
REMARK SMILES IDX 21 1 20 2 2 3 1 4 3 5 4 6 5 7 6 8 7 9 8 10 9 11 10 12 11 13
REMARK SMILES IDX 12 14 13 15 14 16 15 17 19 18 16 19 18 20 17 21 22 24 23 25
REMARK SMILES IDX 24 26 25 27 26 28 27 29 88 30 28 31 87 32 29 33 30 34 31 35
REMARK SMILES IDX 81 36 32 37 86 38 80 39 82 40 33 41 85 42 79 43 78 44 34 46
REMARK SMILES IDX 66 47 46 48 65 49 47 50 50 51 64 52 83 53 48 54 49 55 63 57
REMARK SMILES IDX 84 58 51 59 35 60 36 61 44 62 37 63 43 64 45 65 42 66 38 67
REMARK SMILES IDX 39 68 40 69 41 70 67 71 68 72 76 73 69 74 75 75 77 76 74 77
REMARK SMILES IDX 70 78 71 79 72 80 73 81 52 82 53 83 61 84 54 85 60 86 62 87
REMARK SMILES IDX 59 88 55 89 56 90 57 91 58 92
REMARK H PARENT 18 22 18 23 82 45 50 56
REMARK Flexibility Score: inf
ROOT
ATOM      1  C   UNL     1       4.797   2.502   1.368  1.00  0.00     0.274 C 
ENDROOT
BRANCH   1   2
ATOM      2  O   UNL     1       5.833   3.450   1.674  1.00  0.00    -0.461 OA
BRANCH   2   3
ATOM      3  C   UNL     1       6.664   3.969   0.731  1.00  0.00     0.325 C 
ATOM      4  O   UNL     1       7.848   4.131   1.011  1.00  0.00    -0.250 OA
BRANCH   3   5
ATOM      5  C   UNL     1       6.044   4.396  -0.619  1.00  0.00     0.242 C 
BRANCH   5   6
ATOM      6  N   UNL     1       6.149   3.482  -1.768  1.00  0.00    -0.322 N 
BRANCH   6   7
ATOM      7  C   UNL     1       4.891   3.186  -2.502  1.00  0.00     0.235 C 
BRANCH   7   8
ATOM      8  C   UNL     1       4.605   3.942  -3.807  1.00  0.00     0.406 C 
ATOM      9  F   UNL     1       5.607   3.831  -4.700  1.00  0.00    -0.169 F 
ATOM     10  F   UNL     1       3.494   3.425  -4.388  1.00  0.00    -0.169 F 
ATOM     11  F   UNL     1       4.381   5.249  -3.579  1.00  0.00    -0.169 F 
ENDBRANCH   7   8
ENDBRANCH   6   7
BRANCH   6  12
ATOM     12  C   UNL     1       7.428   3.183  -2.220  1.00  0.00     0.223 C 
ATOM     13  O   UNL     1       8.423   3.700  -1.711  1.00  0.00    -0.275 OA
BRANCH  12  14
ATOM     14  C   UNL     1       7.638   2.139  -3.307  1.00  0.00     0.101 C 
BRANCH  14  15
ATOM     15  C   UNL     1       7.830   0.701  -2.789  1.00  0.00     0.019 C 
BRANCH  15  16
ATOM     16  C   UNL     1       6.493   0.020  -2.460  1.00  0.00     0.045 C 
ATOM     17  C   UNL     1       6.433  -1.474  -2.785  1.00  0.00     0.015 C 
ATOM     18  C   UNL     1       6.114   0.194  -0.984  1.00  0.00     0.264 C 
ATOM     19  C   UNL     1       5.006  -1.970  -2.513  1.00  0.00     0.062 C 
ATOM     20  N   UNL     1       4.718  -0.199  -0.781  1.00  0.00    -0.346 N 
ATOM     21  C   UNL     1       4.526  -1.614  -1.105  1.00  0.00     0.260 C 
ATOM     22  H   UNL     1       4.464  -0.040   0.194  1.00  0.00     0.346 HD
ATOM     23  H   UNL     1       4.127   0.361  -1.395  1.00  0.00     0.346 HD
ENDBRANCH  15  16
ENDBRANCH  14  15
ENDBRANCH  12  14
ENDBRANCH   6  12
ENDBRANCH   5   6
ENDBRANCH   3   5
ENDBRANCH   2   3
ENDBRANCH   1   2
BRANCH   1  24
ATOM     24  C   UNL     1       3.480   2.887   2.034  1.00  0.00     0.275 C 
BRANCH  24  25
ATOM     25  O   UNL     1       2.944   4.019   1.337  1.00  0.00    -0.458 OA
BRANCH  25  26
ATOM     26  C   UNL     1       3.346   5.222   1.827  1.00  0.00     0.338 C 
ATOM     27  O   UNL     1       3.876   5.430   2.895  1.00  0.00    -0.246 OA
BRANCH  26  28
ATOM     28  C   UNL     1       3.280   6.201   0.718  1.00  0.00     0.060 A 
ATOM     29  C   UNL     1       4.299   7.160   0.638  1.00  0.00     0.016 A 
ATOM     30  C   UNL     1       2.296   6.126  -0.274  1.00  0.00     0.016 A 
ATOM     31  C   UNL     1       4.306   8.083  -0.405  1.00  0.00     0.010 A 
ATOM     32  C   UNL     1       2.298   7.055  -1.313  1.00  0.00     0.010 A 
ATOM     33  C   UNL     1       3.276   8.064  -1.354  1.00  0.00    -0.014 A 
BRANCH  33  34
ATOM     34  C   UNL     1       3.035   9.256  -2.198  1.00  0.00     0.031 A 
ATOM     35  C   UNL     1       2.060  10.275  -1.677  1.00  0.00     0.074 A 
ATOM     36  C   UNL     1       3.636   9.424  -3.386  1.00  0.00     0.049 A 
ATOM     37  N   UNL     1       1.589  11.351  -2.248  1.00  0.00    -0.248 NA
ATOM     38  C   UNL     1       1.532  10.027  -0.325  1.00  0.00     0.031 C 
ATOM     39  C   UNL     1       4.627   8.524  -3.969  1.00  0.00     0.029 A 
ATOM     40  N   UNL     1       3.481  10.412  -4.325  1.00  0.00    -0.354 N 
ATOM     41  C   UNL     1       0.706  11.906  -1.328  1.00  0.00     0.074 A 
ATOM     42  C   UNL     1       0.671  11.020  -0.186  1.00  0.00     0.031 C 
ATOM     43  C   UNL     1       4.974   8.989  -5.183  1.00  0.00     0.029 A 
ATOM     44  C   UNL     1       4.205  10.198  -5.474  1.00  0.00     0.049 A 
ATOM     45  H   UNL     1       2.905  11.199  -4.190  1.00  0.00     0.167 HD
ATOM     46  C   UNL     1      -0.005  13.055  -1.425  1.00  0.00     0.034 A 
ATOM     47  C   UNL     1       4.216  10.885  -6.634  1.00  0.00     0.034 A 
ATOM     48  C   UNL     1       0.019  13.904  -2.587  1.00  0.00     0.049 A 
ATOM     49  C   UNL     1       3.345  12.114  -6.765  1.00  0.00     0.074 A 
ATOM     50  C   UNL     1      -0.657  15.090  -2.805  1.00  0.00     0.029 A 
ATOM     51  N   UNL     1       0.748  13.643  -3.743  1.00  0.00    -0.354 N 
ATOM     52  N   UNL     1       2.519  12.641  -5.888  1.00  0.00    -0.248 NA
ATOM     53  C   UNL     1       3.413  12.845  -8.037  1.00  0.00     0.031 C 
ATOM     54  C   UNL     1      -0.399  15.505  -4.116  1.00  0.00     0.029 A 
ATOM     55  C   UNL     1       0.509  14.627  -4.688  1.00  0.00     0.049 A 
ATOM     56  H   UNL     1       1.346  12.872  -3.870  1.00  0.00     0.167 HD
ATOM     57  C   UNL     1       2.001  13.785  -6.491  1.00  0.00     0.074 A 
ATOM     58  C   UNL     1       2.603  13.869  -7.806  1.00  0.00     0.031 C 
ATOM     59  C   UNL     1       1.119  14.693  -5.997  1.00  0.00     0.034 A 
BRANCH  46  60
ATOM     60  C   UNL     1      -0.911  13.395  -0.266  1.00  0.00     0.023 A 
ATOM     61  C   UNL     1      -0.405  13.614   1.028  1.00  0.00     0.031 A 
ATOM     62  C   UNL     1      -2.306  13.412  -0.438  1.00  0.00     0.131 A 
ATOM     63  C   UNL     1      -1.286  13.736   2.112  1.00  0.00     0.055 A 
ATOM     64  C   UNL     1      -3.176  13.632   0.631  1.00  0.00     0.041 A 
ATOM     65  F   UNL     1      -2.850  13.180  -1.643  1.00  0.00    -0.206 F 
ATOM     66  C   UNL     1      -2.668  13.774   1.920  1.00  0.00     0.022 A 
BRANCH  63  67
ATOM     67  S   UNL     1      -0.606  13.647   3.793  1.00  0.00     0.124 S 
ATOM     68  O   UNL     1       0.083  12.359   3.763  1.00  0.00    -0.237 OA
ATOM     69  O   UNL     1       0.247  14.828   3.851  1.00  0.00    -0.237 OA
ATOM     70  O   UNL     1      -1.793  13.689   4.645  1.00  0.00    -0.744 OA
ENDBRANCH  63  67
ENDBRANCH  46  60
BRANCH  47  71
ATOM     71  C   UNL     1       5.042  10.408  -7.780  1.00  0.00     0.023 A 
ATOM     72  C   UNL     1       6.125  11.159  -8.263  1.00  0.00     0.031 A 
ATOM     73  C   UNL     1       4.735   9.198  -8.430  1.00  0.00     0.131 A 
ATOM     74  C   UNL     1       6.841  10.710  -9.385  1.00  0.00     0.055 A 
ATOM     75  C   UNL     1       5.480   8.733  -9.514  1.00  0.00     0.041 A 
ATOM     76  F   UNL     1       3.708   8.443  -8.009  1.00  0.00    -0.206 F 
ATOM     77  C   UNL     1       6.535   9.496 -10.004  1.00  0.00     0.022 A 
BRANCH  74  78
ATOM     78  S   UNL     1       8.145  11.771 -10.068  1.00  0.00     0.124 S 
ATOM     79  O   UNL     1       7.393  12.964 -10.437  1.00  0.00    -0.237 OA
ATOM     80  O   UNL     1       9.052  11.908  -8.934  1.00  0.00    -0.237 OA
ATOM     81  O   UNL     1       8.666  10.990 -11.189  1.00  0.00    -0.744 OA
ENDBRANCH  74  78
ENDBRANCH  47  71
BRANCH  59  82
ATOM     82  C   UNL     1       0.802  15.896  -6.852  1.00  0.00     0.023 A 
ATOM     83  C   UNL     1       0.062  15.796  -8.043  1.00  0.00     0.031 A 
ATOM     84  C   UNL     1       1.222  17.174  -6.438  1.00  0.00     0.131 A 
ATOM     85  C   UNL     1      -0.205  16.950  -8.796  1.00  0.00     0.055 A 
ATOM     86  C   UNL     1       0.906  18.323  -7.162  1.00  0.00     0.041 A 
ATOM     87  F   UNL     1       1.932  17.326  -5.308  1.00  0.00    -0.206 F 
ATOM     88  C   UNL     1       0.196  18.214  -8.353  1.00  0.00     0.022 A 
BRANCH  85  89
ATOM     89  S   UNL     1      -1.035  16.777 -10.400  1.00  0.00     0.124 S 
ATOM     90  O   UNL     1      -0.110  15.915 -11.129  1.00  0.00    -0.237 OA
ATOM     91  O   UNL     1      -2.311  16.174 -10.029  1.00  0.00    -0.237 OA
ATOM     92  O   UNL     1      -1.121  18.151 -10.892  1.00  0.00    -0.744 OA
ENDBRANCH  85  89
ENDBRANCH  59  82
ENDBRANCH  33  34
ENDBRANCH  26  28
ENDBRANCH  25  26
ENDBRANCH  24  25
ENDBRANCH   1  24
TORSDOF 21
