REMARK SMILES COC(=O)c1ccc2c(c1)=N[C@H](c1cn(CCC(=O)OCCOC(=O)c3ccc(-c4c5nc(c(-c6cc(S(=O)(=O)[O-])ccc6F)c6ccc([nH]6)c(-c6cc(S(=O)(=O)[O-])ccc6F)c6nc(c(-c7cc(S(=O)(=O)[O-])ccc7F)c7ccc4[nH]7)C=C6)C=C5)cc3)c3ccccc13)N=2
REMARK SMILES IDX 21 1 20 2 18 3 19 4 17 5 16 6 15 7 13 8 14 9 94 10 89 11
REMARK SMILES IDX 93 12 90 13 92 14 91 15 12 16 5 17 6 18 10 19 7 20 9 21 8 22
REMARK SMILES IDX 11 23 95 24 3 25 4 26 2 27 1 28 22 29 23 30 24 31 25 32
REMARK SMILES IDX 26 33 27 34 88 35 28 36 87 37 29 38 30 39 31 40 81 41 32 42
REMARK SMILES IDX 86 43 80 44 82 45 33 46 85 47 79 48 78 49 34 51 66 52 46 53
REMARK SMILES IDX 65 54 47 55 50 56 64 57 83 58 48 59 49 60 63 62 84 63 51 64
REMARK SMILES IDX 35 65 36 66 44 67 37 68 43 69 45 70 42 71 38 72 39 73 40 74
REMARK SMILES IDX 41 75 67 76 68 77 76 78 69 79 75 80 77 81 74 82 70 83 71 84
REMARK SMILES IDX 72 85 73 86 52 87 53 88 61 89 54 90 60 91 62 92 59 93 55 94
REMARK SMILES IDX 56 95 57 96 58 97
REMARK H PARENT 82 50 50 61
REMARK Flexibility Score: inf
ROOT
ATOM      1  C   UNL     1      -3.966 -12.129   1.927  1.00  0.00     0.274 C 
ENDROOT
BRANCH   1   2
ATOM      2  O   UNL     1      -2.651 -11.848   2.442  1.00  0.00    -0.462 OA
BRANCH   2   3
ATOM      3  C   UNL     1      -2.170 -12.630   3.433  1.00  0.00     0.307 C 
ATOM      4  O   UNL     1      -2.799 -13.534   3.968  1.00  0.00    -0.252 OA
BRANCH   3   5
ATOM      5  C   UNL     1      -0.771 -12.239   3.857  1.00  0.00     0.144 C 
BRANCH   5   6
ATOM      6  C   UNL     1       0.056 -11.475   2.816  1.00  0.00     0.134 C 
BRANCH   6   7
ATOM      7  N   UNL     1      -0.123 -10.041   2.966  1.00  0.00    -0.346 N 
ATOM      8  C   UNL     1      -0.589  -8.283   4.206  1.00  0.00     0.024 A 
ATOM      9  C   UNL     1       0.319  -9.320   4.044  1.00  0.00     0.094 A 
ATOM     10  C   UNL     1      -1.668  -8.568   3.309  1.00  0.00     0.007 A 
ATOM     11  C   UNL     1      -1.043  -9.277   2.291  1.00  0.00     0.048 A 
ATOM     12  C   UNL     1      -2.946  -8.040   3.079  1.00  0.00     0.011 A 
ATOM     13  C   UNL     1      -1.409  -9.128   0.953  1.00  0.00     0.027 A 
ATOM     14  C   UNL     1      -3.370  -7.924   1.755  1.00  0.00     0.001 A 
ATOM     15  C   UNL     1      -2.554  -8.358   0.709  1.00  0.00     0.002 A 
BRANCH   8  16
ATOM     16  C   UNL     1      -0.324  -6.976   4.899  1.00  0.00     0.255 C 
ATOM     17  C   UNL     1       0.280  -3.513   2.047  1.00  0.00     0.062 A 
ATOM     18  C   UNL     1      -1.110  -3.281   2.435  1.00  0.00     0.018 A 
ATOM     19  C   UNL     1       0.992  -4.547   2.529  1.00  0.00     0.046 A 
ATOM     20  C   UNL     1      -1.784  -4.072   3.283  1.00  0.00     0.031 A 
ATOM     21  C   UNL     1       0.346  -5.427   3.511  1.00  0.00     0.087 A 
ATOM     22  C   UNL     1      -1.067  -5.205   3.875  1.00  0.00     0.086 A 
ATOM     23  N   UNL     1       0.865  -6.382   4.198  1.00  0.00    -0.252 NA
ATOM     24  N   UNL     1      -1.483  -6.042   4.761  1.00  0.00    -0.252 NA
BRANCH  17  25
ATOM     25  C   UNL     1       0.985  -2.608   1.085  1.00  0.00     0.337 C 
ATOM     26  O   UNL     1       1.950  -2.930   0.409  1.00  0.00    -0.246 OA
BRANCH  25  27
ATOM     27  O   UNL     1       0.413  -1.375   1.105  1.00  0.00    -0.465 OA
ATOM     28  C   UNL     1       1.019  -0.423   0.228  1.00  0.00     0.282 C 
ENDBRANCH  25  27
ENDBRANCH  17  25
ENDBRANCH   8  16
ENDBRANCH   6   7
ENDBRANCH   5   6
ENDBRANCH   3   5
ENDBRANCH   2   3
ENDBRANCH   1   2
BRANCH   1  29
ATOM     29  C   UNL     1      -3.869 -12.222   0.401  1.00  0.00     0.275 C 
BRANCH  29  30
ATOM     30  O   UNL     1      -3.336 -13.510   0.048  1.00  0.00    -0.458 OA
BRANCH  30  31
ATOM     31  C   UNL     1      -1.993 -13.560  -0.130  1.00  0.00     0.338 C 
ATOM     32  O   UNL     1      -1.300 -12.704  -0.662  1.00  0.00    -0.246 OA
BRANCH  31  33
ATOM     33  C   UNL     1      -1.469 -14.648   0.731  1.00  0.00     0.060 A 
ATOM     34  C   UNL     1      -2.311 -15.662   1.199  1.00  0.00     0.016 A 
ATOM     35  C   UNL     1      -0.190 -14.482   1.278  1.00  0.00     0.016 A 
ATOM     36  C   UNL     1      -1.939 -16.384   2.324  1.00  0.00     0.010 A 
ATOM     37  C   UNL     1       0.171 -15.193   2.417  1.00  0.00     0.010 A 
ATOM     38  C   UNL     1      -0.733 -16.094   2.980  1.00  0.00    -0.014 A 
BRANCH  38  39
ATOM     39  C   UNL     1      -0.343 -16.962   4.088  1.00  0.00     0.031 A 
ATOM     40  C   UNL     1       0.172 -18.255   3.588  1.00  0.00     0.074 A 
ATOM     41  C   UNL     1      -0.342 -16.696   5.410  1.00  0.00     0.049 A 
ATOM     42  N   UNL     1      -0.478 -19.368   3.518  1.00  0.00    -0.248 NA
ATOM     43  C   UNL     1       1.464 -18.258   2.890  1.00  0.00     0.031 C 
ATOM     44  C   UNL     1      -0.513 -15.409   6.082  1.00  0.00     0.029 A 
ATOM     45  N   UNL     1      -0.107 -17.551   6.454  1.00  0.00    -0.354 N 
ATOM     46  C   UNL     1       0.422 -20.278   2.980  1.00  0.00     0.074 A 
ATOM     47  C   UNL     1       1.484 -19.497   2.399  1.00  0.00     0.031 C 
ATOM     48  C   UNL     1      -0.140 -15.521   7.381  1.00  0.00     0.029 A 
ATOM     49  C   UNL     1       0.105 -16.924   7.674  1.00  0.00     0.049 A 
ATOM     50  H   UNL     1      -0.090 -18.530   6.348  1.00  0.00     0.167 HD
ATOM     51  C   UNL     1       0.372 -21.595   3.323  1.00  0.00     0.034 A 
ATOM     52  C   UNL     1       0.442 -17.510   8.849  1.00  0.00     0.034 A 
ATOM     53  C   UNL     1      -0.829 -21.896   4.054  1.00  0.00     0.049 A 
ATOM     54  C   UNL     1       0.035 -18.930   8.806  1.00  0.00     0.074 A 
ATOM     55  C   UNL     1      -2.140 -22.192   3.764  1.00  0.00     0.029 A 
ATOM     56  N   UNL     1      -0.768 -21.551   5.378  1.00  0.00    -0.354 N 
ATOM     57  N   UNL     1      -1.206 -19.326   8.806  1.00  0.00    -0.248 NA
ATOM     58  C   UNL     1       1.022 -19.948   8.457  1.00  0.00     0.031 C 
ATOM     59  C   UNL     1      -2.889 -21.904   4.943  1.00  0.00     0.029 A 
ATOM     60  C   UNL     1      -2.016 -21.465   5.936  1.00  0.00     0.049 A 
ATOM     61  H   UNL     1       0.069 -21.386   5.869  1.00  0.00     0.167 HD
ATOM     62  C   UNL     1      -1.185 -20.467   8.034  1.00  0.00     0.074 A 
ATOM     63  C   UNL     1       0.203 -20.906   8.017  1.00  0.00     0.031 C 
ATOM     64  C   UNL     1      -2.211 -20.768   7.192  1.00  0.00     0.034 A 
BRANCH  51  65
ATOM     65  C   UNL     1       1.586 -22.491   3.413  1.00  0.00     0.023 A 
ATOM     66  C   UNL     1       2.904 -22.001   3.390  1.00  0.00     0.031 A 
ATOM     67  C   UNL     1       1.445 -23.849   3.762  1.00  0.00     0.131 A 
ATOM     68  C   UNL     1       4.005 -22.821   3.659  1.00  0.00     0.055 A 
ATOM     69  C   UNL     1       2.540 -24.654   4.104  1.00  0.00     0.041 A 
ATOM     70  F   UNL     1       0.234 -24.425   3.827  1.00  0.00    -0.206 F 
ATOM     71  C   UNL     1       3.831 -24.142   4.051  1.00  0.00     0.022 A 
BRANCH  68  72
ATOM     72  S   UNL     1       5.687 -22.160   3.503  1.00  0.00     0.124 S 
ATOM     73  O   UNL     1       6.212 -22.348   4.851  1.00  0.00    -0.237 OA
ATOM     74  O   UNL     1       6.250 -23.031   2.475  1.00  0.00    -0.237 OA
ATOM     75  O   UNL     1       5.473 -20.776   3.088  1.00  0.00    -0.744 OA
ENDBRANCH  68  72
ENDBRANCH  51  65
BRANCH  52  76
ATOM     76  C   UNL     1       1.410 -17.046   9.868  1.00  0.00     0.023 A 
ATOM     77  C   UNL     1       2.588 -16.408   9.442  1.00  0.00     0.031 A 
ATOM     78  C   UNL     1       1.378 -17.549  11.182  1.00  0.00     0.131 A 
ATOM     79  C   UNL     1       3.707 -16.360  10.287  1.00  0.00     0.055 A 
ATOM     80  C   UNL     1       2.488 -17.477  12.031  1.00  0.00     0.041 A 
ATOM     81  F   UNL     1       0.294 -18.198  11.636  1.00  0.00    -0.206 F 
ATOM     82  C   UNL     1       3.668 -16.898  11.576  1.00  0.00     0.022 A 
BRANCH  79  83
ATOM     83  S   UNL     1       5.287 -15.703   9.686  1.00  0.00     0.124 S 
ATOM     84  O   UNL     1       5.649 -14.761  10.744  1.00  0.00    -0.237 OA
ATOM     85  O   UNL     1       6.102 -16.911   9.617  1.00  0.00    -0.237 OA
ATOM     86  O   UNL     1       4.939 -15.092   8.408  1.00  0.00    -0.744 OA
ENDBRANCH  79  83
ENDBRANCH  52  76
BRANCH  64  87
ATOM     87  C   UNL     1      -3.575 -20.219   7.489  1.00  0.00     0.023 A 
ATOM     88  C   UNL     1      -4.607 -21.162   7.626  1.00  0.00     0.031 A 
ATOM     89  C   UNL     1      -3.923 -18.858   7.497  1.00  0.00     0.131 A 
ATOM     90  C   UNL     1      -5.938 -20.751   7.702  1.00  0.00     0.055 A 
ATOM     91  C   UNL     1      -5.253 -18.446   7.649  1.00  0.00     0.041 A 
ATOM     92  F   UNL     1      -3.008 -17.899   7.296  1.00  0.00    -0.206 F 
ATOM     93  C   UNL     1      -6.270 -19.395   7.732  1.00  0.00     0.022 A 
BRANCH  90  94
ATOM     94  S   UNL     1      -7.267 -21.976   7.607  1.00  0.00     0.124 S 
ATOM     95  O   UNL     1      -7.908 -21.842   8.911  1.00  0.00    -0.237 OA
ATOM     96  O   UNL     1      -8.050 -21.496   6.470  1.00  0.00    -0.237 OA
ATOM     97  O   UNL     1      -6.569 -23.239   7.381  1.00  0.00    -0.744 OA
ENDBRANCH  90  94
ENDBRANCH  64  87
ENDBRANCH  38  39
ENDBRANCH  31  33
ENDBRANCH  30  31
ENDBRANCH  29  30
ENDBRANCH   1  29
TORSDOF 19
