REMARK SMILES CC[C@H](C(=O)OCCOC(=O)c1ccc(-c2c3nc(c(-c4cc(S(=O)(=O)[O-])ccc4F)c4ccc([nH]4)c(-c4cc(S(=O)(=O)[O-])ccc4F)c4nc(c(-c5cc(S(=O)(=O)[O-])ccc5F)c5ccc2[nH]5)C=C4)C=C3)cc1)[N@@H+](C)Cc1cncn1C(C)C
REMARK SMILES IDX 7 1 6 2 4 3 5 4 3 5 2 6 1 7 75 8 76 9 77 11 78 12 79 13
REMARK SMILES IDX 82 14 80 15 81 16 83 17 84 18 85 19 8 20 9 21 10 22 11 23
REMARK SMILES IDX 12 24 13 25 74 26 14 27 73 28 15 29 16 30 17 31 67 32 18 33
REMARK SMILES IDX 72 34 66 35 68 36 19 37 71 38 65 39 64 40 20 42 52 43 32 44
REMARK SMILES IDX 51 45 33 46 36 47 50 48 69 49 34 50 35 51 49 53 70 54 37 55
REMARK SMILES IDX 21 56 22 57 30 58 23 59 29 60 31 61 28 62 24 63 25 64 26 65
REMARK SMILES IDX 27 66 53 67 54 68 62 69 55 70 61 71 63 72 60 73 56 74 57 75
REMARK SMILES IDX 58 76 59 77 38 78 39 79 47 80 40 81 46 82 48 83 45 84 41 85
REMARK SMILES IDX 42 86 43 87 44 88
REMARK H PARENT 75 10 68 41 36 52
REMARK Flexibility Score: inf
ROOT
ATOM      1  C   UNL     1       0.320  -0.415   1.615  1.00  0.00     0.274 C 
ENDROOT
BRANCH   1   2
ATOM      2  O   UNL     1       0.769   0.068   0.336  1.00  0.00    -0.458 OA
BRANCH   2   3
ATOM      3  C   UNL     1      -0.079   0.908  -0.335  1.00  0.00     0.365 C 
ATOM      4  O   UNL     1      -1.221   1.142   0.036  1.00  0.00    -0.245 OA
BRANCH   3   5
ATOM      5  C   UNL     1       0.624   1.474  -1.597  1.00  0.00     0.294 C 
BRANCH   5   6
ATOM      6  C   UNL     1       0.711   0.508  -2.802  1.00  0.00     0.074 C 
ATOM      7  C   UNL     1       0.469  -0.964  -2.507  1.00  0.00     0.011 C 
ENDBRANCH   5   6
BRANCH   5   8
ATOM      8  N   UNL     1       0.213   2.873  -1.928  1.00  0.00    -0.321 N 
ATOM      9  C   UNL     1       0.989   3.466  -3.012  1.00  0.00     0.333 C 
ATOM     10  H   UNL     1       0.470   3.334  -1.055  1.00  0.00     0.348 HD
BRANCH   8  11
ATOM     11  C   UNL     1      -1.216   3.212  -1.989  1.00  0.00     0.319 C 
BRANCH  11  12
ATOM     12  C   UNL     1      -2.004   2.476  -3.018  1.00  0.00     0.093 A 
ATOM     13  C   UNL     1      -2.514   1.189  -2.989  1.00  0.00     0.140 A 
ATOM     14  N   UNL     1      -2.468   2.979  -4.215  1.00  0.00    -0.327 N 
ATOM     15  N   UNL     1      -3.060   0.835  -4.191  1.00  0.00    -0.245 NA
ATOM     16  C   UNL     1      -2.991   1.924  -4.919  1.00  0.00     0.200 A 
BRANCH  14  17
ATOM     17  C   UNL     1      -2.567   4.376  -4.632  1.00  0.00     0.082 C 
ATOM     18  C   UNL     1      -1.667   4.686  -5.826  1.00  0.00     0.031 C 
ATOM     19  C   UNL     1      -4.024   4.759  -4.916  1.00  0.00     0.031 C 
ENDBRANCH  14  17
ENDBRANCH  11  12
ENDBRANCH   8  11
ENDBRANCH   5   8
ENDBRANCH   3   5
ENDBRANCH   2   3
ENDBRANCH   1   2
BRANCH   1  20
ATOM     20  C   UNL     1       1.233   0.099   2.730  1.00  0.00     0.275 C 
BRANCH  20  21
ATOM     21  O   UNL     1       1.205   1.536   2.819  1.00  0.00    -0.458 OA
BRANCH  21  22
ATOM     22  C   UNL     1       2.141   2.169   2.073  1.00  0.00     0.338 C 
ATOM     23  O   UNL     1       3.009   1.644   1.383  1.00  0.00    -0.246 OA
BRANCH  22  24
ATOM     24  C   UNL     1       1.901   3.619   2.086  1.00  0.00     0.060 A 
ATOM     25  C   UNL     1       1.711   4.256   0.858  1.00  0.00     0.016 A 
ATOM     26  C   UNL     1       1.933   4.364   3.267  1.00  0.00     0.016 A 
ATOM     27  C   UNL     1       1.537   5.635   0.796  1.00  0.00     0.010 A 
ATOM     28  C   UNL     1       1.778   5.754   3.204  1.00  0.00     0.010 A 
ATOM     29  C   UNL     1       1.585   6.397   1.967  1.00  0.00    -0.014 A 
BRANCH  29  30
ATOM     30  C   UNL     1       1.520   7.876   1.877  1.00  0.00     0.031 A 
ATOM     31  C   UNL     1       2.785   8.678   1.991  1.00  0.00     0.074 A 
ATOM     32  C   UNL     1       0.344   8.490   1.654  1.00  0.00     0.049 A 
ATOM     33  N   UNL     1       2.944   9.975   2.031  1.00  0.00    -0.248 NA
ATOM     34  C   UNL     1       4.036   7.911   2.070  1.00  0.00     0.031 C 
ATOM     35  C   UNL     1      -0.936   7.810   1.452  1.00  0.00     0.029 A 
ATOM     36  N   UNL     1       0.034   9.823   1.562  1.00  0.00    -0.354 N 
ATOM     37  C   UNL     1       4.313  10.185   2.154  1.00  0.00     0.074 A 
ATOM     38  C   UNL     1       4.934   8.876   2.203  1.00  0.00     0.031 C 
ATOM     39  C   UNL     1      -1.895   8.733   1.269  1.00  0.00     0.029 A 
ATOM     40  C   UNL     1      -1.309  10.065   1.393  1.00  0.00     0.049 A 
ATOM     41  H   UNL     1       0.709  10.538   1.612  1.00  0.00     0.167 HD
ATOM     42  C   UNL     1       4.987  11.360   2.221  1.00  0.00     0.034 A 
ATOM     43  C   UNL     1      -1.992  11.227   1.382  1.00  0.00     0.034 A 
ATOM     44  C   UNL     1       4.348  12.654   2.179  1.00  0.00     0.049 A 
ATOM     45  C   UNL     1      -1.233  12.520   1.556  1.00  0.00     0.074 A 
ATOM     46  C   UNL     1       4.931  13.908   2.249  1.00  0.00     0.029 A 
ATOM     47  N   UNL     1       2.979  12.862   2.066  1.00  0.00    -0.354 N 
ATOM     48  N   UNL     1       0.058  12.707   1.709  1.00  0.00    -0.248 NA
ATOM     49  C   UNL     1      -2.025  13.757   1.558  1.00  0.00     0.031 C 
ATOM     50  C   UNL     1       3.911  14.868   2.241  1.00  0.00     0.029 A 
ATOM     51  C   UNL     1       2.696  14.219   2.094  1.00  0.00     0.049 A 
ATOM     52  H   UNL     1       2.306  12.148   1.978  1.00  0.00     0.167 HD
ATOM     53  C   UNL     1       0.233  14.085   1.806  1.00  0.00     0.074 A 
ATOM     54  C   UNL     1      -1.082  14.680   1.677  1.00  0.00     0.031 C 
ATOM     55  C   UNL     1       1.376  14.796   1.982  1.00  0.00     0.034 A 
BRANCH  42  56
ATOM     56  C   UNL     1       6.481  11.287   2.418  1.00  0.00     0.023 A 
ATOM     57  C   UNL     1       7.334  10.745   1.440  1.00  0.00     0.031 A 
ATOM     58  C   UNL     1       7.056  11.727   3.623  1.00  0.00     0.131 A 
ATOM     59  C   UNL     1       8.702  10.590   1.714  1.00  0.00     0.055 A 
ATOM     60  C   UNL     1       8.429  11.639   3.860  1.00  0.00     0.041 A 
ATOM     61  F   UNL     1       6.288  12.232   4.602  1.00  0.00    -0.206 F 
ATOM     62  C   UNL     1       9.259  11.055   2.908  1.00  0.00     0.022 A 
BRANCH  59  63
ATOM     63  S   UNL     1       9.720   9.645   0.547  1.00  0.00     0.124 S 
ATOM     64  O   UNL     1       9.031   8.357   0.530  1.00  0.00    -0.237 OA
ATOM     65  O   UNL     1       9.622  10.439  -0.672  1.00  0.00    -0.237 OA
ATOM     66  O   UNL     1      11.039   9.629   1.177  1.00  0.00    -0.744 OA
ENDBRANCH  59  63
ENDBRANCH  42  56
BRANCH  43  67
ATOM     67  C   UNL     1      -3.478  11.228   1.267  1.00  0.00     0.023 A 
ATOM     68  C   UNL     1      -4.123  11.807   0.164  1.00  0.00     0.031 A 
ATOM     69  C   UNL     1      -4.277  10.687   2.291  1.00  0.00     0.131 A 
ATOM     70  C   UNL     1      -5.526  11.864   0.127  1.00  0.00     0.055 A 
ATOM     71  C   UNL     1      -5.670  10.703   2.226  1.00  0.00     0.041 A 
ATOM     72  F   UNL     1      -3.709  10.123   3.369  1.00  0.00    -0.206 F 
ATOM     73  C   UNL     1      -6.303  11.305   1.144  1.00  0.00     0.022 A 
BRANCH  70  74
ATOM     74  S   UNL     1      -6.323  12.748  -1.242  1.00  0.00     0.124 S 
ATOM     75  O   UNL     1      -5.757  14.085  -1.104  1.00  0.00    -0.237 OA
ATOM     76  O   UNL     1      -5.876  11.978  -2.399  1.00  0.00    -0.237 OA
ATOM     77  O   UNL     1      -7.747  12.636  -0.936  1.00  0.00    -0.744 OA
ENDBRANCH  70  74
ENDBRANCH  43  67
BRANCH  55  78
ATOM     78  C   UNL     1       1.248  16.299   2.003  1.00  0.00     0.023 A 
ATOM     79  C   UNL     1       0.607  16.972   3.058  1.00  0.00     0.031 A 
ATOM     80  C   UNL     1       1.762  17.066   0.943  1.00  0.00     0.131 A 
ATOM     81  C   UNL     1       0.450  18.365   3.003  1.00  0.00     0.055 A 
ATOM     82  C   UNL     1       1.652  18.456   0.921  1.00  0.00     0.041 A 
ATOM     83  F   UNL     1       2.382  16.473  -0.091  1.00  0.00    -0.206 F 
ATOM     84  C   UNL     1       0.982  19.113   1.949  1.00  0.00     0.022 A 
BRANCH  81  85
ATOM     85  S   UNL     1      -0.534  19.183   4.290  1.00  0.00     0.124 S 
ATOM     86  O   UNL     1      -1.827  18.522   4.150  1.00  0.00    -0.237 OA
ATOM     87  O   UNL     1       0.215  18.871   5.502  1.00  0.00    -0.237 OA
ATOM     88  O   UNL     1      -0.512  20.591   3.895  1.00  0.00    -0.744 OA
ENDBRANCH  81  85
ENDBRANCH  55  78
ENDBRANCH  29  30
ENDBRANCH  22  24
ENDBRANCH  21  22
ENDBRANCH  20  21
ENDBRANCH   1  20
TORSDOF 19
