REMARK SMILES COc1ccc(-c2ccc(/C=C3\SC(=S)N([C@H](Cc4ccccc4)C(=O)OCCOC(=O)c4ccc(-c5c6nc(c(-c7cc(S(=O)(=O)[O-])ccc7F)c7ccc([nH]7)c(-c7cc(S(=O)(=O)[O-])ccc7F)c7nc(c(-c8cc(S(=O)(=O)[O-])ccc8F)c8ccc5[nH]8)C=C7)C=C6)cc4)C3=O)o2)cc1
REMARK SMILES IDX 28 1 27 2 25 3 26 4 17 5 16 6 11 7 12 8 13 9 96 10 14 11
REMARK SMILES IDX 97 12 15 13 10 14 7 15 8 16 98 17 9 18 6 19 3 20 4 21 100 22
REMARK SMILES IDX 5 23 99 24 2 25 1 26 18 27 19 28 20 29 24 30 21 31 23 32
REMARK SMILES IDX 22 33 29 34 30 35 31 36 32 37 33 38 34 39 95 40 35 41 94 42
REMARK SMILES IDX 36 43 37 44 38 45 88 46 39 47 93 48 87 49 89 50 40 51 92 52
REMARK SMILES IDX 86 53 85 54 41 56 73 57 53 58 72 59 54 60 57 61 71 62 90 63
REMARK SMILES IDX 55 64 56 65 70 67 91 68 58 69 42 70 43 71 51 72 44 73 50 74
REMARK SMILES IDX 52 75 49 76 45 77 46 78 47 79 48 80 74 81 75 82 83 83 76 84
REMARK SMILES IDX 82 85 84 86 81 87 77 88 78 89 79 90 80 91 59 92 60 93 68 94
REMARK SMILES IDX 61 95 67 96 69 97 66 98 62 99 63 100 64 101 65 102
REMARK H PARENT 89 55 57 66
REMARK Flexibility Score: inf
ROOT
ATOM      1  C   UNL     1       3.659  -2.586  14.864  1.00  0.00     0.274 C 
ENDROOT
BRANCH   1   2
ATOM      2  O   UNL     1       2.521  -2.051  14.159  1.00  0.00    -0.461 OA
BRANCH   2   3
ATOM      3  C   UNL     1       1.413  -1.821  14.909  1.00  0.00     0.329 C 
ATOM      4  O   UNL     1       1.306  -2.130  16.093  1.00  0.00    -0.250 OA
BRANCH   3   5
ATOM      5  C   UNL     1       0.300  -1.090  14.154  1.00  0.00     0.206 C 
BRANCH   5   6
ATOM      6  N   UNL     1      -1.000  -1.715  14.477  1.00  0.00    -0.278 N 
ATOM      7  C   UNL     1      -4.403  -0.957  15.279  1.00  0.00     0.068 C 
ATOM      8  C   UNL     1      -3.265  -1.632  15.082  1.00  0.00     0.084 C 
ATOM      9  S   UNL     1      -3.044  -3.277  14.651  1.00  0.00    -0.054 SA
ATOM     10  C   UNL     1      -1.957  -0.938  15.108  1.00  0.00     0.267 C 
ATOM     11  C   UNL     1      -1.374  -3.004  14.161  1.00  0.00     0.149 C 
ATOM     12  O   UNL     1      -1.790   0.170  15.598  1.00  0.00    -0.268 OA
ATOM     13  S   UNL     1      -0.473  -4.200  13.423  1.00  0.00    -0.052 S 
BRANCH   7  14
ATOM     14  C   UNL     1      -5.676  -1.579  15.294  1.00  0.00     0.128 A 
ATOM     15  C   UNL     1      -7.710  -2.183  14.651  1.00  0.00     0.134 A 
ATOM     16  C   UNL     1      -7.575  -2.613  15.950  1.00  0.00     0.051 A 
ATOM     17  O   UNL     1      -6.563  -1.573  14.236  1.00  0.00    -0.457 OA
ATOM     18  C   UNL     1      -6.279  -2.239  16.356  1.00  0.00     0.051 A 
BRANCH  15  19
ATOM     19  C   UNL     1      -8.827  -2.221  13.725  1.00  0.00     0.017 A 
ATOM     20  C   UNL     1     -11.106  -2.471  12.087  1.00  0.00     0.118 A 
ATOM     21  C   UNL     1      -9.887  -3.039  11.705  1.00  0.00     0.047 A 
ATOM     22  C   UNL     1     -11.180  -1.764  13.286  1.00  0.00     0.047 A 
ATOM     23  C   UNL     1      -8.749  -2.905  12.509  1.00  0.00     0.016 A 
ATOM     24  C   UNL     1     -10.048  -1.645  14.099  1.00  0.00     0.016 A 
BRANCH  20  25
ATOM     25  O   UNL     1     -12.151  -2.703  11.234  1.00  0.00    -0.497 OA
ATOM     26  C   UNL     1     -13.290  -1.864  11.391  1.00  0.00     0.278 C 
ENDBRANCH  20  25
ENDBRANCH  15  19
ENDBRANCH   7  14
ENDBRANCH   5   6
BRANCH   5  27
ATOM     27  C   UNL     1       0.472  -0.753  12.659  1.00  0.00     0.073 C 
BRANCH  27  28
ATOM     28  C   UNL     1      -0.270   0.534  12.316  1.00  0.00    -0.045 A 
ATOM     29  C   UNL     1      -1.671   0.563  12.221  1.00  0.00     0.004 A 
ATOM     30  C   UNL     1       0.433   1.744  12.208  1.00  0.00     0.004 A 
ATOM     31  C   UNL     1      -2.353   1.776  12.097  1.00  0.00     0.000 A 
ATOM     32  C   UNL     1      -0.251   2.952  12.046  1.00  0.00     0.000 A 
ATOM     33  C   UNL     1      -1.643   2.970  12.011  1.00  0.00     0.000 A 
ENDBRANCH  27  28
ENDBRANCH   5  27
ENDBRANCH   3   5
ENDBRANCH   2   3
ENDBRANCH   1   2
BRANCH   1  34
ATOM     34  C   UNL     1       4.724  -1.511  15.107  1.00  0.00     0.275 C 
BRANCH  34  35
ATOM     35  O   UNL     1       4.277  -0.483  16.012  1.00  0.00    -0.458 OA
BRANCH  35  36
ATOM     36  C   UNL     1       3.610   0.538  15.423  1.00  0.00     0.338 C 
ATOM     37  O   UNL     1       3.341   0.649  14.238  1.00  0.00    -0.246 OA
BRANCH  36  38
ATOM     38  C   UNL     1       3.122   1.485  16.434  1.00  0.00     0.060 A 
ATOM     39  C   UNL     1       1.743   1.596  16.610  1.00  0.00     0.016 A 
ATOM     40  C   UNL     1       3.990   2.355  17.093  1.00  0.00     0.016 A 
ATOM     41  C   UNL     1       1.214   2.612  17.394  1.00  0.00     0.010 A 
ATOM     42  C   UNL     1       3.459   3.353  17.918  1.00  0.00     0.010 A 
ATOM     43  C   UNL     1       2.066   3.503  18.053  1.00  0.00    -0.014 A 
BRANCH  43  44
ATOM     44  C   UNL     1       1.480   4.615  18.839  1.00  0.00     0.031 A 
ATOM     45  C   UNL     1       1.619   6.030  18.353  1.00  0.00     0.074 A 
ATOM     46  C   UNL     1       0.785   4.343  19.960  1.00  0.00     0.049 A 
ATOM     47  N   UNL     1       1.266   7.145  18.936  1.00  0.00    -0.248 NA
ATOM     48  C   UNL     1       2.248   6.211  17.036  1.00  0.00     0.031 C 
ATOM     49  C   UNL     1       0.529   3.000  20.487  1.00  0.00     0.029 A 
ATOM     50  N   UNL     1       0.162   5.175  20.853  1.00  0.00    -0.354 N 
ATOM     51  C   UNL     1       1.652   8.165  18.073  1.00  0.00     0.074 A 
ATOM     52  C   UNL     1       2.289   7.532  16.936  1.00  0.00     0.031 C 
ATOM     53  C   UNL     1      -0.208   3.102  21.604  1.00  0.00     0.029 A 
ATOM     54  C   UNL     1      -0.419   4.513  21.908  1.00  0.00     0.049 A 
ATOM     55  H   UNL     1       0.133   6.154  20.748  1.00  0.00     0.167 HD
ATOM     56  C   UNL     1       1.484   9.503  18.219  1.00  0.00     0.034 A 
ATOM     57  C   UNL     1      -1.020   4.990  23.015  1.00  0.00     0.034 A 
ATOM     58  C   UNL     1       0.833  10.108  19.357  1.00  0.00     0.049 A 
ATOM     59  C   UNL     1      -1.129   6.482  23.189  1.00  0.00     0.074 A 
ATOM     60  C   UNL     1       0.608  11.450  19.612  1.00  0.00     0.029 A 
ATOM     61  N   UNL     1       0.300   9.408  20.433  1.00  0.00    -0.354 N 
ATOM     62  N   UNL     1      -0.721   7.440  22.388  1.00  0.00    -0.248 NA
ATOM     63  C   UNL     1      -1.777   6.957  24.417  1.00  0.00     0.031 C 
ATOM     64  C   UNL     1      -0.002  11.563  20.867  1.00  0.00     0.029 A 
ATOM     65  C   UNL     1      -0.226  10.290  21.365  1.00  0.00     0.049 A 
ATOM     66  H   UNL     1       0.297   8.427  20.522  1.00  0.00     0.167 HD
ATOM     67  C   UNL     1      -1.084   8.632  23.006  1.00  0.00     0.074 A 
ATOM     68  C   UNL     1      -1.760   8.270  24.237  1.00  0.00     0.031 C 
ATOM     69  C   UNL     1      -0.881   9.910  22.595  1.00  0.00     0.034 A 
BRANCH  56  70
ATOM     70  C   UNL     1       2.072  10.396  17.152  1.00  0.00     0.023 A 
ATOM     71  C   UNL     1       1.607  10.382  15.825  1.00  0.00     0.031 A 
ATOM     72  C   UNL     1       3.143  11.254  17.463  1.00  0.00     0.131 A 
ATOM     73  C   UNL     1       2.254  11.154  14.847  1.00  0.00     0.055 A 
ATOM     74  C   UNL     1       3.733  12.077  16.502  1.00  0.00     0.041 A 
ATOM     75  F   UNL     1       3.647  11.294  18.707  1.00  0.00    -0.206 F 
ATOM     76  C   UNL     1       3.298  12.020  15.181  1.00  0.00     0.022 A 
BRANCH  73  77
ATOM     77  S   UNL     1       1.804  10.909  13.107  1.00  0.00     0.124 S 
ATOM     78  O   UNL     1       2.092   9.488  12.924  1.00  0.00    -0.237 OA
ATOM     79  O   UNL     1       0.395  11.283  13.089  1.00  0.00    -0.237 OA
ATOM     80  O   UNL     1       2.699  11.815  12.390  1.00  0.00    -0.744 OA
ENDBRANCH  73  77
ENDBRANCH  56  70
BRANCH  57  81
ATOM     81  C   UNL     1      -1.512   4.056  24.067  1.00  0.00     0.023 A 
ATOM     82  C   UNL     1      -2.877   3.972  24.383  1.00  0.00     0.031 A 
ATOM     83  C   UNL     1      -0.614   3.258  24.799  1.00  0.00     0.131 A 
ATOM     84  C   UNL     1      -3.301   3.137  25.429  1.00  0.00     0.055 A 
ATOM     85  C   UNL     1      -1.046   2.390  25.802  1.00  0.00     0.041 A 
ATOM     86  F   UNL     1       0.702   3.301  24.537  1.00  0.00    -0.206 F 
ATOM     87  C   UNL     1      -2.397   2.335  26.131  1.00  0.00     0.022 A 
BRANCH  84  88
ATOM     88  S   UNL     1      -5.048   3.171  25.915  1.00  0.00     0.124 S 
ATOM     89  O   UNL     1      -5.237   4.579  26.247  1.00  0.00    -0.237 OA
ATOM     90  O   UNL     1      -5.709   2.704  24.701  1.00  0.00    -0.237 OA
ATOM     91  O   UNL     1      -5.104   2.249  27.047  1.00  0.00    -0.744 OA
ENDBRANCH  84  88
ENDBRANCH  57  81
BRANCH  69  92
ATOM     92  C   UNL     1      -1.440  11.000  23.475  1.00  0.00     0.023 A 
ATOM     93  C   UNL     1      -0.920  11.255  24.756  1.00  0.00     0.031 A 
ATOM     94  C   UNL     1      -2.527  11.775  23.034  1.00  0.00     0.131 A 
ATOM     95  C   UNL     1      -1.525  12.220  25.575  1.00  0.00     0.055 A 
ATOM     96  C   UNL     1      -3.088  12.773  23.831  1.00  0.00     0.041 A 
ATOM     97  F   UNL     1      -3.065  11.570  21.821  1.00  0.00    -0.206 F 
ATOM     98  C   UNL     1      -2.596  12.991  25.115  1.00  0.00     0.022 A 
BRANCH  95  99
ATOM     99  S   UNL     1      -0.955  12.389  27.289  1.00  0.00     0.124 S 
ATOM    100  O   UNL     1      -1.176  11.046  27.817  1.00  0.00    -0.237 OA
ATOM    101  O   UNL     1       0.440  12.784  27.117  1.00  0.00    -0.237 OA
ATOM    102  O   UNL     1      -1.827  13.423  27.840  1.00  0.00    -0.744 OA
ENDBRANCH  95  99
ENDBRANCH  69  92
ENDBRANCH  43  44
ENDBRANCH  36  38
ENDBRANCH  35  36
ENDBRANCH  34  35
ENDBRANCH   1  34
TORSDOF 20
