REMARK SMILES O=C(Cc1ccn(-c2ccccc2F)c1)OCCOC(=O)c1ccc(-c2c3nc(c(-c4cc(S(=O)(=O)[O-])ccc4F)c4ccc([nH]4)c(-c4cc(S(=O)(=O)[O-])ccc4F)c4nc(c(-c5cc(S(=O)(=O)[O-])ccc5F)c5ccc2[nH]5)C=C4)C=C3)cc1
REMARK SMILES IDX 18 1 17 2 16 3 2 4 1 5 3 6 4 7 5 8 15 9 6 10 7 11 8 12 9 13
REMARK SMILES IDX 13 14 10 15 12 16 14 17 11 18 19 19 20 20 21 21 22 22 23 23
REMARK SMILES IDX 84 24 24 25 83 26 25 27 26 28 27 29 77 30 28 31 82 32 76 33
REMARK SMILES IDX 78 34 29 35 81 36 75 37 74 38 30 40 62 41 42 42 61 43 43 44
REMARK SMILES IDX 46 45 60 46 79 47 44 48 45 49 59 51 80 52 47 53 31 54 32 55
REMARK SMILES IDX 40 56 33 57 39 58 41 59 38 60 34 61 35 62 36 63 37 64 63 65
REMARK SMILES IDX 64 66 72 67 65 68 71 69 73 70 70 71 66 72 67 73 68 74 69 75
REMARK SMILES IDX 48 76 49 77 57 78 50 79 56 80 58 81 55 82 51 83 52 84 53 85
REMARK SMILES IDX 54 86
REMARK H PARENT 78 39 46 50
REMARK Flexibility Score: inf
ROOT
ATOM      1  C   UNL     1       4.757   0.090  -1.701  1.00  0.00     0.275 C 
ENDROOT
BRANCH   1   2
ATOM      2  C   UNL     1       4.388  -0.949  -0.658  1.00  0.00     0.274 C 
BRANCH   2   3
ATOM      3  O   UNL     1       2.957  -1.064  -0.460  1.00  0.00    -0.462 OA
BRANCH   3   4
ATOM      4  C   UNL     1       2.188  -0.420   0.458  1.00  0.00     0.310 C 
ATOM      5  O   UNL     1       0.973  -0.627   0.486  1.00  0.00    -0.252 OA
BRANCH   4   6
ATOM      6  C   UNL     1       2.828   0.507   1.479  1.00  0.00     0.159 C 
BRANCH   6   7
ATOM      7  C   UNL     1       3.749  -0.181   2.422  1.00  0.00    -0.019 A 
ATOM      8  C   UNL     1       4.685   0.405   3.319  1.00  0.00     0.024 A 
ATOM      9  C   UNL     1       3.868  -1.543   2.573  1.00  0.00     0.095 A 
ATOM     10  C   UNL     1       5.301  -0.623   4.006  1.00  0.00     0.091 A 
ATOM     11  N   UNL     1       4.839  -1.812   3.497  1.00  0.00    -0.321 N 
BRANCH  11  12
ATOM     12  C   UNL     1       5.127  -3.114   3.913  1.00  0.00     0.081 A 
ATOM     13  C   UNL     1       4.837  -3.479   5.228  1.00  0.00     0.030 A 
ATOM     14  C   UNL     1       5.446  -4.074   2.951  1.00  0.00     0.147 A 
ATOM     15  C   UNL     1       4.828  -4.834   5.555  1.00  0.00     0.002 A 
ATOM     16  C   UNL     1       5.478  -5.417   3.292  1.00  0.00     0.041 A 
ATOM     17  F   UNL     1       5.726  -3.718   1.688  1.00  0.00    -0.205 F 
ATOM     18  C   UNL     1       5.147  -5.799   4.592  1.00  0.00     0.003 A 
ENDBRANCH  11  12
ENDBRANCH   6   7
ENDBRANCH   4   6
ENDBRANCH   3   4
ENDBRANCH   2   3
ENDBRANCH   1   2
BRANCH   1  19
ATOM     19  O   UNL     1       4.477   1.388  -1.198  1.00  0.00    -0.458 OA
BRANCH  19  20
ATOM     20  C   UNL     1       3.226   1.820  -1.474  1.00  0.00     0.338 C 
ATOM     21  O   UNL     1       2.311   1.187  -1.949  1.00  0.00    -0.246 OA
BRANCH  20  22
ATOM     22  C   UNL     1       3.156   3.248  -1.186  1.00  0.00     0.060 A 
ATOM     23  C   UNL     1       1.891   3.830  -1.272  1.00  0.00     0.016 A 
ATOM     24  C   UNL     1       4.344   3.991  -1.172  1.00  0.00     0.016 A 
ATOM     25  C   UNL     1       1.824   5.165  -1.577  1.00  0.00     0.010 A 
ATOM     26  C   UNL     1       4.281   5.307  -1.538  1.00  0.00     0.010 A 
ATOM     27  C   UNL     1       3.022   5.857  -1.785  1.00  0.00    -0.014 A 
BRANCH  27  28
ATOM     28  C   UNL     1       2.924   7.267  -2.125  1.00  0.00     0.031 A 
ATOM     29  C   UNL     1       2.829   8.070  -0.803  1.00  0.00     0.074 A 
ATOM     30  C   UNL     1       2.864   7.511  -3.478  1.00  0.00     0.049 A 
ATOM     31  N   UNL     1       2.223   9.183  -0.555  1.00  0.00    -0.248 NA
ATOM     32  C   UNL     1       3.407   7.512   0.467  1.00  0.00     0.031 C 
ATOM     33  C   UNL     1       3.024   6.496  -4.563  1.00  0.00     0.029 A 
ATOM     34  N   UNL     1       2.653   8.637  -4.235  1.00  0.00    -0.354 N 
ATOM     35  C   UNL     1       2.560   9.579   0.759  1.00  0.00     0.074 A 
ATOM     36  C   UNL     1       3.166   8.450   1.385  1.00  0.00     0.031 C 
ATOM     37  C   UNL     1       2.784   7.031  -5.787  1.00  0.00     0.029 A 
ATOM     38  C   UNL     1       2.479   8.440  -5.641  1.00  0.00     0.049 A 
ATOM     39  H   UNL     1       2.624   9.534  -3.831  1.00  0.00     0.167 HD
ATOM     40  C   UNL     1       2.444  10.869   1.185  1.00  0.00     0.034 A 
ATOM     41  C   UNL     1       2.064   9.355  -6.581  1.00  0.00     0.034 A 
ATOM     42  C   UNL     1       1.912  11.662   0.128  1.00  0.00     0.049 A 
ATOM     43  C   UNL     1       2.037  10.615  -5.818  1.00  0.00     0.074 A 
ATOM     44  C   UNL     1       0.659  11.696  -0.423  1.00  0.00     0.029 A 
ATOM     45  N   UNL     1       2.822  12.191  -0.759  1.00  0.00    -0.354 N 
ATOM     46  N   UNL     1       3.087  11.246  -5.384  1.00  0.00    -0.248 NA
ATOM     47  C   UNL     1       0.733  11.131  -5.384  1.00  0.00     0.031 C 
ATOM     48  C   UNL     1       0.943  11.708  -1.802  1.00  0.00     0.029 A 
ATOM     49  C   UNL     1       2.292  12.023  -2.013  1.00  0.00     0.049 A 
ATOM     50  H   UNL     1       3.685  12.609  -0.537  1.00  0.00     0.167 HD
ATOM     51  C   UNL     1       2.573  12.008  -4.367  1.00  0.00     0.074 A 
ATOM     52  C   UNL     1       1.151  12.138  -4.624  1.00  0.00     0.031 C 
ATOM     53  C   UNL     1       3.180  12.018  -3.152  1.00  0.00     0.034 A 
BRANCH  40  54
ATOM     54  C   UNL     1       2.941  11.607   2.388  1.00  0.00     0.023 A 
ATOM     55  C   UNL     1       2.307  12.844   2.659  1.00  0.00     0.031 A 
ATOM     56  C   UNL     1       4.162  11.368   3.027  1.00  0.00     0.131 A 
ATOM     57  C   UNL     1       2.941  13.839   3.408  1.00  0.00     0.055 A 
ATOM     58  C   UNL     1       4.771  12.346   3.829  1.00  0.00     0.041 A 
ATOM     59  F   UNL     1       4.843  10.231   2.825  1.00  0.00    -0.206 F 
ATOM     60  C   UNL     1       4.180  13.601   3.992  1.00  0.00     0.022 A 
BRANCH  57  61
ATOM     61  S   UNL     1       2.172  15.482   3.463  1.00  0.00     0.124 S 
ATOM     62  O   UNL     1       2.149  15.863   2.055  1.00  0.00    -0.237 OA
ATOM     63  O   UNL     1       0.873  15.192   4.065  1.00  0.00    -0.237 OA
ATOM     64  O   UNL     1       3.083  16.255   4.304  1.00  0.00    -0.744 OA
ENDBRANCH  57  61
ENDBRANCH  40  54
BRANCH  41  65
ATOM     65  C   UNL     1       1.543   9.453  -8.017  1.00  0.00     0.023 A 
ATOM     66  C   UNL     1       1.397   8.413  -8.954  1.00  0.00     0.031 A 
ATOM     67  C   UNL     1       1.009  10.712  -8.455  1.00  0.00     0.131 A 
ATOM     68  C   UNL     1       0.668   8.635 -10.166  1.00  0.00     0.055 A 
ATOM     69  C   UNL     1       0.211  10.894  -9.584  1.00  0.00     0.041 A 
ATOM     70  F   UNL     1       1.227  11.850  -7.780  1.00  0.00    -0.206 F 
ATOM     71  C   UNL     1       0.018   9.842 -10.442  1.00  0.00     0.022 A 
BRANCH  68  72
ATOM     72  S   UNL     1       0.504   7.349 -11.447  1.00  0.00     0.124 S 
ATOM     73  O   UNL     1       1.640   7.644 -12.315  1.00  0.00    -0.237 OA
ATOM     74  O   UNL     1       0.585   6.110 -10.683  1.00  0.00    -0.237 OA
ATOM     75  O   UNL     1      -0.808   7.627 -12.032  1.00  0.00    -0.744 OA
ENDBRANCH  68  72
ENDBRANCH  41  65
BRANCH  53  76
ATOM     76  C   UNL     1       4.665  11.676  -3.149  1.00  0.00     0.023 A 
ATOM     77  C   UNL     1       5.562  12.495  -3.854  1.00  0.00     0.031 A 
ATOM     78  C   UNL     1       5.228  10.538  -2.541  1.00  0.00     0.131 A 
ATOM     79  C   UNL     1       6.933  12.173  -3.935  1.00  0.00     0.055 A 
ATOM     80  C   UNL     1       6.587  10.201  -2.634  1.00  0.00     0.041 A 
ATOM     81  F   UNL     1       4.479   9.703  -1.829  1.00  0.00    -0.206 F 
ATOM     82  C   UNL     1       7.452  11.025  -3.334  1.00  0.00     0.022 A 
BRANCH  79  83
ATOM     83  S   UNL     1       8.054  13.321  -4.775  1.00  0.00     0.124 S 
ATOM     84  O   UNL     1       7.706  13.136  -6.179  1.00  0.00    -0.237 OA
ATOM     85  O   UNL     1       7.683  14.604  -4.187  1.00  0.00    -0.237 OA
ATOM     86  O   UNL     1       9.382  12.838  -4.397  1.00  0.00    -0.744 OA
ENDBRANCH  79  83
ENDBRANCH  53  76
ENDBRANCH  27  28
ENDBRANCH  20  22
ENDBRANCH  19  20
ENDBRANCH   1  19
TORSDOF 16
