REMARK SMILES NC(=O)c1cc(NC(=O)/C=C\C(=O)OCCOC(=O)c2ccc(-c3c4nc(c(-c5cc(S(=O)(=O)[O-])ccc5F)c5ccc([nH]5)c(-c5cc(S(=O)(=O)[O-])ccc5F)c5nc(c(-c6cc(S(=O)(=O)[O-])ccc6F)c6ccc3[nH]6)C=C5)C=C4)cc2)ccc1N1CCOCC1
REMARK SMILES IDX 15 1 14 2 12 3 13 4 11 5 10 6 8 7 7 8 9 10 6 11 4 12 5 13
REMARK SMILES IDX 85 14 84 15 83 16 2 17 1 18 3 21 86 22 87 23 91 24 88 25
REMARK SMILES IDX 90 26 89 27 16 28 17 29 18 30 19 31 20 32 21 33 82 34 22 35
REMARK SMILES IDX 81 36 23 37 24 38 25 39 75 40 26 41 80 42 74 43 76 44 27 45
REMARK SMILES IDX 79 46 73 47 72 48 28 50 60 51 40 52 59 53 41 54 44 55 58 56
REMARK SMILES IDX 77 57 42 58 43 59 57 61 78 62 45 63 29 64 30 65 38 66 31 67
REMARK SMILES IDX 37 68 39 69 36 70 32 71 33 72 34 73 35 74 61 75 62 76 70 77
REMARK SMILES IDX 63 78 69 79 71 80 68 81 64 82 65 83 66 84 67 85 46 86 47 87
REMARK SMILES IDX 55 88 48 89 54 90 56 91 53 92 49 93 50 94 51 95 52 96
REMARK H PARENT 7 9 1 19 1 20 76 49 44 60
REMARK Flexibility Score: inf
ROOT
ATOM      1  C   UNL     1       3.220  -1.202  -4.720  1.00  0.00     0.275 C 
ENDROOT
BRANCH   1   2
ATOM      2  O   UNL     1       1.959  -0.713  -5.218  1.00  0.00    -0.459 OA
BRANCH   2   3
ATOM      3  C   UNL     1       1.022  -0.542  -4.262  1.00  0.00     0.331 C 
ATOM      4  O   UNL     1       1.217  -0.587  -3.058  1.00  0.00    -0.247 OA
BRANCH   3   5
ATOM      5  C   UNL     1      -0.314  -0.264  -4.789  1.00  0.00     0.099 C 
ATOM      6  C   UNL     1      -1.082  -1.123  -5.474  1.00  0.00     0.079 C 
BRANCH   6   7
ATOM      7  C   UNL     1      -0.729  -2.451  -6.029  1.00  0.00     0.248 C 
ATOM      8  N   UNL     1      -0.087  -3.426  -5.324  1.00  0.00    -0.322 N 
ATOM      9  H   UNL     1       0.224  -4.178  -5.878  1.00  0.00     0.170 HD
ATOM     10  O   UNL     1      -1.005  -2.660  -7.213  1.00  0.00    -0.270 OA
BRANCH   8  11
ATOM     11  C   UNL     1       0.215  -3.561  -3.962  1.00  0.00     0.042 A 
ATOM     12  C   UNL     1       0.026  -2.833  -1.665  1.00  0.00     0.064 A 
ATOM     13  C   UNL     1      -0.533  -2.984  -2.949  1.00  0.00     0.042 A 
ATOM     14  C   UNL     1       1.324  -3.306  -1.363  1.00  0.00     0.050 A 
ATOM     15  C   UNL     1       1.949  -4.081  -2.354  1.00  0.00     0.029 A 
ATOM     16  C   UNL     1       1.396  -4.225  -3.634  1.00  0.00     0.028 A 
BRANCH  12  17
ATOM     17  C   UNL     1      -0.735  -1.895  -0.808  1.00  0.00     0.250 C 
ATOM     18  N   UNL     1      -0.032  -0.837  -0.326  1.00  0.00    -0.366 N 
ATOM     19  H   UNL     1      -0.475  -0.173   0.251  1.00  0.00     0.159 HD
ATOM     20  H   UNL     1       0.920  -0.734  -0.553  1.00  0.00     0.159 HD
ATOM     21  O   UNL     1      -1.944  -2.002  -0.657  1.00  0.00    -0.269 OA
ENDBRANCH  12  17
BRANCH  14  22
ATOM     22  N   UNL     1       2.017  -2.959  -0.214  1.00  0.00    -0.366 N 
ATOM     23  C   UNL     1       1.515  -3.350   1.114  1.00  0.00     0.145 C 
ATOM     24  C   UNL     1       3.438  -2.584  -0.267  1.00  0.00     0.145 C 
ATOM     25  C   UNL     1       1.951  -2.320   2.172  1.00  0.00     0.181 C 
ATOM     26  C   UNL     1       3.756  -1.585   0.857  1.00  0.00     0.181 C 
ATOM     27  O   UNL     1       3.376  -2.104   2.139  1.00  0.00    -0.378 OA
ENDBRANCH  14  22
ENDBRANCH   8  11
ENDBRANCH   6   7
ENDBRANCH   3   5
ENDBRANCH   2   3
ENDBRANCH   1   2
BRANCH   1  28
ATOM     28  C   UNL     1       4.184  -0.153  -4.139  1.00  0.00     0.275 C 
BRANCH  28  29
ATOM     29  O   UNL     1       3.750   0.411  -2.887  1.00  0.00    -0.458 OA
BRANCH  29  30
ATOM     30  C   UNL     1       2.981   1.529  -3.006  1.00  0.00     0.338 C 
ATOM     31  O   UNL     1       2.716   2.108  -4.041  1.00  0.00    -0.246 OA
BRANCH  30  32
ATOM     32  C   UNL     1       2.339   1.846  -1.706  1.00  0.00     0.060 A 
ATOM     33  C   UNL     1       0.971   2.152  -1.709  1.00  0.00     0.016 A 
ATOM     34  C   UNL     1       3.057   1.868  -0.509  1.00  0.00     0.016 A 
ATOM     35  C   UNL     1       0.318   2.489  -0.523  1.00  0.00     0.010 A 
ATOM     36  C   UNL     1       2.406   2.221   0.680  1.00  0.00     0.010 A 
ATOM     37  C   UNL     1       1.040   2.557   0.674  1.00  0.00    -0.014 A 
BRANCH  37  38
ATOM     38  C   UNL     1       0.442   3.248   1.843  1.00  0.00     0.031 A 
ATOM     39  C   UNL     1       0.671   4.731   1.948  1.00  0.00     0.074 A 
ATOM     40  C   UNL     1      -0.290   2.601   2.768  1.00  0.00     0.049 A 
ATOM     41  N   UNL     1       0.309   5.566   2.884  1.00  0.00    -0.248 NA
ATOM     42  C   UNL     1       1.427   5.348   0.845  1.00  0.00     0.031 C 
ATOM     43  C   UNL     1      -0.606   1.177   2.751  1.00  0.00     0.029 A 
ATOM     44  N   UNL     1      -0.899   3.060   3.910  1.00  0.00    -0.354 N 
ATOM     45  C   UNL     1       0.793   6.807   2.484  1.00  0.00     0.074 A 
ATOM     46  C   UNL     1       1.509   6.605   1.244  1.00  0.00     0.031 C 
ATOM     47  C   UNL     1      -1.360   0.876   3.822  1.00  0.00     0.029 A 
ATOM     48  C   UNL     1      -1.524   2.073   4.640  1.00  0.00     0.049 A 
ATOM     49  H   UNL     1      -0.890   4.006   4.182  1.00  0.00     0.167 HD
ATOM     50  C   UNL     1       0.650   8.006   3.096  1.00  0.00     0.034 A 
ATOM     51  C   UNL     1      -2.124   2.125   5.847  1.00  0.00     0.034 A 
ATOM     52  C   UNL     1      -0.032   8.176   4.354  1.00  0.00     0.049 A 
ATOM     53  C   UNL     1      -2.180   3.454   6.563  1.00  0.00     0.074 A 
ATOM     54  C   UNL     1      -0.230   9.337   5.077  1.00  0.00     0.029 A 
ATOM     55  N   UNL     1      -0.609   7.146   5.087  1.00  0.00    -0.354 N 
ATOM     56  N   UNL     1      -1.728   4.625   6.172  1.00  0.00    -0.248 NA
ATOM     57  C   UNL     1      -2.829   3.471   7.880  1.00  0.00     0.031 C 
ATOM     58  C   UNL     1      -0.855   8.998   6.282  1.00  0.00     0.029 A 
ATOM     59  C   UNL     1      -1.130   7.639   6.272  1.00  0.00     0.049 A 
ATOM     60  H   UNL     1      -0.643   6.203   4.806  1.00  0.00     0.167 HD
ATOM     61  C   UNL     1      -2.069   5.522   7.181  1.00  0.00     0.074 A 
ATOM     62  C   UNL     1      -2.778   4.758   8.188  1.00  0.00     0.031 C 
ATOM     63  C   UNL     1      -1.825   6.856   7.268  1.00  0.00     0.034 A 
BRANCH  50  64
ATOM     64  C   UNL     1       1.309   9.193   2.438  1.00  0.00     0.023 A 
ATOM     65  C   UNL     1       0.927   9.635   1.157  1.00  0.00     0.031 A 
ATOM     66  C   UNL     1       2.381   9.848   3.067  1.00  0.00     0.131 A 
ATOM     67  C   UNL     1       1.664  10.641   0.516  1.00  0.00     0.055 A 
ATOM     68  C   UNL     1       3.055  10.909   2.458  1.00  0.00     0.041 A 
ATOM     69  F   UNL     1       2.812   9.450   4.274  1.00  0.00    -0.206 F 
ATOM     70  C   UNL     1       2.709  11.300   1.168  1.00  0.00     0.022 A 
BRANCH  67  71
ATOM     71  S   UNL     1       1.347  10.960  -1.242  1.00  0.00     0.124 S 
ATOM     72  O   UNL     1       1.624   9.653  -1.833  1.00  0.00    -0.237 OA
ATOM     73  O   UNL     1      -0.050  11.378  -1.240  1.00  0.00    -0.237 OA
ATOM     74  O   UNL     1       2.311  12.006  -1.579  1.00  0.00    -0.744 OA
ENDBRANCH  67  71
ENDBRANCH  50  64
BRANCH  51  75
ATOM     75  C   UNL     1      -2.666   0.888   6.488  1.00  0.00     0.023 A 
ATOM     76  C   UNL     1      -4.029   0.766   6.808  1.00  0.00     0.031 A 
ATOM     77  C   UNL     1      -1.812  -0.170   6.851  1.00  0.00     0.131 A 
ATOM     78  C   UNL     1      -4.488  -0.361   7.510  1.00  0.00     0.055 A 
ATOM     79  C   UNL     1      -2.284  -1.316   7.496  1.00  0.00     0.041 A 
ATOM     80  F   UNL     1      -0.499  -0.108   6.579  1.00  0.00    -0.206 F 
ATOM     81  C   UNL     1      -3.627  -1.410   7.842  1.00  0.00     0.022 A 
BRANCH  78  82
ATOM     82  S   UNL     1      -6.212  -0.395   8.074  1.00  0.00     0.124 S 
ATOM     83  O   UNL     1      -6.280   0.811   8.892  1.00  0.00    -0.237 OA
ATOM     84  O   UNL     1      -6.946  -0.358   6.814  1.00  0.00    -0.237 OA
ATOM     85  O   UNL     1      -6.305  -1.654   8.811  1.00  0.00    -0.744 OA
ENDBRANCH  78  82
ENDBRANCH  51  75
BRANCH  63  86
ATOM     86  C   UNL     1      -2.377   7.576   8.474  1.00  0.00     0.023 A 
ATOM     87  C   UNL     1      -1.915   7.309   9.774  1.00  0.00     0.031 A 
ATOM     88  C   UNL     1      -3.389   8.540   8.317  1.00  0.00     0.131 A 
ATOM     89  C   UNL     1      -2.506   7.954  10.871  1.00  0.00     0.055 A 
ATOM     90  C   UNL     1      -3.924   9.229   9.405  1.00  0.00     0.041 A 
ATOM     91  F   UNL     1      -3.872   8.832   7.098  1.00  0.00    -0.206 F 
ATOM     92  C   UNL     1      -3.494   8.926  10.693  1.00  0.00     0.022 A 
BRANCH  89  93
ATOM     93  S   UNL     1      -2.043   7.425  12.543  1.00  0.00     0.124 S 
ATOM     94  O   UNL     1      -2.379   6.005  12.515  1.00  0.00    -0.237 OA
ATOM     95  O   UNL     1      -0.620   7.743  12.588  1.00  0.00    -0.237 OA
ATOM     96  O   UNL     1      -2.889   8.246  13.408  1.00  0.00    -0.744 OA
ENDBRANCH  89  93
ENDBRANCH  63  86
ENDBRANCH  37  38
ENDBRANCH  30  32
ENDBRANCH  29  30
ENDBRANCH  28  29
ENDBRANCH   1  28
TORSDOF 18
