REMARK SMILES O=C(OCCOC(=O)c1ccc(C(F)(F)F)nc1NC[C@@H]1CCOC1)c1ccc(-c2c3nc(c(-c4cc(S(=O)(=O)[O-])ccc4F)c4ccc([nH]4)c(-c4cc(S(=O)(=O)[O-])ccc4F)c4nc(c(-c5cc(S(=O)(=O)[O-])ccc5F)c5ccc2[nH]5)C=C4)C=C3)cc1
REMARK SMILES IDX 4 1 3 2 2 3 1 4 26 5 27 6 88 7 28 8 87 9 29 10 30 11 31 12
REMARK SMILES IDX 81 13 32 14 86 15 80 16 82 17 33 18 85 19 79 20 78 21 34 23
REMARK SMILES IDX 66 24 46 25 65 26 47 27 50 28 64 29 83 30 48 31 49 32 63 34
REMARK SMILES IDX 84 35 51 36 35 37 36 38 44 39 37 40 43 41 45 42 42 43 38 44
REMARK SMILES IDX 39 45 40 46 41 47 67 48 68 49 76 50 69 51 75 52 77 53 74 54
REMARK SMILES IDX 70 55 71 56 72 57 73 58 52 59 53 60 61 61 54 62 60 63 62 64
REMARK SMILES IDX 59 65 55 66 56 67 57 68 58 69 5 70 6 71 7 72 8 73 9 74 10 75
REMARK SMILES IDX 18 76 11 77 17 78 12 79 19 80 20 82 21 83 22 84 25 85 23 86
REMARK SMILES IDX 24 87 13 88 14 89 15 90 16 91
REMARK H PARENT 82 22 50 33 19 81
REMARK Flexibility Score: inf
ROOT
ATOM      1  C   UNL     1       4.319  -1.484  -0.295  1.00  0.00     0.275 C 
ENDROOT
BRANCH   1   2
ATOM      2  O   UNL     1       3.337  -0.874   0.558  1.00  0.00    -0.458 OA
BRANCH   2   3
ATOM      3  C   UNL     1       3.404   0.360   1.118  1.00  0.00     0.338 C 
ATOM      4  O   UNL     1       2.795   0.589   2.160  1.00  0.00    -0.246 OA
BRANCH   3   5
ATOM      5  C   UNL     1       3.982   1.510   0.364  1.00  0.00     0.060 A 
ATOM      6  C   UNL     1       5.239   1.535  -0.242  1.00  0.00     0.016 A 
ATOM      7  C   UNL     1       3.206   2.678   0.334  1.00  0.00     0.016 A 
ATOM      8  C   UNL     1       5.679   2.674  -0.926  1.00  0.00     0.010 A 
ATOM      9  C   UNL     1       3.626   3.810  -0.364  1.00  0.00     0.010 A 
ATOM     10  C   UNL     1       4.879   3.818  -0.982  1.00  0.00    -0.014 A 
BRANCH  10  11
ATOM     11  C   UNL     1       5.434   5.091  -1.489  1.00  0.00     0.031 A 
ATOM     12  C   UNL     1       5.888   6.110  -0.484  1.00  0.00     0.074 A 
ATOM     13  C   UNL     1       5.533   5.331  -2.808  1.00  0.00     0.049 A 
ATOM     14  N   UNL     1       6.418   7.288  -0.678  1.00  0.00    -0.248 NA
ATOM     15  C   UNL     1       5.729   5.742   0.932  1.00  0.00     0.031 C 
ATOM     16  C   UNL     1       5.165   4.392  -3.866  1.00  0.00     0.029 A 
ATOM     17  N   UNL     1       5.950   6.447  -3.484  1.00  0.00    -0.354 N 
ATOM     18  C   UNL     1       6.695   7.782   0.590  1.00  0.00     0.074 A 
ATOM     19  C   UNL     1       6.182   6.823   1.542  1.00  0.00     0.031 C 
ATOM     20  C   UNL     1       5.304   4.997  -5.059  1.00  0.00     0.029 A 
ATOM     21  C   UNL     1       5.789   6.358  -4.846  1.00  0.00     0.049 A 
ATOM     22  H   UNL     1       6.330   7.237  -3.036  1.00  0.00     0.167 HD
ATOM     23  C   UNL     1       7.363   8.911   0.930  1.00  0.00     0.034 A 
ATOM     24  C   UNL     1       6.005   7.277  -5.806  1.00  0.00     0.034 A 
ATOM     25  C   UNL     1       7.818   9.877  -0.035  1.00  0.00     0.049 A 
ATOM     26  C   UNL     1       6.618   8.595  -5.409  1.00  0.00     0.074 A 
ATOM     27  C   UNL     1       8.493  11.065   0.173  1.00  0.00     0.029 A 
ATOM     28  N   UNL     1       7.613   9.770  -1.407  1.00  0.00    -0.354 N 
ATOM     29  N   UNL     1       6.940   9.026  -4.210  1.00  0.00    -0.248 NA
ATOM     30  C   UNL     1       6.939   9.531  -6.493  1.00  0.00     0.031 C 
ATOM     31  C   UNL     1       8.646  11.701  -1.065  1.00  0.00     0.029 A 
ATOM     32  C   UNL     1       8.124  10.881  -2.055  1.00  0.00     0.049 A 
ATOM     33  H   UNL     1       7.168   9.013  -1.853  1.00  0.00     0.167 HD
ATOM     34  C   UNL     1       7.554  10.259  -4.401  1.00  0.00     0.074 A 
ATOM     35  C   UNL     1       7.542  10.508  -5.830  1.00  0.00     0.031 C 
ATOM     36  C   UNL     1       8.102  11.098  -3.484  1.00  0.00     0.034 A 
BRANCH  23  37
ATOM     37  C   UNL     1       7.590   9.135   2.405  1.00  0.00     0.023 A 
ATOM     38  C   UNL     1       8.346   8.222   3.166  1.00  0.00     0.031 A 
ATOM     39  C   UNL     1       6.954  10.188   3.081  1.00  0.00     0.131 A 
ATOM     40  C   UNL     1       8.352   8.312   4.566  1.00  0.00     0.055 A 
ATOM     41  C   UNL     1       7.039  10.324   4.469  1.00  0.00     0.041 A 
ATOM     42  F   UNL     1       6.203  11.076   2.412  1.00  0.00    -0.206 F 
ATOM     43  C   UNL     1       7.720   9.370   5.222  1.00  0.00     0.022 A 
BRANCH  40  44
ATOM     44  S   UNL     1       9.030   6.922   5.516  1.00  0.00     0.124 S 
ATOM     45  O   UNL     1       8.202   5.813   5.050  1.00  0.00    -0.237 OA
ATOM     46  O   UNL     1      10.425   6.899   5.091  1.00  0.00    -0.237 OA
ATOM     47  O   UNL     1       8.806   7.316   6.906  1.00  0.00    -0.744 OA
ENDBRANCH  40  44
ENDBRANCH  23  37
BRANCH  24  48
ATOM     48  C   UNL     1       5.641   6.984  -7.220  1.00  0.00     0.023 A 
ATOM     49  C   UNL     1       6.619   6.817  -8.213  1.00  0.00     0.031 A 
ATOM     50  C   UNL     1       4.290   6.883  -7.600  1.00  0.00     0.131 A 
ATOM     51  C   UNL     1       6.231   6.590  -9.544  1.00  0.00     0.055 A 
ATOM     52  C   UNL     1       3.910   6.629  -8.919  1.00  0.00     0.041 A 
ATOM     53  F   UNL     1       3.317   7.014  -6.684  1.00  0.00    -0.206 F 
ATOM     54  C   UNL     1       4.884   6.491  -9.902  1.00  0.00     0.022 A 
BRANCH  51  55
ATOM     55  S   UNL     1       7.518   6.466 -10.816  1.00  0.00     0.124 S 
ATOM     56  O   UNL     1       8.203   7.746 -10.675  1.00  0.00    -0.237 OA
ATOM     57  O   UNL     1       8.259   5.288 -10.378  1.00  0.00    -0.237 OA
ATOM     58  O   UNL     1       6.758   6.296 -12.053  1.00  0.00    -0.744 OA
ENDBRANCH  51  55
ENDBRANCH  24  48
BRANCH  36  59
ATOM     59  C   UNL     1       8.797  12.325  -4.014  1.00  0.00     0.023 A 
ATOM     60  C   UNL     1       8.086  13.389  -4.592  1.00  0.00     0.031 A 
ATOM     61  C   UNL     1      10.197  12.425  -3.928  1.00  0.00     0.131 A 
ATOM     62  C   UNL     1       8.785  14.491  -5.107  1.00  0.00     0.055 A 
ATOM     63  C   UNL     1      10.881  13.547  -4.392  1.00  0.00     0.041 A 
ATOM     64  F   UNL     1      10.921  11.433  -3.384  1.00  0.00    -0.206 F 
ATOM     65  C   UNL     1      10.175  14.585  -4.995  1.00  0.00     0.022 A 
BRANCH  62  66
ATOM     66  S   UNL     1       7.856  15.774  -5.990  1.00  0.00     0.124 S 
ATOM     67  O   UNL     1       7.280  15.020  -7.099  1.00  0.00    -0.237 OA
ATOM     68  O   UNL     1       6.915  16.234  -4.974  1.00  0.00    -0.237 OA
ATOM     69  O   UNL     1       8.884  16.743  -6.365  1.00  0.00    -0.744 OA
ENDBRANCH  62  66
ENDBRANCH  36  59
ENDBRANCH  10  11
ENDBRANCH   3   5
ENDBRANCH   2   3
ENDBRANCH   1   2
BRANCH   1  70
ATOM     70  C   UNL     1       3.936  -1.494  -1.776  1.00  0.00     0.275 C 
BRANCH  70  71
ATOM     71  O   UNL     1       3.439  -0.231  -2.245  1.00  0.00    -0.458 OA
BRANCH  71  72
ATOM     72  C   UNL     1       2.085  -0.111  -2.229  1.00  0.00     0.342 C 
ATOM     73  O   UNL     1       1.287  -0.968  -1.881  1.00  0.00    -0.246 OA
BRANCH  72  74
ATOM     74  C   UNL     1       1.696   1.267  -2.577  1.00  0.00     0.102 A 
ATOM     75  C   UNL     1       2.262   1.905  -3.682  1.00  0.00     0.022 A 
ATOM     76  C   UNL     1       0.779   1.953  -1.768  1.00  0.00     0.141 A 
ATOM     77  C   UNL     1       1.929   3.230  -3.940  1.00  0.00     0.034 A 
ATOM     78  N   UNL     1       0.479   3.249  -2.012  1.00  0.00    -0.226 NA
ATOM     79  C   UNL     1       1.061   3.891  -3.073  1.00  0.00     0.146 A 
BRANCH  76  80
ATOM     80  N   UNL     1       0.214   1.346  -0.665  1.00  0.00    -0.369 N 
ATOM     81  H   UNL     1       0.214   0.362  -0.633  1.00  0.00     0.162 HD
BRANCH  80  82
ATOM     82  C   UNL     1      -0.378   2.057   0.447  1.00  0.00     0.120 C 
BRANCH  82  83
ATOM     83  C   UNL     1      -1.830   1.631   0.690  1.00  0.00     0.036 C 
ATOM     84  C   UNL     1      -2.307   2.115   2.050  1.00  0.00     0.036 C 
ATOM     85  C   UNL     1      -2.038   0.125   0.816  1.00  0.00     0.165 C 
ATOM     86  C   UNL     1      -1.881   0.988   2.968  1.00  0.00     0.160 C 
ATOM     87  O   UNL     1      -2.046  -0.215   2.212  1.00  0.00    -0.381 OA
ENDBRANCH  82  83
ENDBRANCH  80  82
ENDBRANCH  76  80
BRANCH  79  88
ATOM     88  C   UNL     1       0.774   5.375  -3.275  1.00  0.00     0.433 C 
ATOM     89  F   UNL     1      -0.557   5.636  -3.436  1.00  0.00    -0.165 F 
ATOM     90  F   UNL     1       1.182   6.139  -2.222  1.00  0.00    -0.165 F 
ATOM     91  F   UNL     1       1.380   5.900  -4.378  1.00  0.00    -0.165 F 
ENDBRANCH  79  88
ENDBRANCH  72  74
ENDBRANCH  71  72
ENDBRANCH  70  71
ENDBRANCH   1  70
TORSDOF 18
