REMARK SMILES CS(=O)(=O)c1ccc(-c2cc(Cl)cc3c2O[C@H](C(F)(F)F)C(C(=O)OCCOC(=O)c2ccc(-c4c5nc(c(-c6cc(S(=O)(=O)[O-])ccc6F)c6ccc([nH]6)c(-c6cc(S(=O)(=O)[O-])ccc6F)c6nc(c(-c7cc(S(=O)(=O)[O-])ccc7F)c7ccc4[nH]7)C=C6)C=C5)cc2)=C3)cc1
REMARK SMILES IDX 27 1 26 2 25 3 23 4 24 5 22 6 9 7 10 8 15 9 11 10 14 11
REMARK SMILES IDX 16 12 12 13 13 14 94 15 17 16 8 17 5 18 6 19 96 20 7 21
REMARK SMILES IDX 95 22 2 23 1 24 3 25 4 26 18 27 19 28 20 29 21 30 28 31
REMARK SMILES IDX 29 32 30 33 31 34 32 35 93 36 33 37 92 38 34 39 35 40 36 41
REMARK SMILES IDX 86 42 37 43 91 44 85 45 87 46 38 47 90 48 84 49 83 50 39 52
REMARK SMILES IDX 71 53 51 54 70 55 52 56 55 57 69 58 88 59 53 60 54 61 68 63
REMARK SMILES IDX 89 64 56 65 40 66 41 67 49 68 42 69 48 70 50 71 47 72 43 73
REMARK SMILES IDX 44 74 45 75 46 76 72 77 73 78 81 79 74 80 80 81 82 82 79 83
REMARK SMILES IDX 75 84 76 85 77 86 78 87 57 88 58 89 66 90 59 91 65 92 67 93
REMARK SMILES IDX 64 94 60 95 61 96 62 97 63 98
REMARK H PARENT 87 51 55 62
REMARK Flexibility Score: inf
ROOT
ATOM      1  C   UNL     1       1.241  -8.229  10.416  1.00  0.00     0.275 C 
ENDROOT
BRANCH   1   2
ATOM      2  C   UNL     1       1.478  -7.255  11.577  1.00  0.00     0.275 C 
BRANCH   2   3
ATOM      3  O   UNL     1       0.934  -5.926  11.369  1.00  0.00    -0.459 OA
BRANCH   3   4
ATOM      4  C   UNL     1       1.862  -4.936  11.408  1.00  0.00     0.338 C 
ATOM      5  O   UNL     1       3.068  -5.134  11.513  1.00  0.00    -0.246 OA
BRANCH   4   6
ATOM      6  C   UNL     1       1.284  -3.560  11.400  1.00  0.00     0.087 C 
ATOM      7  C   UNL     1       1.528  -1.825   7.752  1.00  0.00     0.026 A 
ATOM      8  C   UNL     1       2.679  -2.503   7.266  1.00  0.00     0.033 A 
ATOM      9  C   UNL     1       1.312  -2.005   9.130  1.00  0.00     0.135 A 
ATOM     10  C   UNL     1       3.628  -3.116   8.093  1.00  0.00     0.042 A 
ATOM     11  C   UNL     1       2.410  -2.379   9.954  1.00  0.00     0.019 A 
ATOM     12  O   UNL     1       0.061  -2.067   9.743  1.00  0.00    -0.475 OA
ATOM     13  Cl  UNL     1       4.833  -4.221   7.574  1.00  0.00    -0.084 Cl
ATOM     14  C   UNL     1       3.577  -2.904   9.440  1.00  0.00     0.032 A 
ATOM     15  C   UNL     1       2.197  -2.573  11.399  1.00  0.00     0.027 C 
ATOM     16  C   UNL     1      -0.046  -3.196  10.761  1.00  0.00     0.316 C 
BRANCH   7  17
ATOM     17  C   UNL     1       0.897  -0.897   6.738  1.00  0.00    -0.015 A 
ATOM     18  C   UNL     1       0.540   0.511   4.240  1.00  0.00     0.067 A 
ATOM     19  C   UNL     1      -0.262  -0.585   4.564  1.00  0.00     0.021 A 
ATOM     20  C   UNL     1       1.448   0.973   5.191  1.00  0.00     0.021 A 
ATOM     21  C   UNL     1      -0.109  -1.248   5.816  1.00  0.00     0.010 A 
ATOM     22  C   UNL     1       1.622   0.275   6.407  1.00  0.00     0.010 A 
BRANCH  18  23
ATOM     23  S   UNL     1       0.261   1.454   2.736  1.00  0.00     0.175 S 
ATOM     24  C   UNL     1       0.895   0.516   1.374  1.00  0.00     0.163 C 
ATOM     25  O   UNL     1       1.059   2.665   2.842  1.00  0.00    -0.224 OA
ATOM     26  O   UNL     1      -1.179   1.556   2.587  1.00  0.00    -0.224 OA
ENDBRANCH  18  23
ENDBRANCH   7  17
BRANCH  16  27
ATOM     27  C   UNL     1      -0.953  -2.804  11.940  1.00  0.00     0.430 C 
ATOM     28  F   UNL     1      -0.545  -1.652  12.530  1.00  0.00    -0.167 F 
ATOM     29  F   UNL     1      -2.243  -2.648  11.583  1.00  0.00    -0.167 F 
ATOM     30  F   UNL     1      -0.927  -3.758  12.912  1.00  0.00    -0.167 F 
ENDBRANCH  16  27
ENDBRANCH   4   6
ENDBRANCH   3   4
ENDBRANCH   2   3
ENDBRANCH   1   2
BRANCH   1  31
ATOM     31  O   UNL     1       1.601  -7.686   9.134  1.00  0.00    -0.458 OA
BRANCH  31  32
ATOM     32  C   UNL     1       0.569  -7.071   8.499  1.00  0.00     0.338 C 
ATOM     33  O   UNL     1      -0.558  -6.942   8.938  1.00  0.00    -0.246 OA
BRANCH  32  34
ATOM     34  C   UNL     1       1.011  -6.438   7.228  1.00  0.00     0.060 A 
ATOM     35  C   UNL     1       0.369  -5.256   6.885  1.00  0.00     0.016 A 
ATOM     36  C   UNL     1       1.979  -6.959   6.357  1.00  0.00     0.016 A 
ATOM     37  C   UNL     1       0.732  -4.591   5.713  1.00  0.00     0.010 A 
ATOM     38  C   UNL     1       2.336  -6.265   5.170  1.00  0.00     0.010 A 
ATOM     39  C   UNL     1       1.732  -5.046   4.841  1.00  0.00    -0.014 A 
BRANCH  39  40
ATOM     40  C   UNL     1       2.017  -4.215   3.610  1.00  0.00     0.031 A 
ATOM     41  C   UNL     1       0.938  -4.047   2.580  1.00  0.00     0.074 A 
ATOM     42  C   UNL     1       3.111  -3.427   3.479  1.00  0.00     0.049 A 
ATOM     43  N   UNL     1       0.972  -3.353   1.472  1.00  0.00    -0.248 NA
ATOM     44  C   UNL     1      -0.335  -4.740   2.824  1.00  0.00     0.031 C 
ATOM     45  C   UNL     1       4.203  -3.407   4.426  1.00  0.00     0.029 A 
ATOM     46  N   UNL     1       3.479  -2.449   2.575  1.00  0.00    -0.354 N 
ATOM     47  C   UNL     1      -0.267  -3.536   0.879  1.00  0.00     0.074 A 
ATOM     48  C   UNL     1      -1.042  -4.375   1.767  1.00  0.00     0.031 C 
ATOM     49  C   UNL     1       5.012  -2.364   4.191  1.00  0.00     0.029 A 
ATOM     50  C   UNL     1       4.652  -1.785   2.905  1.00  0.00     0.049 A 
ATOM     51  H   UNL     1       2.954  -2.241   1.768  1.00  0.00     0.167 HD
ATOM     52  C   UNL     1      -0.705  -3.072  -0.314  1.00  0.00     0.034 A 
ATOM     53  C   UNL     1       5.418  -0.898   2.224  1.00  0.00     0.034 A 
ATOM     54  C   UNL     1       0.098  -2.303  -1.228  1.00  0.00     0.049 A 
ATOM     55  C   UNL     1       5.002  -0.570   0.810  1.00  0.00     0.074 A 
ATOM     56  C   UNL     1      -0.251  -1.825  -2.478  1.00  0.00     0.029 A 
ATOM     57  N   UNL     1       1.413  -1.916  -1.008  1.00  0.00    -0.354 N 
ATOM     58  N   UNL     1       3.912  -0.938   0.176  1.00  0.00    -0.248 NA
ATOM     59  C   UNL     1       5.927   0.231  -0.004  1.00  0.00     0.031 C 
ATOM     60  C   UNL     1       0.857  -1.169  -3.022  1.00  0.00     0.029 A 
ATOM     61  C   UNL     1       1.865  -1.151  -2.071  1.00  0.00     0.049 A 
ATOM     62  H   UNL     1       1.946  -2.151  -0.215  1.00  0.00     0.167 HD
ATOM     63  C   UNL     1       4.016  -0.398  -1.101  1.00  0.00     0.074 A 
ATOM     64  C   UNL     1       5.270   0.323  -1.151  1.00  0.00     0.031 C 
ATOM     65  C   UNL     1       3.139  -0.477  -2.131  1.00  0.00     0.034 A 
BRANCH  52  66
ATOM     66  C   UNL     1      -2.095  -3.474  -0.719  1.00  0.00     0.023 A 
ATOM     67  C   UNL     1      -3.222  -3.024  -0.013  1.00  0.00     0.031 A 
ATOM     68  C   UNL     1      -2.285  -4.374  -1.780  1.00  0.00     0.131 A 
ATOM     69  C   UNL     1      -4.487  -3.537  -0.331  1.00  0.00     0.055 A 
ATOM     70  C   UNL     1      -3.556  -4.813  -2.147  1.00  0.00     0.041 A 
ATOM     71  F   UNL     1      -1.235  -4.861  -2.459  1.00  0.00    -0.206 F 
ATOM     72  C   UNL     1      -4.665  -4.407  -1.410  1.00  0.00     0.022 A 
BRANCH  69  73
ATOM     73  S   UNL     1      -5.862  -3.199   0.801  1.00  0.00     0.124 S 
ATOM     74  O   UNL     1      -5.309  -3.647   2.078  1.00  0.00    -0.237 OA
ATOM     75  O   UNL     1      -6.045  -1.761   0.650  1.00  0.00    -0.237 OA
ATOM     76  O   UNL     1      -6.945  -4.028   0.277  1.00  0.00    -0.744 OA
ENDBRANCH  69  73
ENDBRANCH  52  66
BRANCH  53  77
ATOM     77  C   UNL     1       6.740  -0.400   2.755  1.00  0.00     0.023 A 
ATOM     78  C   UNL     1       7.066   0.970   2.807  1.00  0.00     0.031 A 
ATOM     79  C   UNL     1       7.755  -1.309   3.120  1.00  0.00     0.131 A 
ATOM     80  C   UNL     1       8.367   1.377   3.174  1.00  0.00     0.055 A 
ATOM     81  C   UNL     1       9.011  -0.897   3.569  1.00  0.00     0.041 A 
ATOM     82  F   UNL     1       7.546  -2.633   3.039  1.00  0.00    -0.206 F 
ATOM     83  C   UNL     1       9.329   0.453   3.582  1.00  0.00     0.022 A 
BRANCH  80  84
ATOM     84  S   UNL     1       8.847   3.120   2.972  1.00  0.00     0.124 S 
ATOM     85  O   UNL     1       8.541   3.348   1.564  1.00  0.00    -0.237 OA
ATOM     86  O   UNL     1       7.980   3.786   3.937  1.00  0.00    -0.237 OA
ATOM     87  O   UNL     1      10.270   3.122   3.308  1.00  0.00    -0.744 OA
ENDBRANCH  80  84
ENDBRANCH  53  77
BRANCH  65  88
ATOM     88  C   UNL     1       3.471   0.301  -3.376  1.00  0.00     0.023 A 
ATOM     89  C   UNL     1       4.503  -0.083  -4.247  1.00  0.00     0.031 A 
ATOM     90  C   UNL     1       2.720   1.447  -3.695  1.00  0.00     0.131 A 
ATOM     91  C   UNL     1       4.772   0.691  -5.386  1.00  0.00     0.055 A 
ATOM     92  C   UNL     1       2.955   2.179  -4.857  1.00  0.00     0.041 A 
ATOM     93  F   UNL     1       1.732   1.861  -2.884  1.00  0.00    -0.206 F 
ATOM     94  C   UNL     1       3.990   1.805  -5.708  1.00  0.00     0.022 A 
BRANCH  91  95
ATOM     95  S   UNL     1       6.194   0.253  -6.424  1.00  0.00     0.124 S 
ATOM     96  O   UNL     1       7.311   0.466  -5.509  1.00  0.00    -0.237 OA
ATOM     97  O   UNL     1       5.912  -1.135  -6.773  1.00  0.00    -0.237 OA
ATOM     98  O   UNL     1       6.111   1.199  -7.535  1.00  0.00    -0.744 OA
ENDBRANCH  91  95
ENDBRANCH  65  88
ENDBRANCH  39  40
ENDBRANCH  32  34
ENDBRANCH  31  32
ENDBRANCH   1  31
TORSDOF 17
