REMARK SMILES COc1c(Cl)cc(C(=O)OCCOC(=O)c2ccc(-c3c4nc(c(-c5cc(S(=O)(=O)[O-])ccc5F)c5ccc([nH]5)c(-c5cc(S(=O)(=O)[O-])ccc5F)c5nc(c(-c6cc(S(=O)(=O)[O-])ccc6F)c6ccc3[nH]6)C=C5)C=C4)cc2)cc1NC(=S)NC(=O)c1ccccc1F
REMARK SMILES IDX 11 1 10 2 8 3 9 4 7 5 3 6 4 7 80 8 5 9 6 10 79 11 2 12 1 13
REMARK SMILES IDX 81 14 82 16 83 17 84 18 85 19 86 21 87 22 88 23 92 24 89 25
REMARK SMILES IDX 91 26 93 27 90 28 12 29 13 30 14 31 15 32 16 33 17 34 78 35
REMARK SMILES IDX 18 36 77 37 19 38 20 39 21 40 71 41 22 42 76 43 70 44 72 45
REMARK SMILES IDX 23 46 75 47 69 48 68 49 24 51 56 52 36 53 55 54 37 55 40 56
REMARK SMILES IDX 54 57 73 58 38 59 39 60 53 62 74 63 41 64 25 65 26 66 34 67
REMARK SMILES IDX 27 68 33 69 35 70 32 71 28 72 29 73 30 74 31 75 57 76 58 77
REMARK SMILES IDX 66 78 59 79 65 80 67 81 64 82 60 83 61 84 62 85 63 86 42 87
REMARK SMILES IDX 43 88 51 89 44 90 50 91 52 92 49 93 45 94 46 95 47 96 48 97
REMARK H PARENT 81 15 84 20 72 50 40 61
REMARK Flexibility Score: inf
ROOT
ATOM      1  C   UNL     1       2.502  -7.386   4.150  1.00  0.00     0.275 C 
ENDROOT
BRANCH   1   2
ATOM      2  O   UNL     1       2.106  -6.172   3.480  1.00  0.00    -0.458 OA
BRANCH   2   3
ATOM      3  C   UNL     1       2.459  -4.979   4.017  1.00  0.00     0.338 C 
ATOM      4  O   UNL     1       3.257  -4.795   4.918  1.00  0.00    -0.246 OA
BRANCH   3   5
ATOM      5  C   UNL     1       1.750  -3.860   3.242  1.00  0.00     0.063 A 
ATOM      6  C   UNL     1       0.728  -1.074   1.147  1.00  0.00     0.160 A 
ATOM      7  C   UNL     1       2.441  -1.620   1.221  1.00  0.00     0.086 A 
ATOM      8  C   UNL     1      -0.544  -1.837   2.090  1.00  0.00     0.085 A 
ATOM      9  Cl  UNL     1       3.717  -0.833   0.363  1.00  0.00    -0.080 Cl
ATOM     10  C   UNL     1       2.985  -2.996   2.227  1.00  0.00     0.040 A 
ATOM     11  C   UNL     1      -0.107  -3.080   3.156  1.00  0.00     0.045 A 
BRANCH   6  12
ATOM     12  O   UNL     1       0.217  -0.075   0.353  1.00  0.00    -0.493 OA
ATOM     13  C   UNL     1       0.994   0.363  -0.749  1.00  0.00     0.278 C 
ENDBRANCH   6  12
BRANCH   8  14
ATOM     14  N   UNL     1      -1.929  -1.886   1.861  1.00  0.00    -0.329 N 
ATOM     15  H   UNL     1      -2.290  -1.145   1.322  1.00  0.00     0.169 HD
BRANCH  14  16
ATOM     16  C   UNL     1      -2.864  -2.817   2.277  1.00  0.00     0.177 C 
ATOM     17  S   UNL     1      -4.481  -2.419   2.025  1.00  0.00    -0.040 S 
BRANCH  16  18
ATOM     18  N   UNL     1      -2.644  -4.104   2.897  1.00  0.00    -0.299 N 
ATOM     19  C   UNL     1      -1.818  -5.217   3.485  1.00  0.00     0.260 C 
ATOM     20  H   UNL     1      -3.559  -4.455   2.983  1.00  0.00     0.172 HD
ATOM     21  O   UNL     1      -2.378  -6.221   3.917  1.00  0.00    -0.269 OA
BRANCH  19  22
ATOM     22  C   UNL     1      -0.305  -5.132   3.572  1.00  0.00     0.075 A 
ATOM     23  C   UNL     1       0.183  -4.783   1.928  1.00  0.00     0.017 A 
ATOM     24  C   UNL     1       0.214  -4.147   4.992  1.00  0.00     0.135 A 
ATOM     25  C   UNL     1       0.985  -3.236   1.613  1.00  0.00     0.001 A 
ATOM     26  C   UNL     1       1.032  -2.567   4.831  1.00  0.00     0.040 A 
ATOM     27  F   UNL     1      -0.375  -4.396   6.173  1.00  0.00    -0.206 F 
ATOM     28  C   UNL     1       1.397  -1.981   3.154  1.00  0.00     0.003 A 
ENDBRANCH  19  22
ENDBRANCH  16  18
ENDBRANCH  14  16
ENDBRANCH   8  14
ENDBRANCH   3   5
ENDBRANCH   2   3
ENDBRANCH   1   2
BRANCH   1  29
ATOM     29  C   UNL     1       2.768  -8.465   3.099  1.00  0.00     0.275 C 
BRANCH  29  30
ATOM     30  O   UNL     1       3.966  -8.115   2.386  1.00  0.00    -0.458 OA
BRANCH  30  31
ATOM     31  C   UNL     1       3.772  -7.525   1.184  1.00  0.00     0.338 C 
ATOM     32  O   UNL     1       2.743  -7.464   0.535  1.00  0.00    -0.246 OA
BRANCH  31  33
ATOM     33  C   UNL     1       4.975  -6.744   0.873  1.00  0.00     0.060 A 
ATOM     34  C   UNL     1       5.111  -5.526   1.527  1.00  0.00     0.016 A 
ATOM     35  C   UNL     1       5.883  -7.117  -0.109  1.00  0.00     0.016 A 
ATOM     36  C   UNL     1       6.080  -4.616   1.126  1.00  0.00     0.010 A 
ATOM     37  C   UNL     1       6.936  -6.245  -0.425  1.00  0.00     0.010 A 
ATOM     38  C   UNL     1       7.027  -4.966   0.162  1.00  0.00    -0.014 A 
BRANCH  38  39
ATOM     39  C   UNL     1       8.060  -3.976  -0.266  1.00  0.00     0.031 A 
ATOM     40  C   UNL     1       8.192  -3.631  -1.727  1.00  0.00     0.074 A 
ATOM     41  C   UNL     1       8.855  -3.358   0.635  1.00  0.00     0.049 A 
ATOM     42  N   UNL     1       9.168  -3.026  -2.353  1.00  0.00    -0.248 NA
ATOM     43  C   UNL     1       7.082  -4.042  -2.600  1.00  0.00     0.031 C 
ATOM     44  C   UNL     1       8.769  -3.504   2.091  1.00  0.00     0.029 A 
ATOM     45  N   UNL     1       9.896  -2.477   0.461  1.00  0.00    -0.354 N 
ATOM     46  C   UNL     1       8.825  -3.049  -3.702  1.00  0.00     0.074 A 
ATOM     47  C   UNL     1       7.552  -3.731  -3.799  1.00  0.00     0.031 C 
ATOM     48  C   UNL     1       9.686  -2.717   2.672  1.00  0.00     0.029 A 
ATOM     49  C   UNL     1      10.517  -2.119   1.637  1.00  0.00     0.049 A 
ATOM     50  H   UNL     1      10.171  -2.134  -0.420  1.00  0.00     0.167 HD
ATOM     51  C   UNL     1       9.520  -2.553  -4.756  1.00  0.00     0.034 A 
ATOM     52  C   UNL     1      11.670  -1.456   1.864  1.00  0.00     0.034 A 
ATOM     53  C   UNL     1      10.765  -1.835  -4.619  1.00  0.00     0.049 A 
ATOM     54  C   UNL     1      12.475  -0.996   0.676  1.00  0.00     0.074 A 
ATOM     55  C   UNL     1      11.564  -1.295  -5.612  1.00  0.00     0.029 A 
ATOM     56  N   UNL     1      11.389  -1.546  -3.411  1.00  0.00    -0.354 N 
ATOM     57  N   UNL     1      12.201  -1.115  -0.604  1.00  0.00    -0.248 NA
ATOM     58  C   UNL     1      13.752  -0.329   0.959  1.00  0.00     0.031 C 
ATOM     59  C   UNL     1      12.702  -0.748  -5.012  1.00  0.00     0.029 A 
ATOM     60  C   UNL     1      12.573  -0.862  -3.637  1.00  0.00     0.049 A 
ATOM     61  H   UNL     1      11.040  -1.792  -2.524  1.00  0.00     0.167 HD
ATOM     62  C   UNL     1      13.259  -0.509  -1.275  1.00  0.00     0.074 A 
ATOM     63  C   UNL     1      14.166  -0.015  -0.260  1.00  0.00     0.031 C 
ATOM     64  C   UNL     1      13.463  -0.373  -2.610  1.00  0.00     0.034 A 
BRANCH  51  65
ATOM     65  C   UNL     1       8.993  -2.840  -6.142  1.00  0.00     0.023 A 
ATOM     66  C   UNL     1       7.758  -2.348  -6.597  1.00  0.00     0.031 A 
ATOM     67  C   UNL     1       9.736  -3.654  -7.018  1.00  0.00     0.131 A 
ATOM     68  C   UNL     1       7.272  -2.732  -7.857  1.00  0.00     0.055 A 
ATOM     69  C   UNL     1       9.288  -3.962  -8.303  1.00  0.00     0.041 A 
ATOM     70  F   UNL     1      10.912  -4.177  -6.632  1.00  0.00    -0.206 F 
ATOM     71  C   UNL     1       8.041  -3.513  -8.725  1.00  0.00     0.022 A 
BRANCH  68  72
ATOM     72  S   UNL     1       5.558  -2.322  -8.289  1.00  0.00     0.124 S 
ATOM     73  O   UNL     1       4.818  -2.981  -7.215  1.00  0.00    -0.237 OA
ATOM     74  O   UNL     1       5.564  -0.865  -8.258  1.00  0.00    -0.237 OA
ATOM     75  O   UNL     1       5.385  -2.918  -9.612  1.00  0.00    -0.744 OA
ENDBRANCH  68  72
ENDBRANCH  51  65
BRANCH  52  76
ATOM     76  C   UNL     1      12.187  -1.276   3.255  1.00  0.00     0.023 A 
ATOM     77  C   UNL     1      12.419   0.002   3.784  1.00  0.00     0.031 A 
ATOM     78  C   UNL     1      12.513  -2.386   4.059  1.00  0.00     0.131 A 
ATOM     79  C   UNL     1      13.003   0.139   5.055  1.00  0.00     0.055 A 
ATOM     80  C   UNL     1      13.025  -2.244   5.349  1.00  0.00     0.041 A 
ATOM     81  F   UNL     1      12.327  -3.636   3.603  1.00  0.00    -0.206 F 
ATOM     82  C   UNL     1      13.288  -0.974   5.848  1.00  0.00     0.022 A 
BRANCH  79  83
ATOM     83  S   UNL     1      13.492   1.795   5.611  1.00  0.00     0.124 S 
ATOM     84  O   UNL     1      14.386   2.215   4.538  1.00  0.00    -0.237 OA
ATOM     85  O   UNL     1      12.207   2.483   5.681  1.00  0.00    -0.237 OA
ATOM     86  O   UNL     1      14.136   1.545   6.899  1.00  0.00    -0.744 OA
ENDBRANCH  79  83
ENDBRANCH  52  76
BRANCH  64  87
ATOM     87  C   UNL     1      14.681   0.406  -3.040  1.00  0.00     0.023 A 
ATOM     88  C   UNL     1      15.985  -0.067  -2.816  1.00  0.00     0.031 A 
ATOM     89  C   UNL     1      14.528   1.649  -3.681  1.00  0.00     0.131 A 
ATOM     90  C   UNL     1      17.085   0.724  -3.179  1.00  0.00     0.055 A 
ATOM     91  C   UNL     1      15.625   2.400  -4.100  1.00  0.00     0.041 A 
ATOM     92  F   UNL     1      13.304   2.150  -3.915  1.00  0.00    -0.206 F 
ATOM     93  C   UNL     1      16.914   1.944  -3.838  1.00  0.00     0.022 A 
BRANCH  90  94
ATOM     94  S   UNL     1      18.746   0.183  -2.691  1.00  0.00     0.124 S 
ATOM     95  O   UNL     1      18.624   0.104  -1.239  1.00  0.00    -0.237 OA
ATOM     96  O   UNL     1      18.878  -1.091  -3.390  1.00  0.00    -0.237 OA
ATOM     97  O   UNL     1      19.613   1.252  -3.184  1.00  0.00    -0.744 OA
ENDBRANCH  90  94
ENDBRANCH  64  87
ENDBRANCH  38  39
ENDBRANCH  31  33
ENDBRANCH  30  31
ENDBRANCH  29  30
ENDBRANCH   1  29
TORSDOF 19
