REMARK SMILES Cc1n[nH]c(C(=O)N[C@H]2CC[C@@H](C(=O)OCCOC(=O)c3ccc(-c4c5nc(c(-c6cc(S(=O)(=O)[O-])ccc6F)c6ccc([nH]6)c(-c6cc(S(=O)(=O)[O-])ccc6F)c6nc(c(-c7cc(S(=O)(=O)[O-])ccc7F)c7ccc4[nH]7)C=C6)C=C5)cc3)C2)n1
REMARK SMILES IDX 17 1 16 2 15 3 13 4 14 5 12 6 9 7 10 8 84 9 11 10 8 11 6 12
REMARK SMILES IDX 7 13 5 15 1 16 2 17 3 18 85 19 4 20 18 22 19 23 20 24 21 25
REMARK SMILES IDX 22 26 83 27 23 28 82 29 24 30 25 31 26 32 76 33 27 34 81 35
REMARK SMILES IDX 75 36 77 37 28 38 80 39 74 40 73 41 29 43 61 44 41 45 60 46
REMARK SMILES IDX 42 47 45 48 59 49 78 50 43 51 44 52 58 54 79 55 46 56 30 57
REMARK SMILES IDX 31 58 39 59 32 60 38 61 40 62 37 63 33 64 34 65 35 66 36 67
REMARK SMILES IDX 62 68 63 69 71 70 64 71 70 72 72 73 69 74 65 75 66 76 67 77
REMARK SMILES IDX 68 78 47 79 48 80 56 81 49 82 55 83 57 84 54 85 50 86 51 87
REMARK SMILES IDX 52 88 53 89
REMARK H PARENT 8 14 4 21 77 42 45 53
REMARK Flexibility Score: inf
ROOT
ATOM      1  C   UNL     1      -4.551   6.058   5.500  1.00  0.00     0.275 C 
ENDROOT
BRANCH   1   2
ATOM      2  C   UNL     1      -5.532   6.421   4.381  1.00  0.00     0.274 C 
BRANCH   2   3
ATOM      3  O   UNL     1      -5.079   5.886   3.117  1.00  0.00    -0.462 OA
BRANCH   3   4
ATOM      4  C   UNL     1      -4.682   6.754   2.145  1.00  0.00     0.309 C 
ATOM      5  O   UNL     1      -4.851   7.969   2.182  1.00  0.00    -0.252 OA
BRANCH   4   6
ATOM      6  C   UNL     1      -4.012   6.045   0.963  1.00  0.00     0.101 C 
ATOM      7  C   UNL     1      -1.720   5.112   0.893  1.00  0.00     0.083 C 
ATOM      8  C   UNL     1      -2.713   4.096   0.350  1.00  0.00     0.026 C 
ATOM      9  C   UNL     1      -2.525   6.426   0.720  1.00  0.00     0.040 C 
ATOM     10  C   UNL     1      -4.019   4.509   1.013  1.00  0.00     0.017 C 
BRANCH   7  11
ATOM     11  N   UNL     1      -1.423   4.929   2.305  1.00  0.00    -0.347 N 
ATOM     12  C   UNL     1      -1.073   3.885   3.120  1.00  0.00     0.288 C 
ATOM     13  O   UNL     1      -1.177   4.124   4.325  1.00  0.00    -0.266 OA
ATOM     14  H   UNL     1      -1.492   5.774   2.805  1.00  0.00     0.164 HD
BRANCH  12  15
ATOM     15  C   UNL     1      -0.717   2.586   2.621  1.00  0.00     0.214 A 
ATOM     16  C   UNL     1      -0.447  -0.908   3.044  1.00  0.00     0.092 C 
ATOM     17  C   UNL     1      -0.429   0.488   2.563  1.00  0.00     0.148 A 
ATOM     18  N   UNL     1       0.008   0.880   1.354  1.00  0.00    -0.159 NA
ATOM     19  N   UNL     1      -0.943   1.494   3.322  1.00  0.00    -0.207 NA
ATOM     20  N   UNL     1      -0.107   2.220   1.460  1.00  0.00    -0.255 N 
ATOM     21  H   UNL     1       0.211   2.857   0.780  1.00  0.00     0.192 HD
ENDBRANCH  12  15
ENDBRANCH   7  11
ENDBRANCH   4   6
ENDBRANCH   3   4
ENDBRANCH   2   3
ENDBRANCH   1   2
BRANCH   1  22
ATOM     22  O   UNL     1      -3.580   7.082   5.787  1.00  0.00    -0.458 OA
BRANCH  22  23
ATOM     23  C   UNL     1      -2.592   7.186   4.882  1.00  0.00     0.338 C 
ATOM     24  O   UNL     1      -2.685   6.996   3.672  1.00  0.00    -0.246 OA
BRANCH  23  25
ATOM     25  C   UNL     1      -1.264   7.218   5.486  1.00  0.00     0.060 A 
ATOM     26  C   UNL     1      -0.206   7.012   4.592  1.00  0.00     0.016 A 
ATOM     27  C   UNL     1      -1.111   7.040   6.859  1.00  0.00     0.016 A 
ATOM     28  C   UNL     1       0.878   6.295   5.029  1.00  0.00     0.010 A 
ATOM     29  C   UNL     1       0.051   6.457   7.314  1.00  0.00     0.010 A 
ATOM     30  C   UNL     1       0.978   5.971   6.387  1.00  0.00    -0.014 A 
BRANCH  30  31
ATOM     31  C   UNL     1       2.205   5.315   6.833  1.00  0.00     0.031 A 
ATOM     32  C   UNL     1       3.416   6.014   6.304  1.00  0.00     0.074 A 
ATOM     33  C   UNL     1       2.190   4.328   7.755  1.00  0.00     0.049 A 
ATOM     34  N   UNL     1       4.398   5.522   5.620  1.00  0.00    -0.248 NA
ATOM     35  C   UNL     1       3.398   7.498   6.312  1.00  0.00     0.031 C 
ATOM     36  C   UNL     1       1.024   3.718   8.404  1.00  0.00     0.029 A 
ATOM     37  N   UNL     1       3.223   3.772   8.445  1.00  0.00    -0.354 N 
ATOM     38  C   UNL     1       5.237   6.602   5.361  1.00  0.00     0.074 A 
ATOM     39  C   UNL     1       4.456   7.787   5.559  1.00  0.00     0.031 C 
ATOM     40  C   UNL     1       1.406   3.134   9.561  1.00  0.00     0.029 A 
ATOM     41  C   UNL     1       2.851   3.213   9.672  1.00  0.00     0.049 A 
ATOM     42  H   UNL     1       4.149   3.765   8.111  1.00  0.00     0.167 HD
ATOM     43  C   UNL     1       6.587   6.451   5.335  1.00  0.00     0.034 A 
ATOM     44  C   UNL     1       3.675   2.971  10.734  1.00  0.00     0.034 A 
ATOM     45  C   UNL     1       6.950   5.087   5.040  1.00  0.00     0.049 A 
ATOM     46  C   UNL     1       5.058   2.940  10.183  1.00  0.00     0.074 A 
ATOM     47  C   UNL     1       6.689   4.235   3.983  1.00  0.00     0.029 A 
ATOM     48  N   UNL     1       7.335   4.275   6.083  1.00  0.00    -0.354 N 
ATOM     49  N   UNL     1       5.463   2.024   9.343  1.00  0.00    -0.248 NA
ATOM     50  C   UNL     1       5.784   4.203  10.121  1.00  0.00     0.031 C 
ATOM     51  C   UNL     1       6.428   2.971   4.588  1.00  0.00     0.029 A 
ATOM     52  C   UNL     1       6.644   3.091   5.962  1.00  0.00     0.049 A 
ATOM     53  H   UNL     1       7.986   4.499   6.787  1.00  0.00     0.167 HD
ATOM     54  C   UNL     1       6.175   2.716   8.374  1.00  0.00     0.074 A 
ATOM     55  C   UNL     1       6.386   4.051   8.937  1.00  0.00     0.031 C 
ATOM     56  C   UNL     1       6.260   2.260   7.088  1.00  0.00     0.034 A 
BRANCH  43  57
ATOM     57  C   UNL     1       7.528   7.434   5.997  1.00  0.00     0.023 A 
ATOM     58  C   UNL     1       8.904   7.181   5.884  1.00  0.00     0.031 A 
ATOM     59  C   UNL     1       7.158   8.406   6.962  1.00  0.00     0.131 A 
ATOM     60  C   UNL     1       9.819   7.789   6.761  1.00  0.00     0.055 A 
ATOM     61  C   UNL     1       8.079   9.056   7.784  1.00  0.00     0.041 A 
ATOM     62  F   UNL     1       5.888   8.719   7.241  1.00  0.00    -0.206 F 
ATOM     63  C   UNL     1       9.416   8.724   7.710  1.00  0.00     0.022 A 
BRANCH  60  64
ATOM     64  S   UNL     1      11.527   7.194   6.759  1.00  0.00     0.124 S 
ATOM     65  O   UNL     1      11.339   5.761   6.957  1.00  0.00    -0.237 OA
ATOM     66  O   UNL     1      11.984   7.608   5.437  1.00  0.00    -0.237 OA
ATOM     67  O   UNL     1      12.133   7.907   7.880  1.00  0.00    -0.744 OA
ENDBRANCH  60  64
ENDBRANCH  43  57
BRANCH  44  68
ATOM     68  C   UNL     1       3.365   3.214  12.181  1.00  0.00     0.023 A 
ATOM     69  C   UNL     1       4.106   2.651  13.249  1.00  0.00     0.031 A 
ATOM     70  C   UNL     1       2.435   4.221  12.535  1.00  0.00     0.131 A 
ATOM     71  C   UNL     1       3.889   3.087  14.584  1.00  0.00     0.055 A 
ATOM     72  C   UNL     1       2.226   4.645  13.850  1.00  0.00     0.041 A 
ATOM     73  F   UNL     1       1.749   4.895  11.600  1.00  0.00    -0.206 F 
ATOM     74  C   UNL     1       2.958   4.085  14.881  1.00  0.00     0.022 A 
BRANCH  71  75
ATOM     75  S   UNL     1       4.869   2.414  15.973  1.00  0.00     0.124 S 
ATOM     76  O   UNL     1       4.409   1.031  16.038  1.00  0.00    -0.237 OA
ATOM     77  O   UNL     1       6.240   2.622  15.524  1.00  0.00    -0.237 OA
ATOM     78  O   UNL     1       4.468   3.244  17.111  1.00  0.00    -0.744 OA
ENDBRANCH  71  75
ENDBRANCH  44  68
BRANCH  56  79
ATOM     79  C   UNL     1       5.763   0.859   6.773  1.00  0.00     0.023 A 
ATOM     80  C   UNL     1       4.446   0.380   6.983  1.00  0.00     0.031 A 
ATOM     81  C   UNL     1       6.662   0.010   6.105  1.00  0.00     0.131 A 
ATOM     82  C   UNL     1       4.084  -0.909   6.532  1.00  0.00     0.055 A 
ATOM     83  C   UNL     1       6.294  -1.251   5.641  1.00  0.00     0.041 A 
ATOM     84  F   UNL     1       7.920   0.412   5.856  1.00  0.00    -0.206 F 
ATOM     85  C   UNL     1       5.004  -1.717   5.857  1.00  0.00     0.022 A 
BRANCH  82  86
ATOM     86  S   UNL     1       2.421  -1.596   6.843  1.00  0.00     0.124 S 
ATOM     87  O   UNL     1       2.160  -1.248   8.234  1.00  0.00    -0.237 OA
ATOM     88  O   UNL     1       1.604  -0.914   5.843  1.00  0.00    -0.237 OA
ATOM     89  O   UNL     1       2.595  -3.030   6.598  1.00  0.00    -0.744 OA
ENDBRANCH  82  86
ENDBRANCH  56  79
ENDBRANCH  30  31
ENDBRANCH  23  25
ENDBRANCH  22  23
ENDBRANCH   1  22
TORSDOF 16
