REMARK SMILES CN(C(=O)CC(=O)OCCOC(=O)c1ccc(-c2c3nc(c(-c4cc(S(=O)(=O)[O-])ccc4F)c4ccc([nH]4)c(-c4cc(S(=O)(=O)[O-])ccc4F)c4nc(c(-c5cc(S(=O)(=O)[O-])ccc5F)c5ccc2[nH]5)C=C4)C=C3)cc1)C1CCC(C)(C)CC1
REMARK SMILES IDX 9 1 8 2 6 3 7 4 5 5 3 6 4 7 2 8 1 9 77 10 78 11 84 12 79 13
REMARK SMILES IDX 83 14 80 15 81 16 82 17 10 18 11 19 12 20 13 21 14 22 15 23
REMARK SMILES IDX 76 24 16 25 75 26 17 27 18 28 19 29 69 30 20 31 74 32 68 33
REMARK SMILES IDX 70 34 21 35 73 36 67 37 66 38 22 40 54 41 34 42 53 43 35 44
REMARK SMILES IDX 38 45 52 46 71 47 36 48 37 49 51 51 72 52 39 53 23 54 24 55
REMARK SMILES IDX 32 56 25 57 31 58 33 59 30 60 26 61 27 62 28 63 29 64 55 65
REMARK SMILES IDX 56 66 64 67 57 68 63 69 65 70 62 71 58 72 59 73 60 74 61 75
REMARK SMILES IDX 40 76 41 77 49 78 42 79 48 80 50 81 47 82 43 83 44 84 45 85
REMARK SMILES IDX 46 86
REMARK H PARENT 70 39 38 50
REMARK Flexibility Score: inf
ROOT
ATOM      1  C   UNL     1       2.044   2.250   3.557  1.00  0.00     0.274 C 
ENDROOT
BRANCH   1   2
ATOM      2  O   UNL     1       1.072   1.293   3.092  1.00  0.00    -0.462 OA
BRANCH   2   3
ATOM      3  C   UNL     1      -0.198   1.736   2.899  1.00  0.00     0.315 C 
ATOM      4  O   UNL     1      -0.579   2.875   3.145  1.00  0.00    -0.252 OA
BRANCH   3   5
ATOM      5  C   UNL     1      -1.091   0.715   2.246  1.00  0.00     0.222 C 
BRANCH   5   6
ATOM      6  C   UNL     1      -0.532  -0.685   2.272  1.00  0.00     0.233 C 
ATOM      7  O   UNL     1      -0.674  -1.328   3.312  1.00  0.00    -0.274 OA
BRANCH   6   8
ATOM      8  N   UNL     1       0.198  -1.144   1.181  1.00  0.00    -0.342 N 
ATOM      9  C   UNL     1      -0.048  -0.698  -0.188  1.00  0.00     0.147 C 
BRANCH   8  10
ATOM     10  C   UNL     1       1.274  -2.157   1.321  1.00  0.00     0.084 C 
ATOM     11  C   UNL     1       2.456  -1.676   2.171  1.00  0.00     0.025 C 
ATOM     12  C   UNL     1       0.823  -3.572   1.694  1.00  0.00     0.025 C 
ATOM     13  C   UNL     1       2.269  -1.871   3.670  1.00  0.00     0.008 C 
ATOM     14  C   UNL     1       0.720  -3.875   3.188  1.00  0.00     0.008 C 
ATOM     15  C   UNL     1       1.856  -3.304   4.071  1.00  0.00    -0.035 C 
ATOM     16  C   UNL     1       1.367  -3.275   5.533  1.00  0.00     0.011 C 
ATOM     17  C   UNL     1       3.087  -4.227   3.993  1.00  0.00     0.011 C 
ENDBRANCH   8  10
ENDBRANCH   6   8
ENDBRANCH   5   6
ENDBRANCH   3   5
ENDBRANCH   2   3
ENDBRANCH   1   2
BRANCH   1  18
ATOM     18  C   UNL     1       3.039   2.544   2.439  1.00  0.00     0.275 C 
BRANCH  18  19
ATOM     19  O   UNL     1       2.310   2.982   1.281  1.00  0.00    -0.458 OA
BRANCH  19  20
ATOM     20  C   UNL     1       2.611   2.366   0.118  1.00  0.00     0.338 C 
ATOM     21  O   UNL     1       3.528   1.578  -0.085  1.00  0.00    -0.246 OA
BRANCH  20  22
ATOM     22  C   UNL     1       1.645   2.772  -0.921  1.00  0.00     0.060 A 
ATOM     23  C   UNL     1       0.284   2.894  -0.624  1.00  0.00     0.016 A 
ATOM     24  C   UNL     1       2.093   2.965  -2.227  1.00  0.00     0.016 A 
ATOM     25  C   UNL     1      -0.635   3.159  -1.638  1.00  0.00     0.010 A 
ATOM     26  C   UNL     1       1.182   3.320  -3.225  1.00  0.00     0.010 A 
ATOM     27  C   UNL     1      -0.193   3.410  -2.944  1.00  0.00    -0.014 A 
BRANCH  27  28
ATOM     28  C   UNL     1      -1.144   3.799  -4.020  1.00  0.00     0.031 A 
ATOM     29  C   UNL     1      -1.270   2.951  -5.256  1.00  0.00     0.074 A 
ATOM     30  C   UNL     1      -1.852   4.941  -3.910  1.00  0.00     0.049 A 
ATOM     31  N   UNL     1      -1.830   3.236  -6.403  1.00  0.00    -0.248 NA
ATOM     32  C   UNL     1      -0.673   1.608  -5.194  1.00  0.00     0.031 C 
ATOM     33  C   UNL     1      -1.858   5.827  -2.744  1.00  0.00     0.029 A 
ATOM     34  N   UNL     1      -2.689   5.567  -4.802  1.00  0.00    -0.354 N 
ATOM     35  C   UNL     1      -1.631   2.121  -7.211  1.00  0.00     0.074 A 
ATOM     36  C   UNL     1      -0.881   1.163  -6.425  1.00  0.00     0.031 C 
ATOM     37  C   UNL     1      -2.654   6.878  -2.991  1.00  0.00     0.029 A 
ATOM     38  C   UNL     1      -3.141   6.790  -4.362  1.00  0.00     0.049 A 
ATOM     39  H   UNL     1      -2.940   5.178  -5.671  1.00  0.00     0.167 HD
ATOM     40  C   UNL     1      -2.036   1.922  -8.490  1.00  0.00     0.034 A 
ATOM     41  C   UNL     1      -3.814   7.763  -5.006  1.00  0.00     0.034 A 
ATOM     42  C   UNL     1      -2.788   2.889  -9.254  1.00  0.00     0.049 A 
ATOM     43  C   UNL     1      -4.174   7.558  -6.454  1.00  0.00     0.074 A 
ATOM     44  C   UNL     1      -3.242   2.797 -10.559  1.00  0.00     0.029 A 
ATOM     45  N   UNL     1      -3.200   4.127  -8.779  1.00  0.00    -0.354 N 
ATOM     46  N   UNL     1      -3.923   6.527  -7.227  1.00  0.00    -0.248 NA
ATOM     47  C   UNL     1      -4.894   8.652  -7.118  1.00  0.00     0.031 C 
ATOM     48  C   UNL     1      -3.884   3.997 -10.888  1.00  0.00     0.029 A 
ATOM     49  C   UNL     1      -3.884   4.815  -9.770  1.00  0.00     0.049 A 
ATOM     50  H   UNL     1      -3.031   4.467  -7.871  1.00  0.00     0.167 HD
ATOM     51  C   UNL     1      -4.468   6.845  -8.467  1.00  0.00     0.074 A 
ATOM     52  C   UNL     1      -5.077   8.153  -8.332  1.00  0.00     0.031 C 
ATOM     53  C   UNL     1      -4.467   6.124  -9.616  1.00  0.00     0.034 A 
BRANCH  40  54
ATOM     54  C   UNL     1      -1.631   0.630  -9.156  1.00  0.00     0.023 A 
ATOM     55  C   UNL     1      -2.143  -0.609  -8.737  1.00  0.00     0.031 A 
ATOM     56  C   UNL     1      -0.714   0.640 -10.223  1.00  0.00     0.131 A 
ATOM     57  C   UNL     1      -1.694  -1.792  -9.345  1.00  0.00     0.055 A 
ATOM     58  C   UNL     1      -0.323  -0.534 -10.868  1.00  0.00     0.041 A 
ATOM     59  F   UNL     1      -0.177   1.794 -10.650  1.00  0.00    -0.206 F 
ATOM     60  C   UNL     1      -0.806  -1.762 -10.423  1.00  0.00     0.022 A 
BRANCH  57  61
ATOM     61  S   UNL     1      -2.205  -3.381  -8.636  1.00  0.00     0.124 S 
ATOM     62  O   UNL     1      -1.645  -3.296  -7.289  1.00  0.00    -0.237 OA
ATOM     63  O   UNL     1      -3.659  -3.316  -8.728  1.00  0.00    -0.237 OA
ATOM     64  O   UNL     1      -1.568  -4.367  -9.507  1.00  0.00    -0.744 OA
ENDBRANCH  57  61
ENDBRANCH  40  54
BRANCH  41  65
ATOM     65  C   UNL     1      -4.112   9.054  -4.322  1.00  0.00     0.023 A 
ATOM     66  C   UNL     1      -5.433   9.463  -4.090  1.00  0.00     0.031 A 
ATOM     67  C   UNL     1      -3.074   9.919  -3.929  1.00  0.00     0.131 A 
ATOM     68  C   UNL     1      -5.684  10.719  -3.517  1.00  0.00     0.055 A 
ATOM     69  C   UNL     1      -3.327  11.143  -3.309  1.00  0.00     0.041 A 
ATOM     70  F   UNL     1      -1.791   9.577  -4.131  1.00  0.00    -0.206 F 
ATOM     71  C   UNL     1      -4.641  11.555  -3.112  1.00  0.00     0.022 A 
BRANCH  68  72
ATOM     72  S   UNL     1      -7.402  11.289  -3.395  1.00  0.00     0.124 S 
ATOM     73  O   UNL     1      -7.856  11.165  -4.775  1.00  0.00    -0.237 OA
ATOM     74  O   UNL     1      -7.968  10.337  -2.445  1.00  0.00    -0.237 OA
ATOM     75  O   UNL     1      -7.271  12.658  -2.901  1.00  0.00    -0.744 OA
ENDBRANCH  68  72
ENDBRANCH  41  65
BRANCH  53  76
ATOM     76  C   UNL     1      -5.181   6.733 -10.793  1.00  0.00     0.023 A 
ATOM     77  C   UNL     1      -4.657   7.846 -11.472  1.00  0.00     0.031 A 
ATOM     78  C   UNL     1      -6.413   6.209 -11.219  1.00  0.00     0.131 A 
ATOM     79  C   UNL     1      -5.391   8.433 -12.513  1.00  0.00     0.055 A 
ATOM     80  C   UNL     1      -7.115   6.769 -12.287  1.00  0.00     0.041 A 
ATOM     81  F   UNL     1      -6.955   5.148 -10.600  1.00  0.00    -0.206 F 
ATOM     82  C   UNL     1      -6.610   7.894 -12.933  1.00  0.00     0.022 A 
BRANCH  79  83
ATOM     83  S   UNL     1      -4.763   9.957 -13.269  1.00  0.00     0.124 S 
ATOM     84  O   UNL     1      -4.770  10.881 -12.140  1.00  0.00    -0.237 OA
ATOM     85  O   UNL     1      -3.447   9.550 -13.751  1.00  0.00    -0.237 OA
ATOM     86  O   UNL     1      -5.740  10.249 -14.316  1.00  0.00    -0.744 OA
ENDBRANCH  79  83
ENDBRANCH  53  76
ENDBRANCH  27  28
ENDBRANCH  20  22
ENDBRANCH  19  20
ENDBRANCH  18  19
ENDBRANCH   1  18
TORSDOF 17
