REMARK SMILES CCCCNC(=O)c1c(Cl)c(Cl)c(Cl)c(Cl)c1C(=O)OCCOC(=O)c1ccc(-c2c3nc(c(-c4cc(S(=O)(=O)[O-])ccc4F)c4ccc([nH]4)c(-c4cc(S(=O)(=O)[O-])ccc4F)c4nc(c(-c5cc(S(=O)(=O)[O-])ccc5F)c5ccc2[nH]5)C=C4)C=C3)cc1
REMARK SMILES IDX 21 1 20 2 18 3 19 4 17 5 8 6 9 7 10 8 11 9 15 10 12 11 13 12
REMARK SMILES IDX 16 13 14 14 6 15 5 16 7 18 4 19 3 20 2 21 1 22 22 23 23 24
REMARK SMILES IDX 24 25 25 26 26 27 27 28 88 29 28 30 87 31 29 32 30 33 31 34
REMARK SMILES IDX 81 35 32 36 86 37 80 38 82 39 33 40 85 41 79 42 78 43 34 45
REMARK SMILES IDX 66 46 46 47 65 48 47 49 50 50 64 51 83 52 48 53 49 54 63 56
REMARK SMILES IDX 84 57 51 58 35 59 36 60 44 61 37 62 43 63 45 64 42 65 38 66
REMARK SMILES IDX 39 67 40 68 41 69 67 70 68 71 76 72 69 73 75 74 77 75 74 76
REMARK SMILES IDX 70 77 71 78 72 79 73 80 52 81 53 82 61 83 54 84 60 85 62 86
REMARK SMILES IDX 59 87 55 88 56 89 57 90 58 91
REMARK H PARENT 5 17 82 44 50 55
REMARK Flexibility Score: inf
ROOT
ATOM      1  C   UNL     1      -3.991   4.893  -1.943  1.00  0.00     0.275 C 
ENDROOT
BRANCH   1   2
ATOM      2  O   UNL     1      -2.627   4.753  -2.409  1.00  0.00    -0.458 OA
BRANCH   2   3
ATOM      3  C   UNL     1      -2.440   4.998  -3.724  1.00  0.00     0.340 C 
ATOM      4  O   UNL     1      -3.254   5.467  -4.506  1.00  0.00    -0.246 OA
BRANCH   3   5
ATOM      5  C   UNL     1      -1.144   4.505  -4.231  1.00  0.00     0.094 A 
ATOM      6  C   UNL     1      -0.925   3.126  -4.291  1.00  0.00     0.076 A 
ATOM      7  C   UNL     1       0.021   2.583  -5.172  1.00  0.00     0.074 A 
ATOM      8  Cl  UNL     1       0.220   0.858  -5.269  1.00  0.00    -0.082 Cl
ATOM      9  C   UNL     1       0.797   3.440  -5.970  1.00  0.00     0.080 A 
ATOM     10  C   UNL     1      -0.291   5.359  -4.940  1.00  0.00     0.076 A 
ATOM     11  Cl  UNL     1       1.957   2.779  -7.086  1.00  0.00    -0.081 Cl
ATOM     12  C   UNL     1       0.665   4.832  -5.829  1.00  0.00     0.080 A 
ATOM     13  Cl  UNL     1      -0.283   7.048  -4.594  1.00  0.00    -0.082 Cl
ATOM     14  Cl  UNL     1       1.667   5.904  -6.768  1.00  0.00    -0.081 Cl
BRANCH   6  15
ATOM     15  C   UNL     1      -1.597   2.269  -3.305  1.00  0.00     0.253 C 
ATOM     16  N   UNL     1      -0.891   1.939  -2.172  1.00  0.00    -0.352 N 
ATOM     17  H   UNL     1      -1.397   1.474  -1.467  1.00  0.00     0.163 HD
ATOM     18  O   UNL     1      -2.752   1.912  -3.487  1.00  0.00    -0.269 OA
BRANCH  16  19
ATOM     19  C   UNL     1       0.516   2.193  -1.889  1.00  0.00     0.116 C 
BRANCH  19  20
ATOM     20  C   UNL     1       0.811   2.476  -0.420  1.00  0.00     0.021 C 
BRANCH  20  21
ATOM     21  C   UNL     1       0.405   1.375   0.561  1.00  0.00    -0.002 C 
ATOM     22  C   UNL     1       0.978   0.008   0.224  1.00  0.00     0.004 C 
ENDBRANCH  20  21
ENDBRANCH  19  20
ENDBRANCH  16  19
ENDBRANCH   6  15
ENDBRANCH   3   5
ENDBRANCH   2   3
ENDBRANCH   1   2
BRANCH   1  23
ATOM     23  C   UNL     1      -4.158   6.096  -1.019  1.00  0.00     0.275 C 
BRANCH  23  24
ATOM     24  O   UNL     1      -4.043   7.314  -1.771  1.00  0.00    -0.458 OA
BRANCH  24  25
ATOM     25  C   UNL     1      -2.820   7.887  -1.726  1.00  0.00     0.338 C 
ATOM     26  O   UNL     1      -1.858   7.524  -1.072  1.00  0.00    -0.246 OA
BRANCH  25  27
ATOM     27  C   UNL     1      -2.776   9.028  -2.649  1.00  0.00     0.060 A 
ATOM     28  C   UNL     1      -2.831   8.789  -4.018  1.00  0.00     0.016 A 
ATOM     29  C   UNL     1      -2.470  10.298  -2.167  1.00  0.00     0.016 A 
ATOM     30  C   UNL     1      -2.408   9.775  -4.905  1.00  0.00     0.010 A 
ATOM     31  C   UNL     1      -2.200  11.326  -3.074  1.00  0.00     0.010 A 
ATOM     32  C   UNL     1      -2.112  11.067  -4.455  1.00  0.00    -0.014 A 
BRANCH  32  33
ATOM     33  C   UNL     1      -1.691  12.144  -5.401  1.00  0.00     0.031 A 
ATOM     34  C   UNL     1      -0.451  12.953  -5.113  1.00  0.00     0.074 A 
ATOM     35  C   UNL     1      -2.426  12.427  -6.497  1.00  0.00     0.049 A 
ATOM     36  N   UNL     1      -0.098  14.126  -5.574  1.00  0.00    -0.248 NA
ATOM     37  C   UNL     1       0.504  12.374  -4.156  1.00  0.00     0.031 C 
ATOM     38  C   UNL     1      -3.596  11.676  -6.958  1.00  0.00     0.029 A 
ATOM     39  N   UNL     1      -2.306  13.439  -7.418  1.00  0.00    -0.354 N 
ATOM     40  C   UNL     1       1.078  14.461  -4.906  1.00  0.00     0.074 A 
ATOM     41  C   UNL     1       1.374  13.363  -4.009  1.00  0.00     0.031 C 
ATOM     42  C   UNL     1      -4.066  12.232  -8.082  1.00  0.00     0.029 A 
ATOM     43  C   UNL     1      -3.328  13.459  -8.340  1.00  0.00     0.049 A 
ATOM     44  H   UNL     1      -1.563  14.085  -7.420  1.00  0.00     0.167 HD
ATOM     45  C   UNL     1       1.823  15.589  -5.029  1.00  0.00     0.034 A 
ATOM     46  C   UNL     1      -3.698  14.397  -9.234  1.00  0.00     0.034 A 
ATOM     47  C   UNL     1       1.522  16.640  -5.974  1.00  0.00     0.049 A 
ATOM     48  C   UNL     1      -2.910  15.675  -9.303  1.00  0.00     0.074 A 
ATOM     49  C   UNL     1       2.206  17.823  -6.198  1.00  0.00     0.029 A 
ATOM     50  N   UNL     1       0.454  16.630  -6.864  1.00  0.00    -0.354 N 
ATOM     51  N   UNL     1      -1.866  16.039  -8.595  1.00  0.00    -0.248 NA
ATOM     52  C   UNL     1      -3.357  16.675 -10.280  1.00  0.00     0.031 C 
ATOM     53  C   UNL     1       1.514  18.556  -7.168  1.00  0.00     0.029 A 
ATOM     54  C   UNL     1       0.447  17.794  -7.617  1.00  0.00     0.049 A 
ATOM     55  H   UNL     1      -0.203  15.901  -6.946  1.00  0.00     0.167 HD
ATOM     56  C   UNL     1      -1.512  17.299  -9.064  1.00  0.00     0.074 A 
ATOM     57  C   UNL     1      -2.451  17.629 -10.117  1.00  0.00     0.031 C 
ATOM     58  C   UNL     1      -0.497  18.106  -8.665  1.00  0.00     0.034 A 
BRANCH  45  59
ATOM     59  C   UNL     1       2.981  15.781  -4.073  1.00  0.00     0.023 A 
ATOM     60  C   UNL     1       4.093  14.923  -4.047  1.00  0.00     0.031 A 
ATOM     61  C   UNL     1       2.957  16.846  -3.151  1.00  0.00     0.131 A 
ATOM     62  C   UNL     1       5.095  15.101  -3.078  1.00  0.00     0.055 A 
ATOM     63  C   UNL     1       3.997  17.069  -2.247  1.00  0.00     0.041 A 
ATOM     64  F   UNL     1       1.912  17.689  -3.107  1.00  0.00    -0.206 F 
ATOM     65  C   UNL     1       5.068  16.184  -2.196  1.00  0.00     0.022 A 
BRANCH  62  66
ATOM     66  S   UNL     1       6.361  13.815  -2.887  1.00  0.00     0.124 S 
ATOM     67  O   UNL     1       5.544  12.633  -2.618  1.00  0.00    -0.237 OA
ATOM     68  O   UNL     1       7.038  13.843  -4.177  1.00  0.00    -0.237 OA
ATOM     69  O   UNL     1       7.157  14.281  -1.753  1.00  0.00    -0.744 OA
ENDBRANCH  62  66
ENDBRANCH  45  59
BRANCH  46  70
ATOM     70  C   UNL     1      -4.923  14.197 -10.061  1.00  0.00     0.023 A 
ATOM     71  C   UNL     1      -4.846  14.108 -11.458  1.00  0.00     0.031 A 
ATOM     72  C   UNL     1      -6.195  14.096  -9.464  1.00  0.00     0.131 A 
ATOM     73  C   UNL     1      -6.019  13.954 -12.213  1.00  0.00     0.055 A 
ATOM     74  C   UNL     1      -7.350  13.878 -10.214  1.00  0.00     0.041 A 
ATOM     75  F   UNL     1      -6.328  14.178  -8.130  1.00  0.00    -0.206 F 
ATOM     76  C   UNL     1      -7.267  13.817 -11.601  1.00  0.00     0.022 A 
BRANCH  73  77
ATOM     77  S   UNL     1      -5.900  14.019 -14.021  1.00  0.00     0.124 S 
ATOM     78  O   UNL     1      -5.295  15.330 -14.231  1.00  0.00    -0.237 OA
ATOM     79  O   UNL     1      -5.054  12.867 -14.312  1.00  0.00    -0.237 OA
ATOM     80  O   UNL     1      -7.290  13.896 -14.458  1.00  0.00    -0.744 OA
ENDBRANCH  73  77
ENDBRANCH  46  70
BRANCH  58  81
ATOM     81  C   UNL     1      -0.305  19.390  -9.431  1.00  0.00     0.023 A 
ATOM     82  C   UNL     1      -1.226  20.448  -9.360  1.00  0.00     0.031 A 
ATOM     83  C   UNL     1       0.828  19.549 -10.251  1.00  0.00     0.131 A 
ATOM     84  C   UNL     1      -1.023  21.601 -10.133  1.00  0.00     0.055 A 
ATOM     85  C   UNL     1       1.054  20.721 -10.971  1.00  0.00     0.041 A 
ATOM     86  F   UNL     1       1.736  18.566 -10.359  1.00  0.00    -0.206 F 
ATOM     87  C   UNL     1       0.120  21.752 -10.923  1.00  0.00     0.022 A 
BRANCH  84  88
ATOM     88  S   UNL     1      -2.314  22.875 -10.158  1.00  0.00     0.124 S 
ATOM     89  O   UNL     1      -3.460  22.134 -10.676  1.00  0.00    -0.237 OA
ATOM     90  O   UNL     1      -2.392  23.270  -8.756  1.00  0.00    -0.237 OA
ATOM     91  O   UNL     1      -1.776  23.892 -11.059  1.00  0.00    -0.744 OA
ENDBRANCH  84  88
ENDBRANCH  58  81
ENDBRANCH  32  33
ENDBRANCH  25  27
ENDBRANCH  24  25
ENDBRANCH  23  24
ENDBRANCH   1  23
TORSDOF 18
