REMARK SMILES O=C(OCCOC(=O)[C@@H]1CCCN1S(=O)(=O)c1ccc2[nH]c(=O)c(=O)[nH]c2c1)c1ccc(-c2c3nc(c(-c4cc(S(=O)(=O)[O-])ccc4F)c4ccc([nH]4)c(-c4cc(S(=O)(=O)[O-])ccc4F)c4nc(c(-c5cc(S(=O)(=O)[O-])ccc5F)c5ccc2[nH]5)C=C4)C=C3)cc1
REMARK SMILES IDX 4 1 3 2 2 3 1 4 29 5 30 6 91 7 31 8 90 9 32 10 33 11 34 12
REMARK SMILES IDX 84 13 35 14 89 15 83 16 85 17 36 18 88 19 82 20 81 21 37 23
REMARK SMILES IDX 69 24 49 25 68 26 50 27 53 28 67 29 86 30 51 31 52 32 66 34
REMARK SMILES IDX 87 35 54 36 38 37 39 38 47 39 40 40 46 41 48 42 45 43 41 44
REMARK SMILES IDX 42 45 43 46 44 47 70 48 71 49 79 50 72 51 78 52 80 53 77 54
REMARK SMILES IDX 73 55 74 56 75 57 76 58 55 59 56 60 64 61 57 62 63 63 65 64
REMARK SMILES IDX 62 65 58 66 59 67 60 68 61 69 5 70 6 71 7 72 8 73 9 74 10 75
REMARK SMILES IDX 13 76 11 77 12 78 14 79 15 80 16 81 17 82 18 83 28 84 19 85
REMARK SMILES IDX 27 86 20 87 26 88 21 89 24 90 22 92 25 94 23 95
REMARK H PARENT 85 22 53 33 26 91 21 93
REMARK Flexibility Score: inf
ROOT
ATOM      1  C   UNL     1       3.479   1.908  -2.197  1.00  0.00     0.275 C 
ENDROOT
BRANCH   1   2
ATOM      2  O   UNL     1       2.360   1.123  -1.709  1.00  0.00    -0.458 OA
BRANCH   2   3
ATOM      3  C   UNL     1       2.168   0.390  -0.587  1.00  0.00     0.338 C 
ATOM      4  O   UNL     1       1.198  -0.361  -0.514  1.00  0.00    -0.246 OA
BRANCH   3   5
ATOM      5  C   UNL     1       3.031   0.480   0.640  1.00  0.00     0.060 A 
ATOM      6  C   UNL     1       4.465   1.566   0.860  1.00  0.00     0.016 A 
ATOM      7  C   UNL     1       2.438  -0.461   2.059  1.00  0.00     0.016 A 
ATOM      8  C   UNL     1       5.226   1.772   2.486  1.00  0.00     0.010 A 
ATOM      9  C   UNL     1       3.241  -0.308   3.660  1.00  0.00     0.010 A 
ATOM     10  C   UNL     1       4.652   0.823   3.892  1.00  0.00    -0.014 A 
BRANCH  10  11
ATOM     11  C   UNL     1       5.352   1.054   5.221  1.00  0.00     0.031 A 
ATOM     12  C   UNL     1       5.822  -0.068   6.122  1.00  0.00     0.074 A 
ATOM     13  C   UNL     1       5.607   2.322   5.625  1.00  0.00     0.049 A 
ATOM     14  N   UNL     1       6.676  -0.006   7.120  1.00  0.00    -0.248 NA
ATOM     15  C   UNL     1       5.309  -1.419   5.886  1.00  0.00     0.031 C 
ATOM     16  C   UNL     1       5.210   3.527   4.907  1.00  0.00     0.029 A 
ATOM     17  N   UNL     1       6.241   2.833   6.736  1.00  0.00    -0.354 N 
ATOM     18  C   UNL     1       6.892  -1.321   7.524  1.00  0.00     0.074 A 
ATOM     19  C   UNL     1       6.008  -2.147   6.741  1.00  0.00     0.031 C 
ATOM     20  C   UNL     1       5.586   4.623   5.570  1.00  0.00     0.029 A 
ATOM     21  C   UNL     1       6.251   4.213   6.790  1.00  0.00     0.049 A 
ATOM     22  H   UNL     1       6.651   2.266   7.428  1.00  0.00     0.167 HD
ATOM     23  C   UNL     1       7.750  -1.811   8.454  1.00  0.00     0.034 A 
ATOM     24  C   UNL     1       6.734   5.081   7.700  1.00  0.00     0.034 A 
ATOM     25  C   UNL     1       8.470  -0.984   9.388  1.00  0.00     0.049 A 
ATOM     26  C   UNL     1       7.517   4.529   8.848  1.00  0.00     0.074 A 
ATOM     27  C   UNL     1       9.299  -1.366  10.428  1.00  0.00     0.029 A 
ATOM     28  N   UNL     1       8.378   0.402   9.445  1.00  0.00    -0.354 N 
ATOM     29  N   UNL     1       7.814   3.278   9.107  1.00  0.00    -0.248 NA
ATOM     30  C   UNL     1       8.059   5.498   9.804  1.00  0.00     0.031 C 
ATOM     31  C   UNL     1       9.625  -0.223  11.171  1.00  0.00     0.029 A 
ATOM     32  C   UNL     1       9.069   0.883  10.547  1.00  0.00     0.049 A 
ATOM     33  H   UNL     1       7.893   0.962   8.797  1.00  0.00     0.167 HD
ATOM     34  C   UNL     1       8.604   3.308  10.248  1.00  0.00     0.074 A 
ATOM     35  C   UNL     1       8.747   4.706  10.613  1.00  0.00     0.031 C 
ATOM     36  C   UNL     1       9.166   2.274  10.924  1.00  0.00     0.034 A 
BRANCH  23  37
ATOM     37  C   UNL     1       7.865  -3.317   8.535  1.00  0.00     0.023 A 
ATOM     38  C   UNL     1       8.409  -4.066   7.470  1.00  0.00     0.031 A 
ATOM     39  C   UNL     1       7.367  -4.020   9.644  1.00  0.00     0.131 A 
ATOM     40  C   UNL     1       8.386  -5.470   7.513  1.00  0.00     0.055 A 
ATOM     41  C   UNL     1       7.399  -5.416   9.706  1.00  0.00     0.041 A 
ATOM     42  F   UNL     1       6.809  -3.364  10.673  1.00  0.00    -0.206 F 
ATOM     43  C   UNL     1       7.899  -6.148   8.633  1.00  0.00     0.022 A 
BRANCH  40  44
ATOM     44  S   UNL     1       8.897  -6.407   6.043  1.00  0.00     0.124 S 
ATOM     45  O   UNL     1       7.943  -5.936   5.041  1.00  0.00    -0.237 OA
ATOM     46  O   UNL     1      10.280  -5.982   5.862  1.00  0.00    -0.237 OA
ATOM     47  O   UNL     1       8.722  -7.800   6.448  1.00  0.00    -0.744 OA
ENDBRANCH  40  44
ENDBRANCH  23  37
BRANCH  24  48
ATOM     48  C   UNL     1       6.476   6.545   7.542  1.00  0.00     0.023 A 
ATOM     49  C   UNL     1       7.510   7.461   7.288  1.00  0.00     0.031 A 
ATOM     50  C   UNL     1       5.159   7.044   7.609  1.00  0.00     0.131 A 
ATOM     51  C   UNL     1       7.211   8.825   7.121  1.00  0.00     0.055 A 
ATOM     52  C   UNL     1       4.864   8.393   7.405  1.00  0.00     0.041 A 
ATOM     53  F   UNL     1       4.130   6.211   7.833  1.00  0.00    -0.206 F 
ATOM     54  C   UNL     1       5.895   9.293   7.166  1.00  0.00     0.022 A 
BRANCH  51  55
ATOM     55  S   UNL     1       8.573  10.000   6.881  1.00  0.00     0.124 S 
ATOM     56  O   UNL     1       9.422   9.719   8.033  1.00  0.00    -0.237 OA
ATOM     57  O   UNL     1       9.095   9.591   5.581  1.00  0.00    -0.237 OA
ATOM     58  O   UNL     1       7.907  11.301   6.901  1.00  0.00    -0.744 OA
ENDBRANCH  51  55
ENDBRANCH  24  48
BRANCH  36  59
ATOM     59  C   UNL     1       9.988   2.642  12.129  1.00  0.00     0.023 A 
ATOM     60  C   UNL     1       9.394   3.213  13.268  1.00  0.00     0.031 A 
ATOM     61  C   UNL     1      11.382   2.475  12.117  1.00  0.00     0.131 A 
ATOM     62  C   UNL     1      10.201   3.670  14.317  1.00  0.00     0.055 A 
ATOM     63  C   UNL     1      12.175   2.871  13.194  1.00  0.00     0.041 A 
ATOM     64  F   UNL     1      11.998   1.938  11.051  1.00  0.00    -0.206 F 
ATOM     65  C   UNL     1      11.587   3.488  14.295  1.00  0.00     0.022 A 
BRANCH  62  66
ATOM     66  S   UNL     1       9.424   4.613  15.656  1.00  0.00     0.124 S 
ATOM     67  O   UNL     1       8.843   5.740  14.934  1.00  0.00    -0.237 OA
ATOM     68  O   UNL     1       8.475   3.651  16.207  1.00  0.00    -0.237 OA
ATOM     69  O   UNL     1      10.545   4.950  16.533  1.00  0.00    -0.744 OA
ENDBRANCH  62  66
ENDBRANCH  36  59
ENDBRANCH  10  11
ENDBRANCH   3   5
ENDBRANCH   2   3
ENDBRANCH   1   2
BRANCH   1  70
ATOM     70  C   UNL     1       3.412   3.394  -1.829  1.00  0.00     0.274 C 
BRANCH  70  71
ATOM     71  O   UNL     1       3.448   3.553  -0.405  1.00  0.00    -0.461 OA
BRANCH  71  72
ATOM     72  C   UNL     1       2.277   3.244   0.194  1.00  0.00     0.324 C 
ATOM     73  O   UNL     1       1.190   3.440  -0.346  1.00  0.00    -0.250 OA
BRANCH  72  74
ATOM     74  C   UNL     1       2.385   2.630   1.567  1.00  0.00     0.183 C 
ATOM     75  C   UNL     1       2.414   3.811   2.531  1.00  0.00     0.034 C 
ATOM     76  N   UNL     1       3.235   1.367   2.456  1.00  0.00    -0.184 NA
ATOM     77  C   UNL     1       1.954   3.257   3.852  1.00  0.00     0.019 C 
ATOM     78  C   UNL     1       2.292   1.760   3.914  1.00  0.00     0.103 C 
BRANCH  76  79
ATOM     79  S   UNL     1       4.792  -0.463   1.910  1.00  0.00     0.243 S 
ATOM     80  O   UNL     1       6.073  -0.023   1.320  1.00  0.00    -0.207 OA
ATOM     81  O   UNL     1       4.994  -1.467   2.961  1.00  0.00    -0.207 OA
BRANCH  79  82
ATOM     82  C   UNL     1       4.404  -1.730   0.447  1.00  0.00     0.084 A 
ATOM     83  C   UNL     1       4.547  -1.282  -0.875  1.00  0.00     0.024 A 
ATOM     84  C   UNL     1       4.642  -3.101   0.682  1.00  0.00     0.050 A 
ATOM     85  C   UNL     1       4.527  -2.142  -1.963  1.00  0.00     0.030 A 
ATOM     86  C   UNL     1       4.874  -3.956  -0.414  1.00  0.00     0.066 A 
ATOM     87  C   UNL     1       4.719  -3.487  -1.725  1.00  0.00     0.065 A 
ATOM     88  N   UNL     1       5.400  -5.245  -0.228  1.00  0.00    -0.316 N 
ATOM     89  N   UNL     1       4.888  -4.331  -2.819  1.00  0.00    -0.316 N 
ATOM     90  C   UNL     1       5.746  -6.080  -1.277  1.00  0.00     0.314 A 
ATOM     91  H   UNL     1       5.529  -5.570   0.692  1.00  0.00     0.170 HD
ATOM     92  C   UNL     1       5.354  -5.616  -2.702  1.00  0.00     0.314 A 
ATOM     93  H   UNL     1       4.663  -3.992  -3.716  1.00  0.00     0.170 HD
ATOM     94  O   UNL     1       6.337  -7.139  -1.119  1.00  0.00    -0.263 OA
ATOM     95  O   UNL     1       5.477  -6.338  -3.683  1.00  0.00    -0.263 OA
ENDBRANCH  79  82
ENDBRANCH  76  79
ENDBRANCH  72  74
ENDBRANCH  71  72
ENDBRANCH  70  71
ENDBRANCH   1  70
TORSDOF 16
