REMARK SMILES CCC([NH3+])(CC)C(=O)N1C[C@@H](O)C[C@H]1C(=O)OCCOC(=O)c1ccc(-c2c3nc(c(-c4cc(S(=O)(=O)[O-])ccc4F)c4ccc([nH]4)c(-c4cc(S(=O)(=O)[O-])ccc4F)c4nc(c(-c5cc(S(=O)(=O)[O-])ccc5F)c5ccc2[nH]5)C=C4)C=C3)cc1
REMARK SMILES IDX 18 1 17 2 15 3 16 4 14 5 9 6 10 7 11 8 13 9 7 10 8 11 3 12
REMARK SMILES IDX 2 13 1 14 4 15 5 19 6 20 12 21 19 23 20 24 21 25 22 26 23 27
REMARK SMILES IDX 24 28 85 29 25 30 84 31 26 32 27 33 28 34 78 35 29 36 83 37
REMARK SMILES IDX 77 38 79 39 30 40 82 41 76 42 75 43 31 45 63 46 43 47 62 48
REMARK SMILES IDX 44 49 47 50 61 51 80 52 45 53 46 54 60 56 81 57 48 58 32 59
REMARK SMILES IDX 33 60 41 61 34 62 40 63 42 64 39 65 35 66 36 67 37 68 38 69
REMARK SMILES IDX 64 70 65 71 73 72 66 73 72 74 74 75 71 76 67 77 68 78 69 79
REMARK SMILES IDX 70 80 49 81 50 82 58 83 51 84 57 85 59 86 56 87 52 88 53 89
REMARK SMILES IDX 54 90 55 91
REMARK H PARENT 4 16 4 17 4 18 12 22 79 44 47 55
REMARK Flexibility Score: inf
ROOT
ATOM      1  C   UNL     1       7.170   2.608  -1.680  1.00  0.00     0.274 C 
ENDROOT
BRANCH   1   2
ATOM      2  O   UNL     1       5.915   2.596  -2.387  1.00  0.00    -0.461 OA
BRANCH   2   3
ATOM      3  C   UNL     1       5.772   1.550  -3.241  1.00  0.00     0.329 C 
ATOM      4  O   UNL     1       6.683   0.792  -3.570  1.00  0.00    -0.250 OA
BRANCH   3   5
ATOM      5  C   UNL     1       4.381   1.426  -3.868  1.00  0.00     0.198 C 
ATOM      6  N   UNL     1       3.241   2.248  -3.446  1.00  0.00    -0.321 N 
ATOM      7  C   UNL     1       2.736   3.037  -4.551  1.00  0.00     0.152 C 
ATOM      8  C   UNL     1       3.255   2.344  -5.805  1.00  0.00     0.136 C 
ATOM      9  C   UNL     1       4.563   1.716  -5.362  1.00  0.00     0.070 C 
BRANCH   6  10
ATOM     10  C   UNL     1       2.677   1.989  -2.207  1.00  0.00     0.284 C 
ATOM     11  O   UNL     1       3.435   1.692  -1.279  1.00  0.00    -0.268 OA
BRANCH  10  12
ATOM     12  C   UNL     1       1.105   1.871  -2.045  1.00  0.00     0.173 C 
BRANCH  12  13
ATOM     13  C   UNL     1       0.747   1.332  -0.619  1.00  0.00     0.075 C 
ATOM     14  C   UNL     1       1.216  -0.080  -0.259  1.00  0.00     0.011 C 
ENDBRANCH  12  13
BRANCH  12  15
ATOM     15  N   UNL     1       0.616   0.889  -3.050  1.00  0.00    -0.345 N 
ATOM     16  H   UNL     1      -0.396   0.793  -2.967  1.00  0.00     0.345 HD
ATOM     17  H   UNL     1       1.057  -0.016  -2.884  1.00  0.00     0.345 HD
ATOM     18  H   UNL     1       0.851   1.215  -3.987  1.00  0.00     0.345 HD
ENDBRANCH  12  15
BRANCH  12  19
ATOM     19  C   UNL     1       0.300   3.176  -2.269  1.00  0.00     0.075 C 
ATOM     20  C   UNL     1       0.756   4.372  -1.446  1.00  0.00     0.011 C 
ENDBRANCH  12  19
ENDBRANCH  10  12
ENDBRANCH   6  10
BRANCH   8  21
ATOM     21  O   UNL     1       3.457   3.248  -6.879  1.00  0.00    -0.391 OA
ATOM     22  H   UNL     1       4.087   3.935  -6.609  1.00  0.00     0.211 HD
ENDBRANCH   8  21
ENDBRANCH   3   5
ENDBRANCH   2   3
ENDBRANCH   1   2
BRANCH   1  23
ATOM     23  C   UNL     1       7.070   1.807  -0.383  1.00  0.00     0.275 C 
BRANCH  23  24
ATOM     24  O   UNL     1       6.622   0.471  -0.664  1.00  0.00    -0.458 OA
BRANCH  24  25
ATOM     25  C   UNL     1       5.806  -0.066   0.274  1.00  0.00     0.338 C 
ATOM     26  O   UNL     1       5.525   0.422   1.356  1.00  0.00    -0.246 OA
BRANCH  25  27
ATOM     27  C   UNL     1       5.372  -1.418  -0.144  1.00  0.00     0.060 A 
ATOM     28  C   UNL     1       4.987  -1.711  -1.456  1.00  0.00     0.016 A 
ATOM     29  C   UNL     1       5.306  -2.410   0.835  1.00  0.00     0.016 A 
ATOM     30  C   UNL     1       4.487  -2.976  -1.778  1.00  0.00     0.010 A 
ATOM     31  C   UNL     1       4.868  -3.691   0.500  1.00  0.00     0.010 A 
ATOM     32  C   UNL     1       4.429  -3.982  -0.802  1.00  0.00    -0.014 A 
BRANCH  32  33
ATOM     33  C   UNL     1       3.893  -5.336  -1.101  1.00  0.00     0.031 A 
ATOM     34  C   UNL     1       2.655  -5.819  -0.393  1.00  0.00     0.074 A 
ATOM     35  C   UNL     1       4.546  -6.152  -1.951  1.00  0.00     0.049 A 
ATOM     36  N   UNL     1       2.145  -7.022  -0.335  1.00  0.00    -0.248 NA
ATOM     37  C   UNL     1       1.903  -4.809   0.367  1.00  0.00     0.031 C 
ATOM     38  C   UNL     1       5.737  -5.791  -2.721  1.00  0.00     0.029 A 
ATOM     39  N   UNL     1       4.314  -7.461  -2.293  1.00  0.00    -0.354 N 
ATOM     40  C   UNL     1       1.034  -6.926   0.497  1.00  0.00     0.074 A 
ATOM     41  C   UNL     1       0.959  -5.547   0.934  1.00  0.00     0.031 C 
ATOM     42  C   UNL     1       6.132  -6.851  -3.443  1.00  0.00     0.029 A 
ATOM     43  C   UNL     1       5.269  -7.986  -3.132  1.00  0.00     0.049 A 
ATOM     44  H   UNL     1       3.539  -7.974  -1.968  1.00  0.00     0.167 HD
ATOM     45  C   UNL     1       0.162  -7.899   0.863  1.00  0.00     0.034 A 
ATOM     46  C   UNL     1       5.460  -9.249  -3.563  1.00  0.00     0.034 A 
ATOM     47  C   UNL     1       0.251  -9.267   0.406  1.00  0.00     0.049 A 
ATOM     48  C   UNL     1       4.515 -10.326  -3.100  1.00  0.00     0.074 A 
ATOM     49  C   UNL     1      -0.588 -10.330   0.692  1.00  0.00     0.029 A 
ATOM     50  N   UNL     1       1.244  -9.763  -0.430  1.00  0.00    -0.354 N 
ATOM     51  N   UNL     1       3.485 -10.230  -2.291  1.00  0.00    -0.248 NA
ATOM     52  C   UNL     1       4.763 -11.683  -3.603  1.00  0.00     0.031 C 
ATOM     53  C   UNL     1      -0.070 -11.478   0.079  1.00  0.00     0.029 A 
ATOM     54  C   UNL     1       1.054 -11.120  -0.647  1.00  0.00     0.049 A 
ATOM     55  H   UNL     1       1.977  -9.228  -0.813  1.00  0.00     0.167 HD
ATOM     56  C   UNL     1       2.953 -11.512  -2.201  1.00  0.00     0.074 A 
ATOM     57  C   UNL     1       3.765 -12.359  -3.053  1.00  0.00     0.031 C 
ATOM     58  C   UNL     1       1.889 -11.952  -1.482  1.00  0.00     0.034 A 
BRANCH  45  59
ATOM     59  C   UNL     1      -0.924  -7.527   1.845  1.00  0.00     0.023 A 
ATOM     60  C   UNL     1      -1.931  -6.598   1.527  1.00  0.00     0.031 A 
ATOM     61  C   UNL     1      -0.934  -8.090   3.134  1.00  0.00     0.131 A 
ATOM     62  C   UNL     1      -2.860  -6.209   2.505  1.00  0.00     0.055 A 
ATOM     63  C   UNL     1      -1.907  -7.754   4.079  1.00  0.00     0.041 A 
ATOM     64  F   UNL     1       0.012  -8.967   3.504  1.00  0.00    -0.206 F 
ATOM     65  C   UNL     1      -2.869  -6.797   3.772  1.00  0.00     0.022 A 
BRANCH  62  66
ATOM     66  S   UNL     1      -3.974  -4.822   2.143  1.00  0.00     0.124 S 
ATOM     67  O   UNL     1      -3.026  -3.750   1.849  1.00  0.00    -0.237 OA
ATOM     68  O   UNL     1      -4.743  -5.324   1.011  1.00  0.00    -0.237 OA
ATOM     69  O   UNL     1      -4.727  -4.654   3.384  1.00  0.00    -0.744 OA
ENDBRANCH  62  66
ENDBRANCH  45  59
BRANCH  46  70
ATOM     70  C   UNL     1       6.623  -9.575  -4.436  1.00  0.00     0.023 A 
ATOM     71  C   UNL     1       6.438 -10.008  -5.757  1.00  0.00     0.031 A 
ATOM     72  C   UNL     1       7.940  -9.478  -3.950  1.00  0.00     0.131 A 
ATOM     73  C   UNL     1       7.550 -10.354  -6.541  1.00  0.00     0.055 A 
ATOM     74  C   UNL     1       9.045  -9.777  -4.748  1.00  0.00     0.041 A 
ATOM     75  F   UNL     1       8.172  -9.069  -2.692  1.00  0.00    -0.206 F 
ATOM     76  C   UNL     1       8.852 -10.228  -6.050  1.00  0.00     0.022 A 
BRANCH  73  77
ATOM     77  S   UNL     1       7.267 -11.034  -8.198  1.00  0.00     0.124 S 
ATOM     78  O   UNL     1       6.458 -12.212  -7.903  1.00  0.00    -0.237 OA
ATOM     79  O   UNL     1       6.579  -9.933  -8.864  1.00  0.00    -0.237 OA
ATOM     80  O   UNL     1       8.616 -11.310  -8.688  1.00  0.00    -0.744 OA
ENDBRANCH  73  77
ENDBRANCH  46  70
BRANCH  58  81
ATOM     81  C   UNL     1       1.533 -13.411  -1.625  1.00  0.00     0.023 A 
ATOM     82  C   UNL     1       2.365 -14.425  -1.120  1.00  0.00     0.031 A 
ATOM     83  C   UNL     1       0.361 -13.789  -2.304  1.00  0.00     0.131 A 
ATOM     84  C   UNL     1       2.043 -15.771  -1.353  1.00  0.00     0.055 A 
ATOM     85  C   UNL     1       0.017 -15.129  -2.483  1.00  0.00     0.041 A 
ATOM     86  F   UNL     1      -0.466 -12.859  -2.808  1.00  0.00    -0.206 F 
ATOM     87  C   UNL     1       0.867 -16.129  -2.018  1.00  0.00     0.022 A 
BRANCH  84  88
ATOM     88  S   UNL     1       3.229 -17.049  -0.854  1.00  0.00     0.124 S 
ATOM     89  O   UNL     1       4.416 -16.676  -1.616  1.00  0.00    -0.237 OA
ATOM     90  O   UNL     1       3.310 -16.854   0.590  1.00  0.00    -0.237 OA
ATOM     91  O   UNL     1       2.588 -18.294  -1.274  1.00  0.00    -0.744 OA
ENDBRANCH  84  88
ENDBRANCH  58  81
ENDBRANCH  32  33
ENDBRANCH  25  27
ENDBRANCH  24  25
ENDBRANCH  23  24
ENDBRANCH   1  23
TORSDOF 20
