REMARK SMILES Cc1nc(CN(CC(=O)OCCOC(=O)c2ccc(-c3c4nc(c(-c5cc(S(=O)(=O)[O-])ccc5F)c5ccc([nH]5)c(-c5cc(S(=O)(=O)[O-])ccc5F)c5nc(c(-c6cc(S(=O)(=O)[O-])ccc6F)c6ccc3[nH]6)C=C5)C=C4)cc2)c2cccc(Cl)c2)sc1C
REMARK SMILES IDX 11 1 10 2 8 3 9 4 7 5 6 6 5 7 4 8 1 9 2 10 3 11 87 12 86 13
REMARK SMILES IDX 88 14 79 15 80 16 85 17 81 18 83 19 82 20 84 21 12 22 13 23
REMARK SMILES IDX 14 24 15 25 16 26 17 27 78 28 18 29 77 30 19 31 20 32 21 33
REMARK SMILES IDX 71 34 22 35 76 36 70 37 72 38 23 39 75 40 69 41 68 42 24 44
REMARK SMILES IDX 56 45 36 46 55 47 37 48 40 49 54 50 73 51 38 52 39 53 53 55
REMARK SMILES IDX 74 56 41 57 25 58 26 59 34 60 27 61 33 62 35 63 32 64 28 65
REMARK SMILES IDX 29 66 30 67 31 68 57 69 58 70 66 71 59 72 65 73 67 74 64 75
REMARK SMILES IDX 60 76 61 77 62 78 63 79 42 80 43 81 51 82 44 83 50 84 52 85
REMARK SMILES IDX 49 86 45 87 46 88 47 89 48 90
REMARK H PARENT 72 43 40 54
REMARK Flexibility Score: inf
ROOT
ATOM      1  C   UNL     1      -4.281   6.441   1.806  1.00  0.00     0.274 C 
ENDROOT
BRANCH   1   2
ATOM      2  O   UNL     1      -3.547   5.237   1.517  1.00  0.00    -0.461 OA
BRANCH   2   3
ATOM      3  C   UNL     1      -2.296   5.404   1.001  1.00  0.00     0.325 C 
ATOM      4  O   UNL     1      -1.818   6.495   0.700  1.00  0.00    -0.250 OA
BRANCH   3   5
ATOM      5  C   UNL     1      -1.500   4.106   0.849  1.00  0.00     0.239 C 
BRANCH   5   6
ATOM      6  N   UNL     1      -2.293   2.879   1.052  1.00  0.00    -0.354 N 
BRANCH   6   7
ATOM      7  C   UNL     1      -2.395   1.957  -0.100  1.00  0.00     0.184 C 
BRANCH   7   8
ATOM      8  C   UNL     1      -1.246   0.996  -0.320  1.00  0.00     0.112 A 
ATOM      9  C   UNL     1       2.307   0.437  -0.287  1.00  0.00     0.068 C 
ATOM     10  C   UNL     1       0.835   0.227  -0.355  1.00  0.00     0.051 A 
ATOM     11  N   UNL     1       0.020   1.348  -0.443  1.00  0.00    -0.244 NA
ATOM     12  C   UNL     1       0.157  -0.978  -0.283  1.00  0.00     0.025 A 
ATOM     13  S   UNL     1      -1.533  -0.698  -0.313  1.00  0.00    -0.122 S 
ATOM     14  C   UNL     1       0.696  -2.358  -0.145  1.00  0.00     0.058 C 
ENDBRANCH   7   8
ENDBRANCH   6   7
BRANCH   6  15
ATOM     15  C   UNL     1      -2.183   2.298   2.319  1.00  0.00     0.039 A 
ATOM     16  C   UNL     1      -3.273   2.324   3.194  1.00  0.00     0.026 A 
ATOM     17  C   UNL     1      -0.995   1.701   2.767  1.00  0.00     0.046 A 
ATOM     18  C   UNL     1      -3.182   1.769   4.476  1.00  0.00     0.004 A 
ATOM     19  C   UNL     1      -0.913   1.122   4.031  1.00  0.00     0.043 A 
ATOM     20  C   UNL     1      -2.001   1.158   4.893  1.00  0.00     0.020 A 
ATOM     21  Cl  UNL     1       0.549   0.358   4.518  1.00  0.00    -0.084 Cl
ENDBRANCH   6  15
ENDBRANCH   5   6
ENDBRANCH   3   5
ENDBRANCH   2   3
ENDBRANCH   1   2
BRANCH   1  22
ATOM     22  C   UNL     1      -4.253   6.736   3.302  1.00  0.00     0.275 C 
BRANCH  22  23
ATOM     23  O   UNL     1      -2.891   6.860   3.743  1.00  0.00    -0.458 OA
BRANCH  23  24
ATOM     24  C   UNL     1      -2.501   5.936   4.653  1.00  0.00     0.338 C 
ATOM     25  O   UNL     1      -3.194   5.086   5.183  1.00  0.00    -0.246 OA
BRANCH  24  26
ATOM     26  C   UNL     1      -1.089   6.148   5.006  1.00  0.00     0.060 A 
ATOM     27  C   UNL     1      -0.074   6.001   4.059  1.00  0.00     0.016 A 
ATOM     28  C   UNL     1      -0.783   6.400   6.344  1.00  0.00     0.016 A 
ATOM     29  C   UNL     1       1.260   6.044   4.466  1.00  0.00     0.010 A 
ATOM     30  C   UNL     1       0.549   6.500   6.738  1.00  0.00     0.010 A 
ATOM     31  C   UNL     1       1.581   6.295   5.809  1.00  0.00    -0.014 A 
BRANCH  31  32
ATOM     32  C   UNL     1       2.992   6.366   6.260  1.00  0.00     0.031 A 
ATOM     33  C   UNL     1       3.549   5.312   7.174  1.00  0.00     0.074 A 
ATOM     34  C   UNL     1       3.745   7.418   5.888  1.00  0.00     0.049 A 
ATOM     35  N   UNL     1       4.693   5.284   7.807  1.00  0.00    -0.248 NA
ATOM     36  C   UNL     1       2.695   4.140   7.418  1.00  0.00     0.031 C 
ATOM     37  C   UNL     1       3.305   8.492   4.996  1.00  0.00     0.029 A 
ATOM     38  N   UNL     1       5.024   7.770   6.231  1.00  0.00    -0.354 N 
ATOM     39  C   UNL     1       4.695   4.100   8.539  1.00  0.00     0.074 A 
ATOM     40  C   UNL     1       3.423   3.454   8.288  1.00  0.00     0.031 C 
ATOM     41  C   UNL     1       4.293   9.390   4.872  1.00  0.00     0.029 A 
ATOM     42  C   UNL     1       5.410   8.985   5.718  1.00  0.00     0.049 A 
ATOM     43  H   UNL     1       5.609   7.208   6.790  1.00  0.00     0.167 HD
ATOM     44  C   UNL     1       5.671   3.606   9.343  1.00  0.00     0.034 A 
ATOM     45  C   UNL     1       6.520   9.715   5.940  1.00  0.00     0.034 A 
ATOM     46  C   UNL     1       6.927   4.280   9.585  1.00  0.00     0.049 A 
ATOM     47  C   UNL     1       7.570   9.171   6.867  1.00  0.00     0.074 A 
ATOM     48  C   UNL     1       7.991   3.876  10.372  1.00  0.00     0.029 A 
ATOM     49  N   UNL     1       7.284   5.512   9.046  1.00  0.00    -0.354 N 
ATOM     50  N   UNL     1       7.554   8.062   7.568  1.00  0.00    -0.248 NA
ATOM     51  C   UNL     1       8.786   9.975   7.028  1.00  0.00     0.031 C 
ATOM     52  C   UNL     1       8.964   4.884  10.353  1.00  0.00     0.029 A 
ATOM     53  C   UNL     1       8.539   5.891   9.502  1.00  0.00     0.049 A 
ATOM     54  H   UNL     1       6.727   6.039   8.428  1.00  0.00     0.167 HD
ATOM     55  C   UNL     1       8.763   8.031   8.253  1.00  0.00     0.074 A 
ATOM     56  C   UNL     1       9.491   9.223   7.861  1.00  0.00     0.031 C 
ATOM     57  C   UNL     1       9.231   7.102   9.126  1.00  0.00     0.034 A 
BRANCH  44  58
ATOM     58  C   UNL     1       5.387   2.305  10.059  1.00  0.00     0.023 A 
ATOM     59  C   UNL     1       5.199   1.097   9.363  1.00  0.00     0.031 A 
ATOM     60  C   UNL     1       5.271   2.278  11.461  1.00  0.00     0.131 A 
ATOM     61  C   UNL     1       4.841  -0.068  10.061  1.00  0.00     0.055 A 
ATOM     62  C   UNL     1       4.984   1.101  12.156  1.00  0.00     0.041 A 
ATOM     63  F   UNL     1       5.419   3.401  12.180  1.00  0.00    -0.206 F 
ATOM     64  C   UNL     1       4.753  -0.079  11.455  1.00  0.00     0.022 A 
BRANCH  61  65
ATOM     65  S   UNL     1       4.362  -1.541   9.115  1.00  0.00     0.124 S 
ATOM     66  O   UNL     1       3.235  -1.037   8.335  1.00  0.00    -0.237 OA
ATOM     67  O   UNL     1       5.576  -1.844   8.366  1.00  0.00    -0.237 OA
ATOM     68  O   UNL     1       4.008  -2.513  10.148  1.00  0.00    -0.744 OA
ENDBRANCH  61  65
ENDBRANCH  44  58
BRANCH  45  69
ATOM     69  C   UNL     1       6.653  11.057   5.314  1.00  0.00     0.023 A 
ATOM     70  C   UNL     1       7.590  11.299   4.300  1.00  0.00     0.031 A 
ATOM     71  C   UNL     1       5.816  12.116   5.713  1.00  0.00     0.131 A 
ATOM     72  C   UNL     1       7.680  12.577   3.726  1.00  0.00     0.055 A 
ATOM     73  C   UNL     1       5.882  13.373   5.111  1.00  0.00     0.041 A 
ATOM     74  F   UNL     1       4.896  11.930   6.673  1.00  0.00    -0.206 F 
ATOM     75  C   UNL     1       6.823  13.610   4.115  1.00  0.00     0.022 A 
BRANCH  72  76
ATOM     76  S   UNL     1       8.961  12.882   2.480  1.00  0.00     0.124 S 
ATOM     77  O   UNL     1      10.180  12.587   3.225  1.00  0.00    -0.237 OA
ATOM     78  O   UNL     1       8.602  11.929   1.435  1.00  0.00    -0.237 OA
ATOM     79  O   UNL     1       8.768  14.288   2.130  1.00  0.00    -0.744 OA
ENDBRANCH  72  76
ENDBRANCH  45  69
BRANCH  57  80
ATOM     80  C   UNL     1      10.606   7.350   9.691  1.00  0.00     0.023 A 
ATOM     81  C   UNL     1      10.848   8.394  10.600  1.00  0.00     0.031 A 
ATOM     82  C   UNL     1      11.693   6.559   9.280  1.00  0.00     0.131 A 
ATOM     83  C   UNL     1      12.159   8.657  11.026  1.00  0.00     0.055 A 
ATOM     84  C   UNL     1      12.986   6.793   9.747  1.00  0.00     0.041 A 
ATOM     85  F   UNL     1      11.514   5.552   8.410  1.00  0.00    -0.206 F 
ATOM     86  C   UNL     1      13.227   7.855  10.615  1.00  0.00     0.022 A 
BRANCH  83  87
ATOM     87  S   UNL     1      12.464  10.119  12.056  1.00  0.00     0.124 S 
ATOM     88  O   UNL     1      11.989  11.199  11.197  1.00  0.00    -0.237 OA
ATOM     89  O   UNL     1      11.656   9.842  13.239  1.00  0.00    -0.237 OA
ATOM     90  O   UNL     1      13.909  10.090  12.273  1.00  0.00    -0.744 OA
ENDBRANCH  83  87
ENDBRANCH  57  80
ENDBRANCH  31  32
ENDBRANCH  24  26
ENDBRANCH  23  24
ENDBRANCH  22  23
ENDBRANCH   1  22
TORSDOF 18
