REMARK SMILES O=C(CC[N@@H+]1CCc2ccccc2C1)OCCOC(=O)c1ccc(-c2c3nc(c(-c4cc(S(=O)(=O)[O-])ccc4F)c4ccc([nH]4)c(-c4cc(S(=O)(=O)[O-])ccc4F)c4nc(c(-c5cc(S(=O)(=O)[O-])ccc5F)c5ccc2[nH]5)C=C4)C=C3)cc1
REMARK SMILES IDX 17 1 16 2 15 3 2 4 1 5 3 6 4 7 5 8 6 9 14 10 7 12 13 13 8 14
REMARK SMILES IDX 12 15 9 16 11 17 10 18 18 19 19 20 20 21 21 22 22 23 83 24
REMARK SMILES IDX 23 25 82 26 24 27 25 28 26 29 76 30 27 31 81 32 75 33 77 34
REMARK SMILES IDX 28 35 80 36 74 37 73 38 29 40 61 41 41 42 60 43 42 44 45 45
REMARK SMILES IDX 59 46 78 47 43 48 44 49 58 51 79 52 46 53 30 54 31 55 39 56
REMARK SMILES IDX 32 57 38 58 40 59 37 60 33 61 34 62 35 63 36 64 62 65 63 66
REMARK SMILES IDX 71 67 64 68 70 69 72 70 69 71 65 72 66 73 67 74 68 75 47 76
REMARK SMILES IDX 48 77 56 78 49 79 55 80 57 81 54 82 50 83 51 84 52 85 53 86
REMARK H PARENT 5 11 77 39 45 50
REMARK Flexibility Score: inf
ROOT
ATOM      1  C   UNL     1       3.265  -1.872  -1.544  1.00  0.00     0.275 C 
ENDROOT
BRANCH   1   2
ATOM      2  C   UNL     1       2.539  -1.764  -0.184  1.00  0.00     0.274 C 
BRANCH   2   3
ATOM      3  O   UNL     1       1.987  -0.449  -0.012  1.00  0.00    -0.462 OA
BRANCH   3   4
ATOM      4  C   UNL     1       2.549   0.294   0.977  1.00  0.00     0.311 C 
ATOM      5  O   UNL     1       2.575  -0.042   2.150  1.00  0.00    -0.252 OA
BRANCH   4   6
ATOM      6  C   UNL     1       3.132   1.555   0.388  1.00  0.00     0.184 C 
BRANCH   6   7
ATOM      7  C   UNL     1       4.389   2.061   1.105  1.00  0.00     0.274 C 
BRANCH   7   8
ATOM      8  N   UNL     1       5.635   1.283   1.021  1.00  0.00    -0.330 N 
ATOM      9  C   UNL     1       6.864   2.089   1.033  1.00  0.00     0.267 C 
ATOM     10  C   UNL     1       5.663   0.109   0.166  1.00  0.00     0.299 C 
ATOM     11  H   UNL     1       5.620   0.816   1.928  1.00  0.00     0.348 HD
ATOM     12  C   UNL     1       8.005   1.615   0.101  1.00  0.00     0.097 C 
ATOM     13  C   UNL     1       6.976  -0.635   0.208  1.00  0.00     0.010 A 
ATOM     14  C   UNL     1       8.153   0.118   0.118  1.00  0.00    -0.034 A 
ATOM     15  C   UNL     1       7.040  -2.033   0.241  1.00  0.00     0.010 A 
ATOM     16  C   UNL     1       9.384  -0.530  -0.003  1.00  0.00     0.004 A 
ATOM     17  C   UNL     1       8.273  -2.676   0.151  1.00  0.00     0.001 A 
ATOM     18  C   UNL     1       9.441  -1.925   0.013  1.00  0.00     0.000 A 
ENDBRANCH   7   8
ENDBRANCH   6   7
ENDBRANCH   4   6
ENDBRANCH   3   4
ENDBRANCH   2   3
ENDBRANCH   1   2
BRANCH   1  19
ATOM     19  O   UNL     1       3.219  -0.648  -2.299  1.00  0.00    -0.458 OA
BRANCH  19  20
ATOM     20  C   UNL     1       1.996  -0.405  -2.848  1.00  0.00     0.338 C 
ATOM     21  O   UNL     1       1.081  -1.196  -2.928  1.00  0.00    -0.246 OA
BRANCH  20  22
ATOM     22  C   UNL     1       1.864   1.044  -3.131  1.00  0.00     0.060 A 
ATOM     23  C   UNL     1       0.721   1.690  -2.644  1.00  0.00     0.016 A 
ATOM     24  C   UNL     1       2.819   1.759  -3.859  1.00  0.00     0.016 A 
ATOM     25  C   UNL     1       0.507   3.041  -2.921  1.00  0.00     0.010 A 
ATOM     26  C   UNL     1       2.598   3.115  -4.143  1.00  0.00     0.010 A 
ATOM     27  C   UNL     1       1.427   3.757  -3.698  1.00  0.00    -0.014 A 
BRANCH  27  28
ATOM     28  C   UNL     1       1.092   5.136  -4.141  1.00  0.00     0.031 A 
ATOM     29  C   UNL     1       0.476   5.339  -5.500  1.00  0.00     0.074 A 
ATOM     30  C   UNL     1       1.293   6.192  -3.330  1.00  0.00     0.049 A 
ATOM     31  N   UNL     1       0.079   6.446  -6.074  1.00  0.00    -0.248 NA
ATOM     32  C   UNL     1       0.279   4.132  -6.319  1.00  0.00     0.031 C 
ATOM     33  C   UNL     1       1.850   6.125  -1.980  1.00  0.00     0.029 A 
ATOM     34  N   UNL     1       1.053   7.531  -3.527  1.00  0.00    -0.354 N 
ATOM     35  C   UNL     1      -0.425   6.071  -7.314  1.00  0.00     0.074 A 
ATOM     36  C   UNL     1      -0.250   4.638  -7.424  1.00  0.00     0.031 C 
ATOM     37  C   UNL     1       1.921   7.370  -1.475  1.00  0.00     0.029 A 
ATOM     38  C   UNL     1       1.443   8.325  -2.473  1.00  0.00     0.049 A 
ATOM     39  H   UNL     1       0.640   7.888  -4.346  1.00  0.00     0.167 HD
ATOM     40  C   UNL     1      -0.992   6.849  -8.270  1.00  0.00     0.034 A 
ATOM     41  C   UNL     1       1.436   9.668  -2.339  1.00  0.00     0.034 A 
ATOM     42  C   UNL     1      -1.154   8.277  -8.160  1.00  0.00     0.049 A 
ATOM     43  C   UNL     1       0.892  10.520  -3.465  1.00  0.00     0.074 A 
ATOM     44  C   UNL     1      -1.762   9.144  -9.053  1.00  0.00     0.029 A 
ATOM     45  N   UNL     1      -0.686   9.054  -7.110  1.00  0.00    -0.354 N 
ATOM     46  N   UNL     1       0.366  10.143  -4.608  1.00  0.00    -0.248 NA
ATOM     47  C   UNL     1       0.937  11.978  -3.279  1.00  0.00     0.031 C 
ATOM     48  C   UNL     1      -1.591  10.450  -8.581  1.00  0.00     0.029 A 
ATOM     49  C   UNL     1      -0.944  10.393  -7.358  1.00  0.00     0.049 A 
ATOM     50  H   UNL     1      -0.237   8.705  -6.306  1.00  0.00     0.167 HD
ATOM     51  C   UNL     1      -0.006  11.318  -5.260  1.00  0.00     0.074 A 
ATOM     52  C   UNL     1       0.337  12.412  -4.377  1.00  0.00     0.031 C 
ATOM     53  C   UNL     1      -0.582  11.479  -6.479  1.00  0.00     0.034 A 
BRANCH  40  54
ATOM     54  C   UNL     1      -1.438   6.177  -9.543  1.00  0.00     0.023 A 
ATOM     55  C   UNL     1      -2.522   5.283  -9.568  1.00  0.00     0.031 A 
ATOM     56  C   UNL     1      -0.778   6.452 -10.753  1.00  0.00     0.131 A 
ATOM     57  C   UNL     1      -2.887   4.663 -10.773  1.00  0.00     0.055 A 
ATOM     58  C   UNL     1      -1.185   5.880 -11.959  1.00  0.00     0.041 A 
ATOM     59  F   UNL     1       0.276   7.283 -10.781  1.00  0.00    -0.206 F 
ATOM     60  C   UNL     1      -2.240   4.973 -11.972  1.00  0.00     0.022 A 
BRANCH  57  61
ATOM     61  S   UNL     1      -4.160   3.372 -10.737  1.00  0.00     0.124 S 
ATOM     62  O   UNL     1      -3.555   2.384  -9.847  1.00  0.00    -0.237 OA
ATOM     63  O   UNL     1      -5.318   4.083 -10.210  1.00  0.00    -0.237 OA
ATOM     64  O   UNL     1      -4.267   2.957 -12.135  1.00  0.00    -0.744 OA
ENDBRANCH  57  61
ENDBRANCH  40  54
BRANCH  41  65
ATOM     65  C   UNL     1       2.014  10.319  -1.126  1.00  0.00     0.023 A 
ATOM     66  C   UNL     1       1.232  11.131  -0.289  1.00  0.00     0.031 A 
ATOM     67  C   UNL     1       3.389  10.218  -0.845  1.00  0.00     0.131 A 
ATOM     68  C   UNL     1       1.839  11.860   0.746  1.00  0.00     0.055 A 
ATOM     69  C   UNL     1       3.978  10.898   0.223  1.00  0.00     0.041 A 
ATOM     70  F   UNL     1       4.187   9.461  -1.615  1.00  0.00    -0.206 F 
ATOM     71  C   UNL     1       3.204  11.740   1.014  1.00  0.00     0.022 A 
BRANCH  68  72
ATOM     72  S   UNL     1       0.839  13.068   1.659  1.00  0.00     0.124 S 
ATOM     73  O   UNL     1       0.331  13.908   0.581  1.00  0.00    -0.237 OA
ATOM     74  O   UNL     1      -0.138  12.211   2.321  1.00  0.00    -0.237 OA
ATOM     75  O   UNL     1       1.808  13.709   2.547  1.00  0.00    -0.744 OA
ENDBRANCH  68  72
ENDBRANCH  41  65
BRANCH  53  76
ATOM     76  C   UNL     1      -0.900  12.890  -6.912  1.00  0.00     0.023 A 
ATOM     77  C   UNL     1       0.116  13.821  -7.194  1.00  0.00     0.031 A 
ATOM     78  C   UNL     1      -2.236  13.311  -7.040  1.00  0.00     0.131 A 
ATOM     79  C   UNL     1      -0.219  15.138  -7.543  1.00  0.00     0.055 A 
ATOM     80  C   UNL     1      -2.563  14.606  -7.443  1.00  0.00     0.041 A 
ATOM     81  F   UNL     1      -3.246  12.465  -6.782  1.00  0.00    -0.206 F 
ATOM     82  C   UNL     1      -1.552  15.532  -7.685  1.00  0.00     0.022 A 
BRANCH  79  83
ATOM     83  S   UNL     1       1.112  16.356  -7.735  1.00  0.00     0.124 S 
ATOM     84  O   UNL     1       1.727  16.345  -6.412  1.00  0.00    -0.237 OA
ATOM     85  O   UNL     1       1.909  15.780  -8.813  1.00  0.00    -0.237 OA
ATOM     86  O   UNL     1       0.404  17.587  -8.080  1.00  0.00    -0.744 OA
ENDBRANCH  79  83
ENDBRANCH  53  76
ENDBRANCH  27  28
ENDBRANCH  20  22
ENDBRANCH  19  20
ENDBRANCH   1  19
TORSDOF 16
