REMARK SMILES O=C(OCCOC(=O)[C@H]1CC[C@@H]2CCCC[C@@H]2N1C(=O)Cc1ccn[nH]1)c1ccc(-c2c3nc(c(-c4cc(S(=O)(=O)[O-])ccc4F)c4ccc([nH]4)c(-c4cc(S(=O)(=O)[O-])ccc4F)c4nc(c(-c5cc(S(=O)(=O)[O-])ccc5F)c5ccc2[nH]5)C=C4)C=C3)cc1
REMARK SMILES IDX 4 1 3 2 2 3 1 4 27 5 28 6 89 7 29 8 88 9 30 10 31 11 32 12
REMARK SMILES IDX 82 13 33 14 87 15 81 16 83 17 34 18 86 19 80 20 79 21 35 23
REMARK SMILES IDX 67 24 47 25 66 26 48 27 51 28 65 29 84 30 49 31 50 32 64 34
REMARK SMILES IDX 85 35 52 36 36 37 37 38 45 39 38 40 44 41 46 42 43 43 39 44
REMARK SMILES IDX 40 45 41 46 42 47 68 48 69 49 77 50 70 51 76 52 78 53 75 54
REMARK SMILES IDX 71 55 72 56 73 57 74 58 53 59 54 60 62 61 55 62 61 63 63 64
REMARK SMILES IDX 60 65 56 66 57 67 58 68 59 69 5 70 6 71 7 72 8 73 9 74 10 75
REMARK SMILES IDX 18 76 11 77 17 78 12 79 16 80 13 81 15 82 14 83 19 84 20 85
REMARK SMILES IDX 21 86 22 87 23 88 26 89 24 90 25 91
REMARK H PARENT 83 22 51 33 26 92
REMARK Flexibility Score: inf
ROOT
ATOM      1  C   UNL     1       3.333   5.123  -4.825  1.00  0.00     0.275 C 
ENDROOT
BRANCH   1   2
ATOM      2  O   UNL     1       4.652   5.085  -4.275  1.00  0.00    -0.458 OA
BRANCH   2   3
ATOM      3  C   UNL     1       5.042   5.235  -2.991  1.00  0.00     0.338 C 
ATOM      4  O   UNL     1       6.157   4.796  -2.703  1.00  0.00    -0.246 OA
BRANCH   3   5
ATOM      5  C   UNL     1       4.210   5.833  -1.878  1.00  0.00     0.060 A 
ATOM      6  C   UNL     1       2.888   6.301  -1.917  1.00  0.00     0.016 A 
ATOM      7  C   UNL     1       4.807   5.755  -0.613  1.00  0.00     0.016 A 
ATOM      8  C   UNL     1       2.142   6.543  -0.736  1.00  0.00     0.010 A 
ATOM      9  C   UNL     1       4.054   5.943   0.549  1.00  0.00     0.010 A 
ATOM     10  C   UNL     1       2.692   6.301   0.522  1.00  0.00    -0.014 A 
BRANCH  10  11
ATOM     11  C   UNL     1       1.929   6.423   1.814  1.00  0.00     0.031 A 
ATOM     12  C   UNL     1       2.544   7.237   2.919  1.00  0.00     0.074 A 
ATOM     13  C   UNL     1       0.799   5.732   2.107  1.00  0.00     0.049 A 
ATOM     14  N   UNL     1       2.193   7.331   4.175  1.00  0.00    -0.248 NA
ATOM     15  C   UNL     1       3.774   7.970   2.580  1.00  0.00     0.031 C 
ATOM     16  C   UNL     1       0.103   4.819   1.210  1.00  0.00     0.029 A 
ATOM     17  N   UNL     1       0.060   5.637   3.273  1.00  0.00    -0.354 N 
ATOM     18  C   UNL     1       3.161   8.140   4.746  1.00  0.00     0.074 A 
ATOM     19  C   UNL     1       4.231   8.261   3.783  1.00  0.00     0.031 C 
ATOM     20  C   UNL     1      -0.911   4.220   1.862  1.00  0.00     0.029 A 
ATOM     21  C   UNL     1      -0.978   4.726   3.220  1.00  0.00     0.049 A 
ATOM     22  H   UNL     1       0.258   6.174   4.074  1.00  0.00     0.167 HD
ATOM     23  C   UNL     1       3.105   8.866   5.887  1.00  0.00     0.034 A 
ATOM     24  C   UNL     1      -1.890   4.337   4.139  1.00  0.00     0.034 A 
ATOM     25  C   UNL     1       2.027   8.781   6.827  1.00  0.00     0.049 A 
ATOM     26  C   UNL     1      -1.888   5.026   5.479  1.00  0.00     0.074 A 
ATOM     27  C   UNL     1       1.825   9.511   7.982  1.00  0.00     0.029 A 
ATOM     28  N   UNL     1       0.965   7.892   6.720  1.00  0.00    -0.354 N 
ATOM     29  N   UNL     1      -1.052   5.927   5.936  1.00  0.00    -0.248 NA
ATOM     30  C   UNL     1      -2.977   4.688   6.407  1.00  0.00     0.031 C 
ATOM     31  C   UNL     1       0.673   9.021   8.606  1.00  0.00     0.029 A 
ATOM     32  C   UNL     1       0.120   8.032   7.807  1.00  0.00     0.049 A 
ATOM     33  H   UNL     1       0.834   7.255   5.981  1.00  0.00     0.167 HD
ATOM     34  C   UNL     1      -1.560   6.322   7.169  1.00  0.00     0.074 A 
ATOM     35  C   UNL     1      -2.759   5.543   7.396  1.00  0.00     0.031 C 
ATOM     36  C   UNL     1      -1.087   7.268   8.018  1.00  0.00     0.034 A 
BRANCH  23  37
ATOM     37  C   UNL     1       4.236   9.843   6.084  1.00  0.00     0.023 A 
ATOM     38  C   UNL     1       4.486  10.836   5.112  1.00  0.00     0.031 A 
ATOM     39  C   UNL     1       5.168   9.675   7.115  1.00  0.00     0.131 A 
ATOM     40  C   UNL     1       5.723  11.489   5.090  1.00  0.00     0.055 A 
ATOM     41  C   UNL     1       6.345  10.425   7.157  1.00  0.00     0.041 A 
ATOM     42  F   UNL     1       4.987   8.735   8.055  1.00  0.00    -0.206 F 
ATOM     43  C   UNL     1       6.645  11.312   6.122  1.00  0.00     0.022 A 
BRANCH  40  44
ATOM     44  S   UNL     1       6.201  12.356   3.567  1.00  0.00     0.124 S 
ATOM     45  O   UNL     1       6.204  11.262   2.596  1.00  0.00    -0.237 OA
ATOM     46  O   UNL     1       5.145  13.343   3.414  1.00  0.00    -0.237 OA
ATOM     47  O   UNL     1       7.525  12.896   3.886  1.00  0.00    -0.744 OA
ENDBRANCH  40  44
ENDBRANCH  23  37
BRANCH  24  48
ATOM     48  C   UNL     1      -2.921   3.285   3.851  1.00  0.00     0.023 A 
ATOM     49  C   UNL     1      -4.289   3.607   3.759  1.00  0.00     0.031 A 
ATOM     50  C   UNL     1      -2.567   1.926   3.782  1.00  0.00     0.131 A 
ATOM     51  C   UNL     1      -5.253   2.586   3.670  1.00  0.00     0.055 A 
ATOM     52  C   UNL     1      -3.527   0.916   3.645  1.00  0.00     0.041 A 
ATOM     53  F   UNL     1      -1.280   1.556   3.881  1.00  0.00    -0.206 F 
ATOM     54  C   UNL     1      -4.880   1.242   3.605  1.00  0.00     0.022 A 
BRANCH  51  55
ATOM     55  S   UNL     1      -7.014   3.030   3.742  1.00  0.00     0.124 S 
ATOM     56  O   UNL     1      -7.102   3.691   5.039  1.00  0.00    -0.237 OA
ATOM     57  O   UNL     1      -7.159   3.891   2.572  1.00  0.00    -0.237 OA
ATOM     58  O   UNL     1      -7.698   1.742   3.650  1.00  0.00    -0.744 OA
ENDBRANCH  51  55
ENDBRANCH  24  48
BRANCH  36  59
ATOM     59  C   UNL     1      -1.917   7.587   9.232  1.00  0.00     0.023 A 
ATOM     60  C   UNL     1      -2.093   6.668  10.278  1.00  0.00     0.031 A 
ATOM     61  C   UNL     1      -2.521   8.852   9.347  1.00  0.00     0.131 A 
ATOM     62  C   UNL     1      -2.885   7.016  11.382  1.00  0.00     0.055 A 
ATOM     63  C   UNL     1      -3.253   9.216  10.476  1.00  0.00     0.041 A 
ATOM     64  F   UNL     1      -2.390   9.764   8.370  1.00  0.00    -0.206 F 
ATOM     65  C   UNL     1      -3.446   8.292  11.498  1.00  0.00     0.022 A 
BRANCH  62  66
ATOM     66  S   UNL     1      -3.233   5.754  12.635  1.00  0.00     0.124 S 
ATOM     67  O   UNL     1      -3.916   4.730  11.853  1.00  0.00    -0.237 OA
ATOM     68  O   UNL     1      -1.897   5.408  13.110  1.00  0.00    -0.237 OA
ATOM     69  O   UNL     1      -4.071   6.457  13.605  1.00  0.00    -0.744 OA
ENDBRANCH  62  66
ENDBRANCH  36  59
ENDBRANCH  10  11
ENDBRANCH   3   5
ENDBRANCH   2   3
ENDBRANCH   1   2
BRANCH   1  70
ATOM     70  C   UNL     1       2.510   3.861  -4.539  1.00  0.00     0.274 C 
BRANCH  70  71
ATOM     71  O   UNL     1       2.545   3.457  -3.158  1.00  0.00    -0.461 OA
BRANCH  71  72
ATOM     72  C   UNL     1       2.283   2.137  -2.872  1.00  0.00     0.328 C 
ATOM     73  O   UNL     1       1.981   1.309  -3.723  1.00  0.00    -0.250 OA
BRANCH  72  74
ATOM     74  C   UNL     1       2.481   1.805  -1.348  1.00  0.00     0.195 C 
ATOM     75  C   UNL     1       2.991   3.033  -0.608  1.00  0.00     0.037 C 
ATOM     76  N   UNL     1       1.502   1.090  -0.471  1.00  0.00    -0.325 N 
ATOM     77  C   UNL     1       3.454   2.774   0.811  1.00  0.00     0.008 C 
ATOM     78  C   UNL     1       2.021   0.761   0.922  1.00  0.00     0.089 C 
ATOM     79  C   UNL     1       2.386   2.066   1.632  1.00  0.00     0.012 C 
ATOM     80  C   UNL     1       3.208  -0.232   0.976  1.00  0.00     0.025 C 
ATOM     81  C   UNL     1       2.858   1.837   3.065  1.00  0.00     0.006 C 
ATOM     82  C   UNL     1       4.169  -0.161   2.194  1.00  0.00     0.002 C 
ATOM     83  C   UNL     1       4.172   1.082   3.087  1.00  0.00     0.000 C 
BRANCH  76  84
ATOM     84  C   UNL     1       0.117   1.338  -0.547  1.00  0.00     0.229 C 
ATOM     85  O   UNL     1      -0.597   1.351   0.460  1.00  0.00    -0.274 OA
BRANCH  84  86
ATOM     86  C   UNL     1      -0.579   1.467  -1.899  1.00  0.00     0.155 C 
BRANCH  86  87
ATOM     87  C   UNL     1      -0.843   2.870  -2.341  1.00  0.00     0.044 A 
ATOM     88  C   UNL     1      -0.760   3.455  -3.588  1.00  0.00     0.045 A 
ATOM     89  N   UNL     1      -1.404   3.836  -1.546  1.00  0.00    -0.282 N 
ATOM     90  C   UNL     1      -1.095   4.804  -3.391  1.00  0.00     0.135 A 
ATOM     91  N   UNL     1      -1.436   5.049  -2.129  1.00  0.00    -0.184 NA
ATOM     92  H   UNL     1      -1.749   3.660  -0.641  1.00  0.00     0.190 HD
ENDBRANCH  86  87
ENDBRANCH  84  86
ENDBRANCH  76  84
ENDBRANCH  72  74
ENDBRANCH  71  72
ENDBRANCH  70  71
ENDBRANCH   1  70
TORSDOF 17
