REMARK SMILES CCN(C(=O)Cc1c(C(=O)OCCOC(=O)c2ccc(-c3c4nc(c(-c5cc(S(=O)(=O)[O-])ccc5F)c5ccc([nH]5)c(-c5cc(S(=O)(=O)[O-])ccc5F)c5nc(c(-c6cc(S(=O)(=O)[O-])ccc6F)c6ccc3[nH]6)C=C5)C=C4)cc2)[nH]c2ccccc12)c1cccc(C)c1
REMARK SMILES IDX 12 1 11 2 9 3 10 4 8 5 7 6 86 7 80 8 81 9 85 10 82 12 84 13
REMARK SMILES IDX 83 14 6 15 4 16 5 17 3 18 2 19 1 20 87 21 88 22 93 23 89 24
REMARK SMILES IDX 91 25 90 26 92 27 13 28 14 29 15 30 16 31 17 32 18 33 79 34
REMARK SMILES IDX 19 35 78 36 20 37 21 38 22 39 72 40 23 41 77 42 71 43 73 44
REMARK SMILES IDX 24 45 76 46 70 47 69 48 25 50 57 51 37 52 56 53 38 54 41 55
REMARK SMILES IDX 55 56 74 57 39 58 40 59 54 61 75 62 42 63 26 64 27 65 35 66
REMARK SMILES IDX 28 67 34 68 36 69 33 70 29 71 30 72 31 73 32 74 58 75 59 76
REMARK SMILES IDX 67 77 60 78 66 79 68 80 65 81 61 82 62 83 63 84 64 85 43 86
REMARK SMILES IDX 44 87 52 88 45 89 51 90 53 91 50 92 46 93 47 94 48 95 49 96
REMARK H PARENT 80 11 73 49 41 60
REMARK Flexibility Score: inf
ROOT
ATOM      1  C   UNL     1      -1.459  -5.926  -2.106  1.00  0.00     0.275 C 
ENDROOT
BRANCH   1   2
ATOM      2  O   UNL     1      -1.807  -4.748  -1.343  1.00  0.00    -0.457 OA
BRANCH   2   3
ATOM      3  C   UNL     1      -1.063  -3.631  -1.613  1.00  0.00     0.355 C 
ATOM      4  O   UNL     1      -0.095  -3.614  -2.352  1.00  0.00    -0.244 OA
BRANCH   3   5
ATOM      5  C   UNL     1      -1.585  -2.501  -0.871  1.00  0.00     0.129 A 
ATOM      6  C   UNL     1      -1.617  -1.136  -1.174  1.00  0.00     0.002 A 
ATOM      7  C   UNL     1      -2.279  -0.476  -0.085  1.00  0.00     0.004 A 
ATOM      8  N   UNL     1      -2.156  -2.640   0.376  1.00  0.00    -0.349 N 
ATOM      9  C   UNL     1      -2.525  -1.426   0.898  1.00  0.00     0.046 A 
ATOM     10  C   UNL     1      -2.664   0.860   0.155  1.00  0.00     0.010 A 
ATOM     11  H   UNL     1      -2.284  -3.502   0.834  1.00  0.00     0.167 HD
ATOM     12  C   UNL     1      -3.068  -1.099   2.145  1.00  0.00     0.027 A 
ATOM     13  C   UNL     1      -3.220   1.205   1.388  1.00  0.00     0.001 A 
ATOM     14  C   UNL     1      -3.400   0.241   2.375  1.00  0.00     0.002 A 
BRANCH   6  15
ATOM     15  C   UNL     1      -1.165  -0.413  -2.410  1.00  0.00     0.139 C 
BRANCH  15  16
ATOM     16  C   UNL     1       0.273  -0.659  -2.850  1.00  0.00     0.231 C 
ATOM     17  O   UNL     1       0.460  -1.323  -3.876  1.00  0.00    -0.274 OA
BRANCH  16  18
ATOM     18  N   UNL     1       1.314  -0.119  -2.084  1.00  0.00    -0.312 N 
BRANCH  18  19
ATOM     19  C   UNL     1       1.103   0.865  -1.010  1.00  0.00     0.122 C 
ATOM     20  C   UNL     1       1.024   0.287   0.395  1.00  0.00     0.028 C 
ENDBRANCH  18  19
BRANCH  18  21
ATOM     21  C   UNL     1       2.674  -0.432  -2.423  1.00  0.00     0.044 A 
ATOM     22  C   UNL     1       3.108  -0.465  -3.754  1.00  0.00     0.026 A 
ATOM     23  C   UNL     1       3.599  -0.741  -1.419  1.00  0.00     0.029 A 
ATOM     24  C   UNL     1       4.428  -0.797  -4.071  1.00  0.00     0.002 A 
ATOM     25  C   UNL     1       4.919  -1.100  -1.724  1.00  0.00    -0.049 A 
ATOM     26  C   UNL     1       5.329  -1.118  -3.059  1.00  0.00     0.003 A 
ATOM     27  C   UNL     1       5.872  -1.485  -0.634  1.00  0.00     0.044 C 
ENDBRANCH  18  21
ENDBRANCH  16  18
ENDBRANCH  15  16
ENDBRANCH   6  15
ENDBRANCH   3   5
ENDBRANCH   2   3
ENDBRANCH   1   2
BRANCH   1  28
ATOM     28  C   UNL     1      -2.468  -6.157  -3.232  1.00  0.00     0.275 C 
BRANCH  28  29
ATOM     29  O   UNL     1      -2.352  -5.093  -4.190  1.00  0.00    -0.458 OA
BRANCH  29  30
ATOM     30  C   UNL     1      -3.506  -4.615  -4.719  1.00  0.00     0.338 C 
ATOM     31  O   UNL     1      -4.625  -5.066  -4.544  1.00  0.00    -0.246 OA
BRANCH  30  32
ATOM     32  C   UNL     1      -3.212  -3.416  -5.541  1.00  0.00     0.060 A 
ATOM     33  C   UNL     1      -2.221  -2.534  -5.136  1.00  0.00     0.016 A 
ATOM     34  C   UNL     1      -3.982  -3.096  -6.660  1.00  0.00     0.016 A 
ATOM     35  C   UNL     1      -2.073  -1.300  -5.771  1.00  0.00     0.010 A 
ATOM     36  C   UNL     1      -3.749  -1.894  -7.359  1.00  0.00     0.010 A 
ATOM     37  C   UNL     1      -2.817  -0.947  -6.896  1.00  0.00    -0.014 A 
BRANCH  37  38
ATOM     38  C   UNL     1      -2.687   0.431  -7.485  1.00  0.00     0.031 A 
ATOM     39  C   UNL     1      -3.929   1.260  -7.718  1.00  0.00     0.074 A 
ATOM     40  C   UNL     1      -1.488   1.010  -7.735  1.00  0.00     0.049 A 
ATOM     41  N   UNL     1      -4.092   2.338  -8.445  1.00  0.00    -0.248 NA
ATOM     42  C   UNL     1      -5.156   0.806  -7.046  1.00  0.00     0.031 C 
ATOM     43  C   UNL     1      -0.174   0.432  -7.443  1.00  0.00     0.029 A 
ATOM     44  N   UNL     1      -1.180   2.241  -8.277  1.00  0.00    -0.354 N 
ATOM     45  C   UNL     1      -5.452   2.635  -8.390  1.00  0.00     0.074 A 
ATOM     46  C   UNL     1      -6.064   1.626  -7.551  1.00  0.00     0.031 C 
ATOM     47  C   UNL     1       0.783   1.321  -7.748  1.00  0.00     0.029 A 
ATOM     48  C   UNL     1       0.173   2.471  -8.402  1.00  0.00     0.049 A 
ATOM     49  H   UNL     1      -1.864   2.894  -8.551  1.00  0.00     0.167 HD
ATOM     50  C   UNL     1      -6.125   3.647  -8.993  1.00  0.00     0.034 A 
ATOM     51  C   UNL     1       0.861   3.446  -9.036  1.00  0.00     0.034 A 
ATOM     52  C   UNL     1      -5.491   4.691  -9.763  1.00  0.00     0.049 A 
ATOM     53  C   UNL     1       0.096   4.507  -9.786  1.00  0.00     0.074 A 
ATOM     54  C   UNL     1      -6.081   5.749 -10.435  1.00  0.00     0.029 A 
ATOM     55  N   UNL     1      -4.121   4.826  -9.946  1.00  0.00    -0.354 N 
ATOM     56  N   UNL     1      -1.202   4.689  -9.870  1.00  0.00    -0.248 NA
ATOM     57  C   UNL     1       0.888   5.478 -10.554  1.00  0.00     0.031 C 
ATOM     58  C   UNL     1      -5.076   6.484 -11.073  1.00  0.00     0.029 A 
ATOM     59  C   UNL     1      -3.851   5.934 -10.736  1.00  0.00     0.049 A 
ATOM     60  H   UNL     1      -3.440   4.223  -9.569  1.00  0.00     0.167 HD
ATOM     61  C   UNL     1      -1.377   5.802 -10.688  1.00  0.00     0.074 A 
ATOM     62  C   UNL     1      -0.054   6.265 -11.051  1.00  0.00     0.031 C 
ATOM     63  C   UNL     1      -2.529   6.387 -11.102  1.00  0.00     0.034 A 
BRANCH  50  64
ATOM     64  C   UNL     1      -7.635   3.619  -8.920  1.00  0.00     0.023 A 
ATOM     65  C   UNL     1      -8.341   3.768  -7.715  1.00  0.00     0.031 A 
ATOM     66  C   UNL     1      -8.380   3.398 -10.095  1.00  0.00     0.131 A 
ATOM     67  C   UNL     1      -9.737   3.620  -7.700  1.00  0.00     0.055 A 
ATOM     68  C   UNL     1      -9.774   3.336 -10.086  1.00  0.00     0.041 A 
ATOM     69  F   UNL     1      -7.762   3.225 -11.274  1.00  0.00    -0.206 F 
ATOM     70  C   UNL     1     -10.461   3.431  -8.880  1.00  0.00     0.022 A 
BRANCH  67  71
ATOM     71  S   UNL     1     -10.585   3.527  -6.098  1.00  0.00     0.124 S 
ATOM     72  O   UNL     1      -9.912   2.390  -5.474  1.00  0.00    -0.237 OA
ATOM     73  O   UNL     1     -10.304   4.834  -5.516  1.00  0.00    -0.237 OA
ATOM     74  O   UNL     1     -11.981   3.292  -6.462  1.00  0.00    -0.744 OA
ENDBRANCH  67  71
ENDBRANCH  50  64
BRANCH  51  75
ATOM     75  C   UNL     1       2.355   3.402  -9.107  1.00  0.00     0.023 A 
ATOM     76  C   UNL     1       3.145   4.451  -8.608  1.00  0.00     0.031 A 
ATOM     77  C   UNL     1       3.014   2.333  -9.744  1.00  0.00     0.131 A 
ATOM     78  C   UNL     1       4.539   4.423  -8.785  1.00  0.00     0.055 A 
ATOM     79  C   UNL     1       4.404   2.277  -9.855  1.00  0.00     0.041 A 
ATOM     80  F   UNL     1       2.312   1.314 -10.265  1.00  0.00    -0.206 F 
ATOM     81  C   UNL     1       5.175   3.334  -9.385  1.00  0.00     0.022 A 
BRANCH  78  82
ATOM     82  S   UNL     1       5.510   5.883  -8.314  1.00  0.00     0.124 S 
ATOM     83  O   UNL     1       4.905   6.921  -9.141  1.00  0.00    -0.237 OA
ATOM     84  O   UNL     1       5.251   5.973  -6.881  1.00  0.00    -0.237 OA
ATOM     85  O   UNL     1       6.877   5.515  -8.676  1.00  0.00    -0.744 OA
ENDBRANCH  78  82
ENDBRANCH  51  75
BRANCH  63  86
ATOM     86  C   UNL     1      -2.404   7.628 -11.951  1.00  0.00     0.023 A 
ATOM     87  C   UNL     1      -1.883   7.587 -13.257  1.00  0.00     0.031 A 
ATOM     88  C   UNL     1      -2.799   8.876 -11.436  1.00  0.00     0.131 A 
ATOM     89  C   UNL     1      -1.722   8.778 -13.983  1.00  0.00     0.055 A 
ATOM     90  C   UNL     1      -2.690  10.049 -12.185  1.00  0.00     0.041 A 
ATOM     91  F   UNL     1      -3.299   8.976 -10.194  1.00  0.00    -0.206 F 
ATOM     92  C   UNL     1      -2.137  10.006 -13.461  1.00  0.00     0.022 A 
BRANCH  89  93
ATOM     93  S   UNL     1      -0.877   8.716 -15.588  1.00  0.00     0.124 S 
ATOM     94  O   UNL     1       0.420   8.154 -15.227  1.00  0.00    -0.237 OA
ATOM     95  O   UNL     1      -1.754   7.849 -16.369  1.00  0.00    -0.237 OA
ATOM     96  O   UNL     1      -0.850  10.114 -16.016  1.00  0.00    -0.744 OA
ENDBRANCH  89  93
ENDBRANCH  63  86
ENDBRANCH  37  38
ENDBRANCH  30  32
ENDBRANCH  29  30
ENDBRANCH  28  29
ENDBRANCH   1  28
TORSDOF 19
