REMARK SMILES O=C(CNc1nc(-c2ccccc2)c(-c2ccccc2)s1)OCCOC(=O)c1ccc(-c2c3nc(c(-c4cc(S(=O)(=O)[O-])ccc4F)c4ccc([nH]4)c(-c4cc(S(=O)(=O)[O-])ccc4F)c4nc(c(-c5cc(S(=O)(=O)[O-])ccc5F)c5ccc2[nH]5)C=C4)C=C3)cc1
REMARK SMILES IDX 23 1 22 2 2 3 1 4 3 5 4 6 5 8 6 9 21 10 7 11 14 12 8 13 9 14
REMARK SMILES IDX 13 15 10 16 12 17 11 18 15 19 16 20 20 21 17 22 19 23 18 24
REMARK SMILES IDX 24 25 25 26 26 27 27 28 28 29 29 30 90 31 30 32 89 33 31 34
REMARK SMILES IDX 32 35 33 36 83 37 34 38 88 39 82 40 84 41 35 42 87 43 81 44
REMARK SMILES IDX 80 45 36 47 68 48 48 49 67 50 49 51 52 52 66 53 85 54 50 55
REMARK SMILES IDX 51 56 65 58 86 59 53 60 37 61 38 62 46 63 39 64 45 65 47 66
REMARK SMILES IDX 44 67 40 68 41 69 42 70 43 71 69 72 70 73 78 74 71 75 77 76
REMARK SMILES IDX 79 77 76 78 72 79 73 80 74 81 75 82 54 83 55 84 63 85 56 86
REMARK SMILES IDX 62 87 64 88 61 89 57 90 58 91 59 92 60 93
REMARK H PARENT 4 7 84 46 52 57
REMARK Flexibility Score: inf
ROOT
ATOM      1  C   UNL     1       4.327  -0.868   0.114  1.00  0.00     0.274 C 
ENDROOT
BRANCH   1   2
ATOM      2  O   UNL     1       3.013  -0.474   0.561  1.00  0.00    -0.461 OA
BRANCH   2   3
ATOM      3  C   UNL     1       2.527   0.793   0.578  1.00  0.00     0.325 C 
ATOM      4  O   UNL     1       1.451   1.021   1.131  1.00  0.00    -0.250 OA
BRANCH   3   5
ATOM      5  C   UNL     1       3.337   1.922  -0.052  1.00  0.00     0.238 C 
BRANCH   5   6
ATOM      6  N   UNL     1       4.418   2.354   0.816  1.00  0.00    -0.351 N 
ATOM      7  H   UNL     1       4.221   2.618   1.744  1.00  0.00     0.163 HD
BRANCH   6   8
ATOM      8  C   UNL     1       5.685   2.399   0.367  1.00  0.00     0.184 A 
ATOM      9  N   UNL     1       6.047   2.301  -0.891  1.00  0.00    -0.220 NA
ATOM     10  S   UNL     1       6.978   2.468   1.493  1.00  0.00    -0.096 S 
ATOM     11  C   UNL     1       7.427   2.251  -0.995  1.00  0.00     0.091 A 
ATOM     12  C   UNL     1       8.104   2.260   0.214  1.00  0.00     0.064 A 
BRANCH  11  13
ATOM     13  C   UNL     1       8.085   2.222  -2.294  1.00  0.00     0.002 A 
ATOM     14  C   UNL     1       9.008   1.219  -2.626  1.00  0.00     0.010 A 
ATOM     15  C   UNL     1       7.843   3.256  -3.207  1.00  0.00     0.010 A 
ATOM     16  C   UNL     1       9.714   1.279  -3.830  1.00  0.00     0.001 A 
ATOM     17  C   UNL     1       8.554   3.316  -4.409  1.00  0.00     0.001 A 
ATOM     18  C   UNL     1       9.496   2.334  -4.715  1.00  0.00     0.000 A 
ENDBRANCH  11  13
BRANCH  12  19
ATOM     19  C   UNL     1       9.526   2.181   0.528  1.00  0.00    -0.006 A 
ATOM     20  C   UNL     1      10.036   1.073   1.221  1.00  0.00     0.009 A 
ATOM     21  C   UNL     1      10.399   3.196   0.122  1.00  0.00     0.009 A 
ATOM     22  C   UNL     1      11.396   0.991   1.516  1.00  0.00     0.001 A 
ATOM     23  C   UNL     1      11.759   3.113   0.420  1.00  0.00     0.001 A 
ATOM     24  C   UNL     1      12.256   2.013   1.119  1.00  0.00     0.000 A 
ENDBRANCH  12  19
ENDBRANCH   6   8
ENDBRANCH   5   6
ENDBRANCH   3   5
ENDBRANCH   2   3
ENDBRANCH   1   2
BRANCH   1  25
ATOM     25  C   UNL     1       4.296  -1.527  -1.264  1.00  0.00     0.275 C 
BRANCH  25  26
ATOM     26  O   UNL     1       3.877  -0.580  -2.257  1.00  0.00    -0.458 OA
BRANCH  26  27
ATOM     27  C   UNL     1       2.559  -0.611  -2.577  1.00  0.00     0.338 C 
ATOM     28  O   UNL     1       1.743  -1.442  -2.219  1.00  0.00    -0.246 OA
BRANCH  27  29
ATOM     29  C   UNL     1       2.211   0.657  -3.257  1.00  0.00     0.060 A 
ATOM     30  C   UNL     1       1.003   1.275  -2.913  1.00  0.00     0.016 A 
ATOM     31  C   UNL     1       3.085   1.270  -4.162  1.00  0.00     0.016 A 
ATOM     32  C   UNL     1       0.665   2.509  -3.474  1.00  0.00     0.010 A 
ATOM     33  C   UNL     1       2.740   2.500  -4.728  1.00  0.00     0.010 A 
ATOM     34  C   UNL     1       1.528   3.124  -4.391  1.00  0.00    -0.014 A 
BRANCH  34  35
ATOM     35  C   UNL     1       1.146   4.393  -5.055  1.00  0.00     0.031 A 
ATOM     36  C   UNL     1       0.511   4.348  -6.415  1.00  0.00     0.074 A 
ATOM     37  C   UNL     1       1.403   5.574  -4.462  1.00  0.00     0.049 A 
ATOM     38  N   UNL     1       0.169   5.335  -7.201  1.00  0.00    -0.248 NA
ATOM     39  C   UNL     1       0.230   3.012  -6.964  1.00  0.00     0.031 C 
ATOM     40  C   UNL     1       2.001   5.741  -3.137  1.00  0.00     0.029 A 
ATOM     41  N   UNL     1       1.216   6.859  -4.909  1.00  0.00    -0.354 N 
ATOM     42  C   UNL     1      -0.369   4.744  -8.338  1.00  0.00     0.074 A 
ATOM     43  C   UNL     1      -0.285   3.311  -8.149  1.00  0.00     0.031 C 
ATOM     44  C   UNL     1       2.157   7.053  -2.891  1.00  0.00     0.029 A 
ATOM     45  C   UNL     1       1.705   7.818  -4.052  1.00  0.00     0.049 A 
ATOM     46  H   UNL     1       0.773   7.074  -5.762  1.00  0.00     0.167 HD
ATOM     47  C   UNL     1      -0.885   5.344  -9.437  1.00  0.00     0.034 A 
ATOM     48  C   UNL     1       1.811   9.154  -4.206  1.00  0.00     0.034 A 
ATOM     49  C   UNL     1      -0.953   6.772  -9.620  1.00  0.00     0.049 A 
ATOM     50  C   UNL     1       1.313   9.789  -5.484  1.00  0.00     0.074 A 
ATOM     51  C   UNL     1      -1.522   7.479 -10.666  1.00  0.00     0.029 A 
ATOM     52  N   UNL     1      -0.410   7.711  -8.755  1.00  0.00    -0.354 N 
ATOM     53  N   UNL     1       0.746   9.221  -6.524  1.00  0.00    -0.248 NA
ATOM     54  C   UNL     1       1.472  11.245  -5.611  1.00  0.00     0.031 C 
ATOM     55  C   UNL     1      -1.257   8.839 -10.470  1.00  0.00     0.029 A 
ATOM     56  C   UNL     1      -0.582   8.986  -9.269  1.00  0.00     0.049 A 
ATOM     57  H   UNL     1       0.033   7.502  -7.901  1.00  0.00     0.167 HD
ATOM     58  C   UNL     1       0.460  10.255  -7.412  1.00  0.00     0.074 A 
ATOM     59  C   UNL     1       0.902  11.480  -6.783  1.00  0.00     0.031 C 
ATOM     60  C   UNL     1      -0.120  10.198  -8.638  1.00  0.00     0.034 A 
BRANCH  47  61
ATOM     61  C   UNL     1      -1.375   4.458 -10.550  1.00  0.00     0.023 A 
ATOM     62  C   UNL     1      -2.527   3.664 -10.412  1.00  0.00     0.031 A 
ATOM     63  C   UNL     1      -0.685   4.420 -11.774  1.00  0.00     0.131 A 
ATOM     64  C   UNL     1      -2.931   2.835 -11.469  1.00  0.00     0.055 A 
ATOM     65  C   UNL     1      -1.125   3.637 -12.841  1.00  0.00     0.041 A 
ATOM     66  F   UNL     1       0.432   5.144 -11.949  1.00  0.00    -0.206 F 
ATOM     67  C   UNL     1      -2.251   2.833 -12.690  1.00  0.00     0.022 A 
BRANCH  64  68
ATOM     68  S   UNL     1      -4.314   1.694 -11.200  1.00  0.00     0.124 S 
ATOM     69  O   UNL     1      -3.798   0.851 -10.125  1.00  0.00    -0.237 OA
ATOM     70  O   UNL     1      -5.403   2.595 -10.839  1.00  0.00    -0.237 OA
ATOM     71  O   UNL     1      -4.462   1.024 -12.491  1.00  0.00    -0.744 OA
ENDBRANCH  64  68
ENDBRANCH  47  61
BRANCH  48  72
ATOM     72  C   UNL     1       2.477   9.992  -3.166  1.00  0.00     0.023 A 
ATOM     73  C   UNL     1       1.780  11.011  -2.498  1.00  0.00     0.031 A 
ATOM     74  C   UNL     1       3.851   9.849  -2.901  1.00  0.00     0.131 A 
ATOM     75  C   UNL     1       2.470  11.886  -1.644  1.00  0.00     0.055 A 
ATOM     76  C   UNL     1       4.521  10.686  -2.006  1.00  0.00     0.041 A 
ATOM     77  F   UNL     1       4.567   8.896  -3.518  1.00  0.00    -0.206 F 
ATOM     78  C   UNL     1       3.833  11.723  -1.385  1.00  0.00     0.022 A 
BRANCH  75  79
ATOM     79  S   UNL     1       1.585  13.319  -0.970  1.00  0.00     0.124 S 
ATOM     80  O   UNL     1       1.081  13.955  -2.182  1.00  0.00    -0.237 OA
ATOM     81  O   UNL     1       0.587  12.683  -0.116  1.00  0.00    -0.237 OA
ATOM     82  O   UNL     1       2.627  14.061  -0.263  1.00  0.00    -0.744 OA
ENDBRANCH  75  79
ENDBRANCH  48  72
BRANCH  60  83
ATOM     83  C   UNL     1      -0.331  11.505  -9.360  1.00  0.00     0.023 A 
ATOM     84  C   UNL     1       0.749  12.251  -9.864  1.00  0.00     0.031 A 
ATOM     85  C   UNL     1      -1.630  12.011  -9.546  1.00  0.00     0.131 A 
ATOM     86  C   UNL     1       0.514  13.483 -10.493  1.00  0.00     0.055 A 
ATOM     87  C   UNL     1      -1.861  13.211 -10.219  1.00  0.00     0.041 A 
ATOM     88  F   UNL     1      -2.696  11.339  -9.084  1.00  0.00    -0.206 F 
ATOM     89  C   UNL     1      -0.785  13.960 -10.688  1.00  0.00     0.022 A 
BRANCH  86  90
ATOM     90  S   UNL     1       1.935  14.489 -11.003  1.00  0.00     0.124 S 
ATOM     91  O   UNL     1       2.595  14.750  -9.728  1.00  0.00    -0.237 OA
ATOM     92  O   UNL     1       2.642  13.596 -11.915  1.00  0.00    -0.237 OA
ATOM     93  O   UNL     1       1.321  15.656 -11.634  1.00  0.00    -0.744 OA
ENDBRANCH  86  90
ENDBRANCH  60  83
ENDBRANCH  34  35
ENDBRANCH  27  29
ENDBRANCH  26  27
ENDBRANCH  25  26
ENDBRANCH   1  25
TORSDOF 18
