REMARK SMILES Cc1nc(-c2cccc(N3C[C@H](C(=O)OCCOC(=O)c4ccc(-c5c6nc(c(-c7cc(S(=O)(=O)[O-])ccc7F)c7ccc([nH]7)c(-c7cc(S(=O)(=O)[O-])ccc7F)c7nc(c(-c8cc(S(=O)(=O)[O-])ccc8F)c8ccc5[nH]8)C=C7)C=C6)cc4)CC3=O)c2)no1
REMARK SMILES IDX 17 1 16 2 15 3 13 4 14 5 12 6 10 7 11 8 85 9 84 10 86 11
REMARK SMILES IDX 9 12 5 13 6 14 87 15 7 16 8 17 4 18 1 19 2 20 3 21 89 22
REMARK SMILES IDX 88 23 18 24 19 25 20 26 21 27 22 28 83 29 23 30 82 31 24 32
REMARK SMILES IDX 25 33 26 34 76 35 27 36 81 37 75 38 77 39 28 40 80 41 74 42
REMARK SMILES IDX 73 43 29 45 61 46 41 47 60 48 42 49 45 50 59 51 78 52 43 53
REMARK SMILES IDX 44 54 58 56 79 57 46 58 30 59 31 60 39 61 32 62 38 63 40 64
REMARK SMILES IDX 37 65 33 66 34 67 35 68 36 69 62 70 63 71 71 72 64 73 70 74
REMARK SMILES IDX 72 75 69 76 65 77 66 78 67 79 68 80 47 81 48 82 56 83 49 84
REMARK SMILES IDX 55 85 57 86 54 87 50 88 51 89 52 90 53 91
REMARK H PARENT 77 44 45 55
REMARK Flexibility Score: inf
ROOT
ATOM      1  C   UNL     1       8.477   6.679   5.100  1.00  0.00     0.275 C 
ENDROOT
BRANCH   1   2
ATOM      2  C   UNL     1       7.905   7.289   3.821  1.00  0.00     0.274 C 
BRANCH   2   3
ATOM      3  O   UNL     1       6.463   7.300   3.800  1.00  0.00    -0.462 OA
BRANCH   3   4
ATOM      4  C   UNL     1       5.884   6.329   3.041  1.00  0.00     0.311 C 
ATOM      5  O   UNL     1       6.497   5.418   2.500  1.00  0.00    -0.252 OA
BRANCH   4   6
ATOM      6  C   UNL     1       4.398   6.578   2.863  1.00  0.00     0.128 C 
ATOM      7  N   UNL     1       3.493   4.658   1.882  1.00  0.00    -0.312 N 
ATOM      8  C   UNL     1       3.955   5.980   1.542  1.00  0.00     0.141 C 
ATOM      9  C   UNL     1       3.092   4.593   3.217  1.00  0.00     0.227 C 
ATOM     10  C   UNL     1       3.519   5.883   3.894  1.00  0.00     0.117 C 
ATOM     11  O   UNL     1       2.547   3.674   3.805  1.00  0.00    -0.274 OA
BRANCH   7  12
ATOM     12  C   UNL     1       3.452   3.590   0.956  1.00  0.00     0.044 A 
ATOM     13  C   UNL     1       2.393   1.588   0.048  1.00  0.00     0.025 A 
ATOM     14  C   UNL     1       3.435   1.462  -0.881  1.00  0.00     0.012 A 
ATOM     15  C   UNL     1       2.428   2.635   0.986  1.00  0.00     0.038 A 
ATOM     16  C   UNL     1       4.469   2.392  -0.905  1.00  0.00     0.003 A 
ATOM     17  C   UNL     1       4.465   3.458  -0.005  1.00  0.00     0.026 A 
BRANCH  13  18
ATOM     18  C   UNL     1       1.258   0.678  -0.006  1.00  0.00     0.202 A 
ATOM     19  C   UNL     1      -2.178  -0.216   0.150  1.00  0.00     0.114 C 
ATOM     20  C   UNL     1      -0.727   0.005   0.053  1.00  0.00     0.223 A 
ATOM     21  N   UNL     1      -0.017   1.071   0.347  1.00  0.00    -0.191 NA
ATOM     22  O   UNL     1       0.012  -1.017  -0.457  1.00  0.00    -0.339 OA
ATOM     23  N   UNL     1       1.324  -0.561  -0.516  1.00  0.00    -0.057 NA
ENDBRANCH  13  18
ENDBRANCH   7  12
ENDBRANCH   4   6
ENDBRANCH   3   4
ENDBRANCH   2   3
ENDBRANCH   1   2
BRANCH   1  24
ATOM     24  O   UNL     1       8.173   5.278   5.198  1.00  0.00    -0.458 OA
BRANCH  24  25
ATOM     25  C   UNL     1       7.115   4.986   5.989  1.00  0.00     0.338 C 
ATOM     26  O   UNL     1       6.434   5.774   6.624  1.00  0.00    -0.246 OA
BRANCH  25  27
ATOM     27  C   UNL     1       6.806   3.554   5.901  1.00  0.00     0.060 A 
ATOM     28  C   UNL     1       5.831   3.158   4.990  1.00  0.00     0.016 A 
ATOM     29  C   UNL     1       7.345   2.636   6.801  1.00  0.00     0.016 A 
ATOM     30  C   UNL     1       5.323   1.865   5.021  1.00  0.00     0.010 A 
ATOM     31  C   UNL     1       6.883   1.313   6.784  1.00  0.00     0.010 A 
ATOM     32  C   UNL     1       5.844   0.924   5.915  1.00  0.00    -0.014 A 
BRANCH  32  33
ATOM     33  C   UNL     1       5.251  -0.439   5.977  1.00  0.00     0.031 A 
ATOM     34  C   UNL     1       4.548  -0.894   7.227  1.00  0.00     0.074 A 
ATOM     35  C   UNL     1       5.299  -1.249   4.901  1.00  0.00     0.049 A 
ATOM     36  N   UNL     1       4.102  -2.082   7.545  1.00  0.00    -0.248 NA
ATOM     37  C   UNL     1       4.330   0.127   8.263  1.00  0.00     0.031 C 
ATOM     38  C   UNL     1       5.882  -0.897   3.604  1.00  0.00     0.029 A 
ATOM     39  N   UNL     1       4.841  -2.530   4.721  1.00  0.00    -0.354 N 
ATOM     40  C   UNL     1       3.584  -1.963   8.831  1.00  0.00     0.074 A 
ATOM     41  C   UNL     1       3.793  -0.589   9.240  1.00  0.00     0.031 C 
ATOM     42  C   UNL     1       5.723  -1.926   2.757  1.00  0.00     0.029 A 
ATOM     43  C   UNL     1       5.106  -3.039   3.470  1.00  0.00     0.049 A 
ATOM     44  H   UNL     1       4.369  -3.037   5.420  1.00  0.00     0.167 HD
ATOM     45  C   UNL     1       2.990  -2.914   9.596  1.00  0.00     0.034 A 
ATOM     46  C   UNL     1       4.917  -4.275   2.966  1.00  0.00     0.034 A 
ATOM     47  C   UNL     1       2.765  -4.271   9.155  1.00  0.00     0.049 A 
ATOM     48  C   UNL     1       4.315  -5.333   3.854  1.00  0.00     0.074 A 
ATOM     49  C   UNL     1       2.190  -5.323   9.848  1.00  0.00     0.029 A 
ATOM     50  N   UNL     1       3.097  -4.764   7.898  1.00  0.00    -0.354 N 
ATOM     51  N   UNL     1       3.914  -5.235   5.101  1.00  0.00    -0.248 NA
ATOM     52  C   UNL     1       4.154  -6.671   3.272  1.00  0.00     0.031 C 
ATOM     53  C   UNL     1       2.223  -6.460   9.032  1.00  0.00     0.029 A 
ATOM     54  C   UNL     1       2.759  -6.106   7.804  1.00  0.00     0.049 A 
ATOM     55  H   UNL     1       3.512  -4.236   7.178  1.00  0.00     0.167 HD
ATOM     56  C   UNL     1       3.444  -6.497   5.448  1.00  0.00     0.074 A 
ATOM     57  C   UNL     1       3.592  -7.332   4.273  1.00  0.00     0.031 C 
ATOM     58  C   UNL     1       2.936  -6.929   6.631  1.00  0.00     0.034 A 
BRANCH  45  59
ATOM     59  C   UNL     1       2.612  -2.531  11.008  1.00  0.00     0.023 A 
ATOM     60  C   UNL     1       1.627  -1.567  11.286  1.00  0.00     0.031 A 
ATOM     61  C   UNL     1       3.287  -3.114  12.096  1.00  0.00     0.131 A 
ATOM     62  C   UNL     1       1.394  -1.167  12.611  1.00  0.00     0.055 A 
ATOM     63  C   UNL     1       2.997  -2.766  13.417  1.00  0.00     0.041 A 
ATOM     64  F   UNL     1       4.253  -4.024  11.893  1.00  0.00    -0.206 F 
ATOM     65  C   UNL     1       2.056  -1.776  13.680  1.00  0.00     0.022 A 
BRANCH  62  66
ATOM     66  S   UNL     1       0.314   0.260  12.915  1.00  0.00     0.124 S 
ATOM     67  O   UNL     1       0.994   1.312  12.163  1.00  0.00    -0.237 OA
ATOM     68  O   UNL     1      -0.964  -0.190  12.377  1.00  0.00    -0.237 OA
ATOM     69  O   UNL     1       0.356   0.419  14.368  1.00  0.00    -0.744 OA
ENDBRANCH  62  66
ENDBRANCH  45  59
BRANCH  46  70
ATOM     70  C   UNL     1       5.383  -4.603   1.587  1.00  0.00     0.023 A 
ATOM     71  C   UNL     1       4.483  -4.979   0.577  1.00  0.00     0.031 A 
ATOM     72  C   UNL     1       6.755  -4.578   1.274  1.00  0.00     0.131 A 
ATOM     73  C   UNL     1       4.970  -5.346  -0.689  1.00  0.00     0.055 A 
ATOM     74  C   UNL     1       7.228  -4.889  -0.001  1.00  0.00     0.041 A 
ATOM     75  F   UNL     1       7.659  -4.235   2.205  1.00  0.00    -0.206 F 
ATOM     76  C   UNL     1       6.334  -5.286  -0.988  1.00  0.00     0.022 A 
BRANCH  73  77
ATOM     77  S   UNL     1       3.807  -5.995  -1.922  1.00  0.00     0.124 S 
ATOM     78  O   UNL     1       3.232  -7.137  -1.219  1.00  0.00    -0.237 OA
ATOM     79  O   UNL     1       2.918  -4.859  -2.137  1.00  0.00    -0.237 OA
ATOM     80  O   UNL     1       4.666  -6.332  -3.056  1.00  0.00    -0.744 OA
ENDBRANCH  73  77
ENDBRANCH  46  70
BRANCH  58  81
ATOM     81  C   UNL     1       2.480  -8.364   6.687  1.00  0.00     0.023 A 
ATOM     82  C   UNL     1       3.396  -9.431   6.644  1.00  0.00     0.031 A 
ATOM     83  C   UNL     1       1.110  -8.668   6.759  1.00  0.00     0.131 A 
ATOM     84  C   UNL     1       2.926 -10.753   6.622  1.00  0.00     0.055 A 
ATOM     85  C   UNL     1       0.651  -9.985   6.788  1.00  0.00     0.041 A 
ATOM     86  F   UNL     1       0.194  -7.687   6.801  1.00  0.00    -0.206 F 
ATOM     87  C   UNL     1       1.560 -11.036   6.707  1.00  0.00     0.022 A 
BRANCH  84  88
ATOM     88  S   UNL     1       4.120 -12.101   6.401  1.00  0.00     0.124 S 
ATOM     89  O   UNL     1       4.726 -11.764   5.117  1.00  0.00    -0.237 OA
ATOM     90  O   UNL     1       4.980 -11.952   7.570  1.00  0.00    -0.237 OA
ATOM     91  O   UNL     1       3.286 -13.301   6.396  1.00  0.00    -0.744 OA
ENDBRANCH  84  88
ENDBRANCH  58  81
ENDBRANCH  32  33
ENDBRANCH  25  27
ENDBRANCH  24  25
ENDBRANCH   1  24
TORSDOF 16
