REMARK SMILES Cc1cccc(CNC(=O)N[C@@H](CC2=c3ccccc3=NC2)C(=O)OCCOC(=O)c2ccc(-c3c4nc(c(-c5cc(S(=O)(=O)[O-])ccc5F)c5ccc([nH]5)c(-c5cc(S(=O)(=O)[O-])ccc5F)c5nc(c(-c6cc(S(=O)(=O)[O-])ccc6F)c6ccc3[nH]6)C=C5)C=C4)cc2)c1
REMARK SMILES IDX 26 1 25 2 23 3 24 4 12 5 11 6 8 7 9 8 10 10 7 12 6 13 1 14
REMARK SMILES IDX 2 15 3 16 94 17 4 18 5 19 13 20 14 21 15 22 22 23 16 24
REMARK SMILES IDX 20 25 21 26 17 27 19 28 18 29 27 30 28 31 29 32 30 33 31 34
REMARK SMILES IDX 32 35 93 36 33 37 92 38 34 39 35 40 36 41 86 42 37 43 91 44
REMARK SMILES IDX 85 45 87 46 38 47 90 48 84 49 83 50 39 52 71 53 51 54 70 55
REMARK SMILES IDX 52 56 55 57 69 58 88 59 53 60 54 61 68 63 89 64 56 65 40 66
REMARK SMILES IDX 41 67 49 68 42 69 48 70 50 71 47 72 43 73 44 74 45 75 46 76
REMARK SMILES IDX 72 77 73 78 81 79 74 80 80 81 82 82 79 83 75 84 76 85 77 86
REMARK SMILES IDX 78 87 57 88 58 89 66 90 59 91 65 92 67 93 64 94 60 95 61 96
REMARK SMILES IDX 62 97 63 98
REMARK H PARENT 8 9 11 11 87 51 55 62
REMARK Flexibility Score: inf
ROOT
ATOM      1  C   UNL     1      -5.314  -1.304   4.010  1.00  0.00     0.274 C 
ENDROOT
BRANCH   1   2
ATOM      2  O   UNL     1      -5.372   0.125   3.819  1.00  0.00    -0.461 OA
BRANCH   2   3
ATOM      3  C   UNL     1      -4.273   0.738   3.073  1.00  0.00     0.329 C 
ATOM      4  O   UNL     1      -3.282  -0.011   3.342  1.00  0.00    -0.250 OA
BRANCH   3   5
ATOM      5  C   UNL     1      -4.503   2.395   1.667  1.00  0.00     0.198 C 
BRANCH   5   6
ATOM      6  N   UNL     1      -4.690   2.380  -0.003  1.00  0.00    -0.324 N 
ATOM      7  N   UNL     1      -2.754   2.830  -1.342  1.00  0.00    -0.334 N 
ATOM      8  C   UNL     1      -4.054   2.664  -1.135  1.00  0.00     0.315 C 
ATOM      9  H   UNL     1      -2.587   3.100  -2.274  1.00  0.00     0.165 HD
ATOM     10  O   UNL     1      -4.776   2.785  -2.134  1.00  0.00    -0.249 OA
ATOM     11  H   UNL     1      -5.588   2.040  -0.219  1.00  0.00     0.166 HD
BRANCH   7  12
ATOM     12  C   UNL     1      -1.503   2.734  -0.611  1.00  0.00     0.153 C 
BRANCH  12  13
ATOM     13  C   UNL     1      -0.740   1.434  -0.819  1.00  0.00    -0.028 A 
ATOM     14  C   UNL     1       2.729   0.037   0.047  1.00  0.00     0.044 C 
ATOM     15  C   UNL     1       1.303   0.133  -0.411  1.00  0.00    -0.051 A 
ATOM     16  C   UNL     1       0.611  -1.040  -0.729  1.00  0.00     0.003 A 
ATOM     17  C   UNL     1       0.619   1.361  -0.448  1.00  0.00     0.009 A 
ATOM     18  C   UNL     1      -0.719  -0.982  -1.134  1.00  0.00     0.001 A 
ATOM     19  C   UNL     1      -1.377   0.247  -1.217  1.00  0.00     0.005 A 
ENDBRANCH  12  13
ENDBRANCH   7  12
ENDBRANCH   5   6
BRANCH   5  20
ATOM     20  C   UNL     1      -5.434   3.968   1.745  1.00  0.00     0.070 C 
BRANCH  20  21
ATOM     21  C   UNL     1      -6.944   4.225   1.876  1.00  0.00    -0.037 C 
ATOM     22  C   UNL     1      -8.051   3.488   1.732  1.00  0.00     0.001 A 
ATOM     23  C   UNL     1      -7.356   5.552   2.486  1.00  0.00     0.174 C 
ATOM     24  C   UNL     1      -8.441   2.249   1.141  1.00  0.00     0.010 A 
ATOM     25  C   UNL     1      -8.907   4.091   2.782  1.00  0.00     0.065 A 
ATOM     26  N   UNL     1      -8.641   5.298   3.166  1.00  0.00    -0.280 NA
ATOM     27  C   UNL     1      -9.381   1.497   1.742  1.00  0.00     0.001 A 
ATOM     28  C   UNL     1      -9.885   3.186   3.435  1.00  0.00     0.028 A 
ATOM     29  C   UNL     1     -10.020   1.934   2.968  1.00  0.00     0.002 A 
ENDBRANCH  20  21
ENDBRANCH   5  20
ENDBRANCH   3   5
ENDBRANCH   2   3
ENDBRANCH   1   2
BRANCH   1  30
ATOM     30  C   UNL     1      -5.799  -1.994   2.728  1.00  0.00     0.275 C 
BRANCH  30  31
ATOM     31  O   UNL     1      -4.881  -1.988   1.597  1.00  0.00    -0.458 OA
BRANCH  31  32
ATOM     32  C   UNL     1      -4.881  -1.045   0.622  1.00  0.00     0.338 C 
ATOM     33  O   UNL     1      -4.962  -1.267  -0.576  1.00  0.00    -0.246 OA
BRANCH  32  34
ATOM     34  C   UNL     1      -4.665   0.321   1.110  1.00  0.00     0.060 A 
ATOM     35  C   UNL     1      -2.993   0.908   1.440  1.00  0.00     0.016 A 
ATOM     36  C   UNL     1      -6.034   1.051   1.986  1.00  0.00     0.016 A 
ATOM     37  C   UNL     1      -2.670   2.067   2.804  1.00  0.00     0.010 A 
ATOM     38  C   UNL     1      -5.721   2.205   3.346  1.00  0.00     0.010 A 
ATOM     39  C   UNL     1      -4.039   2.665   3.772  1.00  0.00    -0.014 A 
BRANCH  39  40
ATOM     40  C   UNL     1      -4.003   2.904   5.219  1.00  0.00     0.031 A 
ATOM     41  C   UNL     1      -4.746   4.075   5.707  1.00  0.00     0.074 A 
ATOM     42  C   UNL     1      -3.749   1.842   6.015  1.00  0.00     0.049 A 
ATOM     43  N   UNL     1      -5.738   4.030   6.531  1.00  0.00    -0.248 NA
ATOM     44  C   UNL     1      -4.463   5.406   5.160  1.00  0.00     0.031 C 
ATOM     45  C   UNL     1      -4.146   1.623   7.402  1.00  0.00     0.029 A 
ATOM     46  N   UNL     1      -2.999   0.713   5.762  1.00  0.00    -0.354 N 
ATOM     47  C   UNL     1      -6.111   5.333   6.774  1.00  0.00     0.074 A 
ATOM     48  C   UNL     1      -5.380   6.137   5.796  1.00  0.00     0.031 C 
ATOM     49  C   UNL     1      -3.377   0.650   7.930  1.00  0.00     0.029 A 
ATOM     50  C   UNL     1      -2.393   0.274   6.928  1.00  0.00     0.049 A 
ATOM     51  H   UNL     1      -2.908   0.282   4.882  1.00  0.00     0.167 HD
ATOM     52  C   UNL     1      -6.197   5.801   8.047  1.00  0.00     0.034 A 
ATOM     53  C   UNL     1      -1.038   0.406   7.046  1.00  0.00     0.034 A 
ATOM     54  C   UNL     1      -5.318   5.101   8.959  1.00  0.00     0.049 A 
ATOM     55  C   UNL     1      -0.723   1.615   7.916  1.00  0.00     0.074 A 
ATOM     56  C   UNL     1      -5.453   4.009   9.793  1.00  0.00     0.029 A 
ATOM     57  N   UNL     1      -3.958   5.374   8.880  1.00  0.00    -0.354 N 
ATOM     58  N   UNL     1      -1.586   2.561   8.197  1.00  0.00    -0.248 NA
ATOM     59  C   UNL     1       0.547   1.808   8.602  1.00  0.00     0.031 C 
ATOM     60  C   UNL     1      -4.139   3.566  10.131  1.00  0.00     0.029 A 
ATOM     61  C   UNL     1      -3.214   4.417   9.541  1.00  0.00     0.049 A 
ATOM     62  H   UNL     1      -3.574   6.150   8.411  1.00  0.00     0.167 HD
ATOM     63  C   UNL     1      -1.056   3.429   9.108  1.00  0.00     0.074 A 
ATOM     64  C   UNL     1       0.284   2.906   9.334  1.00  0.00     0.031 C 
ATOM     65  C   UNL     1      -1.754   4.503   9.600  1.00  0.00     0.034 A 
BRANCH  52  66
ATOM     66  C   UNL     1      -7.408   6.624   8.382  1.00  0.00     0.023 A 
ATOM     67  C   UNL     1      -7.854   6.701   9.712  1.00  0.00     0.031 A 
ATOM     68  C   UNL     1      -8.205   7.279   7.412  1.00  0.00     0.131 A 
ATOM     69  C   UNL     1      -9.057   7.359  10.028  1.00  0.00     0.055 A 
ATOM     70  C   UNL     1      -9.391   7.946   7.732  1.00  0.00     0.041 A 
ATOM     71  F   UNL     1      -7.870   7.285   6.112  1.00  0.00    -0.206 F 
ATOM     72  C   UNL     1      -9.828   7.982   9.046  1.00  0.00     0.022 A 
BRANCH  69  73
ATOM     73  S   UNL     1      -9.638   7.339  11.745  1.00  0.00     0.124 S 
ATOM     74  O   UNL     1      -9.808   5.912  11.997  1.00  0.00    -0.237 OA
ATOM     75  O   UNL     1      -8.542   7.994  12.451  1.00  0.00    -0.237 OA
ATOM     76  O   UNL     1     -10.882   8.107  11.693  1.00  0.00    -0.744 OA
ENDBRANCH  69  73
ENDBRANCH  52  66
BRANCH  53  77
ATOM     77  C   UNL     1      -0.319  -0.065   5.814  1.00  0.00     0.023 A 
ATOM     78  C   UNL     1      -0.597  -1.395   5.403  1.00  0.00     0.031 A 
ATOM     79  C   UNL     1       0.240   0.795   4.859  1.00  0.00     0.131 A 
ATOM     80  C   UNL     1      -0.501  -1.769   4.054  1.00  0.00     0.055 A 
ATOM     81  C   UNL     1       0.405   0.393   3.522  1.00  0.00     0.041 A 
ATOM     82  F   UNL     1       0.494   2.079   5.155  1.00  0.00    -0.206 F 
ATOM     83  C   UNL     1      -0.015  -0.872   3.107  1.00  0.00     0.022 A 
BRANCH  80  84
ATOM     84  S   UNL     1      -1.265  -3.331   3.504  1.00  0.00     0.124 S 
ATOM     85  O   UNL     1      -0.167  -4.276   3.679  1.00  0.00    -0.237 OA
ATOM     86  O   UNL     1      -2.389  -3.499   4.423  1.00  0.00    -0.237 OA
ATOM     87  O   UNL     1      -1.636  -3.061   2.117  1.00  0.00    -0.744 OA
ENDBRANCH  80  84
ENDBRANCH  53  77
BRANCH  65  88
ATOM     88  C   UNL     1      -1.093   5.682  10.282  1.00  0.00     0.023 A 
ATOM     89  C   UNL     1       0.292   5.873  10.239  1.00  0.00     0.031 A 
ATOM     90  C   UNL     1      -1.820   6.702  10.938  1.00  0.00     0.131 A 
ATOM     91  C   UNL     1       0.917   6.899  10.958  1.00  0.00     0.055 A 
ATOM     92  C   UNL     1      -1.204   7.802  11.549  1.00  0.00     0.041 A 
ATOM     93  F   UNL     1      -3.159   6.693  10.998  1.00  0.00    -0.206 F 
ATOM     94  C   UNL     1       0.179   7.886  11.596  1.00  0.00     0.022 A 
BRANCH  91  95
ATOM     95  S   UNL     1       2.715   6.804  11.127  1.00  0.00     0.124 S 
ATOM     96  O   UNL     1       2.879   5.522  11.808  1.00  0.00    -0.237 OA
ATOM     97  O   UNL     1       3.161   6.840   9.738  1.00  0.00    -0.237 OA
ATOM     98  O   UNL     1       3.048   7.981  11.924  1.00  0.00    -0.744 OA
ENDBRANCH  91  95
ENDBRANCH  65  88
ENDBRANCH  39  40
ENDBRANCH  32  34
ENDBRANCH  31  32
ENDBRANCH  30  31
ENDBRANCH   1  30
TORSDOF 19
