REMARK SMILES Cc1ccc(S(=O)(=O)N[C@H]2C=C[C@@H](C(=O)OCCOC(=O)c3ccc(-c4c5nc(c(-c6cc(S(=O)(=O)[O-])ccc6F)c6ccc([nH]6)c(-c6cc(S(=O)(=O)[O-])ccc6F)c6nc(c(-c7cc(S(=O)(=O)[O-])ccc7F)c7ccc4[nH]7)C=C6)C=C5)cc3)C2)c(C)c1
REMARK SMILES IDX 17 1 16 2 14 3 15 4 13 5 10 6 11 7 85 8 12 9 9 10 6 12 7 13
REMARK SMILES IDX 8 14 5 15 1 16 2 17 3 18 88 19 4 20 86 21 87 22 18 23 19 24
REMARK SMILES IDX 20 25 21 26 22 27 23 28 84 29 24 30 83 31 25 32 26 33 27 34
REMARK SMILES IDX 77 35 28 36 82 37 76 38 78 39 29 40 81 41 75 42 74 43 30 45
REMARK SMILES IDX 62 46 42 47 61 48 43 49 46 50 60 51 79 52 44 53 45 54 59 56
REMARK SMILES IDX 80 57 47 58 31 59 32 60 40 61 33 62 39 63 41 64 38 65 34 66
REMARK SMILES IDX 35 67 36 68 37 69 63 70 64 71 72 72 65 73 71 74 73 75 70 76
REMARK SMILES IDX 66 77 67 78 68 79 69 80 48 81 49 82 57 83 50 84 56 85 58 86
REMARK SMILES IDX 55 87 51 88 52 89 53 90 54 91
REMARK H PARENT 9 11 78 44 46 55
REMARK Flexibility Score: inf
ROOT
ATOM      1  C   UNL     1      -5.602  -7.163   3.463  1.00  0.00     0.274 C 
ENDROOT
BRANCH   1   2
ATOM      2  O   UNL     1      -4.577  -6.284   2.968  1.00  0.00    -0.462 OA
BRANCH   2   3
ATOM      3  C   UNL     1      -3.749  -5.729   3.889  1.00  0.00     0.312 C 
ATOM      4  O   UNL     1      -3.898  -5.825   5.103  1.00  0.00    -0.252 OA
BRANCH   3   5
ATOM      5  C   UNL     1      -2.564  -5.001   3.266  1.00  0.00     0.123 C 
ATOM      6  C   UNL     1      -1.837  -3.730   1.314  1.00  0.00     0.093 C 
ATOM      7  C   UNL     1      -2.165  -2.847   2.468  1.00  0.00    -0.011 C 
ATOM      8  C   UNL     1      -2.397  -5.091   1.748  1.00  0.00     0.043 C 
ATOM      9  C   UNL     1      -2.589  -3.534   3.532  1.00  0.00    -0.015 C 
BRANCH   6  10
ATOM     10  N   UNL     1      -2.463  -3.350   0.056  1.00  0.00    -0.204 NA
ATOM     11  H   UNL     1      -1.846  -3.713  -0.670  1.00  0.00     0.142 HD
BRANCH  10  12
ATOM     12  S   UNL     1      -2.836  -1.799  -0.422  1.00  0.00     0.241 S 
ATOM     13  O   UNL     1      -3.742  -1.250   0.568  1.00  0.00    -0.207 OA
ATOM     14  O   UNL     1      -3.216  -1.892  -1.812  1.00  0.00    -0.207 OA
BRANCH  12  15
ATOM     15  C   UNL     1      -1.300  -0.891  -0.366  1.00  0.00     0.085 A 
ATOM     16  C   UNL     1       2.493   1.119   0.042  1.00  0.00     0.044 C 
ATOM     17  C   UNL     1       1.181   0.409  -0.105  1.00  0.00    -0.051 A 
ATOM     18  C   UNL     1       1.132  -0.960  -0.369  1.00  0.00     0.005 A 
ATOM     19  C   UNL     1      -0.019   1.128  -0.019  1.00  0.00     0.008 A 
ATOM     20  C   UNL     1      -0.098  -1.603  -0.508  1.00  0.00     0.022 A 
ATOM     21  C   UNL     1      -1.272   0.499  -0.160  1.00  0.00    -0.031 A 
ATOM     22  C   UNL     1      -2.484   1.387  -0.099  1.00  0.00     0.046 C 
ENDBRANCH  12  15
ENDBRANCH  10  12
ENDBRANCH   6  10
ENDBRANCH   3   5
ENDBRANCH   2   3
ENDBRANCH   1   2
BRANCH   1  23
ATOM     23  C   UNL     1      -5.256  -8.620   3.143  1.00  0.00     0.275 C 
BRANCH  23  24
ATOM     24  O   UNL     1      -4.083  -9.069   3.853  1.00  0.00    -0.458 OA
BRANCH  24  25
ATOM     25  C   UNL     1      -2.916  -8.897   3.189  1.00  0.00     0.338 C 
ATOM     26  O   UNL     1      -2.767  -8.415   2.078  1.00  0.00    -0.246 OA
BRANCH  25  27
ATOM     27  C   UNL     1      -1.776  -9.247   4.051  1.00  0.00     0.060 A 
ATOM     28  C   UNL     1      -0.940  -8.210   4.460  1.00  0.00     0.016 A 
ATOM     29  C   UNL     1      -1.445 -10.568   4.342  1.00  0.00     0.016 A 
ATOM     30  C   UNL     1       0.249  -8.476   5.124  1.00  0.00     0.010 A 
ATOM     31  C   UNL     1      -0.264 -10.837   5.049  1.00  0.00     0.010 A 
ATOM     32  C   UNL     1       0.601  -9.793   5.431  1.00  0.00    -0.014 A 
BRANCH  32  33
ATOM     33  C   UNL     1       1.895 -10.056   6.113  1.00  0.00     0.031 A 
ATOM     34  C   UNL     1       2.994 -10.778   5.385  1.00  0.00     0.074 A 
ATOM     35  C   UNL     1       2.099  -9.592   7.363  1.00  0.00     0.049 A 
ATOM     36  N   UNL     1       4.150 -11.194   5.833  1.00  0.00    -0.248 NA
ATOM     37  C   UNL     1       2.762 -11.069   3.962  1.00  0.00     0.031 C 
ATOM     38  C   UNL     1       1.135  -8.810   8.141  1.00  0.00     0.029 A 
ATOM     39  N   UNL     1       3.184  -9.702   8.197  1.00  0.00    -0.354 N 
ATOM     40  C   UNL     1       4.776 -11.814   4.757  1.00  0.00     0.074 A 
ATOM     41  C   UNL     1       3.858 -11.742   3.640  1.00  0.00     0.031 C 
ATOM     42  C   UNL     1       1.677  -8.500   9.329  1.00  0.00     0.029 A 
ATOM     43  C   UNL     1       2.990  -9.126   9.432  1.00  0.00     0.049 A 
ATOM     44  H   UNL     1       4.021 -10.149   7.936  1.00  0.00     0.167 HD
ATOM     45  C   UNL     1       6.006 -12.383   4.709  1.00  0.00     0.034 A 
ATOM     46  C   UNL     1       3.762  -9.141  10.537  1.00  0.00     0.034 A 
ATOM     47  C   UNL     1       6.910 -12.438   5.832  1.00  0.00     0.049 A 
ATOM     48  C   UNL     1       5.082  -9.871  10.484  1.00  0.00     0.074 A 
ATOM     49  C   UNL     1       8.168 -13.013   5.901  1.00  0.00     0.029 A 
ATOM     50  N   UNL     1       6.657 -11.892   7.085  1.00  0.00    -0.354 N 
ATOM     51  N   UNL     1       5.639 -10.498   9.473  1.00  0.00    -0.248 NA
ATOM     52  C   UNL     1       5.876  -9.896  11.719  1.00  0.00     0.031 C 
ATOM     53  C   UNL     1       8.647 -12.869   7.207  1.00  0.00     0.029 A 
ATOM     54  C   UNL     1       7.725 -12.136   7.935  1.00  0.00     0.049 A 
ATOM     55  H   UNL     1       5.839 -11.403   7.332  1.00  0.00     0.167 HD
ATOM     56  C   UNL     1       6.865 -10.960   9.945  1.00  0.00     0.074 A 
ATOM     57  C   UNL     1       6.973 -10.520  11.320  1.00  0.00     0.031 C 
ATOM     58  C   UNL     1       7.816 -11.685   9.303  1.00  0.00     0.034 A 
BRANCH  45  59
ATOM     59  C   UNL     1       6.424 -13.035   3.413  1.00  0.00     0.023 A 
ATOM     60  C   UNL     1       6.643 -12.288   2.244  1.00  0.00     0.031 A 
ATOM     61  C   UNL     1       6.606 -14.429   3.349  1.00  0.00     0.131 A 
ATOM     62  C   UNL     1       6.980 -12.941   1.048  1.00  0.00     0.055 A 
ATOM     63  C   UNL     1       7.012 -15.065   2.175  1.00  0.00     0.041 A 
ATOM     64  F   UNL     1       6.388 -15.197   4.428  1.00  0.00    -0.206 F 
ATOM     65  C   UNL     1       7.192 -14.322   1.012  1.00  0.00     0.022 A 
BRANCH  62  66
ATOM     66  S   UNL     1       7.029 -11.976  -0.486  1.00  0.00     0.124 S 
ATOM     67  O   UNL     1       5.653 -11.492  -0.574  1.00  0.00    -0.237 OA
ATOM     68  O   UNL     1       8.042 -10.969  -0.195  1.00  0.00    -0.237 OA
ATOM     69  O   UNL     1       7.401 -12.961  -1.500  1.00  0.00    -0.744 OA
ENDBRANCH  62  66
ENDBRANCH  45  59
BRANCH  46  70
ATOM     70  C   UNL     1       3.295  -8.512  11.809  1.00  0.00     0.023 A 
ATOM     71  C   UNL     1       4.037  -7.496  12.431  1.00  0.00     0.031 A 
ATOM     72  C   UNL     1       2.145  -8.982  12.470  1.00  0.00     0.131 A 
ATOM     73  C   UNL     1       3.664  -7.035  13.703  1.00  0.00     0.055 A 
ATOM     74  C   UNL     1       1.736  -8.467  13.702  1.00  0.00     0.041 A 
ATOM     75  F   UNL     1       1.398  -9.958  11.928  1.00  0.00    -0.206 F 
ATOM     76  C   UNL     1       2.510  -7.502  14.335  1.00  0.00     0.022 A 
BRANCH  73  77
ATOM     77  S   UNL     1       4.791  -5.916  14.582  1.00  0.00     0.124 S 
ATOM     78  O   UNL     1       6.037  -6.673  14.556  1.00  0.00    -0.237 OA
ATOM     79  O   UNL     1       4.747  -4.724  13.742  1.00  0.00    -0.237 OA
ATOM     80  O   UNL     1       4.171  -5.776  15.898  1.00  0.00    -0.744 OA
ENDBRANCH  73  77
ENDBRANCH  46  70
BRANCH  58  81
ATOM     81  C   UNL     1       9.079 -11.987  10.073  1.00  0.00     0.023 A 
ATOM     82  C   UNL     1       9.076 -12.825  11.202  1.00  0.00     0.031 A 
ATOM     83  C   UNL     1      10.298 -11.404   9.684  1.00  0.00     0.131 A 
ATOM     84  C   UNL     1      10.255 -13.006  11.940  1.00  0.00     0.055 A 
ATOM     85  C   UNL     1      11.481 -11.640  10.385  1.00  0.00     0.041 A 
ATOM     86  F   UNL     1      10.358 -10.594   8.616  1.00  0.00    -0.206 F 
ATOM     87  C   UNL     1      11.461 -12.432  11.529  1.00  0.00     0.022 A 
BRANCH  84  88
ATOM     88  S   UNL     1      10.170 -13.920  13.504  1.00  0.00     0.124 S 
ATOM     89  O   UNL     1       9.194 -13.140  14.259  1.00  0.00    -0.237 OA
ATOM     90  O   UNL     1       9.731 -15.242  13.070  1.00  0.00    -0.237 OA
ATOM     91  O   UNL     1      11.539 -13.859  14.012  1.00  0.00    -0.744 OA
ENDBRANCH  84  88
ENDBRANCH  58  81
ENDBRANCH  32  33
ENDBRANCH  25  27
ENDBRANCH  24  25
ENDBRANCH  23  24
ENDBRANCH   1  23
TORSDOF 17
