REMARK SMILES O=C(OCCOC(=O)c1cccc(Nc2nc(-c3ccc(F)cc3F)cs2)c1)c1ccc(-c2c3nc(c(-c4cc(S(=O)(=O)[O-])ccc4F)c4ccc([nH]4)c(-c4cc(S(=O)(=O)[O-])ccc4F)c4nc(c(-c5cc(S(=O)(=O)[O-])ccc5F)c5ccc2[nH]5)C=C4)C=C3)cc1
REMARK SMILES IDX 4 1 3 2 2 3 1 4 29 5 30 6 91 7 31 8 90 9 32 10 33 11 34 12
REMARK SMILES IDX 84 13 35 14 89 15 83 16 85 17 36 18 88 19 82 20 81 21 37 23
REMARK SMILES IDX 69 24 49 25 68 26 50 27 53 28 67 29 86 30 51 31 52 32 66 34
REMARK SMILES IDX 87 35 54 36 38 37 39 38 47 39 40 40 46 41 48 42 45 43 41 44
REMARK SMILES IDX 42 45 43 46 44 47 70 48 71 49 79 50 72 51 78 52 80 53 77 54
REMARK SMILES IDX 73 55 74 56 75 57 76 58 55 59 56 60 64 61 57 62 63 63 65 64
REMARK SMILES IDX 62 65 58 66 59 67 60 68 61 69 5 70 6 71 7 72 8 73 9 74 10 75
REMARK SMILES IDX 28 76 11 77 13 78 12 79 14 80 15 82 16 83 27 84 17 85 26 86
REMARK SMILES IDX 18 87 19 88 24 89 20 90 23 91 25 92 21 93 22 94
REMARK H PARENT 85 22 53 33 14 81
REMARK Flexibility Score: inf
ROOT
ATOM      1  C   UNL     1       4.200  -0.338  -1.592  1.00  0.00     0.275 C 
ENDROOT
BRANCH   1   2
ATOM      2  O   UNL     1       3.049  -0.797  -0.861  1.00  0.00    -0.458 OA
BRANCH   2   3
ATOM      3  C   UNL     1       2.815  -0.820   0.473  1.00  0.00     0.338 C 
ATOM      4  O   UNL     1       1.834  -1.442   0.882  1.00  0.00    -0.246 OA
BRANCH   3   5
ATOM      5  C   UNL     1       3.590  -0.013   1.469  1.00  0.00     0.060 A 
ATOM      6  C   UNL     1       4.933   0.350   1.361  1.00  0.00     0.016 A 
ATOM      7  C   UNL     1       2.889   0.401   2.619  1.00  0.00     0.016 A 
ATOM      8  C   UNL     1       5.541   1.153   2.328  1.00  0.00     0.010 A 
ATOM      9  C   UNL     1       3.488   1.213   3.588  1.00  0.00     0.010 A 
ATOM     10  C   UNL     1       4.827   1.583   3.447  1.00  0.00    -0.014 A 
BRANCH  10  11
ATOM     11  C   UNL     1       5.566   2.264   4.531  1.00  0.00     0.031 A 
ATOM     12  C   UNL     1       6.037   1.437   5.691  1.00  0.00     0.074 A 
ATOM     13  C   UNL     1       5.910   3.559   4.414  1.00  0.00     0.049 A 
ATOM     14  N   UNL     1       6.831   1.766   6.674  1.00  0.00    -0.248 NA
ATOM     15  C   UNL     1       5.573   0.041   5.727  1.00  0.00     0.031 C 
ATOM     16  C   UNL     1       5.556   4.421   3.287  1.00  0.00     0.029 A 
ATOM     17  N   UNL     1       6.645   4.371   5.236  1.00  0.00    -0.354 N 
ATOM     18  C   UNL     1       6.992   0.609   7.426  1.00  0.00     0.074 A 
ATOM     19  C   UNL     1       6.162  -0.410   6.822  1.00  0.00     0.031 C 
ATOM     20  C   UNL     1       6.061   5.648   3.495  1.00  0.00     0.029 A 
ATOM     21  C   UNL     1       6.765   5.661   4.773  1.00  0.00     0.049 A 
ATOM     22  H   UNL     1       7.049   4.061   6.078  1.00  0.00     0.167 HD
ATOM     23  C   UNL     1       7.783   0.412   8.508  1.00  0.00     0.034 A 
ATOM     24  C   UNL     1       7.377   6.727   5.326  1.00  0.00     0.034 A 
ATOM     25  C   UNL     1       8.555   1.464   9.121  1.00  0.00     0.049 A 
ATOM     26  C   UNL     1       8.131   6.519   6.615  1.00  0.00     0.074 A 
ATOM     27  C   UNL     1       9.367   1.405  10.238  1.00  0.00     0.029 A 
ATOM     28  N   UNL     1       8.583   2.783   8.677  1.00  0.00    -0.354 N 
ATOM     29  N   UNL     1       8.310   5.411   7.300  1.00  0.00    -0.248 NA
ATOM     30  C   UNL     1       8.792   7.696   7.189  1.00  0.00     0.031 C 
ATOM     31  C   UNL     1       9.828   2.699  10.510  1.00  0.00     0.029 A 
ATOM     32  C   UNL     1       9.370   3.553   9.518  1.00  0.00     0.049 A 
ATOM     33  H   UNL     1       8.113   3.119   7.880  1.00  0.00     0.167 HD
ATOM     34  C   UNL     1       9.145   5.749   8.360  1.00  0.00     0.074 A 
ATOM     35  C   UNL     1       9.436   7.163   8.217  1.00  0.00     0.031 C 
ATOM     36  C   UNL     1       9.639   4.964   9.353  1.00  0.00     0.034 A 
BRANCH  23  37
ATOM     37  C   UNL     1       7.775  -0.973   9.107  1.00  0.00     0.023 A 
ATOM     38  C   UNL     1       8.232  -2.091   8.382  1.00  0.00     0.031 A 
ATOM     39  C   UNL     1       7.213  -1.195  10.374  1.00  0.00     0.131 A 
ATOM     40  C   UNL     1       8.034  -3.384   8.891  1.00  0.00     0.055 A 
ATOM     41  C   UNL     1       7.092  -2.479  10.910  1.00  0.00     0.041 A 
ATOM     42  F   UNL     1       6.735  -0.172  11.099  1.00  0.00    -0.206 F 
ATOM     43  C   UNL     1       7.486  -3.584  10.160  1.00  0.00     0.022 A 
BRANCH  40  44
ATOM     44  S   UNL     1       8.344  -4.803   7.802  1.00  0.00     0.124 S 
ATOM     45  O   UNL     1       7.437  -4.528   6.690  1.00  0.00    -0.237 OA
ATOM     46  O   UNL     1       9.767  -4.675   7.512  1.00  0.00    -0.237 OA
ATOM     47  O   UNL     1       7.976  -5.954   8.626  1.00  0.00    -0.744 OA
ENDBRANCH  40  44
ENDBRANCH  23  37
BRANCH  24  48
ATOM     48  C   UNL     1       7.301   8.071   4.682  1.00  0.00     0.023 A 
ATOM     49  C   UNL     1       8.446   8.726   4.204  1.00  0.00     0.031 A 
ATOM     50  C   UNL     1       6.071   8.745   4.582  1.00  0.00     0.131 A 
ATOM     51  C   UNL     1       8.343  10.028   3.685  1.00  0.00     0.055 A 
ATOM     52  C   UNL     1       5.966  10.020   4.025  1.00  0.00     0.041 A 
ATOM     53  F   UNL     1       4.945   8.166   5.025  1.00  0.00    -0.206 F 
ATOM     54  C   UNL     1       7.109  10.675   3.583  1.00  0.00     0.022 A 
BRANCH  51  55
ATOM     55  S   UNL     1       9.861  10.902   3.209  1.00  0.00     0.124 S 
ATOM     56  O   UNL     1      10.631  10.861   4.446  1.00  0.00    -0.237 OA
ATOM     57  O   UNL     1      10.355  10.071   2.116  1.00  0.00    -0.237 OA
ATOM     58  O   UNL     1       9.382  12.225   2.814  1.00  0.00    -0.744 OA
ENDBRANCH  51  55
ENDBRANCH  24  48
BRANCH  36  59
ATOM     59  C   UNL     1      10.592   5.620  10.320  1.00  0.00     0.023 A 
ATOM     60  C   UNL     1      10.175   6.631  11.201  1.00  0.00     0.031 A 
ATOM     61  C   UNL     1      11.946   5.238  10.340  1.00  0.00     0.131 A 
ATOM     62  C   UNL     1      11.116   7.276  12.017  1.00  0.00     0.055 A 
ATOM     63  C   UNL     1      12.864   5.835  11.203  1.00  0.00     0.041 A 
ATOM     64  F   UNL     1      12.398   4.279   9.517  1.00  0.00    -0.206 F 
ATOM     65  C   UNL     1      12.454   6.872  12.037  1.00  0.00     0.022 A 
BRANCH  62  66
ATOM     66  S   UNL     1      10.589   8.725  12.972  1.00  0.00     0.124 S 
ATOM     67  O   UNL     1      10.095   9.614  11.925  1.00  0.00    -0.237 OA
ATOM     68  O   UNL     1       9.577   8.162  13.860  1.00  0.00    -0.237 OA
ATOM     69  O   UNL     1      11.817   9.165  13.632  1.00  0.00    -0.744 OA
ENDBRANCH  62  66
ENDBRANCH  36  59
ENDBRANCH  10  11
ENDBRANCH   3   5
ENDBRANCH   2   3
ENDBRANCH   1   2
BRANCH   1  70
ATOM     70  C   UNL     1       4.181   1.150  -1.957  1.00  0.00     0.275 C 
BRANCH  70  71
ATOM     71  O   UNL     1       3.692   1.993  -0.903  1.00  0.00    -0.458 OA
BRANCH  71  72
ATOM     72  C   UNL     1       2.371   2.296  -0.986  1.00  0.00     0.338 C 
ATOM     73  O   UNL     1       1.607   1.994  -1.889  1.00  0.00    -0.246 OA
BRANCH  72  74
ATOM     74  C   UNL     1       1.922   2.938   0.263  1.00  0.00     0.062 A 
ATOM     75  C   UNL     1       0.842   2.358   0.931  1.00  0.00     0.016 A 
ATOM     76  C   UNL     1       2.517   4.107   0.754  1.00  0.00     0.041 A 
ATOM     77  C   UNL     1       0.401   2.908   2.129  1.00  0.00     0.003 A 
ATOM     78  C   UNL     1       2.023   4.719   1.922  1.00  0.00     0.041 A 
ATOM     79  C   UNL     1       0.996   4.071   2.621  1.00  0.00     0.026 A 
BRANCH  78  80
ATOM     80  N   UNL     1       2.546   5.965   2.314  1.00  0.00    -0.332 N 
ATOM     81  H   UNL     1       3.290   6.312   1.769  1.00  0.00     0.169 HD
BRANCH  80  82
ATOM     82  C   UNL     1       2.154   6.749   3.350  1.00  0.00     0.187 A 
ATOM     83  N   UNL     1       1.714   6.369   4.532  1.00  0.00    -0.220 NA
ATOM     84  S   UNL     1       2.179   8.467   3.119  1.00  0.00    -0.105 S 
ATOM     85  C   UNL     1       1.496   7.470   5.338  1.00  0.00     0.086 A 
ATOM     86  C   UNL     1       1.595   8.693   4.709  1.00  0.00     0.097 A 
BRANCH  85  87
ATOM     87  C   UNL     1       1.184   7.357   6.747  1.00  0.00     0.037 A 
ATOM     88  C   UNL     1      -0.145   7.370   7.189  1.00  0.00     0.016 A 
ATOM     89  C   UNL     1       2.219   7.299   7.690  1.00  0.00     0.135 A 
ATOM     90  C   UNL     1      -0.420   7.341   8.560  1.00  0.00     0.040 A 
ATOM     91  C   UNL     1       1.950   7.266   9.054  1.00  0.00     0.079 A 
ATOM     92  F   UNL     1       3.499   7.314   7.294  1.00  0.00    -0.206 F 
ATOM     93  C   UNL     1       0.628   7.293   9.477  1.00  0.00     0.126 A 
ATOM     94  F   UNL     1       0.350   7.284  10.787  1.00  0.00    -0.207 F 
ENDBRANCH  85  87
ENDBRANCH  80  82
ENDBRANCH  78  80
ENDBRANCH  72  74
ENDBRANCH  71  72
ENDBRANCH  70  71
ENDBRANCH   1  70
TORSDOF 17
