REMARK SMILES CSc1ccc([C@H]2[NH2+][C@@H](C(=O)OCCOC(=O)c3ccc(-c4c5nc(c(-c6cc(S(=O)(=O)[O-])ccc6F)c6ccc([nH]6)c(-c6cc(S(=O)(=O)[O-])ccc6F)c6nc(c(-c7cc(S(=O)(=O)[O-])ccc7F)c7ccc4[nH]7)C=C6)C=C5)cc3)C(C)(C)S2)cc1
REMARK SMILES IDX 14 1 13 2 12 3 10 4 11 5 9 6 7 7 8 8 84 9 81 12 82 13 83 14
REMARK SMILES IDX 6 15 3 16 4 17 86 18 5 19 85 20 2 21 1 22 15 23 16 24 17 25
REMARK SMILES IDX 18 26 19 27 80 28 20 29 79 30 21 31 22 32 23 33 73 34 24 35
REMARK SMILES IDX 78 36 72 37 74 38 25 39 77 40 71 41 70 42 26 44 58 45 38 46
REMARK SMILES IDX 57 47 39 48 42 49 56 50 75 51 40 52 41 53 55 55 76 56 43 57
REMARK SMILES IDX 27 58 28 59 36 60 29 61 35 62 37 63 34 64 30 65 31 66 32 67
REMARK SMILES IDX 33 68 59 69 60 70 68 71 61 72 67 73 69 74 66 75 62 76 63 77
REMARK SMILES IDX 64 78 65 79 44 80 45 81 53 82 46 83 52 84 54 85 51 86 47 87
REMARK SMILES IDX 48 88 49 89 50 90
REMARK H PARENT 8 10 8 11 74 43 42 54
REMARK Flexibility Score: inf
ROOT
ATOM      1  C   UNL     1      -1.663   5.717  -9.313  1.00  0.00     0.275 C 
ENDROOT
BRANCH   1   2
ATOM      2  C   UNL     1      -1.797   4.643  -8.233  1.00  0.00     0.274 C 
BRANCH   2   3
ATOM      3  O   UNL     1      -0.514   4.219  -7.732  1.00  0.00    -0.458 OA
BRANCH   3   4
ATOM      4  C   UNL     1       0.025   3.132  -8.341  1.00  0.00     0.366 C 
ATOM      5  O   UNL     1      -0.532   2.513  -9.242  1.00  0.00    -0.245 OA
BRANCH   4   6
ATOM      6  C   UNL     1       1.343   2.649  -7.705  1.00  0.00     0.310 C 
ATOM      7  C   UNL     1       2.225   1.172  -6.083  1.00  0.00     0.274 C 
ATOM      8  N   UNL     1       0.983   1.618  -6.708  1.00  0.00    -0.319 N 
ATOM      9  S   UNL     1       3.342   2.590  -5.973  1.00  0.00    -0.081 SA
ATOM     10  H   UNL     1       0.361   2.015  -6.004  1.00  0.00     0.348 HD
ATOM     11  H   UNL     1       0.499   0.837  -7.151  1.00  0.00     0.348 HD
ATOM     12  C   UNL     1       2.321   3.667  -7.067  1.00  0.00     0.079 C 
ATOM     13  C   UNL     1       1.721   4.744  -6.159  1.00  0.00     0.030 C 
ATOM     14  C   UNL     1       3.256   4.301  -8.099  1.00  0.00     0.030 C 
BRANCH   7  15
ATOM     15  C   UNL     1       1.914   0.540  -4.745  1.00  0.00     0.020 A 
ATOM     16  C   UNL     1       1.085  -0.700  -2.352  1.00  0.00     0.007 A 
ATOM     17  C   UNL     1       1.692  -1.448  -3.365  1.00  0.00     0.015 A 
ATOM     18  C   UNL     1       0.891   0.669  -2.541  1.00  0.00     0.015 A 
ATOM     19  C   UNL     1       2.103  -0.835  -4.553  1.00  0.00     0.012 A 
ATOM     20  C   UNL     1       1.317   1.286  -3.714  1.00  0.00     0.012 A 
BRANCH  16  21
ATOM     21  S   UNL     1       0.536  -1.532  -0.872  1.00  0.00    -0.130 SA
ATOM     22  C   UNL     1       1.098  -0.356   0.386  1.00  0.00     0.091 C 
ENDBRANCH  16  21
ENDBRANCH   7  15
ENDBRANCH   4   6
ENDBRANCH   3   4
ENDBRANCH   2   3
ENDBRANCH   1   2
BRANCH   1  23
ATOM     23  O   UNL     1      -0.965   5.216 -10.467  1.00  0.00    -0.458 OA
BRANCH  23  24
ATOM     24  C   UNL     1       0.333   5.587 -10.566  1.00  0.00     0.338 C 
ATOM     25  O   UNL     1       0.943   6.335  -9.824  1.00  0.00    -0.246 OA
BRANCH  24  26
ATOM     26  C   UNL     1       0.957   4.869 -11.688  1.00  0.00     0.060 A 
ATOM     27  C   UNL     1       1.561   3.631 -11.455  1.00  0.00     0.016 A 
ATOM     28  C   UNL     1       1.008   5.450 -12.952  1.00  0.00     0.016 A 
ATOM     29  C   UNL     1       2.206   2.954 -12.483  1.00  0.00     0.010 A 
ATOM     30  C   UNL     1       1.637   4.760 -13.993  1.00  0.00     0.010 A 
ATOM     31  C   UNL     1       2.235   3.507 -13.765  1.00  0.00    -0.014 A 
BRANCH  31  32
ATOM     32  C   UNL     1       2.902   2.782 -14.871  1.00  0.00     0.031 A 
ATOM     33  C   UNL     1       4.184   3.311 -15.438  1.00  0.00     0.074 A 
ATOM     34  C   UNL     1       2.344   1.660 -15.364  1.00  0.00     0.049 A 
ATOM     35  N   UNL     1       4.821   2.952 -16.520  1.00  0.00    -0.248 NA
ATOM     36  C   UNL     1       4.831   4.395 -14.684  1.00  0.00     0.031 C 
ATOM     37  C   UNL     1       1.141   1.012 -14.836  1.00  0.00     0.029 A 
ATOM     38  N   UNL     1       2.705   0.876 -16.429  1.00  0.00    -0.354 N 
ATOM     39  C   UNL     1       5.931   3.784 -16.598  1.00  0.00     0.074 A 
ATOM     40  C   UNL     1       5.871   4.673 -15.457  1.00  0.00     0.031 C 
ATOM     41  C   UNL     1       0.858  -0.063 -15.588  1.00  0.00     0.029 A 
ATOM     42  C   UNL     1       1.810  -0.136 -16.691  1.00  0.00     0.049 A 
ATOM     43  H   UNL     1       3.525   1.022 -16.955  1.00  0.00     0.167 HD
ATOM     44  C   UNL     1       6.904   3.800 -17.543  1.00  0.00     0.034 A 
ATOM     45  C   UNL     1       1.733  -0.984 -17.734  1.00  0.00     0.034 A 
ATOM     46  C   UNL     1       6.937   2.898 -18.669  1.00  0.00     0.049 A 
ATOM     47  C   UNL     1       2.760  -0.874 -18.831  1.00  0.00     0.074 A 
ATOM     48  C   UNL     1       7.875   2.815 -19.683  1.00  0.00     0.029 A 
ATOM     49  N   UNL     1       5.980   1.925 -18.935  1.00  0.00    -0.354 N 
ATOM     50  N   UNL     1       3.781  -0.054 -18.925  1.00  0.00    -0.248 NA
ATOM     51  C   UNL     1       2.614  -1.790 -19.969  1.00  0.00     0.031 C 
ATOM     52  C   UNL     1       7.452   1.839 -20.593  1.00  0.00     0.029 A 
ATOM     53  C   UNL     1       6.285   1.264 -20.114  1.00  0.00     0.049 A 
ATOM     54  H   UNL     1       5.198   1.734 -18.368  1.00  0.00     0.167 HD
ATOM     55  C   UNL     1       4.410  -0.368 -20.126  1.00  0.00     0.074 A 
ATOM     56  C   UNL     1       3.660  -1.460 -20.713  1.00  0.00     0.031 C 
ATOM     57  C   UNL     1       5.509   0.192 -20.692  1.00  0.00     0.034 A 
BRANCH  44  58
ATOM     58  C   UNL     1       7.961   4.869 -17.429  1.00  0.00     0.023 A 
ATOM     59  C   UNL     1       8.876   4.902 -16.363  1.00  0.00     0.031 A 
ATOM     60  C   UNL     1       8.029   5.896 -18.388  1.00  0.00     0.131 A 
ATOM     61  C   UNL     1       9.774   5.974 -16.245  1.00  0.00     0.055 A 
ATOM     62  C   UNL     1       8.973   6.921 -18.305  1.00  0.00     0.041 A 
ATOM     63  F   UNL     1       7.165   5.929 -19.415  1.00  0.00    -0.206 F 
ATOM     64  C   UNL     1       9.844   6.972 -17.221  1.00  0.00     0.022 A 
BRANCH  61  65
ATOM     65  S   UNL     1      10.758   6.121 -14.728  1.00  0.00     0.124 S 
ATOM     66  O   UNL     1       9.717   6.191 -13.706  1.00  0.00    -0.237 OA
ATOM     67  O   UNL     1      11.553   4.899 -14.749  1.00  0.00    -0.237 OA
ATOM     68  O   UNL     1      11.511   7.359 -14.926  1.00  0.00    -0.744 OA
ENDBRANCH  61  65
ENDBRANCH  44  58
BRANCH  45  69
ATOM     69  C   UNL     1       0.601  -1.948 -17.838  1.00  0.00     0.023 A 
ATOM     70  C   UNL     1       0.822  -3.333 -17.806  1.00  0.00     0.031 A 
ATOM     71  C   UNL     1      -0.720  -1.494 -18.006  1.00  0.00     0.131 A 
ATOM     72  C   UNL     1      -0.257  -4.216 -17.972  1.00  0.00     0.055 A 
ATOM     73  C   UNL     1      -1.796  -2.375 -18.119  1.00  0.00     0.041 A 
ATOM     74  F   UNL     1      -0.986  -0.178 -18.048  1.00  0.00    -0.206 F 
ATOM     75  C   UNL     1      -1.565  -3.747 -18.113  1.00  0.00     0.022 A 
BRANCH  72  76
ATOM     76  S   UNL     1       0.084  -5.994 -18.074  1.00  0.00     0.124 S 
ATOM     77  O   UNL     1       0.991  -6.059 -19.214  1.00  0.00    -0.237 OA
ATOM     78  O   UNL     1       0.674  -6.266 -16.768  1.00  0.00    -0.237 OA
ATOM     79  O   UNL     1      -1.236  -6.582 -18.293  1.00  0.00    -0.744 OA
ENDBRANCH  72  76
ENDBRANCH  45  69
BRANCH  57  80
ATOM     80  C   UNL     1       5.974  -0.399 -21.997  1.00  0.00     0.023 A 
ATOM     81  C   UNL     1       5.245  -0.222 -23.186  1.00  0.00     0.031 A 
ATOM     82  C   UNL     1       7.157  -1.156 -22.048  1.00  0.00     0.131 A 
ATOM     83  C   UNL     1       5.685  -0.833 -24.369  1.00  0.00     0.055 A 
ATOM     84  C   UNL     1       7.617  -1.719 -23.238  1.00  0.00     0.041 A 
ATOM     85  F   UNL     1       7.888  -1.356 -20.939  1.00  0.00    -0.206 F 
ATOM     86  C   UNL     1       6.875  -1.567 -24.406  1.00  0.00     0.022 A 
BRANCH  83  87
ATOM     87  S   UNL     1       4.649  -0.710 -25.852  1.00  0.00     0.124 S 
ATOM     88  O   UNL     1       3.429  -1.390 -25.427  1.00  0.00    -0.237 OA
ATOM     89  O   UNL     1       4.541   0.733 -26.042  1.00  0.00    -0.237 OA
ATOM     90  O   UNL     1       5.426  -1.411 -26.873  1.00  0.00    -0.744 OA
ENDBRANCH  83  87
ENDBRANCH  57  80
ENDBRANCH  31  32
ENDBRANCH  24  26
ENDBRANCH  23  24
ENDBRANCH   1  23
TORSDOF 16
