REMARK SMILES CCSc1ccc(-c2cc(Cl)cc3c2O[C@H](C(F)(F)F)C(C(=O)OCCOC(=O)c2ccc(-c4c5nc(c(-c6cc(S(=O)(=O)[O-])ccc6F)c6ccc([nH]6)c(-c6cc(S(=O)(=O)[O-])ccc6F)c6nc(c(-c7cc(S(=O)(=O)[O-])ccc7F)c7ccc4[nH]7)C=C6)C=C5)cc2)=C3)cc1
REMARK SMILES IDX 25 1 24 2 22 3 23 4 21 5 8 6 9 7 14 8 10 9 13 10 15 11 11 12
REMARK SMILES IDX 12 13 93 14 16 15 7 16 4 17 5 18 95 19 6 20 94 21 3 22 2 23
REMARK SMILES IDX 1 24 17 25 18 26 19 27 20 28 26 29 27 30 28 31 29 32 30 33
REMARK SMILES IDX 31 34 92 35 32 36 91 37 33 38 34 39 35 40 85 41 36 42 90 43
REMARK SMILES IDX 84 44 86 45 37 46 89 47 83 48 82 49 38 51 70 52 50 53 69 54
REMARK SMILES IDX 51 55 54 56 68 57 87 58 52 59 53 60 67 62 88 63 55 64 39 65
REMARK SMILES IDX 40 66 48 67 41 68 47 69 49 70 46 71 42 72 43 73 44 74 45 75
REMARK SMILES IDX 71 76 72 77 80 78 73 79 79 80 81 81 78 82 74 83 75 84 76 85
REMARK SMILES IDX 77 86 56 87 57 88 65 89 58 90 64 91 66 92 63 93 59 94 60 95
REMARK SMILES IDX 61 96 62 97
REMARK H PARENT 86 50 54 61
REMARK Flexibility Score: inf
ROOT
ATOM      1  C   UNL     1      13.749   1.200   2.886  1.00  0.00     0.275 C 
ENDROOT
BRANCH   1   2
ATOM      2  O   UNL     1      12.778   1.989   3.616  1.00  0.00    -0.459 OA
BRANCH   2   3
ATOM      3  C   UNL     1      12.870   3.313   3.324  1.00  0.00     0.338 C 
ATOM      4  O   UNL     1      13.732   3.799   2.599  1.00  0.00    -0.246 OA
BRANCH   3   5
ATOM      5  C   UNL     1      11.771   4.138   3.881  1.00  0.00     0.087 C 
ATOM      6  C   UNL     1       7.895   3.321   2.950  1.00  0.00     0.026 A 
ATOM      7  C   UNL     1       8.049   2.687   1.690  1.00  0.00     0.033 A 
ATOM      8  C   UNL     1       9.064   3.921   3.417  1.00  0.00     0.135 A 
ATOM      9  C   UNL     1       9.191   2.771   0.890  1.00  0.00     0.042 A 
ATOM     10  C   UNL     1      10.095   4.233   2.489  1.00  0.00     0.019 A 
ATOM     11  O   UNL     1       9.397   4.079   4.756  1.00  0.00    -0.475 OA
ATOM     12  Cl  UNL     1       9.455   1.817  -0.509  1.00  0.00    -0.084 Cl
ATOM     13  C   UNL     1      10.177   3.650   1.238  1.00  0.00     0.032 A 
ATOM     14  C   UNL     1      11.268   4.984   2.968  1.00  0.00     0.027 C 
ATOM     15  C   UNL     1      10.844   3.724   5.012  1.00  0.00     0.316 C 
BRANCH   6  16
ATOM     16  C   UNL     1       6.463   3.418   3.406  1.00  0.00    -0.015 A 
ATOM     17  C   UNL     1       3.667   2.859   2.964  1.00  0.00     0.007 A 
ATOM     18  C   UNL     1       4.407   2.121   3.885  1.00  0.00     0.015 A 
ATOM     19  C   UNL     1       4.275   4.005   2.438  1.00  0.00     0.015 A 
ATOM     20  C   UNL     1       5.780   2.426   4.133  1.00  0.00     0.010 A 
ATOM     21  C   UNL     1       5.639   4.277   2.652  1.00  0.00     0.010 A 
BRANCH  17  22
ATOM     22  S   UNL     1       2.003   2.512   2.394  1.00  0.00    -0.126 SA
BRANCH  22  23
ATOM     23  C   UNL     1       1.767   0.639   2.039  1.00  0.00     0.071 C 
ATOM     24  C   UNL     1       2.003  -0.162   0.609  1.00  0.00     0.016 C 
ENDBRANCH  22  23
ENDBRANCH  17  22
ENDBRANCH   6  16
BRANCH  15  25
ATOM     25  C   UNL     1      11.375   4.455   6.251  1.00  0.00     0.430 C 
ATOM     26  F   UNL     1      11.240   5.800   6.140  1.00  0.00    -0.167 F 
ATOM     27  F   UNL     1      10.759   4.071   7.387  1.00  0.00    -0.167 F 
ATOM     28  F   UNL     1      12.703   4.212   6.423  1.00  0.00    -0.167 F 
ENDBRANCH  15  25
ENDBRANCH   3   5
ENDBRANCH   2   3
ENDBRANCH   1   2
BRANCH   1  29
ATOM     29  C   UNL     1      13.454  -0.303   2.904  1.00  0.00     0.275 C 
BRANCH  29  30
ATOM     30  O   UNL     1      12.141  -0.589   2.389  1.00  0.00    -0.458 OA
BRANCH  30  31
ATOM     31  C   UNL     1      11.192  -0.697   3.355  1.00  0.00     0.338 C 
ATOM     32  O   UNL     1      11.390  -0.623   4.554  1.00  0.00    -0.246 OA
BRANCH  31  33
ATOM     33  C   UNL     1       9.828  -0.770   2.769  1.00  0.00     0.060 A 
ATOM     34  C   UNL     1       8.813  -0.246   3.555  1.00  0.00     0.016 A 
ATOM     35  C   UNL     1       9.502  -1.317   1.517  1.00  0.00     0.016 A 
ATOM     36  C   UNL     1       7.512  -0.216   3.063  1.00  0.00     0.010 A 
ATOM     37  C   UNL     1       8.171  -1.263   1.022  1.00  0.00     0.010 A 
ATOM     38  C   UNL     1       7.160  -0.663   1.776  1.00  0.00    -0.014 A 
BRANCH  38  39
ATOM     39  C   UNL     1       5.707  -0.489   1.406  1.00  0.00     0.031 A 
ATOM     40  C   UNL     1       4.733  -1.363   2.266  1.00  0.00     0.074 A 
ATOM     41  C   UNL     1       5.316   0.496   0.519  1.00  0.00     0.049 A 
ATOM     42  N   UNL     1       3.445  -1.476   2.163  1.00  0.00    -0.248 NA
ATOM     43  C   UNL     1       5.227  -2.292   3.294  1.00  0.00     0.031 C 
ATOM     44  C   UNL     1       6.090   1.173  -0.520  1.00  0.00     0.029 A 
ATOM     45  N   UNL     1       4.136   1.199   0.376  1.00  0.00    -0.354 N 
ATOM     46  C   UNL     1       2.913  -2.387   3.044  1.00  0.00     0.074 A 
ATOM     47  C   UNL     1       4.107  -2.890   3.717  1.00  0.00     0.031 C 
ATOM     48  C   UNL     1       5.363   2.147  -1.129  1.00  0.00     0.029 A 
ATOM     49  C   UNL     1       3.958   2.086  -0.691  1.00  0.00     0.049 A 
ATOM     50  H   UNL     1       3.412   1.075   1.031  1.00  0.00     0.167 HD
ATOM     51  C   UNL     1       1.589  -2.704   3.284  1.00  0.00     0.034 A 
ATOM     52  C   UNL     1       2.837   2.671  -1.290  1.00  0.00     0.034 A 
ATOM     53  C   UNL     1       0.344  -2.130   2.686  1.00  0.00     0.049 A 
ATOM     54  C   UNL     1       1.264   2.271  -1.097  1.00  0.00     0.074 A 
ATOM     55  C   UNL     1      -0.925  -1.985   3.238  1.00  0.00     0.029 A 
ATOM     56  N   UNL     1       0.070  -1.797   1.341  1.00  0.00    -0.354 N 
ATOM     57  N   UNL     1       0.668   1.621  -0.130  1.00  0.00    -0.248 NA
ATOM     58  C   UNL     1       0.260   2.565  -2.141  1.00  0.00     0.031 C 
ATOM     59  C   UNL     1      -1.755  -1.250   2.335  1.00  0.00     0.029 A 
ATOM     60  C   UNL     1      -1.006  -0.848   1.227  1.00  0.00     0.049 A 
ATOM     61  H   UNL     1       0.558  -2.170   0.571  1.00  0.00     0.167 HD
ATOM     62  C   UNL     1      -0.584   1.135  -0.500  1.00  0.00     0.074 A 
ATOM     63  C   UNL     1      -0.839   1.915  -1.711  1.00  0.00     0.031 C 
ATOM     64  C   UNL     1      -1.346   0.100   0.061  1.00  0.00     0.034 A 
BRANCH  51  65
ATOM     65  C   UNL     1       1.424  -3.677   4.424  1.00  0.00     0.023 A 
ATOM     66  C   UNL     1       1.862  -3.365   5.727  1.00  0.00     0.031 A 
ATOM     67  C   UNL     1       0.952  -4.972   4.172  1.00  0.00     0.131 A 
ATOM     68  C   UNL     1       1.952  -4.379   6.691  1.00  0.00     0.055 A 
ATOM     69  C   UNL     1       0.959  -5.953   5.165  1.00  0.00     0.041 A 
ATOM     70  F   UNL     1       0.537  -5.318   2.944  1.00  0.00    -0.206 F 
ATOM     71  C   UNL     1       1.488  -5.668   6.423  1.00  0.00     0.022 A 
BRANCH  68  72
ATOM     72  S   UNL     1       2.903  -4.049   8.204  1.00  0.00     0.124 S 
ATOM     73  O   UNL     1       4.168  -3.562   7.659  1.00  0.00    -0.237 OA
ATOM     74  O   UNL     1       2.076  -3.061   8.885  1.00  0.00    -0.237 OA
ATOM     75  O   UNL     1       2.978  -5.357   8.850  1.00  0.00    -0.744 OA
ENDBRANCH  68  72
ENDBRANCH  51  65
BRANCH  52  76
ATOM     76  C   UNL     1       3.071   3.680  -2.390  1.00  0.00     0.023 A 
ATOM     77  C   UNL     1       2.512   4.972  -2.314  1.00  0.00     0.031 A 
ATOM     78  C   UNL     1       3.821   3.374  -3.541  1.00  0.00     0.131 A 
ATOM     79  C   UNL     1       2.747   5.907  -3.342  1.00  0.00     0.055 A 
ATOM     80  C   UNL     1       4.114   4.326  -4.519  1.00  0.00     0.041 A 
ATOM     81  F   UNL     1       4.309   2.137  -3.729  1.00  0.00    -0.206 F 
ATOM     82  C   UNL     1       3.576   5.603  -4.423  1.00  0.00     0.022 A 
BRANCH  79  83
ATOM     83  S   UNL     1       1.907   7.519  -3.298  1.00  0.00     0.124 S 
ATOM     84  O   UNL     1       0.503   7.127  -3.333  1.00  0.00    -0.237 OA
ATOM     85  O   UNL     1       2.390   8.082  -2.041  1.00  0.00    -0.237 OA
ATOM     86  O   UNL     1       2.395   8.190  -4.502  1.00  0.00    -0.744 OA
ENDBRANCH  79  83
ENDBRANCH  52  76
BRANCH  64  87
ATOM     87  C   UNL     1      -2.794   0.141  -0.379  1.00  0.00     0.023 A 
ATOM     88  C   UNL     1      -3.226  -0.208  -1.668  1.00  0.00     0.031 A 
ATOM     89  C   UNL     1      -3.756   0.656   0.515  1.00  0.00     0.131 A 
ATOM     90  C   UNL     1      -4.570   0.000  -2.031  1.00  0.00     0.055 A 
ATOM     91  C   UNL     1      -5.102   0.776   0.178  1.00  0.00     0.041 A 
ATOM     92  F   UNL     1      -3.397   1.088   1.735  1.00  0.00    -0.206 F 
ATOM     93  C   UNL     1      -5.515   0.460  -1.109  1.00  0.00     0.022 A 
BRANCH  90  94
ATOM     94  S   UNL     1      -5.051  -0.202  -3.770  1.00  0.00     0.124 S 
ATOM     95  O   UNL     1      -4.202   0.784  -4.431  1.00  0.00    -0.237 OA
ATOM     96  O   UNL     1      -4.723  -1.600  -4.025  1.00  0.00    -0.237 OA
ATOM     97  O   UNL     1      -6.480   0.109  -3.771  1.00  0.00    -0.744 OA
ENDBRANCH  90  94
ENDBRANCH  64  87
ENDBRANCH  38  39
ENDBRANCH  31  33
ENDBRANCH  30  31
ENDBRANCH  29  30
ENDBRANCH   1  29
TORSDOF 18
