REMARK SMILES O=C1C[C@@H](c2cccc(O)c2)c2c(c(C(=O)OCCOC(=O)c3ccc(-c4c5nc(c(-c6cc(S(=O)(=O)[O-])ccc6F)c6ccc([nH]6)c(-c6cc(S(=O)(=O)[O-])ccc6F)c6nc(c(-c7cc(S(=O)(=O)[O-])ccc7F)c7ccc4[nH]7)C=C6)C=C5)cc3)cn2-c2cccc(C(F)(F)F)c2)N1
REMARK SMILES IDX 19 1 18 2 17 3 15 4 16 5 14 6 1 7 2 8 3 9 98 10 4 11 13 12
REMARK SMILES IDX 12 14 87 15 86 16 5 17 6 18 11 19 7 20 9 21 8 22 10 23 88 25
REMARK SMILES IDX 89 26 97 27 90 28 92 29 91 30 93 31 94 32 95 33 96 34 20 35
REMARK SMILES IDX 21 36 22 37 23 38 24 39 85 40 25 41 84 42 26 43 27 44 28 45
REMARK SMILES IDX 78 46 29 47 83 48 77 49 79 50 30 51 82 52 76 53 75 54 31 56
REMARK SMILES IDX 63 57 43 58 62 59 44 60 47 61 61 62 80 63 45 64 46 65 60 67
REMARK SMILES IDX 81 68 48 69 32 70 33 71 41 72 34 73 40 74 42 75 39 76 35 77
REMARK SMILES IDX 36 78 37 79 38 80 64 81 65 82 73 83 66 84 72 85 74 86 71 87
REMARK SMILES IDX 67 88 68 89 69 90 70 91 49 92 50 93 58 94 51 95 57 96 59 97
REMARK SMILES IDX 56 98 52 99 53 100 54 101 55 102
REMARK H PARENT 98 13 10 24 79 55 47 66
REMARK Flexibility Score: inf
ROOT
ATOM      1  C   UNL     1       4.596  -5.660   2.871  1.00  0.00     0.275 C 
ENDROOT
BRANCH   1   2
ATOM      2  C   UNL     1       5.886  -5.145   2.241  1.00  0.00     0.275 C 
BRANCH   2   3
ATOM      3  O   UNL     1       5.988  -3.715   2.321  1.00  0.00    -0.458 OA
BRANCH   3   4
ATOM      4  C   UNL     1       5.383  -3.022   1.312  1.00  0.00     0.341 C 
ATOM      5  O   UNL     1       4.955  -3.531   0.278  1.00  0.00    -0.246 OA
BRANCH   4   6
ATOM      6  C   UNL     1       5.228  -1.610   1.611  1.00  0.00     0.102 A 
ATOM      7  O   UNL     1       1.743  -0.100  -1.293  1.00  0.00    -0.275 OA
ATOM      8  C   UNL     1       2.662   0.121  -0.506  1.00  0.00     0.225 C 
ATOM      9  C   UNL     1       3.192   1.528  -0.266  1.00  0.00     0.115 C 
ATOM     10  N   UNL     1       3.364  -0.909   0.067  1.00  0.00    -0.324 N 
ATOM     11  C   UNL     1       3.762   1.773   1.146  1.00  0.00     0.078 C 
ATOM     12  C   UNL     1       4.314  -0.699   1.038  1.00  0.00     0.078 A 
ATOM     13  H   UNL     1       3.182  -1.830  -0.228  1.00  0.00     0.170 HD
ATOM     14  C   UNL     1       4.474   0.538   1.621  1.00  0.00     0.055 A 
ATOM     15  N   UNL     1       5.462   0.421   2.585  1.00  0.00    -0.317 N 
ATOM     16  C   UNL     1       5.944  -0.875   2.541  1.00  0.00     0.109 A 
BRANCH  11  17
ATOM     17  C   UNL     1       2.676   2.295   2.069  1.00  0.00    -0.035 A 
ATOM     18  C   UNL     1       1.639   1.482   2.550  1.00  0.00     0.005 A 
ATOM     19  C   UNL     1       2.713   3.644   2.466  1.00  0.00     0.050 A 
ATOM     20  C   UNL     1       0.687   1.998   3.434  1.00  0.00     0.004 A 
ATOM     21  C   UNL     1       1.779   4.137   3.369  1.00  0.00     0.115 A 
ATOM     22  C   UNL     1       0.762   3.325   3.856  1.00  0.00     0.046 A 
BRANCH  21  23
ATOM     23  O   UNL     1       1.923   5.427   3.787  1.00  0.00    -0.508 OA
ATOM     24  H   UNL     1       1.311   5.793   4.395  1.00  0.00     0.293 HD
ENDBRANCH  21  23
ENDBRANCH  11  17
BRANCH  15  25
ATOM     25  C   UNL     1       5.974   1.408   3.461  1.00  0.00     0.046 A 
ATOM     26  C   UNL     1       7.361   1.562   3.576  1.00  0.00     0.026 A 
ATOM     27  C   UNL     1       5.117   2.172   4.257  1.00  0.00     0.039 A 
ATOM     28  C   UNL     1       7.882   2.531   4.431  1.00  0.00     0.003 A 
ATOM     29  C   UNL     1       5.633   3.142   5.130  1.00  0.00     0.058 A 
ATOM     30  C   UNL     1       7.024   3.324   5.194  1.00  0.00     0.013 A 
BRANCH  29  31
ATOM     31  C   UNL     1       4.731   3.980   6.005  1.00  0.00     0.416 C 
ATOM     32  F   UNL     1       5.105   3.938   7.316  1.00  0.00    -0.166 F 
ATOM     33  F   UNL     1       4.762   5.300   5.663  1.00  0.00    -0.166 F 
ATOM     34  F   UNL     1       3.422   3.613   5.985  1.00  0.00    -0.166 F 
ENDBRANCH  29  31
ENDBRANCH  15  25
ENDBRANCH   4   6
ENDBRANCH   3   4
ENDBRANCH   2   3
ENDBRANCH   1   2
BRANCH   1  35
ATOM     35  O   UNL     1       3.443  -5.376   2.075  1.00  0.00    -0.458 OA
BRANCH  35  36
ATOM     36  C   UNL     1       2.759  -4.268   2.446  1.00  0.00     0.338 C 
ATOM     37  O   UNL     1       3.194  -3.320   3.077  1.00  0.00    -0.246 OA
BRANCH  36  38
ATOM     38  C   UNL     1       1.333  -4.445   2.151  1.00  0.00     0.060 A 
ATOM     39  C   UNL     1       0.498  -3.328   2.247  1.00  0.00     0.016 A 
ATOM     40  C   UNL     1       0.812  -5.739   2.017  1.00  0.00     0.016 A 
ATOM     41  C   UNL     1      -0.869  -3.525   2.322  1.00  0.00     0.010 A 
ATOM     42  C   UNL     1      -0.550  -5.934   2.110  1.00  0.00     0.010 A 
ATOM     43  C   UNL     1      -1.378  -4.832   2.313  1.00  0.00    -0.014 A 
BRANCH  43  44
ATOM     44  C   UNL     1      -2.822  -5.017   2.293  1.00  0.00     0.031 A 
ATOM     45  C   UNL     1      -3.421  -4.535   1.022  1.00  0.00     0.074 A 
ATOM     46  C   UNL     1      -3.507  -5.683   3.247  1.00  0.00     0.049 A 
ATOM     47  N   UNL     1      -4.245  -3.555   0.866  1.00  0.00    -0.248 NA
ATOM     48  C   UNL     1      -2.887  -5.068  -0.246  1.00  0.00     0.031 C 
ATOM     49  C   UNL     1      -2.963  -6.396   4.405  1.00  0.00     0.029 A 
ATOM     50  N   UNL     1      -4.841  -5.953   3.332  1.00  0.00    -0.354 N 
ATOM     51  C   UNL     1      -4.537  -3.527  -0.493  1.00  0.00     0.074 A 
ATOM     52  C   UNL     1      -3.516  -4.304  -1.137  1.00  0.00     0.031 C 
ATOM     53  C   UNL     1      -3.919  -7.198   4.929  1.00  0.00     0.029 A 
ATOM     54  C   UNL     1      -5.172  -6.978   4.222  1.00  0.00     0.049 A 
ATOM     55  H   UNL     1      -5.517  -5.465   2.809  1.00  0.00     0.167 HD
ATOM     56  C   UNL     1      -5.760  -3.119  -0.926  1.00  0.00     0.034 A 
ATOM     57  C   UNL     1      -6.363  -7.639   4.326  1.00  0.00     0.034 A 
ATOM     58  C   UNL     1      -6.412  -2.305   0.078  1.00  0.00     0.049 A 
ATOM     59  C   UNL     1      -7.393  -6.768   3.705  1.00  0.00     0.074 A 
ATOM     60  C   UNL     1      -6.059  -1.150   0.753  1.00  0.00     0.029 A 
ATOM     61  N   UNL     1      -7.425  -2.870   0.822  1.00  0.00    -0.354 N 
ATOM     62  N   UNL     1      -7.749  -5.618   4.207  1.00  0.00    -0.248 NA
ATOM     63  C   UNL     1      -7.645  -6.925   2.280  1.00  0.00     0.031 C 
ATOM     64  C   UNL     1      -6.500  -1.358   2.092  1.00  0.00     0.029 A 
ATOM     65  C   UNL     1      -7.190  -2.571   2.142  1.00  0.00     0.049 A 
ATOM     66  H   UNL     1      -8.180  -3.394   0.470  1.00  0.00     0.167 HD
ATOM     67  C   UNL     1      -7.829  -4.764   3.118  1.00  0.00     0.074 A 
ATOM     68  C   UNL     1      -7.842  -5.645   1.949  1.00  0.00     0.031 C 
ATOM     69  C   UNL     1      -7.583  -3.426   3.247  1.00  0.00     0.034 A 
BRANCH  56  70
ATOM     70  C   UNL     1      -6.521  -3.806  -2.042  1.00  0.00     0.023 A 
ATOM     71  C   UNL     1      -7.810  -3.318  -2.324  1.00  0.00     0.031 A 
ATOM     72  C   UNL     1      -6.205  -5.063  -2.613  1.00  0.00     0.131 A 
ATOM     73  C   UNL     1      -8.747  -4.109  -3.011  1.00  0.00     0.055 A 
ATOM     74  C   UNL     1      -7.120  -5.815  -3.355  1.00  0.00     0.041 A 
ATOM     75  F   UNL     1      -5.037  -5.684  -2.420  1.00  0.00    -0.206 F 
ATOM     76  C   UNL     1      -8.412  -5.357  -3.526  1.00  0.00     0.022 A 
BRANCH  73  77
ATOM     77  S   UNL     1     -10.468  -3.554  -3.046  1.00  0.00     0.124 S 
ATOM     78  O   UNL     1     -10.750  -3.401  -1.623  1.00  0.00    -0.237 OA
ATOM     79  O   UNL     1     -10.370  -2.322  -3.821  1.00  0.00    -0.237 OA
ATOM     80  O   UNL     1     -11.165  -4.654  -3.708  1.00  0.00    -0.744 OA
ENDBRANCH  73  77
ENDBRANCH  56  70
BRANCH  57  81
ATOM     81  C   UNL     1      -6.592  -9.094   4.605  1.00  0.00     0.023 A 
ATOM     82  C   UNL     1      -7.849  -9.634   4.977  1.00  0.00     0.031 A 
ATOM     83  C   UNL     1      -5.594 -10.030   4.252  1.00  0.00     0.131 A 
ATOM     84  C   UNL     1      -8.056 -11.039   4.982  1.00  0.00     0.055 A 
ATOM     85  C   UNL     1      -5.805 -11.411   4.257  1.00  0.00     0.041 A 
ATOM     86  F   UNL     1      -4.395  -9.633   3.799  1.00  0.00    -0.206 F 
ATOM     87  C   UNL     1      -7.040 -11.922   4.612  1.00  0.00     0.022 A 
BRANCH  84  88
ATOM     88  S   UNL     1      -9.688 -11.758   5.389  1.00  0.00     0.124 S 
ATOM     89  O   UNL     1      -9.810 -11.469   6.813  1.00  0.00    -0.237 OA
ATOM     90  O   UNL     1     -10.586 -11.035   4.497  1.00  0.00    -0.237 OA
ATOM     91  O   UNL     1      -9.526 -13.178   5.067  1.00  0.00    -0.744 OA
ENDBRANCH  84  88
ENDBRANCH  57  81
BRANCH  69  92
ATOM     92  C   UNL     1      -7.539  -2.825   4.641  1.00  0.00     0.023 A 
ATOM     93  C   UNL     1      -6.715  -3.268   5.703  1.00  0.00     0.031 A 
ATOM     94  C   UNL     1      -8.320  -1.677   4.862  1.00  0.00     0.131 A 
ATOM     95  C   UNL     1      -6.717  -2.574   6.932  1.00  0.00     0.055 A 
ATOM     96  C   UNL     1      -8.298  -0.979   6.067  1.00  0.00     0.041 A 
ATOM     97  F   UNL     1      -9.109  -1.191   3.888  1.00  0.00    -0.206 F 
ATOM     98  C   UNL     1      -7.503  -1.431   7.112  1.00  0.00     0.022 A 
BRANCH  95  99
ATOM     99  S   UNL     1      -5.727  -3.163   8.346  1.00  0.00     0.124 S 
ATOM    100  O   UNL     1      -5.951  -4.603   8.350  1.00  0.00    -0.237 OA
ATOM    101  O   UNL     1      -4.379  -2.727   7.990  1.00  0.00    -0.237 OA
ATOM    102  O   UNL     1      -6.311  -2.453   9.486  1.00  0.00    -0.744 OA
ENDBRANCH  95  99
ENDBRANCH  69  92
ENDBRANCH  43  44
ENDBRANCH  36  38
ENDBRANCH  35  36
ENDBRANCH   1  35
TORSDOF 18
