REMARK SMILES CC(C)(C)OC(=O)Nc1ccc(-c2cccc(Cl)c2C(=O)OCCOC(=O)c2ccc(-c3c4nc(c(-c5cc(S(=O)(=O)[O-])ccc5F)c5ccc([nH]5)c(-c5cc(S(=O)(=O)[O-])ccc5F)c5nc(c(-c6cc(S(=O)(=O)[O-])ccc6F)c6ccc3[nH]6)C=C5)C=C4)cc2)cc1
REMARK SMILES IDX 23 1 22 2 20 3 21 4 19 5 13 6 14 7 15 8 17 9 16 10 18 11
REMARK SMILES IDX 12 12 9 13 10 14 92 15 11 16 91 17 8 18 6 19 7 20 5 22 2 23
REMARK SMILES IDX 1 24 3 25 4 26 24 27 25 28 26 29 27 30 28 31 29 32 90 33
REMARK SMILES IDX 30 34 89 35 31 36 32 37 33 38 83 39 34 40 88 41 82 42 84 43
REMARK SMILES IDX 35 44 87 45 81 46 80 47 36 49 68 50 48 51 67 52 49 53 52 54
REMARK SMILES IDX 66 55 85 56 50 57 51 58 65 60 86 61 53 62 37 63 38 64 46 65
REMARK SMILES IDX 39 66 45 67 47 68 44 69 40 70 41 71 42 72 43 73 69 74 70 75
REMARK SMILES IDX 78 76 71 77 77 78 79 79 76 80 72 81 73 82 74 83 75 84 54 85
REMARK SMILES IDX 55 86 63 87 56 88 62 89 64 90 61 91 57 92 58 93 59 94 60 95
REMARK H PARENT 8 21 84 48 52 59
REMARK Flexibility Score: inf
ROOT
ATOM      1  C   UNL     1       6.817   2.548   4.016  1.00  0.00     0.275 C 
ENDROOT
BRANCH   1   2
ATOM      2  O   UNL     1       6.320   1.812   5.149  1.00  0.00    -0.458 OA
BRANCH   2   3
ATOM      3  C   UNL     1       6.364   0.460   5.048  1.00  0.00     0.340 C 
ATOM      4  O   UNL     1       6.814  -0.184   4.116  1.00  0.00    -0.246 OA
BRANCH   3   5
ATOM      5  C   UNL     1       5.707  -0.133   6.238  1.00  0.00     0.086 A 
ATOM      6  C   UNL     1       4.365   0.202   6.557  1.00  0.00    -0.002 A 
ATOM      7  C   UNL     1       3.819  -0.330   7.744  1.00  0.00     0.010 A 
ATOM      8  C   UNL     1       4.557  -1.173   8.573  1.00  0.00     0.002 A 
ATOM      9  C   UNL     1       6.424  -1.034   7.043  1.00  0.00     0.056 A 
ATOM     10  C   UNL     1       5.852  -1.535   8.216  1.00  0.00     0.021 A 
ATOM     11  Cl  UNL     1       8.027  -1.562   6.668  1.00  0.00    -0.083 Cl
BRANCH   6  12
ATOM     12  C   UNL     1       3.499   1.019   5.678  1.00  0.00    -0.017 A 
ATOM     13  C   UNL     1       1.807   2.536   3.973  1.00  0.00     0.044 A 
ATOM     14  C   UNL     1       1.875   2.814   5.341  1.00  0.00     0.027 A 
ATOM     15  C   UNL     1       2.615   1.524   3.461  1.00  0.00     0.027 A 
ATOM     16  C   UNL     1       2.711   2.066   6.181  1.00  0.00     0.011 A 
ATOM     17  C   UNL     1       3.423   0.759   4.303  1.00  0.00     0.011 A 
BRANCH  13  18
ATOM     18  N   UNL     1       0.930   3.312   3.192  1.00  0.00    -0.291 N 
ATOM     19  C   UNL     1       0.467   3.105   1.917  1.00  0.00     0.412 C 
ATOM     20  O   UNL     1      -0.240   3.940   1.363  1.00  0.00    -0.224 OA
ATOM     21  H   UNL     1       0.597   4.129   3.628  1.00  0.00     0.173 HD
BRANCH  19  22
ATOM     22  O   UNL     1       0.804   1.906   1.394  1.00  0.00    -0.444 OA
BRANCH  22  23
ATOM     23  C   UNL     1       0.359   1.461   0.093  1.00  0.00     0.106 C 
ATOM     24  C   UNL     1       0.962   0.054  -0.055  1.00  0.00     0.056 C 
ATOM     25  C   UNL     1       0.917   2.356  -1.015  1.00  0.00     0.056 C 
ATOM     26  C   UNL     1      -1.166   1.350   0.043  1.00  0.00     0.056 C 
ENDBRANCH  22  23
ENDBRANCH  19  22
ENDBRANCH  13  18
ENDBRANCH   6  12
ENDBRANCH   3   5
ENDBRANCH   2   3
ENDBRANCH   1   2
BRANCH   1  27
ATOM     27  C   UNL     1       7.329   3.916   4.470  1.00  0.00     0.275 C 
BRANCH  27  28
ATOM     28  O   UNL     1       8.416   3.738   5.396  1.00  0.00    -0.458 OA
BRANCH  28  29
ATOM     29  C   UNL     1       8.038   3.712   6.697  1.00  0.00     0.338 C 
ATOM     30  O   UNL     1       6.954   4.022   7.162  1.00  0.00    -0.246 OA
BRANCH  29  31
ATOM     31  C   UNL     1       9.084   3.031   7.471  1.00  0.00     0.060 A 
ATOM     32  C   UNL     1       8.787   1.755   7.951  1.00  0.00     0.016 A 
ATOM     33  C   UNL     1      10.301   3.639   7.772  1.00  0.00     0.016 A 
ATOM     34  C   UNL     1       9.704   1.075   8.745  1.00  0.00     0.010 A 
ATOM     35  C   UNL     1      11.224   2.954   8.571  1.00  0.00     0.010 A 
ATOM     36  C   UNL     1      10.926   1.673   9.076  1.00  0.00    -0.014 A 
BRANCH  36  37
ATOM     37  C   UNL     1      11.830   0.994  10.040  1.00  0.00     0.031 A 
ATOM     38  C   UNL     1      11.964   1.539  11.435  1.00  0.00     0.074 A 
ATOM     39  C   UNL     1      12.474  -0.137   9.697  1.00  0.00     0.049 A 
ATOM     40  N   UNL     1      12.734   1.143  12.416  1.00  0.00    -0.248 NA
ATOM     41  C   UNL     1      11.114   2.692  11.762  1.00  0.00     0.031 C 
ATOM     42  C   UNL     1      12.360  -0.812   8.405  1.00  0.00     0.029 A 
ATOM     43  N   UNL     1      13.339  -0.926  10.413  1.00  0.00    -0.354 N 
ATOM     44  C   UNL     1      12.481   2.013  13.472  1.00  0.00     0.074 A 
ATOM     45  C   UNL     1      11.512   2.978  12.991  1.00  0.00     0.031 C 
ATOM     46  C   UNL     1      13.105  -1.930   8.430  1.00  0.00     0.029 A 
ATOM     47  C   UNL     1      13.799  -2.017   9.712  1.00  0.00     0.049 A 
ATOM     48  H   UNL     1      13.605  -0.730  11.340  1.00  0.00     0.167 HD
ATOM     49  C   UNL     1      13.004   2.005  14.725  1.00  0.00     0.034 A 
ATOM     50  C   UNL     1      14.696  -2.962  10.056  1.00  0.00     0.034 A 
ATOM     51  C   UNL     1      13.971   1.033  15.184  1.00  0.00     0.049 A 
ATOM     52  C   UNL     1      15.351  -2.886  11.412  1.00  0.00     0.074 A 
ATOM     53  C   UNL     1      14.568   0.929  16.428  1.00  0.00     0.029 A 
ATOM     54  N   UNL     1      14.492   0.001  14.411  1.00  0.00    -0.354 N 
ATOM     55  N   UNL     1      15.139  -2.036  12.391  1.00  0.00    -0.248 NA
ATOM     56  C   UNL     1      16.375  -3.898  11.704  1.00  0.00     0.031 C 
ATOM     57  C   UNL     1      15.504  -0.112  16.384  1.00  0.00     0.029 A 
ATOM     58  C   UNL     1      15.432  -0.717  15.139  1.00  0.00     0.049 A 
ATOM     59  H   UNL     1      14.232  -0.194  13.482  1.00  0.00     0.167 HD
ATOM     60  C   UNL     1      15.988  -2.426  13.424  1.00  0.00     0.074 A 
ATOM     61  C   UNL     1      16.699  -3.598  12.953  1.00  0.00     0.031 C 
ATOM     62  C   UNL     1      16.159  -1.869  14.652  1.00  0.00     0.034 A 
BRANCH  49  63
ATOM     63  C   UNL     1      12.592   3.132  15.645  1.00  0.00     0.023 A 
ATOM     64  C   UNL     1      11.252   3.335  16.024  1.00  0.00     0.031 A 
ATOM     65  C   UNL     1      13.544   4.073  16.080  1.00  0.00     0.131 A 
ATOM     66  C   UNL     1      10.888   4.503  16.712  1.00  0.00     0.055 A 
ATOM     67  C   UNL     1      13.188   5.182  16.851  1.00  0.00     0.041 A 
ATOM     68  F   UNL     1      14.835   3.949  15.735  1.00  0.00    -0.206 F 
ATOM     69  C   UNL     1      11.849   5.415  17.151  1.00  0.00     0.022 A 
BRANCH  66  70
ATOM     70  S   UNL     1       9.124   4.914  16.843  1.00  0.00     0.124 S 
ATOM     71  O   UNL     1       8.709   4.887  15.442  1.00  0.00    -0.237 OA
ATOM     72  O   UNL     1       8.611   3.838  17.683  1.00  0.00    -0.237 OA
ATOM     73  O   UNL     1       9.126   6.240  17.457  1.00  0.00    -0.744 OA
ENDBRANCH  66  70
ENDBRANCH  49  63
BRANCH  50  74
ATOM     74  C   UNL     1      15.062  -4.040   9.094  1.00  0.00     0.023 A 
ATOM     75  C   UNL     1      14.789  -5.388   9.377  1.00  0.00     0.031 A 
ATOM     76  C   UNL     1      15.725  -3.741   7.890  1.00  0.00     0.131 A 
ATOM     77  C   UNL     1      15.203  -6.388   8.483  1.00  0.00     0.055 A 
ATOM     78  C   UNL     1      16.088  -4.735   6.980  1.00  0.00     0.041 A 
ATOM     79  F   UNL     1      16.018  -2.469   7.573  1.00  0.00    -0.206 F 
ATOM     80  C   UNL     1      15.835  -6.069   7.279  1.00  0.00     0.022 A 
BRANCH  77  81
ATOM     81  S   UNL     1      14.957  -8.125   8.946  1.00  0.00     0.124 S 
ATOM     82  O   UNL     1      15.761  -8.226  10.158  1.00  0.00    -0.237 OA
ATOM     83  O   UNL     1      13.511  -8.191   9.128  1.00  0.00    -0.237 OA
ATOM     84  O   UNL     1      15.471  -8.860   7.792  1.00  0.00    -0.744 OA
ENDBRANCH  77  81
ENDBRANCH  50  74
BRANCH  62  85
ATOM     85  C   UNL     1      17.136  -2.554  15.581  1.00  0.00     0.023 A 
ATOM     86  C   UNL     1      18.512  -2.619  15.294  1.00  0.00     0.031 A 
ATOM     87  C   UNL     1      16.678  -3.185  16.751  1.00  0.00     0.131 A 
ATOM     88  C   UNL     1      19.367  -3.357  16.128  1.00  0.00     0.055 A 
ATOM     89  C   UNL     1      17.545  -3.858  17.614  1.00  0.00     0.041 A 
ATOM     90  F   UNL     1      15.375  -3.161  17.076  1.00  0.00    -0.206 F 
ATOM     91  C   UNL     1      18.895  -3.961  17.295  1.00  0.00     0.022 A 
BRANCH  88  92
ATOM     92  S   UNL     1      21.085  -3.616  15.604  1.00  0.00     0.124 S 
ATOM     93  O   UNL     1      20.912  -4.249  14.300  1.00  0.00    -0.237 OA
ATOM     94  O   UNL     1      21.616  -2.257  15.589  1.00  0.00    -0.237 OA
ATOM     95  O   UNL     1      21.634  -4.484  16.645  1.00  0.00    -0.744 OA
ENDBRANCH  88  92
ENDBRANCH  62  85
ENDBRANCH  36  37
ENDBRANCH  29  31
ENDBRANCH  28  29
ENDBRANCH  27  28
ENDBRANCH   1  27
TORSDOF 18
