REMARK SMILES CCc1ccsc1CNC(=O)N[C@@H](CCO)C(=O)OCCOC(=O)c1ccc(-c2c3nc(c(-c4cc(S(=O)(=O)[O-])ccc4F)c4ccc([nH]4)c(-c4cc(S(=O)(=O)[O-])ccc4F)c4nc(c(-c5cc(S(=O)(=O)[O-])ccc5F)c5ccc2[nH]5)C=C4)C=C3)cc1
REMARK SMILES IDX 20 1 19 2 17 3 18 4 13 5 12 6 9 7 10 8 11 10 8 12 7 13 3 14
REMARK SMILES IDX 4 15 5 16 6 17 2 18 1 19 14 20 15 21 16 22 21 24 22 25 23 26
REMARK SMILES IDX 24 27 25 28 26 29 87 30 27 31 86 32 28 33 29 34 30 35 80 36
REMARK SMILES IDX 31 37 85 38 79 39 81 40 32 41 84 42 78 43 77 44 33 46 65 47
REMARK SMILES IDX 45 48 64 49 46 50 49 51 63 52 82 53 47 54 48 55 62 57 83 58
REMARK SMILES IDX 50 59 34 60 35 61 43 62 36 63 42 64 44 65 41 66 37 67 38 68
REMARK SMILES IDX 39 69 40 70 66 71 67 72 75 73 68 74 74 75 76 76 73 77 69 78
REMARK SMILES IDX 70 79 71 80 72 81 51 82 52 83 60 84 53 85 59 86 61 87 58 88
REMARK SMILES IDX 54 89 55 90 56 91 57 92
REMARK H PARENT 9 9 12 11 16 23 81 45 49 56
REMARK Flexibility Score: inf
ROOT
ATOM      1  C   UNL     1       3.411   7.277   1.972  1.00  0.00     0.274 C 
ENDROOT
BRANCH   1   2
ATOM      2  O   UNL     1       2.261   6.723   1.302  1.00  0.00    -0.461 OA
BRANCH   2   3
ATOM      3  C   UNL     1       2.483   5.582   0.585  1.00  0.00     0.328 C 
ATOM      4  O   UNL     1       3.585   5.078   0.400  1.00  0.00    -0.250 OA
BRANCH   3   5
ATOM      5  C   UNL     1       1.186   5.008  -0.012  1.00  0.00     0.196 C 
BRANCH   5   6
ATOM      6  N   UNL     1      -0.030   5.591   0.544  1.00  0.00    -0.324 N 
ATOM      7  N   UNL     1      -1.758   4.001   0.252  1.00  0.00    -0.333 N 
ATOM      8  C   UNL     1      -1.313   5.223   0.561  1.00  0.00     0.315 C 
ATOM      9  H   UNL     1      -2.731   3.983   0.104  1.00  0.00     0.165 HD
ATOM     10  O   UNL     1      -2.143   6.082   0.870  1.00  0.00    -0.249 OA
ATOM     11  H   UNL     1       0.131   6.444   1.008  1.00  0.00     0.166 HD
BRANCH   7  12
ATOM     12  C   UNL     1      -1.148   2.695   0.081  1.00  0.00     0.165 C 
BRANCH  12  13
ATOM     13  C   UNL     1      -1.102   1.888   1.356  1.00  0.00     0.027 A 
ATOM     14  C   UNL     1      -0.830   0.525   1.493  1.00  0.00    -0.033 A 
ATOM     15  C   UNL     1      -0.964   0.105   2.863  1.00  0.00     0.016 A 
ATOM     16  C   UNL     1      -1.310   1.132   3.707  1.00  0.00     0.065 A 
ATOM     17  S   UNL     1      -1.429   2.612   2.885  1.00  0.00    -0.147 S 
BRANCH  14  18
ATOM     18  C   UNL     1      -0.515  -0.456   0.391  1.00  0.00     0.033 C 
ATOM     19  C   UNL     1       0.787  -0.187  -0.348  1.00  0.00     0.009 C 
ENDBRANCH  14  18
ENDBRANCH  12  13
ENDBRANCH   7  12
ENDBRANCH   5   6
BRANCH   5  20
ATOM     20  C   UNL     1       1.209   5.124  -1.543  1.00  0.00     0.065 C 
BRANCH  20  21
ATOM     21  C   UNL     1       1.053   6.547  -2.077  1.00  0.00     0.159 C 
BRANCH  21  22
ATOM     22  O   UNL     1       2.139   7.374  -1.688  1.00  0.00    -0.396 OA
ATOM     23  H   UNL     1       2.175   7.427  -0.720  1.00  0.00     0.210 HD
ENDBRANCH  21  22
ENDBRANCH  20  21
ENDBRANCH   5  20
ENDBRANCH   3   5
ENDBRANCH   2   3
ENDBRANCH   1   2
BRANCH   1  24
ATOM     24  C   UNL     1       3.363   7.014   3.480  1.00  0.00     0.275 C 
BRANCH  24  25
ATOM     25  O   UNL     1       3.516   5.615   3.792  1.00  0.00    -0.458 OA
BRANCH  25  26
ATOM     26  C   UNL     1       2.351   4.937   3.898  1.00  0.00     0.338 C 
ATOM     27  O   UNL     1       1.227   5.399   3.754  1.00  0.00    -0.246 OA
BRANCH  26  28
ATOM     28  C   UNL     1       2.600   3.501   4.089  1.00  0.00     0.060 A 
ATOM     29  C   UNL     1       2.308   2.656   3.025  1.00  0.00     0.016 A 
ATOM     30  C   UNL     1       2.958   2.968   5.330  1.00  0.00     0.016 A 
ATOM     31  C   UNL     1       2.297   1.280   3.218  1.00  0.00     0.010 A 
ATOM     32  C   UNL     1       2.978   1.572   5.508  1.00  0.00     0.010 A 
ATOM     33  C   UNL     1       2.599   0.712   4.464  1.00  0.00    -0.014 A 
BRANCH  33  34
ATOM     34  C   UNL     1       2.409  -0.762   4.630  1.00  0.00     0.031 A 
ATOM     35  C   UNL     1       1.301  -1.306   5.500  1.00  0.00     0.074 A 
ATOM     36  C   UNL     1       3.113  -1.621   3.862  1.00  0.00     0.049 A 
ATOM     37  N   UNL     1       0.862  -2.538   5.598  1.00  0.00    -0.248 NA
ATOM     38  C   UNL     1       0.564  -0.346   6.334  1.00  0.00     0.031 C 
ATOM     39  C   UNL     1       4.163  -1.236   2.917  1.00  0.00     0.029 A 
ATOM     40  N   UNL     1       3.029  -2.986   3.723  1.00  0.00    -0.354 N 
ATOM     41  C   UNL     1      -0.233  -2.490   6.454  1.00  0.00     0.074 A 
ATOM     42  C   UNL     1      -0.358  -1.117   6.894  1.00  0.00     0.031 C 
ATOM     43  C   UNL     1       4.593  -2.329   2.268  1.00  0.00     0.029 A 
ATOM     44  C   UNL     1       3.905  -3.504   2.796  1.00  0.00     0.049 A 
ATOM     45  H   UNL     1       2.400  -3.541   4.238  1.00  0.00     0.167 HD
ATOM     46  C   UNL     1      -1.073  -3.486   6.827  1.00  0.00     0.034 A 
ATOM     47  C   UNL     1       4.155  -4.778   2.430  1.00  0.00     0.034 A 
ATOM     48  C   UNL     1      -0.911  -4.872   6.467  1.00  0.00     0.049 A 
ATOM     49  C   UNL     1       3.372  -5.896   3.068  1.00  0.00     0.074 A 
ATOM     50  C   UNL     1      -1.700  -5.953   6.823  1.00  0.00     0.029 A 
ATOM     51  N   UNL     1       0.133  -5.379   5.708  1.00  0.00    -0.354 N 
ATOM     52  N   UNL     1       2.337  -5.824   3.872  1.00  0.00    -0.248 NA
ATOM     53  C   UNL     1       3.806  -7.266   2.764  1.00  0.00     0.031 C 
ATOM     54  C   UNL     1      -1.084  -7.120   6.355  1.00  0.00     0.029 A 
ATOM     55  C   UNL     1       0.050  -6.763   5.645  1.00  0.00     0.049 A 
ATOM     56  H   UNL     1       0.832  -4.836   5.277  1.00  0.00     0.167 HD
ATOM     57  C   UNL     1       1.994  -7.142   4.164  1.00  0.00     0.074 A 
ATOM     58  C   UNL     1       2.915  -7.985   3.431  1.00  0.00     0.031 C 
ATOM     59  C   UNL     1       1.001  -7.608   4.964  1.00  0.00     0.034 A 
BRANCH  46  60
ATOM     60  C   UNL     1      -2.226  -3.113   7.721  1.00  0.00     0.023 A 
ATOM     61  C   UNL     1      -3.333  -2.399   7.227  1.00  0.00     0.031 A 
ATOM     62  C   UNL     1      -2.222  -3.482   9.076  1.00  0.00     0.131 A 
ATOM     63  C   UNL     1      -4.381  -2.054   8.094  1.00  0.00     0.055 A 
ATOM     64  C   UNL     1      -3.286  -3.170   9.924  1.00  0.00     0.041 A 
ATOM     65  F   UNL     1      -1.179  -4.146   9.598  1.00  0.00    -0.206 F 
ATOM     66  C   UNL     1      -4.371  -2.446   9.435  1.00  0.00     0.022 A 
BRANCH  63  67
ATOM     67  S   UNL     1      -5.722  -1.003   7.469  1.00  0.00     0.124 S 
ATOM     68  O   UNL     1      -4.985   0.146   6.951  1.00  0.00    -0.237 OA
ATOM     69  O   UNL     1      -6.353  -1.863   6.475  1.00  0.00    -0.237 OA
ATOM     70  O   UNL     1      -6.526  -0.732   8.660  1.00  0.00    -0.744 OA
ENDBRANCH  63  67
ENDBRANCH  46  60
BRANCH  47  71
ATOM     71  C   UNL     1       5.261  -5.082   1.475  1.00  0.00     0.023 A 
ATOM     72  C   UNL     1       5.021  -5.721   0.249  1.00  0.00     0.031 A 
ATOM     73  C   UNL     1       6.595  -4.780   1.812  1.00  0.00     0.131 A 
ATOM     74  C   UNL     1       6.101  -6.056  -0.585  1.00  0.00     0.055 A 
ATOM     75  C   UNL     1       7.657  -5.067   0.956  1.00  0.00     0.041 A 
ATOM     76  F   UNL     1       6.882  -4.186   2.981  1.00  0.00    -0.206 F 
ATOM     77  C   UNL     1       7.414  -5.718  -0.248  1.00  0.00     0.022 A 
BRANCH  74  78
ATOM     78  S   UNL     1       5.776  -7.012  -2.093  1.00  0.00     0.124 S 
ATOM     79  O   UNL     1       5.161  -8.219  -1.554  1.00  0.00    -0.237 OA
ATOM     80  O   UNL     1       4.893  -6.117  -2.834  1.00  0.00    -0.237 OA
ATOM     81  O   UNL     1       7.104  -7.193  -2.674  1.00  0.00    -0.744 OA
ENDBRANCH  74  78
ENDBRANCH  47  71
BRANCH  59  82
ATOM     82  C   UNL     1       0.875  -9.106   5.096  1.00  0.00     0.023 A 
ATOM     83  C   UNL     1       1.868  -9.867   5.741  1.00  0.00     0.031 A 
ATOM     84  C   UNL     1      -0.227  -9.786   4.551  1.00  0.00     0.131 A 
ATOM     85  C   UNL     1       1.765 -11.266   5.778  1.00  0.00     0.055 A 
ATOM     86  C   UNL     1      -0.352 -11.174   4.640  1.00  0.00     0.041 A 
ATOM     87  F   UNL     1      -1.202  -9.113   3.920  1.00  0.00    -0.206 F 
ATOM     88  C   UNL     1       0.654 -11.923   5.244  1.00  0.00     0.022 A 
BRANCH  85  89
ATOM     89  S   UNL     1       3.151 -12.224   6.451  1.00  0.00     0.124 S 
ATOM     90  O   UNL     1       4.258 -11.796   5.602  1.00  0.00    -0.237 OA
ATOM     91  O   UNL     1       3.199 -11.772   7.838  1.00  0.00    -0.237 OA
ATOM     92  O   UNL     1       2.730 -13.612   6.266  1.00  0.00    -0.744 OA
ENDBRANCH  85  89
ENDBRANCH  59  82
ENDBRANCH  33  34
ENDBRANCH  26  28
ENDBRANCH  25  26
ENDBRANCH  24  25
ENDBRANCH   1  24
TORSDOF 21
