REMARK SMILES O=C(OCCOC(=O)[C@@H](F)Sc1ccccc1O)c1ccc(-c2c3nc(c(-c4cc(S(=O)(=O)[O-])ccc4F)c4ccc([nH]4)c(-c4cc(S(=O)(=O)[O-])ccc4F)c4nc(c(-c5cc(S(=O)(=O)[O-])ccc5F)c5ccc2[nH]5)C=C4)C=C3)cc1
REMARK SMILES IDX 4 1 3 2 2 3 1 4 19 5 20 6 81 7 21 8 80 9 22 10 23 11 24 12
REMARK SMILES IDX 74 13 25 14 79 15 73 16 75 17 26 18 78 19 72 20 71 21 27 23
REMARK SMILES IDX 59 24 39 25 58 26 40 27 43 28 57 29 76 30 41 31 42 32 56 34
REMARK SMILES IDX 77 35 44 36 28 37 29 38 37 39 30 40 36 41 38 42 35 43 31 44
REMARK SMILES IDX 32 45 33 46 34 47 60 48 61 49 69 50 62 51 68 52 70 53 67 54
REMARK SMILES IDX 63 55 64 56 65 57 66 58 45 59 46 60 54 61 47 62 53 63 55 64
REMARK SMILES IDX 52 65 48 66 49 67 50 68 51 69 5 70 6 71 7 72 8 73 9 74 10 75
REMARK SMILES IDX 11 76 12 77 13 78 17 79 14 80 16 81 15 82 18 83
REMARK H PARENT 75 22 43 33 18 84
REMARK Flexibility Score: inf
ROOT
ATOM      1  C   UNL     1       4.067   1.217   0.872  1.00  0.00     0.275 C 
ENDROOT
BRANCH   1   2
ATOM      2  O   UNL     1       2.866   1.275   0.075  1.00  0.00    -0.458 OA
BRANCH   2   3
ATOM      3  C   UNL     1       2.436   0.569  -0.996  1.00  0.00     0.338 C 
ATOM      4  O   UNL     1       1.297   0.818  -1.399  1.00  0.00    -0.246 OA
BRANCH   3   5
ATOM      5  C   UNL     1       3.203  -0.496  -1.735  1.00  0.00     0.060 A 
ATOM      6  C   UNL     1       4.491  -0.951  -1.452  1.00  0.00     0.016 A 
ATOM      7  C   UNL     1       2.527  -1.128  -2.804  1.00  0.00     0.016 A 
ATOM      8  C   UNL     1       5.045  -2.041  -2.138  1.00  0.00     0.010 A 
ATOM      9  C   UNL     1       3.080  -2.213  -3.501  1.00  0.00     0.010 A 
ATOM     10  C   UNL     1       4.335  -2.700  -3.143  1.00  0.00    -0.014 A 
BRANCH  10  11
ATOM     11  C   UNL     1       4.962  -3.870  -3.805  1.00  0.00     0.031 A 
ATOM     12  C   UNL     1       5.915  -3.632  -4.933  1.00  0.00     0.074 A 
ATOM     13  C   UNL     1       4.754  -5.113  -3.327  1.00  0.00     0.049 A 
ATOM     14  N   UNL     1       6.620  -4.496  -5.612  1.00  0.00    -0.248 NA
ATOM     15  C   UNL     1       6.096  -2.234  -5.354  1.00  0.00     0.031 C 
ATOM     16  C   UNL     1       3.872  -5.431  -2.209  1.00  0.00     0.029 A 
ATOM     17  N   UNL     1       5.287  -6.331  -3.678  1.00  0.00    -0.354 N 
ATOM     18  C   UNL     1       7.292  -3.755  -6.574  1.00  0.00     0.074 A 
ATOM     19  C   UNL     1       6.947  -2.366  -6.361  1.00  0.00     0.031 C 
ATOM     20  C   UNL     1       3.981  -6.736  -1.913  1.00  0.00     0.029 A 
ATOM     21  C   UNL     1       4.884  -7.372  -2.865  1.00  0.00     0.049 A 
ATOM     22  H   UNL     1       5.900  -6.449  -4.439  1.00  0.00     0.167 HD
ATOM     23  C   UNL     1       8.083  -4.210  -7.574  1.00  0.00     0.034 A 
ATOM     24  C   UNL     1       5.198  -8.687  -2.903  1.00  0.00     0.034 A 
ATOM     25  C   UNL     1       8.377  -5.605  -7.785  1.00  0.00     0.049 A 
ATOM     26  C   UNL     1       6.078  -9.158  -4.043  1.00  0.00     0.074 A 
ATOM     27  C   UNL     1       9.126  -6.182  -8.793  1.00  0.00     0.029 A 
ATOM     28  N   UNL     1       7.913  -6.643  -6.986  1.00  0.00    -0.354 N 
ATOM     29  N   UNL     1       6.708  -8.443  -4.949  1.00  0.00    -0.248 NA
ATOM     30  C   UNL     1       6.256 -10.608  -4.195  1.00  0.00     0.031 C 
ATOM     31  C   UNL     1       9.047  -7.571  -8.652  1.00  0.00     0.029 A 
ATOM     32  C   UNL     1       8.321  -7.860  -7.507  1.00  0.00     0.049 A 
ATOM     33  H   UNL     1       7.373  -6.530  -6.170  1.00  0.00     0.167 HD
ATOM     34  C   UNL     1       7.331  -9.362  -5.790  1.00  0.00     0.074 A 
ATOM     35  C   UNL     1       7.068 -10.674  -5.239  1.00  0.00     0.031 C 
ATOM     36  C   UNL     1       8.025  -9.152  -6.937  1.00  0.00     0.034 A 
BRANCH  23  37
ATOM     37  C   UNL     1       8.559  -3.203  -8.585  1.00  0.00     0.023 A 
ATOM     38  C   UNL     1       9.493  -2.204  -8.267  1.00  0.00     0.031 A 
ATOM     39  C   UNL     1       8.024  -3.224  -9.886  1.00  0.00     0.131 A 
ATOM     40  C   UNL     1       9.824  -1.234  -9.226  1.00  0.00     0.055 A 
ATOM     41  C   UNL     1       8.411  -2.300 -10.855  1.00  0.00     0.041 A 
ATOM     42  F   UNL     1       7.102  -4.137 -10.229  1.00  0.00    -0.206 F 
ATOM     43  C   UNL     1       9.309  -1.290 -10.525  1.00  0.00     0.022 A 
BRANCH  40  44
ATOM     44  S   UNL     1      10.844   0.177  -8.718  1.00  0.00     0.124 S 
ATOM     45  O   UNL     1       9.998   0.801  -7.703  1.00  0.00    -0.237 OA
ATOM     46  O   UNL     1      12.056  -0.468  -8.227  1.00  0.00    -0.237 OA
ATOM     47  O   UNL     1      11.002   0.948  -9.949  1.00  0.00    -0.744 OA
ENDBRANCH  40  44
ENDBRANCH  23  37
BRANCH  24  48
ATOM     48  C   UNL     1       4.633  -9.676  -1.923  1.00  0.00     0.023 A 
ATOM     49  C   UNL     1       5.469 -10.566  -1.222  1.00  0.00     0.031 A 
ATOM     50  C   UNL     1       3.244  -9.838  -1.757  1.00  0.00     0.131 A 
ATOM     51  C   UNL     1       4.913 -11.608  -0.457  1.00  0.00     0.055 A 
ATOM     52  C   UNL     1       2.699 -10.816  -0.921  1.00  0.00     0.041 A 
ATOM     53  F   UNL     1       2.381  -9.055  -2.423  1.00  0.00    -0.206 F 
ATOM     54  C   UNL     1       3.534 -11.723  -0.282  1.00  0.00     0.022 A 
BRANCH  51  55
ATOM     55  S   UNL     1       6.009 -12.921   0.159  1.00  0.00     0.124 S 
ATOM     56  O   UNL     1       6.689 -13.335  -1.063  1.00  0.00    -0.237 OA
ATOM     57  O   UNL     1       6.821 -12.203   1.135  1.00  0.00    -0.237 OA
ATOM     58  O   UNL     1       5.082 -13.902   0.720  1.00  0.00    -0.744 OA
ENDBRANCH  51  55
ENDBRANCH  24  48
BRANCH  36  59
ATOM     59  C   UNL     1       8.528 -10.373  -7.665  1.00  0.00     0.023 A 
ATOM     60  C   UNL     1       7.638 -11.280  -8.267  1.00  0.00     0.031 A 
ATOM     61  C   UNL     1       9.907 -10.619  -7.781  1.00  0.00     0.131 A 
ATOM     62  C   UNL     1       8.136 -12.415  -8.922  1.00  0.00     0.055 A 
ATOM     63  C   UNL     1      10.398 -11.717  -8.488  1.00  0.00     0.041 A 
ATOM     64  F   UNL     1      10.799  -9.785  -7.223  1.00  0.00    -0.206 F 
ATOM     65  C   UNL     1       9.510 -12.628  -9.055  1.00  0.00     0.022 A 
BRANCH  62  66
ATOM     66  S   UNL     1       6.960 -13.649  -9.541  1.00  0.00     0.124 S 
ATOM     67  O   UNL     1       6.285 -14.066  -8.316  1.00  0.00    -0.237 OA
ATOM     68  O   UNL     1       6.156 -12.873 -10.480  1.00  0.00    -0.237 OA
ATOM     69  O   UNL     1       7.817 -14.663 -10.152  1.00  0.00    -0.744 OA
ENDBRANCH  62  66
ENDBRANCH  36  59
ENDBRANCH  10  11
ENDBRANCH   3   5
ENDBRANCH   2   3
ENDBRANCH   1   2
BRANCH   1  70
ATOM     70  C   UNL     1       3.943   0.180   1.982  1.00  0.00     0.274 C 
BRANCH  70  71
ATOM     71  O   UNL     1       3.812  -1.119   1.399  1.00  0.00    -0.459 OA
BRANCH  71  72
ATOM     72  C   UNL     1       2.848  -1.952   1.874  1.00  0.00     0.351 C 
ATOM     73  O   UNL     1       2.006  -1.639   2.704  1.00  0.00    -0.248 OA
BRANCH  72  74
ATOM     74  C   UNL     1       2.987  -3.337   1.260  1.00  0.00     0.338 C 
ATOM     75  F   UNL     1       3.361  -3.296  -0.045  1.00  0.00    -0.222 F 
BRANCH  74  76
ATOM     76  S   UNL     1       4.129  -4.354   2.253  1.00  0.00    -0.073 SA
BRANCH  76  77
ATOM     77  C   UNL     1       5.578  -4.491   1.204  1.00  0.00     0.052 A 
ATOM     78  C   UNL     1       5.902  -5.763   0.714  1.00  0.00     0.019 A 
ATOM     79  C   UNL     1       6.479  -3.446   0.953  1.00  0.00     0.129 A 
ATOM     80  C   UNL     1       7.067  -5.978  -0.032  1.00  0.00     0.001 A 
ATOM     81  C   UNL     1       7.646  -3.656   0.207  1.00  0.00     0.047 A 
ATOM     82  C   UNL     1       7.937  -4.924  -0.288  1.00  0.00     0.004 A 
BRANCH  79  83
ATOM     83  O   UNL     1       6.258  -2.196   1.464  1.00  0.00    -0.507 OA
ATOM     84  H   UNL     1       5.486  -2.025   1.968  1.00  0.00     0.293 HD
ENDBRANCH  79  83
ENDBRANCH  76  77
ENDBRANCH  74  76
ENDBRANCH  72  74
ENDBRANCH  71  72
ENDBRANCH  70  71
ENDBRANCH   1  70
TORSDOF 17
