REMARK SMILES C=CCN(CC(=O)OCCOC(=O)c1ccc(-c2c3nc(c(-c4cc(S(=O)(=O)[O-])ccc4F)c4ccc([nH]4)c(-c4cc(S(=O)(=O)[O-])ccc4F)c4nc(c(-c5cc(S(=O)(=O)[O-])ccc5F)c5ccc2[nH]5)C=C4)C=C3)cc1)c1ccc([N+](=O)[O-])cc1Br
REMARK SMILES IDX 9 1 8 2 6 3 7 4 5 5 4 6 3 7 2 8 1 9 77 10 78 11 85 12 79 13
REMARK SMILES IDX 84 14 86 15 80 16 81 17 82 18 83 19 10 20 11 21 12 22 13 23
REMARK SMILES IDX 14 24 15 25 76 26 16 27 75 28 17 29 18 30 19 31 69 32 20 33
REMARK SMILES IDX 74 34 68 35 70 36 21 37 73 38 67 39 66 40 22 42 54 43 34 44
REMARK SMILES IDX 53 45 35 46 38 47 52 48 71 49 36 50 37 51 51 53 72 54 39 55
REMARK SMILES IDX 23 56 24 57 32 58 25 59 31 60 33 61 30 62 26 63 27 64 28 65
REMARK SMILES IDX 29 66 55 67 56 68 64 69 57 70 63 71 65 72 62 73 58 74 59 75
REMARK SMILES IDX 60 76 61 77 40 78 41 79 49 80 42 81 48 82 50 83 47 84 43 85
REMARK SMILES IDX 44 86 45 87 46 88
REMARK H PARENT 70 41 38 52
REMARK Flexibility Score: inf
ROOT
ATOM      1  C   UNL     1      -5.505   2.197  -0.464  1.00  0.00     0.274 C 
ENDROOT
BRANCH   1   2
ATOM      2  O   UNL     1      -4.083   1.972  -0.518  1.00  0.00    -0.461 OA
BRANCH   2   3
ATOM      3  C   UNL     1      -3.476   2.291  -1.696  1.00  0.00     0.325 C 
ATOM      4  O   UNL     1      -4.078   2.650  -2.705  1.00  0.00    -0.250 OA
BRANCH   3   5
ATOM      5  C   UNL     1      -1.950   2.202  -1.661  1.00  0.00     0.239 C 
BRANCH   5   6
ATOM      6  N   UNL     1      -1.381   1.594  -0.452  1.00  0.00    -0.356 N 
BRANCH   6   7
ATOM      7  C   UNL     1      -1.332   0.149  -0.321  1.00  0.00     0.144 C 
BRANCH   7   8
ATOM      8  C   UNL     1       0.004  -0.322  -0.816  1.00  0.00    -0.014 C 
ATOM      9  C   UNL     1       0.929  -0.933  -0.064  1.00  0.00     0.006 C 
ENDBRANCH   7   8
ENDBRANCH   6   7
BRANCH   6  10
ATOM     10  C   UNL     1      -0.935   2.416   0.573  1.00  0.00     0.052 A 
ATOM     11  C   UNL     1      -1.685   2.476   1.761  1.00  0.00     0.034 A 
ATOM     12  C   UNL     1       0.216   3.235   0.479  1.00  0.00     0.048 A 
ATOM     13  C   UNL     1      -1.344   3.348   2.796  1.00  0.00     0.088 A 
ATOM     14  C   UNL     1       0.584   4.100   1.517  1.00  0.00     0.103 A 
ATOM     15  Br  UNL     1       1.362   3.187  -1.042  1.00  0.00    -0.048 Br
ATOM     16  C   UNL     1      -0.218   4.158   2.655  1.00  0.00     0.270 A 
BRANCH  16  17
ATOM     17  N   UNL     1       0.126   5.071   3.732  1.00  0.00     0.062 N 
ATOM     18  O   UNL     1      -0.789   5.763   4.201  1.00  0.00    -0.258 OA
ATOM     19  O   UNL     1       1.294   5.052   4.134  1.00  0.00    -0.258 OA
ENDBRANCH  16  17
ENDBRANCH   6  10
ENDBRANCH   5   6
ENDBRANCH   3   5
ENDBRANCH   2   3
ENDBRANCH   1   2
BRANCH   1  20
ATOM     20  C   UNL     1      -5.817   3.477   0.305  1.00  0.00     0.275 C 
BRANCH  20  21
ATOM     21  O   UNL     1      -5.130   4.589  -0.294  1.00  0.00    -0.458 OA
BRANCH  21  22
ATOM     22  C   UNL     1      -4.207   5.179   0.497  1.00  0.00     0.338 C 
ATOM     23  O   UNL     1      -3.944   4.897   1.659  1.00  0.00    -0.246 OA
BRANCH  22  24
ATOM     24  C   UNL     1      -3.567   6.299  -0.206  1.00  0.00     0.060 A 
ATOM     25  C   UNL     1      -2.838   6.098  -1.382  1.00  0.00     0.016 A 
ATOM     26  C   UNL     1      -3.612   7.557   0.396  1.00  0.00     0.016 A 
ATOM     27  C   UNL     1      -2.094   7.151  -1.920  1.00  0.00     0.010 A 
ATOM     28  C   UNL     1      -2.917   8.619  -0.176  1.00  0.00     0.010 A 
ATOM     29  C   UNL     1      -2.127   8.419  -1.320  1.00  0.00    -0.014 A 
BRANCH  29  30
ATOM     30  C   UNL     1      -1.335   9.556  -1.851  1.00  0.00     0.031 A 
ATOM     31  C   UNL     1      -0.198  10.116  -1.043  1.00  0.00     0.074 A 
ATOM     32  C   UNL     1      -1.690  10.127  -3.016  1.00  0.00     0.049 A 
ATOM     33  N   UNL     1       0.473  11.226  -1.212  1.00  0.00    -0.248 NA
ATOM     34  C   UNL     1       0.231   9.323   0.119  1.00  0.00     0.031 C 
ATOM     35  C   UNL     1      -2.759   9.652  -3.897  1.00  0.00     0.029 A 
ATOM     36  N   UNL     1      -1.213  11.249  -3.644  1.00  0.00    -0.354 N 
ATOM     37  C   UNL     1       1.388  11.281  -0.166  1.00  0.00     0.074 A 
ATOM     38  C   UNL     1       1.174  10.096   0.640  1.00  0.00     0.031 C 
ATOM     39  C   UNL     1      -2.868  10.488  -4.941  1.00  0.00     0.029 A 
ATOM     40  C   UNL     1      -1.925  11.588  -4.771  1.00  0.00     0.049 A 
ATOM     41  H   UNL     1      -0.437  11.762  -3.319  1.00  0.00     0.167 HD
ATOM     42  C   UNL     1       2.314  12.236   0.097  1.00  0.00     0.034 A 
ATOM     43  C   UNL     1      -1.861  12.686  -5.548  1.00  0.00     0.034 A 
ATOM     44  C   UNL     1       2.504  13.414  -0.717  1.00  0.00     0.049 A 
ATOM     45  C   UNL     1      -0.866  13.761  -5.209  1.00  0.00     0.074 A 
ATOM     46  C   UNL     1       3.412  14.446  -0.549  1.00  0.00     0.029 A 
ATOM     47  N   UNL     1       1.766  13.719  -1.854  1.00  0.00    -0.354 N 
ATOM     48  N   UNL     1      -0.028  13.819  -4.199  1.00  0.00    -0.248 NA
ATOM     49  C   UNL     1      -0.808  14.917  -6.110  1.00  0.00     0.031 C 
ATOM     50  C   UNL     1       3.188  15.396  -1.553  1.00  0.00     0.029 A 
ATOM     51  C   UNL     1       2.182  14.930  -2.384  1.00  0.00     0.049 A 
ATOM     52  H   UNL     1       1.050  13.156  -2.228  1.00  0.00     0.167 HD
ATOM     53  C   UNL     1       0.671  15.011  -4.356  1.00  0.00     0.074 A 
ATOM     54  C   UNL     1       0.162  15.634  -5.562  1.00  0.00     0.031 C 
ATOM     55  C   UNL     1       1.649  15.541  -3.578  1.00  0.00     0.034 A 
BRANCH  42  56
ATOM     56  C   UNL     1       3.149  12.069   1.343  1.00  0.00     0.023 A 
ATOM     57  C   UNL     1       4.085  11.029   1.474  1.00  0.00     0.031 A 
ATOM     58  C   UNL     1       2.990  12.954   2.425  1.00  0.00     0.131 A 
ATOM     59  C   UNL     1       4.786  10.865   2.680  1.00  0.00     0.055 A 
ATOM     60  C   UNL     1       3.735  12.823   3.599  1.00  0.00     0.041 A 
ATOM     61  F   UNL     1       2.099  13.956   2.362  1.00  0.00    -0.206 F 
ATOM     62  C   UNL     1       4.630  11.766   3.736  1.00  0.00     0.022 A 
BRANCH  59  63
ATOM     63  S   UNL     1       5.818   9.388   2.892  1.00  0.00     0.124 S 
ATOM     64  O   UNL     1       4.865   8.316   2.615  1.00  0.00    -0.237 OA
ATOM     65  O   UNL     1       6.860   9.588   1.892  1.00  0.00    -0.237 OA
ATOM     66  O   UNL     1       6.262   9.477   4.282  1.00  0.00    -0.744 OA
ENDBRANCH  59  63
ENDBRANCH  42  56
BRANCH  43  67
ATOM     67  C   UNL     1      -2.810  12.845  -6.684  1.00  0.00     0.023 A 
ATOM     68  C   UNL     1      -2.363  12.808  -8.012  1.00  0.00     0.031 A 
ATOM     69  C   UNL     1      -4.184  13.035  -6.450  1.00  0.00     0.131 A 
ATOM     70  C   UNL     1      -3.280  12.981  -9.060  1.00  0.00     0.055 A 
ATOM     71  C   UNL     1      -5.098  13.165  -7.496  1.00  0.00     0.041 A 
ATOM     72  F   UNL     1      -4.661  13.070  -5.196  1.00  0.00    -0.206 F 
ATOM     73  C   UNL     1      -4.645  13.146  -8.812  1.00  0.00     0.022 A 
BRANCH  70  74
ATOM     74  S   UNL     1      -2.655  13.034 -10.762  1.00  0.00     0.124 S 
ATOM     75  O   UNL     1      -1.721  14.153 -10.702  1.00  0.00    -0.237 OA
ATOM     76  O   UNL     1      -2.061  11.710 -10.907  1.00  0.00    -0.237 OA
ATOM     77  O   UNL     1      -3.857  13.266 -11.559  1.00  0.00    -0.744 OA
ENDBRANCH  70  74
ENDBRANCH  43  67
BRANCH  55  78
ATOM     78  C   UNL     1       2.253  16.838  -4.048  1.00  0.00     0.023 A 
ATOM     79  C   UNL     1       1.537  18.046  -3.993  1.00  0.00     0.031 A 
ATOM     80  C   UNL     1       3.551  16.855  -4.584  1.00  0.00     0.131 A 
ATOM     81  C   UNL     1       2.107  19.216  -4.517  1.00  0.00     0.055 A 
ATOM     82  C   UNL     1       4.131  18.031  -5.060  1.00  0.00     0.041 A 
ATOM     83  F   UNL     1       4.274  15.726  -4.660  1.00  0.00    -0.206 F 
ATOM     84  C   UNL     1       3.404  19.218  -5.039  1.00  0.00     0.022 A 
BRANCH  81  85
ATOM     85  S   UNL     1       1.100  20.723  -4.580  1.00  0.00     0.124 S 
ATOM     86  O   UNL     1      -0.017  20.307  -5.422  1.00  0.00    -0.237 OA
ATOM     87  O   UNL     1       0.788  20.951  -3.172  1.00  0.00    -0.237 OA
ATOM     88  O   UNL     1       1.996  21.709  -5.181  1.00  0.00    -0.744 OA
ENDBRANCH  81  85
ENDBRANCH  55  78
ENDBRANCH  29  30
ENDBRANCH  22  24
ENDBRANCH  21  22
ENDBRANCH  20  21
ENDBRANCH   1  20
TORSDOF 19
