REMARK SMILES C[NH2+]CCCC(=O)NC[C@@H]1CC[C@H](C(=O)OCCOC(=O)c2ccc(-c3c4nc(c(-c5cc(S(=O)(=O)[O-])ccc5F)c5ccc([nH]5)c(-c5cc(S(=O)(=O)[O-])ccc5F)c5nc(c(-c6cc(S(=O)(=O)[O-])ccc6F)c6ccc3[nH]6)C=C5)C=C4)cc2)O1
REMARK SMILES IDX 16 1 14 2 15 3 13 4 10 5 11 6 85 7 12 8 9 9 8 10 6 11 7 12
REMARK SMILES IDX 5 14 4 15 3 16 2 17 1 18 17 21 18 22 19 23 20 24 21 25 22 26
REMARK SMILES IDX 23 27 84 28 24 29 83 30 25 31 26 32 27 33 77 34 28 35 82 36
REMARK SMILES IDX 76 37 78 38 29 39 81 40 75 41 74 42 30 44 62 45 42 46 61 47
REMARK SMILES IDX 43 48 46 49 60 50 79 51 44 52 45 53 59 55 80 56 47 57 31 58
REMARK SMILES IDX 32 59 40 60 33 61 39 62 41 63 38 64 34 65 35 66 36 67 37 68
REMARK SMILES IDX 63 69 64 70 72 71 65 72 71 73 73 74 70 75 66 76 67 77 68 78
REMARK SMILES IDX 69 79 48 80 49 81 57 82 50 83 56 84 58 85 55 86 51 87 52 88
REMARK SMILES IDX 53 89 54 90
REMARK H PARENT 8 13 2 19 2 20 78 43 46 54
REMARK Flexibility Score: inf
ROOT
ATOM      1  O   UNL     1       1.806   3.591  -3.533  1.00  0.00    -0.460 OA
ENDROOT
BRANCH   1   2
ATOM      2  C   UNL     1       0.946   4.628  -3.330  1.00  0.00     0.335 C 
ATOM      3  O   UNL     1       1.294   5.787  -3.142  1.00  0.00    -0.249 OA
BRANCH   2   4
ATOM      4  C   UNL     1      -0.530   4.172  -3.365  1.00  0.00     0.228 C 
ATOM      5  C   UNL     1      -1.203   3.207  -1.362  1.00  0.00     0.138 C 
ATOM      6  C   UNL     1      -0.580   2.126  -2.240  1.00  0.00     0.037 C 
ATOM      7  O   UNL     1      -1.182   4.432  -2.118  1.00  0.00    -0.361 OA
ATOM      8  C   UNL     1      -0.741   2.694  -3.627  1.00  0.00     0.047 C 
BRANCH   5   9
ATOM      9  C   UNL     1      -0.478   3.469  -0.034  1.00  0.00     0.147 C 
BRANCH   9  10
ATOM     10  N   UNL     1      -1.447   3.725   1.023  1.00  0.00    -0.353 N 
ATOM     11  C   UNL     1      -1.736   3.000   2.136  1.00  0.00     0.220 C 
ATOM     12  O   UNL     1      -2.724   3.300   2.806  1.00  0.00    -0.275 OA
ATOM     13  H   UNL     1      -1.973   4.550   0.915  1.00  0.00     0.163 HD
BRANCH  11  14
ATOM     14  C   UNL     1      -0.832   1.860   2.558  1.00  0.00     0.106 C 
BRANCH  14  15
ATOM     15  C   UNL     1      -1.333   0.479   2.127  1.00  0.00     0.071 C 
BRANCH  15  16
ATOM     16  C   UNL     1      -1.063   0.094   0.670  1.00  0.00     0.260 C 
BRANCH  16  17
ATOM     17  N   UNL     1       0.355   0.089   0.303  1.00  0.00    -0.349 N 
ATOM     18  C   UNL     1       0.918  -1.249   0.234  1.00  0.00     0.330 C 
ATOM     19  H   UNL     1       0.455   0.532  -0.610  1.00  0.00     0.346 HD
ATOM     20  H   UNL     1       0.860   0.597   1.029  1.00  0.00     0.346 HD
ENDBRANCH  16  17
ENDBRANCH  15  16
ENDBRANCH  14  15
ENDBRANCH  11  14
ENDBRANCH   9  10
ENDBRANCH   5   9
ENDBRANCH   2   4
ENDBRANCH   1   2
BRANCH   1  21
ATOM     21  C   UNL     1       3.205   3.905  -3.662  1.00  0.00     0.274 C 
BRANCH  21  22
ATOM     22  C   UNL     1       3.675   3.517  -5.061  1.00  0.00     0.275 C 
BRANCH  22  23
ATOM     23  O   UNL     1       2.911   4.247  -6.038  1.00  0.00    -0.458 OA
BRANCH  23  24
ATOM     24  C   UNL     1       2.043   3.514  -6.775  1.00  0.00     0.338 C 
ATOM     25  O   UNL     1       1.902   2.305  -6.777  1.00  0.00    -0.246 OA
BRANCH  24  26
ATOM     26  C   UNL     1       1.192   4.433  -7.544  1.00  0.00     0.060 A 
ATOM     27  C   UNL     1       0.175   5.111  -6.877  1.00  0.00     0.016 A 
ATOM     28  C   UNL     1       1.346   4.573  -8.919  1.00  0.00     0.016 A 
ATOM     29  C   UNL     1      -0.722   5.910  -7.576  1.00  0.00     0.010 A 
ATOM     30  C   UNL     1       0.492   5.438  -9.613  1.00  0.00     0.010 A 
ATOM     31  C   UNL     1      -0.553   6.110  -8.949  1.00  0.00    -0.014 A 
BRANCH  31  32
ATOM     32  C   UNL     1      -1.456   7.032  -9.688  1.00  0.00     0.031 A 
ATOM     33  C   UNL     1      -2.316   6.504 -10.801  1.00  0.00     0.074 A 
ATOM     34  C   UNL     1      -1.478   8.343  -9.373  1.00  0.00     0.049 A 
ATOM     35  N   UNL     1      -2.997   7.162 -11.701  1.00  0.00    -0.248 NA
ATOM     36  C   UNL     1      -2.412   5.041 -10.924  1.00  0.00     0.031 C 
ATOM     37  C   UNL     1      -0.730   8.964  -8.275  1.00  0.00     0.029 A 
ATOM     38  N   UNL     1      -2.140   9.397  -9.954  1.00  0.00    -0.354 N 
ATOM     39  C   UNL     1      -3.559   6.199 -12.532  1.00  0.00     0.074 A 
ATOM     40  C   UNL     1      -3.143   4.909 -12.022  1.00  0.00     0.031 C 
ATOM     41  C   UNL     1      -0.975  10.283  -8.264  1.00  0.00     0.029 A 
ATOM     42  C   UNL     1      -1.817  10.618  -9.405  1.00  0.00     0.049 A 
ATOM     43  H   UNL     1      -2.783   9.290 -10.692  1.00  0.00     0.167 HD
ATOM     44  C   UNL     1      -4.338   6.384 -13.625  1.00  0.00     0.034 A 
ATOM     45  C   UNL     1      -2.106  11.870  -9.812  1.00  0.00     0.034 A 
ATOM     46  C   UNL     1      -4.774   7.679 -14.086  1.00  0.00     0.049 A 
ATOM     47  C   UNL     1      -2.919  12.047 -11.068  1.00  0.00     0.074 A 
ATOM     48  C   UNL     1      -5.622   7.978 -15.139  1.00  0.00     0.029 A 
ATOM     49  N   UNL     1      -4.391   8.891 -13.528  1.00  0.00    -0.354 N 
ATOM     50  N   UNL     1      -3.433  11.128 -11.854  1.00  0.00    -0.248 NA
ATOM     51  C   UNL     1      -3.174  13.425 -11.505  1.00  0.00     0.031 C 
ATOM     52  C   UNL     1      -5.697   9.370 -15.258  1.00  0.00     0.029 A 
ATOM     53  C   UNL     1      -4.947   9.941 -14.242  1.00  0.00     0.049 A 
ATOM     54  H   UNL     1      -3.809   8.991 -12.740  1.00  0.00     0.167 HD
ATOM     55  C   UNL     1      -4.077  11.821 -12.873  1.00  0.00     0.074 A 
ATOM     56  C   UNL     1      -3.910  13.231 -12.589  1.00  0.00     0.031 C 
ATOM     57  C   UNL     1      -4.746  11.338 -13.951  1.00  0.00     0.034 A 
BRANCH  44  58
ATOM     58  C   UNL     1      -4.711   5.171 -14.438  1.00  0.00     0.023 A 
ATOM     59  C   UNL     1      -5.593   4.187 -13.962  1.00  0.00     0.031 A 
ATOM     60  C   UNL     1      -4.169   5.008 -15.726  1.00  0.00     0.131 A 
ATOM     61  C   UNL     1      -5.874   3.062 -14.754  1.00  0.00     0.055 A 
ATOM     62  C   UNL     1      -4.498   3.918 -16.532  1.00  0.00     0.041 A 
ATOM     63  F   UNL     1      -3.303   5.907 -16.221  1.00  0.00    -0.206 F 
ATOM     64  C   UNL     1      -5.350   2.932 -16.044  1.00  0.00     0.022 A 
BRANCH  61  65
ATOM     65  S   UNL     1      -6.864   1.719 -14.043  1.00  0.00     0.124 S 
ATOM     66  O   UNL     1      -6.029   1.297 -12.921  1.00  0.00    -0.237 OA
ATOM     67  O   UNL     1      -8.109   2.395 -13.694  1.00  0.00    -0.237 OA
ATOM     68  O   UNL     1      -6.966   0.752 -15.134  1.00  0.00    -0.744 OA
ENDBRANCH  61  65
ENDBRANCH  44  58
BRANCH  45  69
ATOM     69  C   UNL     1      -1.540  13.051  -9.098  1.00  0.00     0.023 A 
ATOM     70  C   UNL     1      -2.372  14.007  -8.495  1.00  0.00     0.031 A 
ATOM     71  C   UNL     1      -0.150  13.273  -9.060  1.00  0.00     0.131 A 
ATOM     72  C   UNL     1      -1.812  15.159  -7.919  1.00  0.00     0.055 A 
ATOM     73  C   UNL     1       0.406  14.389  -8.434  1.00  0.00     0.041 A 
ATOM     74  F   UNL     1       0.694  12.396  -9.629  1.00  0.00    -0.206 F 
ATOM     75  C   UNL     1      -0.429  15.348  -7.872  1.00  0.00     0.022 A 
BRANCH  72  76
ATOM     76  S   UNL     1      -2.925  16.463  -7.328  1.00  0.00     0.124 S 
ATOM     77  O   UNL     1      -3.741  16.718  -8.510  1.00  0.00    -0.237 OA
ATOM     78  O   UNL     1      -3.597  15.804  -6.213  1.00  0.00    -0.237 OA
ATOM     79  O   UNL     1      -2.014  17.544  -6.955  1.00  0.00    -0.744 OA
ENDBRANCH  72  76
ENDBRANCH  45  69
BRANCH  57  80
ATOM     80  C   UNL     1      -5.354  12.356 -14.878  1.00  0.00     0.023 A 
ATOM     81  C   UNL     1      -4.552  13.164 -15.702  1.00  0.00     0.031 A 
ATOM     82  C   UNL     1      -6.747  12.531 -14.925  1.00  0.00     0.131 A 
ATOM     83  C   UNL     1      -5.148  14.146 -16.506  1.00  0.00     0.055 A 
ATOM     84  C   UNL     1      -7.338  13.474 -15.766  1.00  0.00     0.041 A 
ATOM     85  F   UNL     1      -7.556  11.784 -14.155  1.00  0.00    -0.206 F 
ATOM     86  C   UNL     1      -6.537  14.295 -16.555  1.00  0.00     0.022 A 
BRANCH  83  87
ATOM     87  S   UNL     1      -4.079  15.272 -17.443  1.00  0.00     0.124 S 
ATOM     88  O   UNL     1      -3.360  15.963 -16.377  1.00  0.00    -0.237 OA
ATOM     89  O   UNL     1      -3.287  14.352 -18.254  1.00  0.00    -0.237 OA
ATOM     90  O   UNL     1      -5.024  16.098 -18.191  1.00  0.00    -0.744 OA
ENDBRANCH  83  87
ENDBRANCH  57  80
ENDBRANCH  31  32
ENDBRANCH  24  26
ENDBRANCH  23  24
ENDBRANCH  22  23
ENDBRANCH  21  22
ENDBRANCH   1  21
TORSDOF 20
