REMARK SMILES CC/C=C/C/C=C/C/C=C/C/C=C/CC/C=C/COCC(=O)OCCOC(=O)c1ccc(-c2c3nc(c(-c4cc(S(=O)(=O)[O-])ccc4F)c4ccc([nH]4)c(-c4cc(S(=O)(=O)[O-])ccc4F)c4nc(c(-c5cc(S(=O)(=O)[O-])ccc5F)c5ccc2[nH]5)C=C4)C=C3)cc1
REMARK SMILES IDX 18 1 17 2 16 3 15 4 14 5 13 6 12 7 11 8 10 9 9 10 8 11 7 12
REMARK SMILES IDX 6 13 5 14 4 15 3 16 2 17 1 18 19 19 20 20 21 21 22 22 23 23
REMARK SMILES IDX 24 24 25 25 26 26 27 27 28 28 29 29 30 30 91 31 31 32 90 33
REMARK SMILES IDX 32 34 33 35 34 36 84 37 35 38 89 39 83 40 85 41 36 42 88 43
REMARK SMILES IDX 82 44 81 45 37 47 69 48 49 49 68 50 50 51 53 52 67 53 86 54
REMARK SMILES IDX 51 55 52 56 66 58 87 59 54 60 38 61 39 62 47 63 40 64 46 65
REMARK SMILES IDX 48 66 45 67 41 68 42 69 43 70 44 71 70 72 71 73 79 74 72 75
REMARK SMILES IDX 78 76 80 77 77 78 73 79 74 80 75 81 76 82 55 83 56 84 64 85
REMARK SMILES IDX 57 86 63 87 65 88 62 89 58 90 59 91 60 92 61 93
REMARK H PARENT 85 46 53 57
REMARK Flexibility Score: inf
ROOT
ATOM      1  C   UNL     1      -8.396  -0.744  15.818  1.00  0.00     0.188 C 
ENDROOT
BRANCH   1   2
ATOM      2  C   UNL     1      -7.703  -1.751  14.950  1.00  0.00    -0.003 C 
ATOM      3  C   UNL     1      -6.463  -1.565  14.468  1.00  0.00    -0.029 C 
BRANCH   3   4
ATOM      4  C   UNL     1      -5.881  -2.372  13.335  1.00  0.00     0.031 C 
BRANCH   4   5
ATOM      5  C   UNL     1      -6.563  -1.964  11.780  1.00  0.00     0.031 C 
BRANCH   5   6
ATOM      6  C   UNL     1      -6.079  -0.649  10.141  1.00  0.00    -0.031 C 
ATOM      7  C   UNL     1      -5.389  -0.595   8.924  1.00  0.00    -0.027 C 
BRANCH   7   8
ATOM      8  C   UNL     1      -4.978   0.651   8.176  1.00  0.00     0.054 C 
BRANCH   8   9
ATOM      9  C   UNL     1      -3.470   0.696   8.198  1.00  0.00    -0.027 C 
ATOM     10  C   UNL     1      -2.680   0.507   7.128  1.00  0.00    -0.027 C 
BRANCH  10  11
ATOM     11  C   UNL     1      -1.187   0.356   7.217  1.00  0.00     0.054 C 
BRANCH  11  12
ATOM     12  C   UNL     1      -0.705  -0.809   6.399  1.00  0.00    -0.027 C 
ATOM     13  C   UNL     1       0.147  -0.697   5.366  1.00  0.00    -0.027 C 
BRANCH  13  14
ATOM     14  C   UNL     1       0.619  -1.847   4.522  1.00  0.00     0.054 C 
BRANCH  14  15
ATOM     15  C   UNL     1       0.190  -1.668   3.094  1.00  0.00    -0.027 C 
ATOM     16  C   UNL     1       1.031  -1.520   2.057  1.00  0.00    -0.031 C 
BRANCH  16  17
ATOM     17  C   UNL     1       0.576  -1.369   0.634  1.00  0.00     0.023 C 
ATOM     18  C   UNL     1       1.058  -0.056   0.036  1.00  0.00     0.008 C 
ENDBRANCH  16  17
ENDBRANCH  14  15
ENDBRANCH  13  14
ENDBRANCH  11  12
ENDBRANCH  10  11
ENDBRANCH   8   9
ENDBRANCH   7   8
ENDBRANCH   5   6
ENDBRANCH   4   5
ENDBRANCH   3   4
ENDBRANCH   1   2
BRANCH   1  19
ATOM     19  O   UNL     1      -9.798  -0.650  15.553  1.00  0.00    -0.366 OA
BRANCH  19  20
ATOM     20  C   UNL     1     -10.192  -0.423  14.214  1.00  0.00     0.283 C 
BRANCH  20  21
ATOM     21  C   UNL     1     -10.225   0.960  13.556  1.00  0.00     0.332 C 
ATOM     22  O   UNL     1     -10.810   1.152  12.492  1.00  0.00    -0.250 OA
BRANCH  21  23
ATOM     23  O   UNL     1      -9.515   1.907  14.225  1.00  0.00    -0.460 OA
BRANCH  23  24
ATOM     24  C   UNL     1      -9.368   3.166  13.530  1.00  0.00     0.274 C 
BRANCH  24  25
ATOM     25  C   UNL     1      -7.936   3.324  13.030  1.00  0.00     0.275 C 
BRANCH  25  26
ATOM     26  O   UNL     1      -7.580   2.155  12.280  1.00  0.00    -0.458 OA
BRANCH  26  27
ATOM     27  C   UNL     1      -6.641   1.367  12.847  1.00  0.00     0.338 C 
ATOM     28  O   UNL     1      -5.960   1.603  13.829  1.00  0.00    -0.246 OA
BRANCH  27  29
ATOM     29  C   UNL     1      -6.543   0.139  12.059  1.00  0.00     0.060 A 
ATOM     30  C   UNL     1      -7.967  -0.472  11.107  1.00  0.00     0.016 A 
ATOM     31  C   UNL     1      -4.915  -0.641  11.871  1.00  0.00     0.016 A 
ATOM     32  C   UNL     1      -7.773  -1.931  10.050  1.00  0.00     0.010 A 
ATOM     33  C   UNL     1      -4.728  -2.118  10.814  1.00  0.00     0.010 A 
ATOM     34  C   UNL     1      -6.158  -2.763   9.856  1.00  0.00    -0.014 A 
BRANCH  34  35
ATOM     35  C   UNL     1      -5.962  -3.872   8.870  1.00  0.00     0.031 A 
ATOM     36  C   UNL     1      -4.981  -4.968   9.182  1.00  0.00     0.074 A 
ATOM     37  C   UNL     1      -6.552  -3.808   7.657  1.00  0.00     0.049 A 
ATOM     38  N   UNL     1      -4.358  -5.785   8.373  1.00  0.00    -0.248 NA
ATOM     39  C   UNL     1      -4.588  -5.116  10.589  1.00  0.00     0.031 C 
ATOM     40  C   UNL     1      -7.467  -2.761   7.201  1.00  0.00     0.029 A 
ATOM     41  N   UNL     1      -6.449  -4.627   6.558  1.00  0.00    -0.354 N 
ATOM     42  C   UNL     1      -3.435  -6.470   9.161  1.00  0.00     0.074 A 
ATOM     43  C   UNL     1      -3.547  -5.929  10.497  1.00  0.00     0.031 C 
ATOM     44  C   UNL     1      -7.913  -3.040   5.973  1.00  0.00     0.029 A 
ATOM     45  C   UNL     1      -7.191  -4.194   5.478  1.00  0.00     0.049 A 
ATOM     46  H   UNL     1      -5.900  -5.444   6.542  1.00  0.00     0.167 HD
ATOM     47  C   UNL     1      -2.590  -7.469   8.797  1.00  0.00     0.034 A 
ATOM     48  C   UNL     1      -7.232  -4.617   4.200  1.00  0.00     0.034 A 
ATOM     49  C   UNL     1      -2.586  -8.029   7.465  1.00  0.00     0.049 A 
ATOM     50  C   UNL     1      -6.308  -5.732   3.818  1.00  0.00     0.074 A 
ATOM     51  C   UNL     1      -1.845  -9.086   6.968  1.00  0.00     0.029 A 
ATOM     52  N   UNL     1      -3.388  -7.579   6.419  1.00  0.00    -0.354 N 
ATOM     53  N   UNL     1      -5.421  -6.352   4.564  1.00  0.00    -0.248 NA
ATOM     54  C   UNL     1      -6.369  -6.191   2.429  1.00  0.00     0.031 C 
ATOM     55  C   UNL     1      -2.162  -9.241   5.613  1.00  0.00     0.029 A 
ATOM     56  C   UNL     1      -3.146  -8.323   5.276  1.00  0.00     0.049 A 
ATOM     57  H   UNL     1      -4.033  -6.838   6.483  1.00  0.00     0.167 HD
ATOM     58  C   UNL     1      -4.813  -7.280   3.732  1.00  0.00     0.074 A 
ATOM     59  C   UNL     1      -5.460  -7.156   2.437  1.00  0.00     0.031 C 
ATOM     60  C   UNL     1      -3.806  -8.149   4.003  1.00  0.00     0.034 A 
BRANCH  47  61
ATOM     61  C   UNL     1      -1.608  -7.979   9.835  1.00  0.00     0.023 A 
ATOM     62  C   UNL     1      -2.030  -8.500  11.072  1.00  0.00     0.031 A 
ATOM     63  C   UNL     1      -0.221  -7.877   9.618  1.00  0.00     0.131 A 
ATOM     64  C   UNL     1      -1.092  -8.777  12.081  1.00  0.00     0.055 A 
ATOM     65  C   UNL     1       0.713  -8.255  10.589  1.00  0.00     0.041 A 
ATOM     66  F   UNL     1       0.259  -7.379   8.468  1.00  0.00    -0.206 F 
ATOM     67  C   UNL     1       0.279  -8.684  11.840  1.00  0.00     0.022 A 
BRANCH  64  68
ATOM     68  S   UNL     1      -1.700  -9.070  13.766  1.00  0.00     0.124 S 
ATOM     69  O   UNL     1      -2.416  -7.826  14.039  1.00  0.00    -0.237 OA
ATOM     70  O   UNL     1      -2.528 -10.259  13.601  1.00  0.00    -0.237 OA
ATOM     71  O   UNL     1      -0.478  -9.262  14.544  1.00  0.00    -0.744 OA
ENDBRANCH  64  68
ENDBRANCH  47  61
BRANCH  48  72
ATOM     72  C   UNL     1      -8.134  -3.949   3.216  1.00  0.00     0.023 A 
ATOM     73  C   UNL     1      -9.229  -4.634   2.667  1.00  0.00     0.031 A 
ATOM     74  C   UNL     1      -7.960  -2.597   2.857  1.00  0.00     0.131 A 
ATOM     75  C   UNL     1     -10.107  -3.970   1.794  1.00  0.00     0.055 A 
ATOM     76  C   UNL     1      -8.865  -1.927   2.029  1.00  0.00     0.041 A 
ATOM     77  F   UNL     1      -6.936  -1.887   3.356  1.00  0.00    -0.206 F 
ATOM     78  C   UNL     1      -9.945  -2.617   1.489  1.00  0.00     0.022 A 
BRANCH  75  79
ATOM     79  S   UNL     1     -11.451  -4.916   1.028  1.00  0.00     0.124 S 
ATOM     80  O   UNL     1     -10.721  -5.990   0.364  1.00  0.00    -0.237 OA
ATOM     81  O   UNL     1     -12.249  -5.303   2.187  1.00  0.00    -0.237 OA
ATOM     82  O   UNL     1     -12.084  -3.947   0.135  1.00  0.00    -0.744 OA
ENDBRANCH  75  79
ENDBRANCH  48  72
BRANCH  60  83
ATOM     83  C   UNL     1      -3.380  -9.032   2.866  1.00  0.00     0.023 A 
ATOM     84  C   UNL     1      -2.694  -8.506   1.760  1.00  0.00     0.031 A 
ATOM     85  C   UNL     1      -3.682 -10.403   2.880  1.00  0.00     0.131 A 
ATOM     86  C   UNL     1      -2.381  -9.340   0.680  1.00  0.00     0.055 A 
ATOM     87  C   UNL     1      -3.311 -11.241   1.830  1.00  0.00     0.041 A 
ATOM     88  F   UNL     1      -4.343 -10.947   3.915  1.00  0.00    -0.206 F 
ATOM     89  C   UNL     1      -2.667 -10.708   0.716  1.00  0.00     0.022 A 
BRANCH  86  90
ATOM     90  S   UNL     1      -1.673  -8.592  -0.811  1.00  0.00     0.124 S 
ATOM     91  O   UNL     1      -2.742  -7.693  -1.232  1.00  0.00    -0.237 OA
ATOM     92  O   UNL     1      -0.465  -7.952  -0.300  1.00  0.00    -0.237 OA
ATOM     93  O   UNL     1      -1.442  -9.737  -1.690  1.00  0.00    -0.744 OA
ENDBRANCH  86  90
ENDBRANCH  60  83
ENDBRANCH  34  35
ENDBRANCH  27  29
ENDBRANCH  26  27
ENDBRANCH  25  26
ENDBRANCH  24  25
ENDBRANCH  23  24
ENDBRANCH  21  23
ENDBRANCH  20  21
ENDBRANCH  19  20
ENDBRANCH   1  19
TORSDOF 27
