REMARK SMILES C[C@@H]1CCC[C@@](Cc2ncccn2)(C(=O)OCCOC(=O)c2ccc(-c3c4nc(c(-c5cc(S(=O)(=O)[O-])ccc5F)c5ccc([nH]5)c(-c5cc(S(=O)(=O)[O-])ccc5F)c5nc(c(-c6cc(S(=O)(=O)[O-])ccc6F)c6ccc3[nH]6)C=C5)C=C4)cc2)C1
REMARK SMILES IDX 18 1 17 2 16 3 14 4 15 5 6 6 1 7 2 8 3 9 85 10 4 11 5 12
REMARK SMILES IDX 7 13 8 14 9 15 13 16 10 17 12 18 11 19 19 20 20 21 21 22
REMARK SMILES IDX 22 23 23 24 84 25 24 26 83 27 25 28 26 29 27 30 77 31 28 32
REMARK SMILES IDX 82 33 76 34 78 35 29 36 81 37 75 38 74 39 30 41 62 42 42 43
REMARK SMILES IDX 61 44 43 45 46 46 60 47 79 48 44 49 45 50 59 52 80 53 47 54
REMARK SMILES IDX 31 55 32 56 40 57 33 58 39 59 41 60 38 61 34 62 35 63 36 64
REMARK SMILES IDX 37 65 63 66 64 67 72 68 65 69 71 70 73 71 70 72 66 73 67 74
REMARK SMILES IDX 68 75 69 76 48 77 49 78 57 79 50 80 56 81 58 82 55 83 51 84
REMARK SMILES IDX 52 85 53 86 54 87
REMARK H PARENT 78 40 46 51
REMARK Flexibility Score: inf
ROOT
ATOM      1  C   UNL     1      -3.434  -3.844  -2.233  1.00  0.00     0.275 C 
ENDROOT
BRANCH   1   2
ATOM      2  C   UNL     1      -3.645  -3.574  -0.748  1.00  0.00     0.274 C 
BRANCH   2   3
ATOM      3  O   UNL     1      -3.046  -2.319  -0.371  1.00  0.00    -0.462 OA
BRANCH   3   4
ATOM      4  C   UNL     1      -1.866  -2.409   0.302  1.00  0.00     0.312 C 
ATOM      5  O   UNL     1      -1.272  -3.462   0.516  1.00  0.00    -0.252 OA
BRANCH   4   6
ATOM      6  C   UNL     1      -1.363  -1.053   0.829  1.00  0.00     0.075 C 
ATOM      7  C   UNL     1       1.314   0.603   2.129  1.00  0.00     0.007 C 
ATOM      8  C   UNL     1       0.880   0.349   0.686  1.00  0.00    -0.013 C 
ATOM      9  C   UNL     1       0.079   1.516   0.103  1.00  0.00     0.003 C 
ATOM     10  C   UNL     1       0.153  -0.990   0.490  1.00  0.00     0.022 C 
ATOM     11  C   UNL     1      -1.397   1.487   0.490  1.00  0.00     0.001 C 
ATOM     12  C   UNL     1      -2.047   0.149   0.138  1.00  0.00     0.019 C 
BRANCH   6  13
ATOM     13  C   UNL     1      -1.598  -1.101   2.359  1.00  0.00     0.096 C 
BRANCH  13  14
ATOM     14  C   UNL     1      -3.054  -1.152   2.752  1.00  0.00     0.129 A 
ATOM     15  N   UNL     1      -3.630  -0.003   3.152  1.00  0.00    -0.241 NA
ATOM     16  N   UNL     1      -3.706  -2.324   2.623  1.00  0.00    -0.241 NA
ATOM     17  C   UNL     1      -4.946  -0.054   3.424  1.00  0.00     0.115 A 
ATOM     18  C   UNL     1      -5.021  -2.315   2.899  1.00  0.00     0.115 A 
ATOM     19  C   UNL     1      -5.702  -1.194   3.307  1.00  0.00     0.040 A 
ENDBRANCH  13  14
ENDBRANCH   6  13
ENDBRANCH   4   6
ENDBRANCH   3   4
ENDBRANCH   2   3
ENDBRANCH   1   2
BRANCH   1  20
ATOM     20  O   UNL     1      -2.027  -3.926  -2.502  1.00  0.00    -0.458 OA
BRANCH  20  21
ATOM     21  C   UNL     1      -1.588  -3.212  -3.565  1.00  0.00     0.338 C 
ATOM     22  O   UNL     1      -2.271  -2.608  -4.373  1.00  0.00    -0.246 OA
BRANCH  21  23
ATOM     23  C   UNL     1      -0.112  -3.262  -3.623  1.00  0.00     0.060 A 
ATOM     24  C   UNL     1       0.652  -3.125  -2.466  1.00  0.00     0.016 A 
ATOM     25  C   UNL     1       0.521  -3.342  -4.863  1.00  0.00     0.016 A 
ATOM     26  C   UNL     1       2.034  -2.949  -2.550  1.00  0.00     0.010 A 
ATOM     27  C   UNL     1       1.917  -3.285  -4.933  1.00  0.00     0.010 A 
ATOM     28  C   UNL     1       2.692  -3.045  -3.783  1.00  0.00    -0.014 A 
BRANCH  28  29
ATOM     29  C   UNL     1       4.168  -2.846  -3.898  1.00  0.00     0.031 A 
ATOM     30  C   UNL     1       4.708  -1.814  -4.857  1.00  0.00     0.074 A 
ATOM     31  C   UNL     1       5.034  -3.579  -3.166  1.00  0.00     0.049 A 
ATOM     32  N   UNL     1       5.918  -1.673  -5.335  1.00  0.00    -0.248 NA
ATOM     33  C   UNL     1       3.745  -0.823  -5.363  1.00  0.00     0.031 C 
ATOM     34  C   UNL     1       4.668  -4.568  -2.150  1.00  0.00     0.029 A 
ATOM     35  N   UNL     1       6.409  -3.607  -3.168  1.00  0.00    -0.354 N 
ATOM     36  C   UNL     1       5.848  -0.625  -6.248  1.00  0.00     0.074 A 
ATOM     37  C   UNL     1       4.473  -0.168  -6.256  1.00  0.00     0.031 C 
ATOM     38  C   UNL     1       5.783  -5.080  -1.609  1.00  0.00     0.029 A 
ATOM     39  C   UNL     1       6.943  -4.542  -2.310  1.00  0.00     0.049 A 
ATOM     40  H   UNL     1       6.959  -3.014  -3.729  1.00  0.00     0.167 HD
ATOM     41  C   UNL     1       6.838  -0.100  -7.014  1.00  0.00     0.034 A 
ATOM     42  C   UNL     1       8.211  -4.968  -2.146  1.00  0.00     0.034 A 
ATOM     43  C   UNL     1       8.213  -0.533  -6.955  1.00  0.00     0.049 A 
ATOM     44  C   UNL     1       9.293  -4.386  -3.018  1.00  0.00     0.074 A 
ATOM     45  C   UNL     1       9.293  -0.099  -7.706  1.00  0.00     0.029 A 
ATOM     46  N   UNL     1       8.706  -1.484  -6.071  1.00  0.00    -0.354 N 
ATOM     47  N   UNL     1       9.191  -3.487  -3.970  1.00  0.00    -0.248 NA
ATOM     48  C   UNL     1      10.656  -4.889  -2.807  1.00  0.00     0.031 C 
ATOM     49  C   UNL     1      10.428  -0.810  -7.300  1.00  0.00     0.029 A 
ATOM     50  C   UNL     1      10.070  -1.648  -6.257  1.00  0.00     0.049 A 
ATOM     51  H   UNL     1       8.165  -1.971  -5.408  1.00  0.00     0.167 HD
ATOM     52  C   UNL     1      10.479  -3.316  -4.466  1.00  0.00     0.074 A 
ATOM     53  C   UNL     1      11.344  -4.181  -3.691  1.00  0.00     0.031 C 
ATOM     54  C   UNL     1      10.911  -2.522  -5.479  1.00  0.00     0.034 A 
BRANCH  41  55
ATOM     55  C   UNL     1       6.452   0.955  -8.021  1.00  0.00     0.023 A 
ATOM     56  C   UNL     1       6.002   2.229  -7.635  1.00  0.00     0.031 A 
ATOM     57  C   UNL     1       6.517   0.668  -9.398  1.00  0.00     0.131 A 
ATOM     58  C   UNL     1       5.577   3.145  -8.611  1.00  0.00     0.055 A 
ATOM     59  C   UNL     1       6.161   1.609 -10.365  1.00  0.00     0.041 A 
ATOM     60  F   UNL     1       6.921  -0.539  -9.825  1.00  0.00    -0.206 F 
ATOM     61  C   UNL     1       5.676   2.852  -9.974  1.00  0.00     0.022 A 
BRANCH  58  62
ATOM     62  S   UNL     1       4.783   4.684  -8.072  1.00  0.00     0.124 S 
ATOM     63  O   UNL     1       3.602   4.179  -7.376  1.00  0.00    -0.237 OA
ATOM     64  O   UNL     1       5.809   5.292  -7.232  1.00  0.00    -0.237 OA
ATOM     65  O   UNL     1       4.508   5.386  -9.325  1.00  0.00    -0.744 OA
ENDBRANCH  58  62
ENDBRANCH  41  55
BRANCH  42  66
ATOM     66  C   UNL     1       8.521  -6.067  -1.185  1.00  0.00     0.023 A 
ATOM     67  C   UNL     1       9.357  -5.852  -0.078  1.00  0.00     0.031 A 
ATOM     68  C   UNL     1       8.020  -7.366  -1.390  1.00  0.00     0.131 A 
ATOM     69  C   UNL     1       9.699  -6.926   0.758  1.00  0.00     0.055 A 
ATOM     70  C   UNL     1       8.315  -8.418  -0.522  1.00  0.00     0.041 A 
ATOM     71  F   UNL     1       7.220  -7.629  -2.436  1.00  0.00    -0.206 F 
ATOM     72  C   UNL     1       9.171  -8.203   0.553  1.00  0.00     0.022 A 
BRANCH  69  73
ATOM     73  S   UNL     1      10.925  -6.654   2.067  1.00  0.00     0.124 S 
ATOM     74  O   UNL     1      12.053  -6.117   1.314  1.00  0.00    -0.237 OA
ATOM     75  O   UNL     1      10.230  -5.713   2.940  1.00  0.00    -0.237 OA
ATOM     76  O   UNL     1      11.127  -7.988   2.628  1.00  0.00    -0.744 OA
ENDBRANCH  69  73
ENDBRANCH  42  66
BRANCH  54  77
ATOM     77  C   UNL     1      12.389  -2.535  -5.763  1.00  0.00     0.023 A 
ATOM     78  C   UNL     1      13.017  -3.652  -6.342  1.00  0.00     0.031 A 
ATOM     79  C   UNL     1      13.183  -1.427  -5.420  1.00  0.00     0.131 A 
ATOM     80  C   UNL     1      14.409  -3.656  -6.513  1.00  0.00     0.055 A 
ATOM     81  C   UNL     1      14.561  -1.419  -5.636  1.00  0.00     0.041 A 
ATOM     82  F   UNL     1      12.630  -0.338  -4.863  1.00  0.00    -0.206 F 
ATOM     83  C   UNL     1      15.183  -2.543  -6.174  1.00  0.00     0.022 A 
BRANCH  80  84
ATOM     84  S   UNL     1      15.208  -5.169  -7.115  1.00  0.00     0.124 S 
ATOM     85  O   UNL     1      14.829  -6.141  -6.094  1.00  0.00    -0.237 OA
ATOM     86  O   UNL     1      14.591  -5.348  -8.426  1.00  0.00    -0.237 OA
ATOM     87  O   UNL     1      16.627  -4.821  -7.142  1.00  0.00    -0.744 OA
ENDBRANCH  80  84
ENDBRANCH  54  77
ENDBRANCH  28  29
ENDBRANCH  21  23
ENDBRANCH  20  21
ENDBRANCH   1  20
TORSDOF 16
