REMARK SMILES CC[C@@](O)(C(=O)OCCOC(=O)c1ccc(-c2c3nc(c(-c4cc(S(=O)(=O)[O-])ccc4F)c4ccc([nH]4)c(-c4cc(S(=O)(=O)[O-])ccc4F)c4nc(c(-c5cc(S(=O)(=O)[O-])ccc5F)c5ccc2[nH]5)C=C4)C=C3)cc1)[C@@H]1CCc2ccc(OC)cc21
REMARK SMILES IDX 9 1 8 2 7 3 5 4 6 5 3 6 2 7 1 8 4 9 76 11 77 12 86 13 78 14
REMARK SMILES IDX 79 15 85 16 80 17 82 18 81 19 83 20 84 21 10 22 11 23 12 24
REMARK SMILES IDX 13 25 14 26 75 27 15 28 74 29 16 30 17 31 18 32 68 33 19 34
REMARK SMILES IDX 73 35 67 36 69 37 20 38 72 39 66 40 65 41 21 43 53 44 33 45
REMARK SMILES IDX 52 46 34 47 37 48 51 49 70 50 35 51 36 52 50 54 71 55 38 56
REMARK SMILES IDX 22 57 23 58 31 59 24 60 30 61 32 62 29 63 25 64 26 65 27 66
REMARK SMILES IDX 28 67 54 68 55 69 63 70 56 71 62 72 64 73 61 74 57 75 58 76
REMARK SMILES IDX 59 77 60 78 39 79 40 80 48 81 41 82 47 83 49 84 46 85 42 86
REMARK SMILES IDX 43 87 44 88 45 89
REMARK H PARENT 4 10 69 42 37 53
REMARK Flexibility Score: inf
ROOT
ATOM      1  C   UNL     1       7.393  -4.341   1.719  1.00  0.00     0.275 C 
ENDROOT
BRANCH   1   2
ATOM      2  C   UNL     1       6.487  -4.554   2.970  1.00  0.00     0.274 C 
BRANCH   2   3
ATOM      3  O   UNL     1       5.052  -4.372   2.849  1.00  0.00    -0.460 OA
BRANCH   3   4
ATOM      4  C   UNL     1       4.424  -4.756   1.709  1.00  0.00     0.338 C 
ATOM      5  O   UNL     1       4.915  -5.581   0.947  1.00  0.00    -0.249 OA
BRANCH   4   6
ATOM      6  C   UNL     1       3.049  -3.980   1.460  1.00  0.00     0.168 C 
BRANCH   6   7
ATOM      7  C   UNL     1       2.538  -4.666   0.146  1.00  0.00     0.044 C 
ATOM      8  C   UNL     1       1.146  -4.352  -0.360  1.00  0.00     0.007 C 
ENDBRANCH   6   7
BRANCH   6   9
ATOM      9  O   UNL     1       2.117  -4.253   2.505  1.00  0.00    -0.378 OA
ATOM     10  H   UNL     1       2.008  -5.212   2.599  1.00  0.00     0.212 HD
ENDBRANCH   6   9
BRANCH   6  11
ATOM     11  C   UNL     1       3.259  -2.411   1.270  1.00  0.00     0.063 C 
ATOM     12  C   UNL     1       4.519  -1.873   1.989  1.00  0.00     0.017 C 
ATOM     13  C   UNL     1       2.362  -1.289   1.850  1.00  0.00    -0.035 A 
ATOM     14  C   UNL     1       4.108  -1.636   3.437  1.00  0.00     0.036 C 
ATOM     15  C   UNL     1       2.916  -0.817   3.070  1.00  0.00    -0.044 A 
ATOM     16  C   UNL     1       1.603  -0.403   1.081  1.00  0.00     0.050 A 
ATOM     17  C   UNL     1       2.733   0.474   3.543  1.00  0.00     0.008 A 
ATOM     18  C   UNL     1       1.481   0.932   1.513  1.00  0.00     0.119 A 
ATOM     19  C   UNL     1       2.029   1.354   2.737  1.00  0.00     0.047 A 
BRANCH  18  20
ATOM     20  O   UNL     1       0.924   1.962   0.803  1.00  0.00    -0.497 OA
ATOM     21  C   UNL     1       0.768   1.786  -0.598  1.00  0.00     0.278 C 
ENDBRANCH  18  20
ENDBRANCH   6  11
ENDBRANCH   4   6
ENDBRANCH   3   4
ENDBRANCH   2   3
ENDBRANCH   1   2
BRANCH   1  22
ATOM     22  O   UNL     1       7.239  -3.042   1.085  1.00  0.00    -0.458 OA
BRANCH  22  23
ATOM     23  C   UNL     1       7.129  -3.033  -0.275  1.00  0.00     0.338 C 
ATOM     24  O   UNL     1       7.287  -3.985  -1.016  1.00  0.00    -0.246 OA
BRANCH  23  25
ATOM     25  C   UNL     1       6.613  -1.723  -0.764  1.00  0.00     0.060 A 
ATOM     26  C   UNL     1       5.328  -1.685  -1.318  1.00  0.00     0.016 A 
ATOM     27  C   UNL     1       7.377  -0.555  -0.754  1.00  0.00     0.016 A 
ATOM     28  C   UNL     1       4.768  -0.479  -1.770  1.00  0.00     0.010 A 
ATOM     29  C   UNL     1       6.845   0.642  -1.283  1.00  0.00     0.010 A 
ATOM     30  C   UNL     1       5.531   0.696  -1.787  1.00  0.00    -0.014 A 
BRANCH  30  31
ATOM     31  C   UNL     1       5.011   1.911  -2.491  1.00  0.00     0.031 A 
ATOM     32  C   UNL     1       5.100   1.970  -3.996  1.00  0.00     0.074 A 
ATOM     33  C   UNL     1       4.438   2.939  -1.831  1.00  0.00     0.049 A 
ATOM     34  N   UNL     1       4.748   2.926  -4.819  1.00  0.00    -0.248 NA
ATOM     35  C   UNL     1       5.664   0.784  -4.657  1.00  0.00     0.031 C 
ATOM     36  C   UNL     1       4.216   2.992  -0.389  1.00  0.00     0.029 A 
ATOM     37  N   UNL     1       3.913   4.129  -2.290  1.00  0.00    -0.354 N 
ATOM     38  C   UNL     1       5.074   2.471  -6.093  1.00  0.00     0.074 A 
ATOM     39  C   UNL     1       5.635   1.145  -5.931  1.00  0.00     0.031 C 
ATOM     40  C   UNL     1       3.578   4.138  -0.086  1.00  0.00     0.029 A 
ATOM     41  C   UNL     1       3.386   4.932  -1.300  1.00  0.00     0.049 A 
ATOM     42  H   UNL     1       3.915   4.383  -3.242  1.00  0.00     0.167 HD
ATOM     43  C   UNL     1       4.949   3.105  -7.287  1.00  0.00     0.034 A 
ATOM     44  C   UNL     1       2.829   6.164  -1.362  1.00  0.00     0.034 A 
ATOM     45  C   UNL     1       4.431   4.443  -7.445  1.00  0.00     0.049 A 
ATOM     46  C   UNL     1       2.764   6.879  -2.700  1.00  0.00     0.074 A 
ATOM     47  C   UNL     1       4.305   5.185  -8.608  1.00  0.00     0.029 A 
ATOM     48  N   UNL     1       3.971   5.248  -6.413  1.00  0.00    -0.354 N 
ATOM     49  N   UNL     1       3.105   6.443  -3.892  1.00  0.00    -0.248 NA
ATOM     50  C   UNL     1       2.254   8.260  -2.696  1.00  0.00     0.031 C 
ATOM     51  C   UNL     1       3.846   6.462  -8.269  1.00  0.00     0.029 A 
ATOM     52  C   UNL     1       3.596   6.490  -6.907  1.00  0.00     0.049 A 
ATOM     53  H   UNL     1       3.918   4.979  -5.467  1.00  0.00     0.167 HD
ATOM     54  C   UNL     1       2.837   7.492  -4.773  1.00  0.00     0.074 A 
ATOM     55  C   UNL     1       2.272   8.565  -3.985  1.00  0.00     0.031 C 
ATOM     56  C   UNL     1       3.046   7.564  -6.113  1.00  0.00     0.034 A 
BRANCH  43  57
ATOM     57  C   UNL     1       5.488   2.389  -8.502  1.00  0.00     0.023 A 
ATOM     58  C   UNL     1       4.923   1.192  -8.974  1.00  0.00     0.031 A 
ATOM     59  C   UNL     1       6.623   2.890  -9.166  1.00  0.00     0.131 A 
ATOM     60  C   UNL     1       5.541   0.497 -10.026  1.00  0.00     0.055 A 
ATOM     61  C   UNL     1       7.183   2.237 -10.265  1.00  0.00     0.041 A 
ATOM     62  F   UNL     1       7.221   4.015  -8.743  1.00  0.00    -0.206 F 
ATOM     63  C   UNL     1       6.651   1.024 -10.691  1.00  0.00     0.022 A 
BRANCH  60  64
ATOM     64  S   UNL     1       4.969  -1.181 -10.407  1.00  0.00     0.124 S 
ATOM     65  O   UNL     1       5.166  -1.857  -9.126  1.00  0.00    -0.237 OA
ATOM     66  O   UNL     1       3.584  -0.961 -10.805  1.00  0.00    -0.237 OA
ATOM     67  O   UNL     1       5.866  -1.615 -11.476  1.00  0.00    -0.744 OA
ENDBRANCH  60  64
ENDBRANCH  43  57
BRANCH  44  68
ATOM     68  C   UNL     1       2.324   6.857  -0.131  1.00  0.00     0.023 A 
ATOM     69  C   UNL     1       0.989   7.293  -0.037  1.00  0.00     0.031 A 
ATOM     70  C   UNL     1       3.188   7.187   0.929  1.00  0.00     0.131 A 
ATOM     71  C   UNL     1       0.574   8.073   1.057  1.00  0.00     0.055 A 
ATOM     72  C   UNL     1       2.753   7.901   2.049  1.00  0.00     0.041 A 
ATOM     73  F   UNL     1       4.481   6.828   0.889  1.00  0.00    -0.206 F 
ATOM     74  C   UNL     1       1.443   8.361   2.111  1.00  0.00     0.022 A 
BRANCH  71  75
ATOM     75  S   UNL     1      -1.083   8.817   1.026  1.00  0.00     0.124 S 
ATOM     76  O   UNL     1      -1.026   9.614  -0.194  1.00  0.00    -0.237 OA
ATOM     77  O   UNL     1      -1.945   7.641   0.986  1.00  0.00    -0.237 OA
ATOM     78  O   UNL     1      -1.136   9.583   2.270  1.00  0.00    -0.744 OA
ENDBRANCH  71  75
ENDBRANCH  44  68
BRANCH  56  79
ATOM     79  C   UNL     1       2.635   8.838  -6.820  1.00  0.00     0.023 A 
ATOM     80  C   UNL     1       3.268  10.069  -6.566  1.00  0.00     0.031 A 
ATOM     81  C   UNL     1       1.598   8.818  -7.771  1.00  0.00     0.131 A 
ATOM     82  C   UNL     1       2.826  11.233  -7.215  1.00  0.00     0.055 A 
ATOM     83  C   UNL     1       1.203   9.967  -8.458  1.00  0.00     0.041 A 
ATOM     84  F   UNL     1       0.954   7.674  -8.056  1.00  0.00    -0.206 F 
ATOM     85  C   UNL     1       1.810  11.187  -8.173  1.00  0.00     0.022 A 
BRANCH  82  86
ATOM     86  S   UNL     1       3.537  12.831  -6.730  1.00  0.00     0.124 S 
ATOM     87  O   UNL     1       3.236  12.877  -5.303  1.00  0.00    -0.237 OA
ATOM     88  O   UNL     1       4.944  12.666  -7.079  1.00  0.00    -0.237 OA
ATOM     89  O   UNL     1       2.806  13.796  -7.549  1.00  0.00    -0.744 OA
ENDBRANCH  82  86
ENDBRANCH  56  79
ENDBRANCH  30  31
ENDBRANCH  23  25
ENDBRANCH  22  23
ENDBRANCH   1  22
TORSDOF 18
