REMARK SMILES O=C(OCCOC(=O)[C@]1(C2CCCC2)CCOc2ccccc21)c1ccc(-c2c3nc(c(-c4cc(S(=O)(=O)[O-])ccc4F)c4ccc([nH]4)c(-c4cc(S(=O)(=O)[O-])ccc4F)c4nc(c(-c5cc(S(=O)(=O)[O-])ccc5F)c5ccc2[nH]5)C=C4)C=C3)cc1
REMARK SMILES IDX 4 1 3 2 2 3 1 4 24 5 25 6 86 7 26 8 85 9 27 10 28 11 29 12
REMARK SMILES IDX 79 13 30 14 84 15 78 16 80 17 31 18 83 19 77 20 76 21 32 23
REMARK SMILES IDX 64 24 44 25 63 26 45 27 48 28 62 29 81 30 46 31 47 32 61 34
REMARK SMILES IDX 82 35 49 36 33 37 34 38 42 39 35 40 41 41 43 42 40 43 36 44
REMARK SMILES IDX 37 45 38 46 39 47 65 48 66 49 74 50 67 51 73 52 75 53 72 54
REMARK SMILES IDX 68 55 69 56 70 57 71 58 50 59 51 60 59 61 52 62 58 63 60 64
REMARK SMILES IDX 57 65 53 66 54 67 55 68 56 69 5 70 6 71 7 72 8 73 9 74 15 75
REMARK SMILES IDX 23 76 16 77 18 78 22 79 17 80 19 81 21 82 20 83 10 84 11 85
REMARK SMILES IDX 14 86 12 87 13 88
REMARK H PARENT 80 22 48 33
REMARK Flexibility Score: inf
ROOT
ATOM      1  C   UNL     1       4.139   0.940   1.504  1.00  0.00     0.275 C 
ENDROOT
BRANCH   1   2
ATOM      2  O   UNL     1       2.885   1.245   0.877  1.00  0.00    -0.458 OA
BRANCH   2   3
ATOM      3  C   UNL     1       2.493   0.905  -0.373  1.00  0.00     0.338 C 
ATOM      4  O   UNL     1       1.446   1.360  -0.825  1.00  0.00    -0.246 OA
BRANCH   3   5
ATOM      5  C   UNL     1       3.206  -0.125  -1.187  1.00  0.00     0.060 A 
ATOM      6  C   UNL     1       4.789  -0.833  -0.752  1.00  0.00     0.016 A 
ATOM      7  C   UNL     1       2.300  -0.672  -2.610  1.00  0.00     0.016 A 
ATOM      8  C   UNL     1       5.564  -2.133  -1.575  1.00  0.00     0.010 A 
ATOM      9  C   UNL     1       2.995  -2.025  -3.581  1.00  0.00     0.010 A 
ATOM     10  C   UNL     1       4.779  -2.809  -3.019  1.00  0.00    -0.014 A 
BRANCH  10  11
ATOM     11  C   UNL     1       5.803  -3.962  -3.389  1.00  0.00     0.031 A 
ATOM     12  C   UNL     1       6.766  -3.759  -4.502  1.00  0.00     0.074 A 
ATOM     13  C   UNL     1       5.907  -5.120  -2.701  1.00  0.00     0.049 A 
ATOM     14  N   UNL     1       7.098  -4.590  -5.442  1.00  0.00    -0.248 NA
ATOM     15  C   UNL     1       7.338  -2.415  -4.636  1.00  0.00     0.031 C 
ATOM     16  C   UNL     1       5.412  -5.377  -1.357  1.00  0.00     0.029 A 
ATOM     17  N   UNL     1       6.345  -6.355  -3.117  1.00  0.00    -0.354 N 
ATOM     18  C   UNL     1       7.736  -3.810  -6.393  1.00  0.00     0.074 A 
ATOM     19  C   UNL     1       7.743  -2.451  -5.899  1.00  0.00     0.031 C 
ATOM     20  C   UNL     1       5.353  -6.700  -1.139  1.00  0.00     0.029 A 
ATOM     21  C   UNL     1       5.819  -7.371  -2.336  1.00  0.00     0.049 A 
ATOM     22  H   UNL     1       6.956  -6.499  -3.875  1.00  0.00     0.167 HD
ATOM     23  C   UNL     1       8.230  -4.242  -7.573  1.00  0.00     0.034 A 
ATOM     24  C   UNL     1       5.664  -8.679  -2.609  1.00  0.00     0.034 A 
ATOM     25  C   UNL     1       8.377  -5.648  -7.846  1.00  0.00     0.049 A 
ATOM     26  C   UNL     1       6.260  -9.168  -3.900  1.00  0.00     0.074 A 
ATOM     27  C   UNL     1       9.047  -6.256  -8.888  1.00  0.00     0.029 A 
ATOM     28  N   UNL     1       7.899  -6.662  -7.023  1.00  0.00    -0.354 N 
ATOM     29  N   UNL     1       6.781  -8.459  -4.876  1.00  0.00    -0.248 NA
ATOM     30  C   UNL     1       6.323 -10.618  -4.100  1.00  0.00     0.031 C 
ATOM     31  C   UNL     1       8.934  -7.638  -8.720  1.00  0.00     0.029 A 
ATOM     32  C   UNL     1       8.258  -7.892  -7.535  1.00  0.00     0.049 A 
ATOM     33  H   UNL     1       7.381  -6.523  -6.198  1.00  0.00     0.167 HD
ATOM     34  C   UNL     1       7.308  -9.380  -5.768  1.00  0.00     0.074 A 
ATOM     35  C   UNL     1       7.034 -10.693  -5.215  1.00  0.00     0.031 C 
ATOM     36  C   UNL     1       7.976  -9.169  -6.929  1.00  0.00     0.034 A 
BRANCH  23  37
ATOM     37  C   UNL     1       8.633  -3.236  -8.613  1.00  0.00     0.023 A 
ATOM     38  C   UNL     1       9.574  -2.228  -8.367  1.00  0.00     0.031 A 
ATOM     39  C   UNL     1       8.049  -3.287  -9.893  1.00  0.00     0.131 A 
ATOM     40  C   UNL     1       9.842  -1.265  -9.348  1.00  0.00     0.055 A 
ATOM     41  C   UNL     1       8.407  -2.395 -10.905  1.00  0.00     0.041 A 
ATOM     42  F   UNL     1       7.111  -4.203 -10.183  1.00  0.00    -0.206 F 
ATOM     43  C   UNL     1       9.300  -1.365 -10.630  1.00  0.00     0.022 A 
BRANCH  40  44
ATOM     44  S   UNL     1      10.795   0.197  -8.865  1.00  0.00     0.124 S 
ATOM     45  O   UNL     1       9.909   0.809  -7.877  1.00  0.00    -0.237 OA
ATOM     46  O   UNL     1      12.024  -0.384  -8.338  1.00  0.00    -0.237 OA
ATOM     47  O   UNL     1      10.939   0.941 -10.114  1.00  0.00    -0.744 OA
ENDBRANCH  40  44
ENDBRANCH  23  37
BRANCH  24  48
ATOM     48  C   UNL     1       4.955  -9.609  -1.684  1.00  0.00     0.023 A 
ATOM     49  C   UNL     1       5.662 -10.642  -1.055  1.00  0.00     0.031 A 
ATOM     50  C   UNL     1       3.562  -9.559  -1.492  1.00  0.00     0.131 A 
ATOM     51  C   UNL     1       4.975 -11.643  -0.352  1.00  0.00     0.055 A 
ATOM     52  C   UNL     1       2.886 -10.524  -0.734  1.00  0.00     0.041 A 
ATOM     53  F   UNL     1       2.830  -8.586  -2.055  1.00  0.00    -0.206 F 
ATOM     54  C   UNL     1       3.592 -11.588  -0.178  1.00  0.00     0.022 A 
BRANCH  51  55
ATOM     55  S   UNL     1       5.915 -13.095   0.189  1.00  0.00     0.124 S 
ATOM     56  O   UNL     1       6.515 -13.538  -1.064  1.00  0.00    -0.237 OA
ATOM     57  O   UNL     1       6.828 -12.514   1.167  1.00  0.00    -0.237 OA
ATOM     58  O   UNL     1       4.889 -13.978   0.740  1.00  0.00    -0.744 OA
ENDBRANCH  51  55
ENDBRANCH  24  48
BRANCH  36  59
ATOM     59  C   UNL     1       8.500 -10.384  -7.632  1.00  0.00     0.023 A 
ATOM     60  C   UNL     1       7.628 -11.321  -8.199  1.00  0.00     0.031 A 
ATOM     61  C   UNL     1       9.885 -10.585  -7.758  1.00  0.00     0.131 A 
ATOM     62  C   UNL     1       8.151 -12.456  -8.824  1.00  0.00     0.055 A 
ATOM     63  C   UNL     1      10.399 -11.672  -8.460  1.00  0.00     0.041 A 
ATOM     64  F   UNL     1      10.757  -9.715  -7.221  1.00  0.00    -0.206 F 
ATOM     65  C   UNL     1       9.529 -12.622  -8.988  1.00  0.00     0.022 A 
BRANCH  62  66
ATOM     66  S   UNL     1       6.999 -13.758  -9.322  1.00  0.00     0.124 S 
ATOM     67  O   UNL     1       6.389 -14.122  -8.047  1.00  0.00    -0.237 OA
ATOM     68  O   UNL     1       6.132 -13.065 -10.269  1.00  0.00    -0.237 OA
ATOM     69  O   UNL     1       7.870 -14.776  -9.908  1.00  0.00    -0.744 OA
ENDBRANCH  62  66
ENDBRANCH  36  59
ENDBRANCH  10  11
ENDBRANCH   3   5
ENDBRANCH   2   3
ENDBRANCH   1   2
BRANCH   1  70
ATOM     70  C   UNL     1       4.188  -0.451   2.201  1.00  0.00     0.274 C 
BRANCH  70  71
ATOM     71  O   UNL     1       3.901  -1.597   1.344  1.00  0.00    -0.461 OA
BRANCH  71  72
ATOM     72  C   UNL     1       2.604  -1.765   0.977  1.00  0.00     0.317 C 
ATOM     73  O   UNL     1       1.722  -1.318   1.702  1.00  0.00    -0.251 OA
BRANCH  72  74
ATOM     74  C   UNL     1       2.335  -2.571  -0.370  1.00  0.00     0.102 C 
ATOM     75  C   UNL     1       2.525  -4.033   0.130  1.00  0.00     0.065 C 
ATOM     76  C   UNL     1       3.364  -2.389  -1.757  1.00  0.00     0.012 A 
ATOM     77  C   UNL     1       2.216  -5.191  -0.805  1.00  0.00     0.231 C 
ATOM     78  C   UNL     1       2.978  -3.920  -2.671  1.00  0.00     0.123 A 
ATOM     79  C   UNL     1       4.335  -0.973  -2.845  1.00  0.00     0.009 A 
ATOM     80  O   UNL     1       2.314  -4.999  -2.197  1.00  0.00    -0.493 OA
ATOM     81  C   UNL     1       3.401  -4.052  -4.384  1.00  0.00     0.047 A 
ATOM     82  C   UNL     1       4.691  -1.248  -4.580  1.00  0.00     0.001 A 
ATOM     83  C   UNL     1       4.212  -2.766  -5.289  1.00  0.00     0.004 A 
BRANCH  74  84
ATOM     84  C   UNL     1       0.753  -2.334  -0.769  1.00  0.00     0.011 C 
ATOM     85  C   UNL     1       0.093  -3.176  -1.883  1.00  0.00     0.005 C 
ATOM     86  C   UNL     1      -0.324  -2.478   0.331  1.00  0.00     0.005 C 
ATOM     87  C   UNL     1      -1.380  -2.812  -1.852  1.00  0.00     0.000 C 
ATOM     88  C   UNL     1      -1.674  -2.514  -0.394  1.00  0.00     0.000 C 
ENDBRANCH  74  84
ENDBRANCH  72  74
ENDBRANCH  71  72
ENDBRANCH  70  71
ENDBRANCH   1  70
TORSDOF 15
