REMARK SMILES CCC[NH2+][C@]1(C(=O)OCCOC(=O)c2ccc(-c3c4nc(c(-c5cc(S(=O)(=O)[O-])ccc5F)c5ccc([nH]5)c(-c5cc(S(=O)(=O)[O-])ccc5F)c5nc(c(-c6cc(S(=O)(=O)[O-])ccc6F)c6ccc3[nH]6)C=C5)C=C4)cc2)CCC[C@H]([N@@H+]2CCOC(C)(C)C2)C1
REMARK SMILES IDX 9 1 8 2 6 3 7 4 5 5 77 6 89 7 78 8 80 9 79 10 4 11 3 14 2 15
REMARK SMILES IDX 1 16 81 17 82 18 88 19 83 21 85 22 84 23 86 24 87 25 10 26
REMARK SMILES IDX 11 27 12 28 13 29 14 30 15 31 76 32 16 33 75 34 17 35 18 36
REMARK SMILES IDX 19 37 69 38 20 39 74 40 68 41 70 42 21 43 73 44 67 45 66 46
REMARK SMILES IDX 22 48 54 49 34 50 53 51 35 52 38 53 52 54 71 55 36 56 37 57
REMARK SMILES IDX 51 59 72 60 39 61 23 62 24 63 32 64 25 65 31 66 33 67 30 68
REMARK SMILES IDX 26 69 27 70 28 71 29 72 55 73 56 74 64 75 57 76 63 77 65 78
REMARK SMILES IDX 62 79 58 80 59 81 60 82 61 83 40 84 41 85 49 86 42 87 48 88
REMARK SMILES IDX 50 89 47 90 43 91 44 92 45 93 46 94
REMARK H PARENT 4 12 4 13 81 20 70 47 38 58
REMARK Flexibility Score: inf
ROOT
ATOM      1  C   UNL     1      -1.141   0.126   1.080  1.00  0.00     0.274 C 
ENDROOT
BRANCH   1   2
ATOM      2  O   UNL     1      -0.645   0.226   2.431  1.00  0.00    -0.457 OA
BRANCH   2   3
ATOM      3  C   UNL     1      -0.173  -0.903   3.042  1.00  0.00     0.368 C 
ATOM      4  O   UNL     1      -0.217  -2.023   2.548  1.00  0.00    -0.245 OA
BRANCH   3   5
ATOM      5  C   UNL     1       0.528  -0.551   4.397  1.00  0.00     0.200 C 
ATOM      6  C   UNL     1      -0.053   0.761   4.971  1.00  0.00     0.081 C 
ATOM      7  C   UNL     1       0.319  -1.688   5.432  1.00  0.00     0.146 C 
ATOM      8  C   UNL     1       0.365   1.101   6.395  1.00  0.00     0.013 C 
ATOM      9  C   UNL     1       0.826  -1.389   6.882  1.00  0.00     0.191 C 
ATOM     10  C   UNL     1       0.189  -0.070   7.359  1.00  0.00     0.065 C 
BRANCH   5  11
ATOM     11  N   UNL     1       1.971  -0.575   4.183  1.00  0.00    -0.332 N 
ATOM     12  H   UNL     1       2.404  -0.511   5.104  1.00  0.00     0.347 HD
ATOM     13  H   UNL     1       2.108  -1.433   3.649  1.00  0.00     0.347 HD
BRANCH  11  14
ATOM     14  C   UNL     1       2.607   0.421   3.359  1.00  0.00     0.261 C 
BRANCH  14  15
ATOM     15  C   UNL     1       4.122   0.180   3.410  1.00  0.00     0.058 C 
ATOM     16  C   UNL     1       4.538  -1.273   3.162  1.00  0.00     0.010 C 
ENDBRANCH  14  15
ENDBRANCH  11  14
ENDBRANCH   5  11
BRANCH   9  17
ATOM     17  N   UNL     1       2.293  -1.580   7.141  1.00  0.00    -0.328 N 
ATOM     18  C   UNL     1       2.508  -2.182   8.483  1.00  0.00     0.291 C 
ATOM     19  C   UNL     1       3.133  -0.353   7.095  1.00  0.00     0.297 C 
ATOM     20  H   UNL     1       2.589  -2.182   6.372  1.00  0.00     0.348 HD
ATOM     21  C   UNL     1       3.988  -2.337   8.880  1.00  0.00     0.222 C 
ATOM     22  C   UNL     1       4.636  -0.544   7.470  1.00  0.00     0.112 C 
ATOM     23  O   UNL     1       4.703  -1.098   8.800  1.00  0.00    -0.364 OA
ATOM     24  C   UNL     1       5.442  -1.425   6.507  1.00  0.00     0.048 C 
ATOM     25  C   UNL     1       5.309   0.839   7.516  1.00  0.00     0.048 C 
ENDBRANCH   9  17
ENDBRANCH   3   5
ENDBRANCH   2   3
ENDBRANCH   1   2
BRANCH   1  26
ATOM     26  C   UNL     1      -0.556   1.287   0.267  1.00  0.00     0.275 C 
BRANCH  26  27
ATOM     27  O   UNL     1       0.837   1.012   0.029  1.00  0.00    -0.458 OA
BRANCH  27  28
ATOM     28  C   UNL     1       1.643   2.070  -0.257  1.00  0.00     0.338 C 
ATOM     29  O   UNL     1       1.281   3.223  -0.403  1.00  0.00    -0.246 OA
BRANCH  28  30
ATOM     30  C   UNL     1       3.068   1.614  -0.285  1.00  0.00     0.060 A 
ATOM     31  C   UNL     1       3.388   0.278  -0.086  1.00  0.00     0.016 A 
ATOM     32  C   UNL     1       4.120   2.527  -0.403  1.00  0.00     0.016 A 
ATOM     33  C   UNL     1       4.713  -0.097   0.157  1.00  0.00     0.010 A 
ATOM     34  C   UNL     1       5.464   2.109  -0.242  1.00  0.00     0.010 A 
ATOM     35  C   UNL     1       5.797   0.793   0.134  1.00  0.00    -0.014 A 
BRANCH  35  36
ATOM     36  C   UNL     1       7.193   0.397   0.617  1.00  0.00     0.031 A 
ATOM     37  C   UNL     1       8.075   1.403   1.354  1.00  0.00     0.074 A 
ATOM     38  C   UNL     1       7.708  -0.859   0.553  1.00  0.00     0.049 A 
ATOM     39  N   UNL     1       9.383   1.437   1.471  1.00  0.00    -0.248 NA
ATOM     40  C   UNL     1       7.401   2.518   2.037  1.00  0.00     0.031 C 
ATOM     41  C   UNL     1       7.040  -2.056   0.045  1.00  0.00     0.029 A 
ATOM     42  N   UNL     1       8.935  -1.351   0.969  1.00  0.00    -0.354 N 
ATOM     43  C   UNL     1       9.689   2.636   2.114  1.00  0.00     0.074 A 
ATOM     44  C   UNL     1       8.424   3.281   2.400  1.00  0.00     0.031 C 
ATOM     45  C   UNL     1       7.781  -3.139   0.311  1.00  0.00     0.029 A 
ATOM     46  C   UNL     1       9.092  -2.706   0.767  1.00  0.00     0.049 A 
ATOM     47  H   UNL     1       9.632  -0.783   1.372  1.00  0.00     0.167 HD
ATOM     48  C   UNL     1      10.908   3.156   2.415  1.00  0.00     0.034 A 
ATOM     49  C   UNL     1      10.171  -3.518   0.804  1.00  0.00     0.034 A 
ATOM     50  C   UNL     1      12.157   2.438   2.276  1.00  0.00     0.049 A 
ATOM     51  C   UNL     1      11.532  -2.926   1.048  1.00  0.00     0.074 A 
ATOM     52  C   UNL     1      13.447   2.885   2.524  1.00  0.00     0.029 A 
ATOM     53  N   UNL     1      12.271   1.105   1.912  1.00  0.00    -0.354 N 
ATOM     54  N   UNL     1      11.853  -1.691   1.347  1.00  0.00    -0.248 NA
ATOM     55  C   UNL     1      12.682  -3.829   0.894  1.00  0.00     0.031 C 
ATOM     56  C   UNL     1      14.340   1.837   2.267  1.00  0.00     0.029 A 
ATOM     57  C   UNL     1      13.605   0.718   1.921  1.00  0.00     0.049 A 
ATOM     58  H   UNL     1      11.516   0.518   1.681  1.00  0.00     0.167 HD
ATOM     59  C   UNL     1      13.244  -1.668   1.400  1.00  0.00     0.074 A 
ATOM     60  C   UNL     1      13.699  -3.017   1.139  1.00  0.00     0.031 C 
ATOM     61  C   UNL     1      14.068  -0.616   1.631  1.00  0.00     0.034 A 
BRANCH  48  62
ATOM     62  C   UNL     1      10.978   4.609   2.833  1.00  0.00     0.023 A 
ATOM     63  C   UNL     1      10.477   5.089   4.053  1.00  0.00     0.031 A 
ATOM     64  C   UNL     1      11.592   5.536   1.965  1.00  0.00     0.131 A 
ATOM     65  C   UNL     1      10.553   6.463   4.346  1.00  0.00     0.055 A 
ATOM     66  C   UNL     1      11.732   6.884   2.295  1.00  0.00     0.041 A 
ATOM     67  F   UNL     1      12.075   5.141   0.776  1.00  0.00    -0.206 F 
ATOM     68  C   UNL     1      11.200   7.357   3.489  1.00  0.00     0.022 A 
BRANCH  65  69
ATOM     69  S   UNL     1       9.684   7.094   5.809  1.00  0.00     0.124 S 
ATOM     70  O   UNL     1       8.318   6.637   5.562  1.00  0.00    -0.237 OA
ATOM     71  O   UNL     1      10.391   6.437   6.902  1.00  0.00    -0.237 OA
ATOM     72  O   UNL     1       9.873   8.541   5.723  1.00  0.00    -0.744 OA
ENDBRANCH  65  69
ENDBRANCH  48  62
BRANCH  49  73
ATOM     73  C   UNL     1      10.046  -4.957   0.409  1.00  0.00     0.023 A 
ATOM     74  C   UNL     1      10.370  -5.995   1.297  1.00  0.00     0.031 A 
ATOM     75  C   UNL     1       9.639  -5.311  -0.893  1.00  0.00     0.131 A 
ATOM     76  C   UNL     1      10.289  -7.331   0.867  1.00  0.00     0.055 A 
ATOM     77  C   UNL     1       9.488  -6.638  -1.290  1.00  0.00     0.041 A 
ATOM     78  F   UNL     1       9.349  -4.360  -1.797  1.00  0.00    -0.206 F 
ATOM     79  C   UNL     1       9.823  -7.658  -0.409  1.00  0.00     0.022 A 
BRANCH  76  80
ATOM     80  S   UNL     1      10.882  -8.645   1.969  1.00  0.00     0.124 S 
ATOM     81  O   UNL     1      12.289  -8.290   2.120  1.00  0.00    -0.237 OA
ATOM     82  O   UNL     1      10.042  -8.459   3.147  1.00  0.00    -0.237 OA
ATOM     83  O   UNL     1      10.625  -9.867   1.210  1.00  0.00    -0.744 OA
ENDBRANCH  76  80
ENDBRANCH  49  73
BRANCH  61  84
ATOM     84  C   UNL     1      15.549  -0.899   1.638  1.00  0.00     0.023 A 
ATOM     85  C   UNL     1      16.237  -1.236   0.458  1.00  0.00     0.031 A 
ATOM     86  C   UNL     1      16.270  -0.881   2.844  1.00  0.00     0.131 A 
ATOM     87  C   UNL     1      17.593  -1.594   0.519  1.00  0.00     0.055 A 
ATOM     88  C   UNL     1      17.630  -1.190   2.891  1.00  0.00     0.041 A 
ATOM     89  F   UNL     1      15.660  -0.572   3.999  1.00  0.00    -0.206 F 
ATOM     90  C   UNL     1      18.296  -1.562   1.726  1.00  0.00     0.022 A 
BRANCH  87  91
ATOM     91  S   UNL     1      18.407  -2.191  -0.989  1.00  0.00     0.124 S 
ATOM     92  O   UNL     1      17.589  -3.348  -1.339  1.00  0.00    -0.237 OA
ATOM     93  O   UNL     1      18.298  -1.041  -1.880  1.00  0.00    -0.237 OA
ATOM     94  O   UNL     1      19.765  -2.504  -0.546  1.00  0.00    -0.744 OA
ENDBRANCH  87  91
ENDBRANCH  61  84
ENDBRANCH  35  36
ENDBRANCH  28  30
ENDBRANCH  27  28
ENDBRANCH  26  27
ENDBRANCH   1  26
TORSDOF 18
