REMARK SMILES C[C@@]1(CN2C(=O)c3ccc(C(=O)OCCOC(=O)c4ccc(-c5c6nc(c(-c7cc(S(=O)(=O)[O-])ccc7F)c7ccc([nH]7)c(-c7cc(S(=O)(=O)[O-])ccc7F)c7nc(c(-c8cc(S(=O)(=O)[O-])ccc8F)c8ccc5[nH]8)C=C7)C=C6)cc4)cc3C2=O)CCCO1
REMARK SMILES IDX 15 1 14 2 13 3 11 4 12 5 10 6 4 7 5 8 84 9 6 10 7 11 83 12
REMARK SMILES IDX 85 13 8 14 82 15 9 16 3 17 2 18 1 19 86 20 89 21 87 22 88 23
REMARK SMILES IDX 16 24 17 25 18 26 19 27 20 28 81 29 21 30 80 31 22 32 23 33
REMARK SMILES IDX 24 34 74 35 25 36 79 37 73 38 75 39 26 40 78 41 72 42 71 43
REMARK SMILES IDX 27 45 59 46 39 47 58 48 40 49 43 50 57 51 76 52 41 53 42 54
REMARK SMILES IDX 56 56 77 57 44 58 28 59 29 60 37 61 30 62 36 63 38 64 35 65
REMARK SMILES IDX 31 66 32 67 33 68 34 69 60 70 61 71 69 72 62 73 68 74 70 75
REMARK SMILES IDX 67 76 63 77 64 78 65 79 66 80 45 81 46 82 54 83 47 84 53 85
REMARK SMILES IDX 55 86 52 87 48 88 49 89 50 90 51 91
REMARK H PARENT 75 44 43 55
REMARK Flexibility Score: inf
ROOT
ATOM      1  C   UNL     1      -6.758   7.369  -1.606  1.00  0.00     0.275 C 
ENDROOT
BRANCH   1   2
ATOM      2  C   UNL     1      -5.290   7.712  -1.878  1.00  0.00     0.275 C 
BRANCH   2   3
ATOM      3  O   UNL     1      -4.465   6.529  -1.945  1.00  0.00    -0.458 OA
BRANCH   3   4
ATOM      4  C   UNL     1      -3.654   6.307  -0.880  1.00  0.00     0.338 C 
ATOM      5  O   UNL     1      -3.541   7.020   0.103  1.00  0.00    -0.246 OA
BRANCH   4   6
ATOM      6  C   UNL     1      -2.969   4.993  -0.999  1.00  0.00     0.060 A 
ATOM      7  N   UNL     1      -1.301   0.957   0.440  1.00  0.00    -0.271 N 
ATOM      8  C   UNL     1      -1.232   1.166  -0.913  1.00  0.00     0.261 C 
ATOM      9  C   UNL     1      -1.904   2.003   1.078  1.00  0.00     0.261 C 
ATOM     10  O   UNL     1      -0.809   0.443  -1.792  1.00  0.00    -0.269 OA
ATOM     11  C   UNL     1      -1.787   2.498  -1.160  1.00  0.00     0.053 A 
ATOM     12  C   UNL     1      -2.174   3.010   0.058  1.00  0.00     0.054 A 
ATOM     13  O   UNL     1      -2.245   2.129   2.241  1.00  0.00    -0.269 OA
ATOM     14  C   UNL     1      -1.944   3.215  -2.333  1.00  0.00     0.015 A 
ATOM     15  C   UNL     1      -2.726   4.268   0.178  1.00  0.00     0.030 A 
ATOM     16  C   UNL     1      -2.562   4.473  -2.249  1.00  0.00     0.016 A 
BRANCH   7  17
ATOM     17  C   UNL     1      -0.852  -0.254   1.117  1.00  0.00     0.164 C 
BRANCH  17  18
ATOM     18  C   UNL     1       0.672  -0.281   1.428  1.00  0.00     0.084 C 
ATOM     19  C   UNL     1       1.533  -0.114   0.176  1.00  0.00     0.044 C 
ATOM     20  C   UNL     1       1.051  -1.570   2.168  1.00  0.00     0.039 C 
ATOM     21  O   UNL     1       0.999   0.797   2.331  1.00  0.00    -0.373 OA
ATOM     22  C   UNL     1       0.881  -1.195   3.619  1.00  0.00     0.031 C 
ATOM     23  C   UNL     1       1.293   0.260   3.629  1.00  0.00     0.161 C 
ENDBRANCH  17  18
ENDBRANCH   7  17
ENDBRANCH   4   6
ENDBRANCH   3   4
ENDBRANCH   2   3
ENDBRANCH   1   2
BRANCH   1  24
ATOM     24  O   UNL     1      -6.932   6.858  -0.271  1.00  0.00    -0.458 OA
BRANCH  24  25
ATOM     25  C   UNL     1      -7.059   5.514  -0.194  1.00  0.00     0.338 C 
ATOM     26  O   UNL     1      -7.073   4.722  -1.122  1.00  0.00    -0.246 OA
BRANCH  25  27
ATOM     27  C   UNL     1      -7.044   5.073   1.208  1.00  0.00     0.060 A 
ATOM     28  C   UNL     1      -5.799   4.866   1.784  1.00  0.00     0.016 A 
ATOM     29  C   UNL     1      -8.194   4.648   1.867  1.00  0.00     0.016 A 
ATOM     30  C   UNL     1      -5.673   4.104   2.939  1.00  0.00     0.010 A 
ATOM     31  C   UNL     1      -8.073   4.002   3.108  1.00  0.00     0.010 A 
ATOM     32  C   UNL     1      -6.808   3.674   3.638  1.00  0.00    -0.014 A 
BRANCH  32  33
ATOM     33  C   UNL     1      -6.654   2.860   4.886  1.00  0.00     0.031 A 
ATOM     34  C   UNL     1      -7.333   1.516   5.014  1.00  0.00     0.074 A 
ATOM     35  C   UNL     1      -5.880   3.305   5.902  1.00  0.00     0.049 A 
ATOM     36  N   UNL     1      -7.450   0.740   6.063  1.00  0.00    -0.248 NA
ATOM     37  C   UNL     1      -7.985   0.982   3.808  1.00  0.00     0.031 C 
ATOM     38  C   UNL     1      -5.122   4.559   5.902  1.00  0.00     0.029 A 
ATOM     39  N   UNL     1      -5.591   2.754   7.128  1.00  0.00    -0.354 N 
ATOM     40  C   UNL     1      -8.235  -0.338   5.661  1.00  0.00     0.074 A 
ATOM     41  C   UNL     1      -8.580  -0.106   4.275  1.00  0.00     0.031 C 
ATOM     42  C   UNL     1      -4.421   4.655   7.040  1.00  0.00     0.029 A 
ATOM     43  C   UNL     1      -4.769   3.538   7.907  1.00  0.00     0.049 A 
ATOM     44  H   UNL     1      -5.939   1.881   7.422  1.00  0.00     0.167 HD
ATOM     45  C   UNL     1      -8.629  -1.417   6.384  1.00  0.00     0.034 A 
ATOM     46  C   UNL     1      -4.380   3.417   9.193  1.00  0.00     0.034 A 
ATOM     47  C   UNL     1      -8.230  -1.658   7.752  1.00  0.00     0.049 A 
ATOM     48  C   UNL     1      -4.876   2.239   9.989  1.00  0.00     0.074 A 
ATOM     49  C   UNL     1      -8.540  -2.739   8.559  1.00  0.00     0.029 A 
ATOM     50  N   UNL     1      -7.435  -0.812   8.515  1.00  0.00    -0.354 N 
ATOM     51  N   UNL     1      -5.649   1.249   9.605  1.00  0.00    -0.248 NA
ATOM     52  C   UNL     1      -4.455   2.163  11.394  1.00  0.00     0.031 C 
ATOM     53  C   UNL     1      -8.009  -2.506   9.831  1.00  0.00     0.029 A 
ATOM     54  C   UNL     1      -7.281  -1.328   9.794  1.00  0.00     0.049 A 
ATOM     55  H   UNL     1      -7.038   0.030   8.195  1.00  0.00     0.167 HD
ATOM     56  C   UNL     1      -5.785   0.422  10.716  1.00  0.00     0.074 A 
ATOM     57  C   UNL     1      -4.996   1.016  11.775  1.00  0.00     0.031 C 
ATOM     58  C   UNL     1      -6.499  -0.725  10.848  1.00  0.00     0.034 A 
BRANCH  45  59
ATOM     59  C   UNL     1      -9.594  -2.388   5.740  1.00  0.00     0.023 A 
ATOM     60  C   UNL     1      -9.257  -3.158   4.614  1.00  0.00     0.031 A 
ATOM     61  C   UNL     1     -10.886  -2.545   6.278  1.00  0.00     0.131 A 
ATOM     62  C   UNL     1     -10.216  -4.001   4.029  1.00  0.00     0.055 A 
ATOM     63  C   UNL     1     -11.808  -3.446   5.740  1.00  0.00     0.041 A 
ATOM     64  F   UNL     1     -11.277  -1.822   7.339  1.00  0.00    -0.206 F 
ATOM     65  C   UNL     1     -11.479  -4.171   4.601  1.00  0.00     0.022 A 
BRANCH  62  66
ATOM     66  S   UNL     1      -9.838  -4.774   2.432  1.00  0.00     0.124 S 
ATOM     67  O   UNL     1      -9.575  -3.607   1.593  1.00  0.00    -0.237 OA
ATOM     68  O   UNL     1      -8.684  -5.607   2.748  1.00  0.00    -0.237 OA
ATOM     69  O   UNL     1     -11.063  -5.503   2.104  1.00  0.00    -0.744 OA
ENDBRANCH  62  66
ENDBRANCH  45  59
BRANCH  46  70
ATOM     70  C   UNL     1      -3.552   4.482   9.838  1.00  0.00     0.023 A 
ATOM     71  C   UNL     1      -2.291   4.197  10.386  1.00  0.00     0.031 A 
ATOM     72  C   UNL     1      -4.040   5.796   9.967  1.00  0.00     0.131 A 
ATOM     73  C   UNL     1      -1.587   5.197  11.078  1.00  0.00     0.055 A 
ATOM     74  C   UNL     1      -3.303   6.805  10.588  1.00  0.00     0.041 A 
ATOM     75  F   UNL     1      -5.245   6.126   9.475  1.00  0.00    -0.206 F 
ATOM     76  C   UNL     1      -2.075   6.503  11.164  1.00  0.00     0.022 A 
BRANCH  73  77
ATOM     77  S   UNL     1      -0.077   4.737  11.972  1.00  0.00     0.124 S 
ATOM     78  O   UNL     1      -0.564   3.679  12.850  1.00  0.00    -0.237 OA
ATOM     79  O   UNL     1       0.803   4.316  10.888  1.00  0.00    -0.237 OA
ATOM     80  O   UNL     1       0.311   5.975  12.644  1.00  0.00    -0.744 OA
ENDBRANCH  73  77
ENDBRANCH  46  70
BRANCH  58  81
ATOM     81  C   UNL     1      -6.409  -1.440  12.174  1.00  0.00     0.023 A 
ATOM     82  C   UNL     1      -6.909  -0.874  13.360  1.00  0.00     0.031 A 
ATOM     83  C   UNL     1      -5.795  -2.703  12.254  1.00  0.00     0.131 A 
ATOM     84  C   UNL     1      -6.730  -1.540  14.582  1.00  0.00     0.055 A 
ATOM     85  C   UNL     1      -5.685  -3.394  13.461  1.00  0.00     0.041 A 
ATOM     86  F   UNL     1      -5.293  -3.290  11.155  1.00  0.00    -0.206 F 
ATOM     87  C   UNL     1      -6.141  -2.806  14.637  1.00  0.00     0.022 A 
BRANCH  84  88
ATOM     88  S   UNL     1      -7.179  -0.683  16.116  1.00  0.00     0.124 S 
ATOM     89  O   UNL     1      -6.355   0.519  16.044  1.00  0.00    -0.237 OA
ATOM     90  O   UNL     1      -8.615  -0.482  15.953  1.00  0.00    -0.237 OA
ATOM     91  O   UNL     1      -6.802  -1.631  17.162  1.00  0.00    -0.744 OA
ENDBRANCH  84  88
ENDBRANCH  58  81
ENDBRANCH  32  33
ENDBRANCH  25  27
ENDBRANCH  24  25
ENDBRANCH   1  24
TORSDOF 16
