REMARK SMILES C[C@@H]1[C@@H](C(=O)OCCOC(=O)c2ccc(-c3c4nc(c(-c5cc(S(=O)(=O)[O-])ccc5F)c5ccc([nH]5)c(-c5cc(S(=O)(=O)[O-])ccc5F)c5nc(c(-c6cc(S(=O)(=O)[O-])ccc6F)c6ccc3[nH]6)C=C5)C=C4)cc2)CCN1C(=O)NC[C@@H]1COCCO1
REMARK SMILES IDX 7 1 6 2 4 3 5 4 3 5 1 6 2 7 77 8 75 9 76 10 78 11 79 12
REMARK SMILES IDX 80 13 81 15 82 16 83 17 87 18 84 19 86 20 85 21 8 22 9 23
REMARK SMILES IDX 10 24 11 25 12 26 13 27 74 28 14 29 73 30 15 31 16 32 17 33
REMARK SMILES IDX 67 34 18 35 72 36 66 37 68 38 19 39 71 40 65 41 64 42 20 44
REMARK SMILES IDX 52 45 32 46 51 47 33 48 36 49 50 50 69 51 34 52 35 53 49 55
REMARK SMILES IDX 70 56 37 57 21 58 22 59 30 60 23 61 29 62 31 63 28 64 24 65
REMARK SMILES IDX 25 66 26 67 27 68 53 69 54 70 62 71 55 72 61 73 63 74 60 75
REMARK SMILES IDX 56 76 57 77 58 78 59 79 38 80 39 81 47 82 40 83 46 84 48 85
REMARK SMILES IDX 45 86 41 87 42 88 43 89 44 90
REMARK H PARENT 80 14 68 43 36 54
REMARK Flexibility Score: inf
ROOT
ATOM      1  C   UNL     1      -2.261   2.223  -3.359  1.00  0.00     0.274 C 
ENDROOT
BRANCH   1   2
ATOM      2  O   UNL     1      -1.780   2.103  -2.004  1.00  0.00    -0.462 OA
BRANCH   2   3
ATOM      3  C   UNL     1      -1.143   0.934  -1.706  1.00  0.00     0.311 C 
ATOM      4  O   UNL     1      -0.983   0.012  -2.491  1.00  0.00    -0.252 OA
BRANCH   3   5
ATOM      5  C   UNL     1      -0.662   0.948  -0.264  1.00  0.00     0.123 C 
ATOM      6  C   UNL     1       1.397   0.340   1.078  1.00  0.00     0.032 C 
ATOM      7  C   UNL     1       0.443  -0.098  -0.037  1.00  0.00     0.098 C 
ATOM      8  N   UNL     1      -0.262  -1.323   0.326  1.00  0.00    -0.321 N 
ATOM      9  C   UNL     1      -1.762   0.496   0.685  1.00  0.00     0.039 C 
ATOM     10  C   UNL     1      -1.648  -1.024   0.661  1.00  0.00     0.122 C 
BRANCH   8  11
ATOM     11  C   UNL     1       0.111  -2.632   0.262  1.00  0.00     0.317 C 
ATOM     12  O   UNL     1      -0.680  -3.522   0.597  1.00  0.00    -0.249 OA
ATOM     13  N   UNL     1       1.318  -3.044  -0.163  1.00  0.00    -0.335 N 
ATOM     14  H   UNL     1       1.405  -4.023  -0.098  1.00  0.00     0.165 HD
BRANCH  13  15
ATOM     15  C   UNL     1       2.535  -2.439  -0.693  1.00  0.00     0.152 C 
BRANCH  15  16
ATOM     16  C   UNL     1       3.785  -2.852   0.096  1.00  0.00     0.163 C 
ATOM     17  C   UNL     1       4.893  -1.801  -0.072  1.00  0.00     0.194 C 
ATOM     18  O   UNL     1       4.235  -4.127  -0.395  1.00  0.00    -0.372 OA
ATOM     19  O   UNL     1       6.063  -2.200   0.647  1.00  0.00    -0.376 OA
ATOM     20  C   UNL     1       5.457  -4.521   0.254  1.00  0.00     0.189 C 
ATOM     21  C   UNL     1       6.539  -3.447   0.116  1.00  0.00     0.188 C 
ENDBRANCH  15  16
ENDBRANCH  13  15
ENDBRANCH   8  11
ENDBRANCH   3   5
ENDBRANCH   2   3
ENDBRANCH   1   2
BRANCH   1  22
ATOM     22  C   UNL     1      -1.306   3.066  -4.202  1.00  0.00     0.275 C 
BRANCH  22  23
ATOM     23  O   UNL     1      -0.051   2.378  -4.349  1.00  0.00    -0.458 OA
BRANCH  23  24
ATOM     24  C   UNL     1       1.058   3.082  -4.031  1.00  0.00     0.338 C 
ATOM     25  O   UNL     1       1.119   4.251  -3.679  1.00  0.00    -0.246 OA
BRANCH  24  26
ATOM     26  C   UNL     1       2.234   2.205  -4.137  1.00  0.00     0.060 A 
ATOM     27  C   UNL     1       2.350   1.131  -3.259  1.00  0.00     0.016 A 
ATOM     28  C   UNL     1       3.270   2.497  -5.023  1.00  0.00     0.016 A 
ATOM     29  C   UNL     1       3.521   0.377  -3.225  1.00  0.00     0.010 A 
ATOM     30  C   UNL     1       4.422   1.696  -5.030  1.00  0.00     0.010 A 
ATOM     31  C   UNL     1       4.574   0.642  -4.110  1.00  0.00    -0.014 A 
BRANCH  31  32
ATOM     32  C   UNL     1       5.854  -0.118  -3.994  1.00  0.00     0.031 A 
ATOM     33  C   UNL     1       7.122   0.607  -3.618  1.00  0.00     0.074 A 
ATOM     34  C   UNL     1       5.888  -1.460  -4.135  1.00  0.00     0.049 A 
ATOM     35  N   UNL     1       8.357   0.176  -3.611  1.00  0.00    -0.248 NA
ATOM     36  C   UNL     1       6.972   2.007  -3.193  1.00  0.00     0.031 C 
ATOM     37  C   UNL     1       4.729  -2.317  -4.388  1.00  0.00     0.029 A 
ATOM     38  N   UNL     1       6.938  -2.345  -4.054  1.00  0.00    -0.354 N 
ATOM     39  C   UNL     1       9.138   1.262  -3.227  1.00  0.00     0.074 A 
ATOM     40  C   UNL     1       8.232   2.372  -3.015  1.00  0.00     0.031 C 
ATOM     41  C   UNL     1       5.123  -3.600  -4.393  1.00  0.00     0.029 A 
ATOM     42  C   UNL     1       6.574  -3.659  -4.246  1.00  0.00     0.049 A 
ATOM     43  H   UNL     1       7.865  -2.064  -3.876  1.00  0.00     0.167 HD
ATOM     44  C   UNL     1      10.484   1.330  -3.072  1.00  0.00     0.034 A 
ATOM     45  C   UNL     1       7.323  -4.777  -4.340  1.00  0.00     0.034 A 
ATOM     46  C   UNL     1      11.378   0.213  -3.255  1.00  0.00     0.049 A 
ATOM     47  C   UNL     1       8.825  -4.662  -4.258  1.00  0.00     0.074 A 
ATOM     48  C   UNL     1      12.761   0.188  -3.178  1.00  0.00     0.029 A 
ATOM     49  N   UNL     1      10.977  -1.086  -3.535  1.00  0.00    -0.354 N 
ATOM     50  N   UNL     1       9.562  -3.602  -4.021  1.00  0.00    -0.248 NA
ATOM     51  C   UNL     1       9.598  -5.893  -4.482  1.00  0.00     0.031 C 
ATOM     52  C   UNL     1      13.196  -1.113  -3.458  1.00  0.00     0.029 A 
ATOM     53  C   UNL     1      12.083  -1.914  -3.650  1.00  0.00     0.049 A 
ATOM     54  H   UNL     1      10.042  -1.377  -3.637  1.00  0.00     0.167 HD
ATOM     55  C   UNL     1      10.882  -4.042  -4.062  1.00  0.00     0.074 A 
ATOM     56  C   UNL     1      10.841  -5.466  -4.316  1.00  0.00     0.031 C 
ATOM     57  C   UNL     1      12.028  -3.331  -3.912  1.00  0.00     0.034 A 
BRANCH  44  58
ATOM     58  C   UNL     1      11.072   2.686  -2.766  1.00  0.00     0.023 A 
ATOM     59  C   UNL     1      10.846   3.338  -1.543  1.00  0.00     0.031 A 
ATOM     60  C   UNL     1      11.834   3.353  -3.742  1.00  0.00     0.131 A 
ATOM     61  C   UNL     1      11.321   4.646  -1.353  1.00  0.00     0.055 A 
ATOM     62  C   UNL     1      12.366   4.624  -3.518  1.00  0.00     0.041 A 
ATOM     63  F   UNL     1      12.061   2.786  -4.937  1.00  0.00    -0.206 F 
ATOM     64  C   UNL     1      12.098   5.284  -2.323  1.00  0.00     0.022 A 
BRANCH  61  65
ATOM     65  S   UNL     1      10.791   5.557   0.123  1.00  0.00     0.124 S 
ATOM     66  O   UNL     1       9.337   5.536  -0.023  1.00  0.00    -0.237 OA
ATOM     67  O   UNL     1      11.337   4.749   1.206  1.00  0.00    -0.237 OA
ATOM     68  O   UNL     1      11.406   6.872  -0.046  1.00  0.00    -0.744 OA
ENDBRANCH  61  65
ENDBRANCH  44  58
BRANCH  45  69
ATOM     69  C   UNL     1       6.690  -6.102  -4.608  1.00  0.00     0.023 A 
ATOM     70  C   UNL     1       6.822  -7.162  -3.698  1.00  0.00     0.031 A 
ATOM     71  C   UNL     1       6.014  -6.352  -5.816  1.00  0.00     0.131 A 
ATOM     72  C   UNL     1       6.326  -8.434  -4.028  1.00  0.00     0.055 A 
ATOM     73  C   UNL     1       5.469  -7.602  -6.114  1.00  0.00     0.041 A 
ATOM     74  F   UNL     1       5.873  -5.378  -6.730  1.00  0.00    -0.206 F 
ATOM     75  C   UNL     1       5.636  -8.656  -5.222  1.00  0.00     0.022 A 
BRANCH  72  76
ATOM     76  S   UNL     1       6.688  -9.821  -2.917  1.00  0.00     0.124 S 
ATOM     77  O   UNL     1       8.146  -9.824  -2.914  1.00  0.00    -0.237 OA
ATOM     78  O   UNL     1       6.047  -9.393  -1.678  1.00  0.00    -0.237 OA
ATOM     79  O   UNL     1       6.061 -10.962  -3.581  1.00  0.00    -0.744 OA
ENDBRANCH  72  76
ENDBRANCH  45  69
BRANCH  57  80
ATOM     80  C   UNL     1      13.323  -4.099  -3.984  1.00  0.00     0.023 A 
ATOM     81  C   UNL     1      13.791  -4.644  -5.192  1.00  0.00     0.031 A 
ATOM     82  C   UNL     1      14.091  -4.300  -2.823  1.00  0.00     0.131 A 
ATOM     83  C   UNL     1      14.971  -5.404  -5.205  1.00  0.00     0.055 A 
ATOM     84  C   UNL     1      15.287  -5.019  -2.850  1.00  0.00     0.041 A 
ATOM     85  F   UNL     1      13.688  -3.802  -1.644  1.00  0.00    -0.206 F 
ATOM     86  C   UNL     1      15.727  -5.584  -4.044  1.00  0.00     0.022 A 
BRANCH  83  87
ATOM     87  S   UNL     1      15.470  -6.216  -6.749  1.00  0.00     0.124 S 
ATOM     88  O   UNL     1      14.325  -7.080  -7.022  1.00  0.00    -0.237 OA
ATOM     89  O   UNL     1      15.646  -5.085  -7.654  1.00  0.00    -0.237 OA
ATOM     90  O   UNL     1      16.701  -6.916  -6.386  1.00  0.00    -0.744 OA
ENDBRANCH  83  87
ENDBRANCH  57  80
ENDBRANCH  31  32
ENDBRANCH  24  26
ENDBRANCH  23  24
ENDBRANCH  22  23
ENDBRANCH   1  22
TORSDOF 17
