REMARK SMILES CO[C@@H]1C[NH2+][C@@H](O[C@@H]2C[C@@H](C(=O)OCCOC(=O)c3ccc(-c4c5nc(c(-c6cc(S(=O)(=O)[O-])ccc6F)c6ccc([nH]6)c(-c6cc(S(=O)(=O)[O-])ccc6F)c6nc(c(-c7cc(S(=O)(=O)[O-])ccc7F)c7ccc4[nH]7)C=C6)C=C5)cc3)N(C(=O)OC(C)(C)C)C2)c2cc(Cl)ccc21
REMARK SMILES IDX 14 1 13 2 11 3 12 4 10 5 8 6 9 7 90 8 82 9 7 10 6 11 3 12
REMARK SMILES IDX 4 13 97 14 5 15 91 16 96 17 92 20 95 21 93 22 94 23 2 24
REMARK SMILES IDX 1 25 83 26 84 27 85 28 86 29 87 30 88 31 89 32 15 33 16 34
REMARK SMILES IDX 17 35 18 36 19 37 20 38 81 39 21 40 80 41 22 42 23 43 24 44
REMARK SMILES IDX 74 45 25 46 79 47 73 48 75 49 26 50 78 51 72 52 71 53 27 55
REMARK SMILES IDX 59 56 39 57 58 58 40 59 43 60 57 61 76 62 41 63 42 64 56 66
REMARK SMILES IDX 77 67 44 68 28 69 29 70 37 71 30 72 36 73 38 74 35 75 31 76
REMARK SMILES IDX 32 77 33 78 34 79 60 80 61 81 69 82 62 83 68 84 70 85 67 86
REMARK SMILES IDX 63 87 64 88 65 89 66 90 45 91 46 92 54 93 47 94 53 95 55 96
REMARK SMILES IDX 52 97 48 98 49 99 50 100 51 101
REMARK H PARENT 5 18 5 19 75 54 43 65
REMARK Flexibility Score: inf
ROOT
ATOM      1  C   UNL     1       1.220   4.252   5.498  1.00  0.00     0.274 C 
ENDROOT
BRANCH   1   2
ATOM      2  O   UNL     1       2.111   3.155   5.150  1.00  0.00    -0.461 OA
BRANCH   2   3
ATOM      3  C   UNL     1       1.664   1.954   5.621  1.00  0.00     0.329 C 
ATOM      4  O   UNL     1       0.888   1.881   6.575  1.00  0.00    -0.250 OA
BRANCH   3   5
ATOM      5  C   UNL     1       1.975   0.721   4.722  1.00  0.00     0.201 C 
ATOM      6  C   UNL     1       2.504  -1.684   5.008  1.00  0.00     0.147 C 
ATOM      7  C   UNL     1       1.697  -0.537   5.592  1.00  0.00     0.071 C 
ATOM      8  C   UNL     1       3.651  -0.984   4.282  1.00  0.00     0.156 C 
ATOM      9  N   UNL     1       3.251   0.408   4.053  1.00  0.00    -0.292 N 
BRANCH   6  10
ATOM     10  O   UNL     1       1.906  -2.817   4.393  1.00  0.00    -0.320 OA
BRANCH  10  11
ATOM     11  C   UNL     1       0.825  -2.889   3.473  1.00  0.00     0.354 C 
ATOM     12  C   UNL     1       0.358  -0.620   1.670  1.00  0.00     0.203 C 
ATOM     13  C   UNL     1       1.526  -1.632   1.543  1.00  0.00     0.300 C 
ATOM     14  C   UNL     1      -0.542  -0.846   2.889  1.00  0.00    -0.002 A 
ATOM     15  N   UNL     1       1.276  -2.949   2.098  1.00  0.00    -0.315 N 
ATOM     16  C   UNL     1      -0.354  -1.980   3.696  1.00  0.00     0.046 A 
ATOM     17  C   UNL     1      -1.563   0.054   3.255  1.00  0.00     0.009 A 
ATOM     18  H   UNL     1       2.139  -3.490   2.059  1.00  0.00     0.349 HD
ATOM     19  H   UNL     1       0.537  -3.385   1.546  1.00  0.00     0.349 HD
ATOM     20  C   UNL     1      -1.258  -2.259   4.743  1.00  0.00     0.033 A 
ATOM     21  C   UNL     1      -2.397  -0.180   4.353  1.00  0.00     0.021 A 
ATOM     22  C   UNL     1      -2.267  -1.359   5.070  1.00  0.00     0.041 A 
ATOM     23  Cl  UNL     1      -3.322  -1.688   6.386  1.00  0.00    -0.084 Cl
BRANCH  12  24
ATOM     24  O   UNL     1      -0.461  -0.576   0.498  1.00  0.00    -0.371 OA
ATOM     25  C   UNL     1       0.247  -0.253  -0.700  1.00  0.00     0.196 C 
ENDBRANCH  12  24
ENDBRANCH  10  11
ENDBRANCH   6  10
BRANCH   9  26
ATOM     26  C   UNL     1       3.916   1.083   3.039  1.00  0.00     0.411 C 
ATOM     27  O   UNL     1       4.878   0.583   2.482  1.00  0.00    -0.224 OA
BRANCH  26  28
ATOM     28  O   UNL     1       3.424   2.316   2.727  1.00  0.00    -0.444 OA
BRANCH  28  29
ATOM     29  C   UNL     1       4.085   3.086   1.671  1.00  0.00     0.106 C 
ATOM     30  C   UNL     1       5.555   3.367   2.017  1.00  0.00     0.056 C 
ATOM     31  C   UNL     1       3.917   2.414   0.301  1.00  0.00     0.056 C 
ATOM     32  C   UNL     1       3.397   4.455   1.580  1.00  0.00     0.056 C 
ENDBRANCH  28  29
ENDBRANCH  26  28
ENDBRANCH   9  26
ENDBRANCH   3   5
ENDBRANCH   2   3
ENDBRANCH   1   2
BRANCH   1  33
ATOM     33  C   UNL     1       1.251   5.410   4.469  1.00  0.00     0.275 C 
BRANCH  33  34
ATOM     34  O   UNL     1       0.399   5.335   3.281  1.00  0.00    -0.458 OA
BRANCH  34  35
ATOM     35  C   UNL     1       0.292   4.138   2.676  1.00  0.00     0.338 C 
ATOM     36  O   UNL     1       0.780   3.103   3.107  1.00  0.00    -0.246 OA
BRANCH  35  37
ATOM     37  C   UNL     1      -0.514   4.054   1.434  1.00  0.00     0.060 A 
ATOM     38  C   UNL     1      -1.055   5.065   0.646  1.00  0.00     0.016 A 
ATOM     39  C   UNL     1      -0.755   2.736   1.059  1.00  0.00     0.016 A 
ATOM     40  C   UNL     1      -1.930   4.723  -0.419  1.00  0.00     0.010 A 
ATOM     41  C   UNL     1      -1.630   2.391   0.058  1.00  0.00     0.010 A 
ATOM     42  C   UNL     1      -2.270   3.381  -0.663  1.00  0.00    -0.014 A 
BRANCH  42  43
ATOM     43  C   UNL     1      -3.335   2.869  -1.554  1.00  0.00     0.031 A 
ATOM     44  C   UNL     1      -4.612   2.354  -0.932  1.00  0.00     0.074 A 
ATOM     45  C   UNL     1      -3.039   2.531  -2.823  1.00  0.00     0.049 A 
ATOM     46  N   UNL     1      -5.661   1.828  -1.506  1.00  0.00    -0.248 NA
ATOM     47  C   UNL     1      -4.685   2.375   0.542  1.00  0.00     0.031 C 
ATOM     48  C   UNL     1      -1.730   2.703  -3.450  1.00  0.00     0.029 A 
ATOM     49  N   UNL     1      -3.796   1.911  -3.784  1.00  0.00    -0.354 N 
ATOM     50  C   UNL     1      -6.529   1.497  -0.469  1.00  0.00     0.074 A 
ATOM     51  C   UNL     1      -5.833   1.755   0.768  1.00  0.00     0.031 C 
ATOM     52  C   UNL     1      -1.778   2.210  -4.699  1.00  0.00     0.029 A 
ATOM     53  C   UNL     1      -3.127   1.708  -4.966  1.00  0.00     0.049 A 
ATOM     54  H   UNL     1      -4.731   1.638  -3.640  1.00  0.00     0.167 HD
ATOM     55  C   UNL     1      -7.816   1.079  -0.548  1.00  0.00     0.034 A 
ATOM     56  C   UNL     1      -3.567   1.213  -6.142  1.00  0.00     0.034 A 
ATOM     57  C   UNL     1      -8.457   0.789  -1.802  1.00  0.00     0.049 A 
ATOM     58  C   UNL     1      -5.029   0.855  -6.269  1.00  0.00     0.074 A 
ATOM     59  C   UNL     1      -9.783   0.484  -2.043  1.00  0.00     0.029 A 
ATOM     60  N   UNL     1      -7.804   0.751  -3.027  1.00  0.00    -0.354 N 
ATOM     61  N   UNL     1      -5.948   0.813  -5.331  1.00  0.00    -0.248 NA
ATOM     62  C   UNL     1      -5.532   0.522  -7.609  1.00  0.00     0.031 C 
ATOM     63  C   UNL     1      -9.921   0.214  -3.406  1.00  0.00     0.029 A 
ATOM     64  C   UNL     1      -8.697   0.418  -4.028  1.00  0.00     0.049 A 
ATOM     65  H   UNL     1      -6.847   0.934  -3.162  1.00  0.00     0.167 HD
ATOM     66  C   UNL     1      -7.140   0.480  -5.968  1.00  0.00     0.074 A 
ATOM     67  C   UNL     1      -6.828   0.346  -7.377  1.00  0.00     0.031 C 
ATOM     68  C   UNL     1      -8.376   0.306  -5.434  1.00  0.00     0.034 A 
BRANCH  55  69
ATOM     69  C   UNL     1      -8.631   1.013   0.726  1.00  0.00     0.023 A 
ATOM     70  C   UNL     1      -9.305  -0.162   1.110  1.00  0.00     0.031 A 
ATOM     71  C   UNL     1      -8.834   2.171   1.506  1.00  0.00     0.131 A 
ATOM     72  C   UNL     1     -10.150  -0.145   2.230  1.00  0.00     0.055 A 
ATOM     73  C   UNL     1      -9.632   2.167   2.649  1.00  0.00     0.041 A 
ATOM     74  F   UNL     1      -8.242   3.331   1.175  1.00  0.00    -0.206 F 
ATOM     75  C   UNL     1     -10.304   1.007   3.010  1.00  0.00     0.022 A 
BRANCH  72  76
ATOM     76  S   UNL     1     -11.147  -1.590   2.691  1.00  0.00     0.124 S 
ATOM     77  O   UNL     1     -10.657  -1.876   4.037  1.00  0.00    -0.237 OA
ATOM     78  O   UNL     1     -12.505  -1.057   2.624  1.00  0.00    -0.237 OA
ATOM     79  O   UNL     1     -10.811  -2.587   1.680  1.00  0.00    -0.744 OA
ENDBRANCH  72  76
ENDBRANCH  55  69
BRANCH  56  80
ATOM     80  C   UNL     1      -2.638   1.243  -7.308  1.00  0.00     0.023 A 
ATOM     81  C   UNL     1      -1.490   0.431  -7.355  1.00  0.00     0.031 A 
ATOM     82  C   UNL     1      -2.791   2.232  -8.296  1.00  0.00     0.131 A 
ATOM     83  C   UNL     1      -0.508   0.676  -8.326  1.00  0.00     0.055 A 
ATOM     84  C   UNL     1      -1.840   2.431  -9.297  1.00  0.00     0.041 A 
ATOM     85  F   UNL     1      -3.856   3.048  -8.273  1.00  0.00    -0.206 F 
ATOM     86  C   UNL     1      -0.681   1.661  -9.304  1.00  0.00     0.022 A 
BRANCH  83  87
ATOM     87  S   UNL     1       1.096  -0.173  -8.270  1.00  0.00     0.124 S 
ATOM     88  O   UNL     1       1.185  -0.753  -9.606  1.00  0.00    -0.237 OA
ATOM     89  O   UNL     1       2.008   0.938  -8.003  1.00  0.00    -0.237 OA
ATOM     90  O   UNL     1       0.943  -1.127  -7.177  1.00  0.00    -0.744 OA
ENDBRANCH  83  87
ENDBRANCH  56  80
BRANCH  68  91
ATOM     91  C   UNL     1      -9.526  -0.053  -6.343  1.00  0.00     0.023 A 
ATOM     92  C   UNL     1     -10.630   0.817  -6.444  1.00  0.00     0.031 A 
ATOM     93  C   UNL     1      -9.631  -1.334  -6.910  1.00  0.00     0.131 A 
ATOM     94  C   UNL     1     -11.817   0.368  -7.033  1.00  0.00     0.055 A 
ATOM     95  C   UNL     1     -10.800  -1.757  -7.543  1.00  0.00     0.041 A 
ATOM     96  F   UNL     1      -8.610  -2.202  -6.826  1.00  0.00    -0.206 F 
ATOM     97  C   UNL     1     -11.907  -0.912  -7.588  1.00  0.00     0.022 A 
BRANCH  94  98
ATOM     98  S   UNL     1     -13.320   1.385  -6.998  1.00  0.00     0.124 S 
ATOM     99  O   UNL     1     -13.654   1.481  -8.418  1.00  0.00    -0.237 OA
ATOM    100  O   UNL     1     -14.225   0.565  -6.199  1.00  0.00    -0.237 OA
ATOM    101  O   UNL     1     -12.887   2.633  -6.379  1.00  0.00    -0.744 OA
ENDBRANCH  94  98
ENDBRANCH  68  91
ENDBRANCH  42  43
ENDBRANCH  35  37
ENDBRANCH  34  35
ENDBRANCH  33  34
ENDBRANCH   1  33
TORSDOF 20
