REMARK SMILES O=C(CCC(=O)OCCOC(=O)c1ccc(-c2c3nc(c(-c4cc(S(=O)(=O)[O-])ccc4F)c4ccc([nH]4)c(-c4cc(S(=O)(=O)[O-])ccc4F)c4nc(c(-c5cc(S(=O)(=O)[O-])ccc5F)c5ccc2[nH]5)C=C4)C=C3)cc1)Nc1nncs1
REMARK SMILES IDX 8 1 7 2 5 3 6 4 4 5 3 6 2 7 1 8 76 9 77 11 78 12 81 13 79 14
REMARK SMILES IDX 80 15 9 16 10 17 11 18 12 19 13 20 14 21 75 22 15 23 74 24
REMARK SMILES IDX 16 25 17 26 18 27 68 28 19 29 73 30 67 31 69 32 20 33 72 34
REMARK SMILES IDX 66 35 65 36 21 38 53 39 33 40 52 41 34 42 37 43 51 44 70 45
REMARK SMILES IDX 35 46 36 47 50 49 71 50 38 51 22 52 23 53 31 54 24 55 30 56
REMARK SMILES IDX 32 57 29 58 25 59 26 60 27 61 28 62 54 63 55 64 63 65 56 66
REMARK SMILES IDX 62 67 64 68 61 69 57 70 58 71 59 72 60 73 39 74 40 75 48 76
REMARK SMILES IDX 41 77 47 78 49 79 46 80 42 81 43 82 44 83 45 84
REMARK H PARENT 76 10 69 37 37 48
REMARK Flexibility Score: inf
ROOT
ATOM      1  C   UNL     1       5.619  -0.361   2.475  1.00  0.00     0.274 C 
ENDROOT
BRANCH   1   2
ATOM      2  O   UNL     1       4.465   0.147   1.763  1.00  0.00    -0.462 OA
BRANCH   2   3
ATOM      3  C   UNL     1       4.486   1.458   1.403  1.00  0.00     0.306 C 
ATOM      4  O   UNL     1       5.400   2.228   1.666  1.00  0.00    -0.252 OA
BRANCH   3   5
ATOM      5  C   UNL     1       3.212   1.902   0.709  1.00  0.00     0.132 C 
BRANCH   5   6
ATOM      6  C   UNL     1       2.674   0.996  -0.395  1.00  0.00     0.112 C 
BRANCH   6   7
ATOM      7  C   UNL     1       1.715  -0.050   0.143  1.00  0.00     0.226 C 
ATOM      8  O   UNL     1       0.503   0.115   0.071  1.00  0.00    -0.275 OA
ATOM      9  N   UNL     1       2.363  -1.098   0.747  1.00  0.00    -0.301 N 
ATOM     10  H   UNL     1       3.341  -1.167   0.655  1.00  0.00     0.172 HD
BRANCH   9  11
ATOM     11  C   UNL     1       1.703  -2.048   1.472  1.00  0.00     0.212 A 
ATOM     12  N   UNL     1       0.422  -2.295   1.596  1.00  0.00    -0.120 NA
ATOM     13  S   UNL     1       2.720  -3.023   2.443  1.00  0.00    -0.083 S 
ATOM     14  N   UNL     1       0.176  -3.291   2.526  1.00  0.00    -0.145 NA
ATOM     15  C   UNL     1       1.290  -3.728   3.072  1.00  0.00     0.204 A 
ENDBRANCH   9  11
ENDBRANCH   6   7
ENDBRANCH   5   6
ENDBRANCH   3   5
ENDBRANCH   2   3
ENDBRANCH   1   2
BRANCH   1  16
ATOM     16  C   UNL     1       6.473  -1.253   1.570  1.00  0.00     0.275 C 
BRANCH  16  17
ATOM     17  O   UNL     1       7.206  -0.461   0.623  1.00  0.00    -0.458 OA
BRANCH  17  18
ATOM     18  C   UNL     1       6.541  -0.186  -0.526  1.00  0.00     0.338 C 
ATOM     19  O   UNL     1       5.449  -0.613  -0.848  1.00  0.00    -0.246 OA
BRANCH  18  20
ATOM     20  C   UNL     1       7.296   0.833  -1.271  1.00  0.00     0.060 A 
ATOM     21  C   UNL     1       6.757   2.115  -1.418  1.00  0.00     0.016 A 
ATOM     22  C   UNL     1       8.527   0.506  -1.837  1.00  0.00     0.016 A 
ATOM     23  C   UNL     1       7.458   3.086  -2.134  1.00  0.00     0.010 A 
ATOM     24  C   UNL     1       9.229   1.481  -2.546  1.00  0.00     0.010 A 
ATOM     25  C   UNL     1       8.698   2.775  -2.705  1.00  0.00    -0.014 A 
BRANCH  25  26
ATOM     26  C   UNL     1       9.441   3.766  -3.522  1.00  0.00     0.031 A 
ATOM     27  C   UNL     1       9.553   3.550  -5.004  1.00  0.00     0.074 A 
ATOM     28  C   UNL     1      10.060   4.806  -2.931  1.00  0.00     0.049 A 
ATOM     29  N   UNL     1      10.314   4.157  -5.875  1.00  0.00    -0.248 NA
ATOM     30  C   UNL     1       8.700   2.496  -5.579  1.00  0.00     0.031 C 
ATOM     31  C   UNL     1       9.981   5.140  -1.508  1.00  0.00     0.029 A 
ATOM     32  N   UNL     1      10.903   5.759  -3.449  1.00  0.00    -0.354 N 
ATOM     33  C   UNL     1      10.062   3.538  -7.095  1.00  0.00     0.074 A 
ATOM     34  C   UNL     1       9.084   2.500  -6.847  1.00  0.00     0.031 C 
ATOM     35  C   UNL     1      10.758   6.208  -1.264  1.00  0.00     0.029 A 
ATOM     36  C   UNL     1      11.443   6.594  -2.495  1.00  0.00     0.049 A 
ATOM     37  H   UNL     1      11.103   5.837  -4.410  1.00  0.00     0.167 HD
ATOM     38  C   UNL     1      10.605   3.814  -8.304  1.00  0.00     0.034 A 
ATOM     39  C   UNL     1      12.414   7.525  -2.597  1.00  0.00     0.034 A 
ATOM     40  C   UNL     1      11.568   4.864  -8.526  1.00  0.00     0.049 A 
ATOM     41  C   UNL     1      13.055   7.761  -3.947  1.00  0.00     0.074 A 
ATOM     42  C   UNL     1      12.154   5.253  -9.718  1.00  0.00     0.029 A 
ATOM     43  N   UNL     1      12.093   5.685  -7.537  1.00  0.00    -0.354 N 
ATOM     44  N   UNL     1      12.803   7.174  -5.095  1.00  0.00    -0.248 NA
ATOM     45  C   UNL     1      14.107   8.785  -4.018  1.00  0.00     0.031 C 
ATOM     46  C   UNL     1      13.093   6.250  -9.438  1.00  0.00     0.029 A 
ATOM     47  C   UNL     1      13.023   6.552  -8.087  1.00  0.00     0.049 A 
ATOM     48  H   UNL     1      11.843   5.655  -6.585  1.00  0.00     0.167 HD
ATOM     49  C   UNL     1      13.630   7.796  -6.029  1.00  0.00     0.074 A 
ATOM     50  C   UNL     1      14.384   8.802  -5.313  1.00  0.00     0.031 C 
ATOM     51  C   UNL     1      13.750   7.564  -7.360  1.00  0.00     0.034 A 
BRANCH  38  52
ATOM     52  C   UNL     1      10.224   2.937  -9.470  1.00  0.00     0.023 A 
ATOM     53  C   UNL     1       8.921   2.915  -9.995  1.00  0.00     0.031 A 
ATOM     54  C   UNL     1      11.197   2.128 -10.084  1.00  0.00     0.131 A 
ATOM     55  C   UNL     1       8.618   2.070 -11.074  1.00  0.00     0.055 A 
ATOM     56  C   UNL     1      10.907   1.345 -11.202  1.00  0.00     0.041 A 
ATOM     57  F   UNL     1      12.452   2.089  -9.608  1.00  0.00    -0.206 F 
ATOM     58  C   UNL     1       9.609   1.307 -11.699  1.00  0.00     0.022 A 
BRANCH  55  59
ATOM     59  S   UNL     1       6.888   1.903 -11.589  1.00  0.00     0.124 S 
ATOM     60  O   UNL     1       6.269   1.381 -10.373  1.00  0.00    -0.237 OA
ATOM     61  O   UNL     1       6.532   3.270 -11.951  1.00  0.00    -0.237 OA
ATOM     62  O   UNL     1       6.951   0.958 -12.702  1.00  0.00    -0.744 OA
ENDBRANCH  55  59
ENDBRANCH  38  52
BRANCH  39  63
ATOM     63  C   UNL     1      12.896   8.269  -1.394  1.00  0.00     0.023 A 
ATOM     64  C   UNL     1      12.832   9.671  -1.339  1.00  0.00     0.031 A 
ATOM     65  C   UNL     1      13.519   7.601  -0.324  1.00  0.00     0.131 A 
ATOM     66  C   UNL     1      13.450  10.360  -0.284  1.00  0.00     0.055 A 
ATOM     67  C   UNL     1      14.064   8.288   0.762  1.00  0.00     0.041 A 
ATOM     68  F   UNL     1      13.616   6.261  -0.322  1.00  0.00    -0.206 F 
ATOM     69  C   UNL     1      14.051   9.679   0.775  1.00  0.00     0.022 A 
BRANCH  66  70
ATOM     70  S   UNL     1      13.591  12.166  -0.398  1.00  0.00     0.124 S 
ATOM     71  O   UNL     1      14.252  12.328  -1.688  1.00  0.00    -0.237 OA
ATOM     72  O   UNL     1      12.194  12.582  -0.336  1.00  0.00    -0.237 OA
ATOM     73  O   UNL     1      14.399  12.517   0.768  1.00  0.00    -0.744 OA
ENDBRANCH  66  70
ENDBRANCH  39  63
BRANCH  51  74
ATOM     74  C   UNL     1      14.662   8.473  -8.148  1.00  0.00     0.023 A 
ATOM     75  C   UNL     1      16.057   8.466  -7.979  1.00  0.00     0.031 A 
ATOM     76  C   UNL     1      14.115   9.345  -9.107  1.00  0.00     0.131 A 
ATOM     77  C   UNL     1      16.854   9.344  -8.729  1.00  0.00     0.055 A 
ATOM     78  C   UNL     1      14.918  10.170  -9.894  1.00  0.00     0.041 A 
ATOM     79  F   UNL     1      12.788   9.394  -9.307  1.00  0.00    -0.206 F 
ATOM     80  C   UNL     1      16.295  10.180  -9.700  1.00  0.00     0.022 A 
BRANCH  77  81
ATOM     81  S   UNL     1      18.630   9.433  -8.373  1.00  0.00     0.124 S 
ATOM     82  O   UNL     1      18.639   9.835  -6.970  1.00  0.00    -0.237 OA
ATOM     83  O   UNL     1      19.074   8.070  -8.648  1.00  0.00    -0.237 OA
ATOM     84  O   UNL     1      19.118  10.443  -9.311  1.00  0.00    -0.744 OA
ENDBRANCH  77  81
ENDBRANCH  51  74
ENDBRANCH  25  26
ENDBRANCH  18  20
ENDBRANCH  17  18
ENDBRANCH  16  17
ENDBRANCH   1  16
TORSDOF 17
