REMARK SMILES CC1(C)CCCC[C@@]1(CC(=O)OCCOC(=O)c1ccc(-c2c3nc(c(-c4cc(S(=O)(=O)[O-])ccc4F)c4ccc([nH]4)c(-c4cc(S(=O)(=O)[O-])ccc4F)c4nc(c(-c5cc(S(=O)(=O)[O-])ccc5F)c5ccc2[nH]5)C=C4)C=C3)cc1)[NH+]1CCCCCC1
REMARK SMILES IDX 13 1 12 2 10 3 11 4 9 5 8 6 1 7 2 8 3 9 4 10 5 11 7 12 6 13
REMARK SMILES IDX 81 14 82 16 83 17 84 18 87 20 86 21 85 22 14 24 15 25 16 26
REMARK SMILES IDX 17 27 18 28 19 29 80 30 20 31 79 32 21 33 22 34 23 35 73 36
REMARK SMILES IDX 24 37 78 38 72 39 74 40 25 41 77 42 71 43 70 44 26 46 58 47
REMARK SMILES IDX 38 48 57 49 39 50 42 51 56 52 75 53 40 54 41 55 55 57 76 58
REMARK SMILES IDX 43 59 27 60 28 61 36 62 29 63 35 64 37 65 34 66 30 67 31 68
REMARK SMILES IDX 32 69 33 70 59 71 60 72 68 73 61 74 67 75 69 76 66 77 62 78
REMARK SMILES IDX 63 79 64 80 65 81 44 82 45 83 53 84 46 85 52 86 54 87 51 88
REMARK SMILES IDX 47 89 48 90 49 91 50 92
REMARK H PARENT 81 15 74 45 42 56
REMARK Flexibility Score: 80.00
ROOT
ATOM      1  C   UNL     1       3.476   4.785  -4.672  1.00  0.00     0.274 C 
ENDROOT
BRANCH   1   2
ATOM      2  O   UNL     1       2.939   4.299  -3.425  1.00  0.00    -0.462 OA
BRANCH   2   3
ATOM      3  C   UNL     1       1.621   4.060  -3.357  1.00  0.00     0.312 C 
ATOM      4  O   UNL     1       0.848   4.411  -4.249  1.00  0.00    -0.252 OA
BRANCH   3   5
ATOM      5  C   UNL     1       1.078   3.530  -2.032  1.00  0.00     0.191 C 
BRANCH   5   6
ATOM      6  C   UNL     1       1.645   2.491  -0.916  1.00  0.00     0.113 C 
ATOM      7  C   UNL     1       0.776   0.204   0.356  1.00  0.00     0.018 C 
ATOM      8  C   UNL     1       0.518   1.276  -0.745  1.00  0.00     0.020 C 
ATOM      9  C   UNL     1       0.328   0.484  -2.058  1.00  0.00     0.018 C 
ATOM     10  C   UNL     1      -0.871   1.885  -0.342  1.00  0.00     0.013 C 
ATOM     11  C   UNL     1      -0.810   2.671   0.964  1.00  0.00     0.001 C 
ATOM     12  C   UNL     1       1.610   3.308   0.434  1.00  0.00     0.070 C 
ATOM     13  C   UNL     1       0.228   3.777   0.912  1.00  0.00     0.006 C 
BRANCH   6  14
ATOM     14  N   UNL     1       3.063   2.056  -1.148  1.00  0.00    -0.329 N 
ATOM     15  H   UNL     1       2.659   1.696  -2.013  1.00  0.00     0.348 HD
BRANCH  14  16
ATOM     16  C   UNL     1       3.643   0.828  -0.616  1.00  0.00     0.262 C 
BRANCH  16  17
ATOM     17  C   UNL     1       3.972   0.792   0.887  1.00  0.00     0.061 C 
BRANCH  17  18
ATOM     18  C   UNL     1       5.104   1.679   1.412  1.00  0.00     0.006 CG0
ATOM     19  G   UNL     1       5.226   3.082   0.836  1.00  0.00     0.000 G0
ENDBRANCH  17  18
ENDBRANCH  16  17
ENDBRANCH  14  16
BRANCH  14  20
ATOM     20  C   UNL     1       4.085   3.062  -1.428  1.00  0.00     0.262 C 
BRANCH  20  21
ATOM     21  C   UNL     1       5.414   3.062  -0.668  1.00  0.00     0.061 C 
BRANCH  21  22
ATOM     22  C   UNL     1       5.226   3.082   0.836  1.00  0.00     0.006 CG0
ATOM     23  G   UNL     1       5.104   1.679   1.412  1.00  0.00     0.000 G0
ENDBRANCH  21  22
ENDBRANCH  20  21
ENDBRANCH  14  20
ENDBRANCH   6  14
ENDBRANCH   5   6
ENDBRANCH   3   5
ENDBRANCH   2   3
ENDBRANCH   1   2
BRANCH   1  24
ATOM     24  C   UNL     1       3.953   3.622  -5.542  1.00  0.00     0.275 C 
BRANCH  24  25
ATOM     25  O   UNL     1       2.820   2.886  -6.030  1.00  0.00    -0.458 OA
BRANCH  25  26
ATOM     26  C   UNL     1       2.651   1.646  -5.524  1.00  0.00     0.338 C 
ATOM     27  O   UNL     1       3.401   1.034  -4.776  1.00  0.00    -0.246 OA
BRANCH  26  28
ATOM     28  C   UNL     1       1.378   1.116  -6.021  1.00  0.00     0.060 A 
ATOM     29  C   UNL     1       0.186   1.517  -5.418  1.00  0.00     0.016 A 
ATOM     30  C   UNL     1       1.367   0.180  -7.051  1.00  0.00     0.016 A 
ATOM     31  C   UNL     1      -1.025   0.966  -5.811  1.00  0.00     0.010 A 
ATOM     32  C   UNL     1       0.143  -0.332  -7.488  1.00  0.00     0.010 A 
ATOM     33  C   UNL     1      -1.059   0.051  -6.864  1.00  0.00    -0.014 A 
BRANCH  33  34
ATOM     34  C   UNL     1      -2.348  -0.532  -7.301  1.00  0.00     0.031 A 
ATOM     35  C   UNL     1      -2.587  -2.001  -7.119  1.00  0.00     0.074 A 
ATOM     36  C   UNL     1      -3.280   0.257  -7.867  1.00  0.00     0.049 A 
ATOM     37  N   UNL     1      -3.525  -2.756  -7.622  1.00  0.00    -0.248 NA
ATOM     38  C   UNL     1      -1.626  -2.715  -6.264  1.00  0.00     0.031 C 
ATOM     39  C   UNL     1      -3.179   1.710  -8.021  1.00  0.00     0.029 A 
ATOM     40  N   UNL     1      -4.490  -0.053  -8.433  1.00  0.00    -0.354 N 
ATOM     41  C   UNL     1      -3.246  -4.046  -7.185  1.00  0.00     0.074 A 
ATOM     42  C   UNL     1      -2.042  -3.967  -6.383  1.00  0.00     0.031 C 
ATOM     43  C   UNL     1      -4.278   2.164  -8.643  1.00  0.00     0.029 A 
ATOM     44  C   UNL     1      -5.119   1.029  -9.005  1.00  0.00     0.049 A 
ATOM     45  H   UNL     1      -4.872  -0.960  -8.430  1.00  0.00     0.167 HD
ATOM     46  C   UNL     1      -3.933  -5.186  -7.444  1.00  0.00     0.034 A 
ATOM     47  C   UNL     1      -6.217   1.089  -9.783  1.00  0.00     0.034 A 
ATOM     48  C   UNL     1      -5.135  -5.220  -8.242  1.00  0.00     0.049 A 
ATOM     49  C   UNL     1      -6.927  -0.197 -10.114  1.00  0.00     0.074 A 
ATOM     50  C   UNL     1      -5.915  -6.310  -8.588  1.00  0.00     0.029 A 
ATOM     51  N   UNL     1      -5.735  -4.105  -8.819  1.00  0.00    -0.354 N 
ATOM     52  N   UNL     1      -6.622  -1.423  -9.753  1.00  0.00    -0.248 NA
ATOM     53  C   UNL     1      -8.122  -0.095 -10.958  1.00  0.00     0.031 C 
ATOM     54  C   UNL     1      -6.949  -5.862  -9.419  1.00  0.00     0.029 A 
ATOM     55  C   UNL     1      -6.861  -4.484  -9.534  1.00  0.00     0.049 A 
ATOM     56  H   UNL     1      -5.407  -3.181  -8.733  1.00  0.00     0.167 HD
ATOM     57  C   UNL     1      -7.605  -2.237 -10.307  1.00  0.00     0.074 A 
ATOM     58  C   UNL     1      -8.516  -1.359 -11.016  1.00  0.00     0.031 C 
ATOM     59  C   UNL     1      -7.748  -3.585 -10.235  1.00  0.00     0.034 A 
BRANCH  46  60
ATOM     60  C   UNL     1      -3.353  -6.479  -6.922  1.00  0.00     0.023 A 
ATOM     61  C   UNL     1      -3.220  -6.739  -5.547  1.00  0.00     0.031 A 
ATOM     62  C   UNL     1      -2.878  -7.451  -7.822  1.00  0.00     0.131 A 
ATOM     63  C   UNL     1      -2.563  -7.902  -5.113  1.00  0.00     0.055 A 
ATOM     64  C   UNL     1      -2.297  -8.643  -7.383  1.00  0.00     0.041 A 
ATOM     65  F   UNL     1      -2.952  -7.250  -9.147  1.00  0.00    -0.206 F 
ATOM     66  C   UNL     1      -2.122  -8.867  -6.021  1.00  0.00     0.022 A 
BRANCH  63  67
ATOM     67  S   UNL     1      -2.164  -8.069  -3.351  1.00  0.00     0.124 S 
ATOM     68  O   UNL     1      -1.331  -6.891  -3.123  1.00  0.00    -0.237 OA
ATOM     69  O   UNL     1      -3.481  -8.052  -2.725  1.00  0.00    -0.237 OA
ATOM     70  O   UNL     1      -1.456  -9.346  -3.279  1.00  0.00    -0.744 OA
ENDBRANCH  63  67
ENDBRANCH  46  60
BRANCH  47  71
ATOM     71  C   UNL     1      -6.667   2.392 -10.351  1.00  0.00     0.023 A 
ATOM     72  C   UNL     1      -7.907   2.947  -9.999  1.00  0.00     0.031 A 
ATOM     73  C   UNL     1      -5.869   3.093 -11.273  1.00  0.00     0.131 A 
ATOM     74  C   UNL     1      -8.327   4.149 -10.590  1.00  0.00     0.055 A 
ATOM     75  C   UNL     1      -6.267   4.315 -11.817  1.00  0.00     0.041 A 
ATOM     76  F   UNL     1      -4.673   2.608 -11.646  1.00  0.00    -0.206 F 
ATOM     77  C   UNL     1      -7.509   4.845 -11.484  1.00  0.00     0.022 A 
BRANCH  74  78
ATOM     78  S   UNL     1      -9.997   4.758 -10.227  1.00  0.00     0.124 S 
ATOM     79  O   UNL     1     -10.822   3.633 -10.652  1.00  0.00    -0.237 OA
ATOM     80  O   UNL     1      -9.927   4.997  -8.790  1.00  0.00    -0.237 OA
ATOM     81  O   UNL     1     -10.107   5.959 -11.052  1.00  0.00    -0.744 OA
ENDBRANCH  74  78
ENDBRANCH  47  71
BRANCH  59  82
ATOM     82  C   UNL     1      -8.969  -4.171 -10.895  1.00  0.00     0.023 A 
ATOM     83  C   UNL     1      -9.119  -4.191 -12.292  1.00  0.00     0.031 A 
ATOM     84  C   UNL     1     -10.003  -4.705 -10.105  1.00  0.00     0.131 A 
ATOM     85  C   UNL     1     -10.303  -4.689 -12.856  1.00  0.00     0.055 A 
ATOM     86  C   UNL     1     -11.153  -5.249 -10.675  1.00  0.00     0.041 A 
ATOM     87  F   UNL     1      -9.908  -4.707  -8.766  1.00  0.00    -0.206 F 
ATOM     88  C   UNL     1     -11.313  -5.232 -12.058  1.00  0.00     0.022 A 
BRANCH  85  89
ATOM     89  S   UNL     1     -10.541  -4.544 -14.648  1.00  0.00     0.124 S 
ATOM     90  O   UNL     1     -10.470  -3.100 -14.848  1.00  0.00    -0.237 OA
ATOM     91  O   UNL     1      -9.422  -5.316 -15.177  1.00  0.00    -0.237 OA
ATOM     92  O   UNL     1     -11.860  -5.135 -14.868  1.00  0.00    -0.744 OA
ENDBRANCH  85  89
ENDBRANCH  59  82
ENDBRANCH  33  34
ENDBRANCH  26  28
ENDBRANCH  25  26
ENDBRANCH  24  25
ENDBRANCH   1  24
TORSDOF 16
