REMARK SMILES O=C(CCCN1C(=O)C(=O)/C(=C(\[O-])c2ccccc2)[C@H]1c1ccc([N+](=O)[O-])cc1)OCCOC(=O)c1ccc(-c2c3nc(c(-c4cc(S(=O)(=O)[O-])ccc4F)c4ccc([nH]4)c(-c4cc(S(=O)(=O)[O-])ccc4F)c4nc(c(-c5cc(S(=O)(=O)[O-])ccc5F)c5ccc2[nH]5)C=C4)C=C3)cc1
REMARK SMILES IDX 31 1 30 2 2 3 1 4 3 5 4 6 5 7 6 8 7 9 20 10 8 11 9 12 11 13
REMARK SMILES IDX 10 14 12 15 13 16 21 17 22 18 29 19 23 20 28 21 24 22 25 23
REMARK SMILES IDX 26 24 27 25 14 26 15 27 19 28 16 29 18 30 17 31 32 32 33 33
REMARK SMILES IDX 34 34 35 35 36 36 37 37 98 38 38 39 97 40 39 41 40 42 41 43
REMARK SMILES IDX 91 44 42 45 96 46 90 47 92 48 43 49 95 50 89 51 88 52 44 54
REMARK SMILES IDX 76 55 56 56 75 57 57 58 60 59 74 60 93 61 58 62 59 63 73 65
REMARK SMILES IDX 94 66 61 67 45 68 46 69 54 70 47 71 53 72 55 73 52 74 48 75
REMARK SMILES IDX 49 76 50 77 51 78 77 79 78 80 86 81 79 82 85 83 87 84 84 85
REMARK SMILES IDX 80 86 81 87 82 88 83 89 62 90 63 91 71 92 64 93 70 94 72 95
REMARK SMILES IDX 69 96 65 97 66 98 67 99 68 100
REMARK H PARENT 92 53 60 64
REMARK Flexibility Score: inf
ROOT
ATOM      1  C   UNL     1       3.291   1.258   1.056  1.00  0.00     0.274 C 
ENDROOT
BRANCH   1   2
ATOM      2  O   UNL     1       2.446   1.130  -0.103  1.00  0.00    -0.462 OA
BRANCH   2   3
ATOM      3  C   UNL     1       2.517   0.121  -1.000  1.00  0.00     0.305 C 
ATOM      4  O   UNL     1       1.913   0.197  -2.068  1.00  0.00    -0.252 OA
BRANCH   3   5
ATOM      5  C   UNL     1       3.345  -1.101  -0.676  1.00  0.00     0.124 C 
BRANCH   5   6
ATOM      6  C   UNL     1       4.540  -1.270  -1.605  1.00  0.00     0.033 C 
BRANCH   6   7
ATOM      7  C   UNL     1       5.666  -0.262  -1.390  1.00  0.00     0.121 C 
BRANCH   7   8
ATOM      8  N   UNL     1       6.459  -0.343  -0.163  1.00  0.00    -0.325 N 
ATOM      9  C   UNL     1       7.327   0.701   0.123  1.00  0.00     0.295 C 
ATOM     10  C   UNL     1       6.851  -1.592   0.493  1.00  0.00     0.150 C 
ATOM     11  O   UNL     1       7.284   1.849  -0.268  1.00  0.00    -0.265 OA
ATOM     12  C   UNL     1       8.471   0.122   0.952  1.00  0.00     0.248 C 
ATOM     13  C   UNL     1       8.231  -1.327   1.066  1.00  0.00     0.025 C 
ATOM     14  O   UNL     1       9.388   0.736   1.458  1.00  0.00    -0.283 OA
ATOM     15  C   UNL     1       9.059  -2.144   1.742  1.00  0.00    -0.092 C 
ATOM     16  O   UNL     1      10.212  -1.718   2.369  1.00  0.00    -0.872 OA
BRANCH  10  17
ATOM     17  C   UNL     1       5.914  -1.988   1.634  1.00  0.00    -0.020 A 
ATOM     18  C   UNL     1       5.848  -1.227   2.824  1.00  0.00     0.013 A 
ATOM     19  C   UNL     1       5.263  -3.231   1.592  1.00  0.00     0.013 A 
ATOM     20  C   UNL     1       5.214  -1.726   3.962  1.00  0.00     0.086 A 
ATOM     21  C   UNL     1       4.650  -3.747   2.734  1.00  0.00     0.086 A 
ATOM     22  C   UNL     1       4.631  -2.993   3.913  1.00  0.00     0.269 A 
BRANCH  22  23
ATOM     23  N   UNL     1       3.958  -3.517   5.101  1.00  0.00     0.062 N 
ATOM     24  O   UNL     1       3.850  -4.745   5.201  1.00  0.00    -0.258 OA
ATOM     25  O   UNL     1       3.526  -2.690   5.916  1.00  0.00    -0.258 OA
ENDBRANCH  22  23
ENDBRANCH  10  17
BRANCH  15  26
ATOM     26  C   UNL     1       8.704  -3.548   2.021  1.00  0.00    -0.033 A 
ATOM     27  C   UNL     1       8.447  -3.942   3.343  1.00  0.00     0.007 A 
ATOM     28  C   UNL     1       8.501  -4.472   0.987  1.00  0.00     0.007 A 
ATOM     29  C   UNL     1       7.942  -5.214   3.620  1.00  0.00     0.001 A 
ATOM     30  C   UNL     1       7.992  -5.744   1.266  1.00  0.00     0.001 A 
ATOM     31  C   UNL     1       7.702  -6.109   2.579  1.00  0.00     0.000 A 
ENDBRANCH  15  26
ENDBRANCH   7   8
ENDBRANCH   6   7
ENDBRANCH   5   6
ENDBRANCH   3   5
ENDBRANCH   2   3
ENDBRANCH   1   2
BRANCH   1  32
ATOM     32  C   UNL     1       2.628   0.751   2.337  1.00  0.00     0.275 C 
BRANCH  32  33
ATOM     33  O   UNL     1       2.199  -0.612   2.212  1.00  0.00    -0.458 OA
BRANCH  33  34
ATOM     34  C   UNL     1       0.903  -0.805   1.839  1.00  0.00     0.338 C 
ATOM     35  O   UNL     1       0.073   0.059   1.626  1.00  0.00    -0.246 OA
BRANCH  34  36
ATOM     36  C   UNL     1       0.694  -2.255   1.607  1.00  0.00     0.060 A 
ATOM     37  C   UNL     1      -0.195  -2.701   0.627  1.00  0.00     0.016 A 
ATOM     38  C   UNL     1       1.403  -3.185   2.361  1.00  0.00     0.016 A 
ATOM     39  C   UNL     1      -0.379  -4.079   0.426  1.00  0.00     0.010 A 
ATOM     40  C   UNL     1       1.291  -4.547   2.098  1.00  0.00     0.010 A 
ATOM     41  C   UNL     1       0.358  -5.019   1.167  1.00  0.00    -0.014 A 
BRANCH  41  42
ATOM     42  C   UNL     1       0.103  -6.487   1.084  1.00  0.00     0.031 A 
ATOM     43  C   UNL     1      -0.321  -7.240   2.330  1.00  0.00     0.074 A 
ATOM     44  C   UNL     1       0.341  -7.167  -0.055  1.00  0.00     0.049 A 
ATOM     45  N   UNL     1      -0.527  -8.522   2.502  1.00  0.00    -0.248 NA
ATOM     46  C   UNL     1      -0.459  -6.451   3.564  1.00  0.00     0.031 C 
ATOM     47  C   UNL     1       0.867  -6.591  -1.295  1.00  0.00     0.029 A 
ATOM     48  N   UNL     1       0.185  -8.499  -0.352  1.00  0.00    -0.354 N 
ATOM     49  C   UNL     1      -0.773  -8.687   3.865  1.00  0.00     0.074 A 
ATOM     50  C   UNL     1      -0.574  -7.396   4.481  1.00  0.00     0.031 C 
ATOM     51  C   UNL     1       0.962  -7.558  -2.224  1.00  0.00     0.029 A 
ATOM     52  C   UNL     1       0.514  -8.823  -1.649  1.00  0.00     0.049 A 
ATOM     53  H   UNL     1      -0.133  -9.162   0.303  1.00  0.00     0.167 HD
ATOM     54  C   UNL     1      -1.183  -9.793   4.536  1.00  0.00     0.034 A 
ATOM     55  C   UNL     1       0.437 -10.000  -2.303  1.00  0.00     0.034 A 
ATOM     56  C   UNL     1      -1.445 -11.054   3.889  1.00  0.00     0.049 A 
ATOM     57  C   UNL     1      -0.122 -11.199  -1.575  1.00  0.00     0.074 A 
ATOM     58  C   UNL     1      -1.978 -12.211   4.427  1.00  0.00     0.029 A 
ATOM     59  N   UNL     1      -1.200 -11.316   2.547  1.00  0.00    -0.354 N 
ATOM     60  N   UNL     1      -0.474 -11.310  -0.314  1.00  0.00    -0.248 NA
ATOM     61  C   UNL     1      -0.330 -12.418  -2.367  1.00  0.00     0.031 C 
ATOM     62  C   UNL     1      -2.007 -13.187   3.424  1.00  0.00     0.029 A 
ATOM     63  C   UNL     1      -1.555 -12.619   2.244  1.00  0.00     0.049 A 
ATOM     64  H   UNL     1      -0.827 -10.669   1.905  1.00  0.00     0.167 HD
ATOM     65  C   UNL     1      -0.981 -12.600  -0.173  1.00  0.00     0.074 A 
ATOM     66  C   UNL     1      -0.901 -13.220  -1.480  1.00  0.00     0.031 C 
ATOM     67  C   UNL     1      -1.470 -13.217   0.933  1.00  0.00     0.034 A 
BRANCH  54  68
ATOM     68  C   UNL     1      -1.389  -9.672   6.032  1.00  0.00     0.023 A 
ATOM     69  C   UNL     1      -2.289  -8.739   6.580  1.00  0.00     0.031 A 
ATOM     70  C   UNL     1      -0.654 -10.467   6.930  1.00  0.00     0.131 A 
ATOM     71  C   UNL     1      -2.347  -8.542   7.967  1.00  0.00     0.055 A 
ATOM     72  C   UNL     1      -0.792 -10.337   8.315  1.00  0.00     0.041 A 
ATOM     73  F   UNL     1       0.228 -11.373   6.478  1.00  0.00    -0.206 F 
ATOM     74  C   UNL     1      -1.625  -9.354   8.842  1.00  0.00     0.022 A 
BRANCH  71  75
ATOM     75  S   UNL     1      -3.253  -7.101   8.596  1.00  0.00     0.124 S 
ATOM     76  O   UNL     1      -2.523  -6.000   7.971  1.00  0.00    -0.237 OA
ATOM     77  O   UNL     1      -4.603  -7.334   8.097  1.00  0.00    -0.237 OA
ATOM     78  O   UNL     1      -3.096  -7.202  10.045  1.00  0.00    -0.744 OA
ENDBRANCH  71  75
ENDBRANCH  54  68
BRANCH  55  79
ATOM     79  C   UNL     1       0.830 -10.094  -3.739  1.00  0.00     0.023 A 
ATOM     80  C   UNL     1      -0.134 -10.324  -4.734  1.00  0.00     0.031 A 
ATOM     81  C   UNL     1       2.172  -9.976  -4.138  1.00  0.00     0.131 A 
ATOM     82  C   UNL     1       0.259 -10.474  -6.073  1.00  0.00     0.055 A 
ATOM     83  C   UNL     1       2.555 -10.083  -5.478  1.00  0.00     0.041 A 
ATOM     84  F   UNL     1       3.133  -9.740  -3.230  1.00  0.00    -0.206 F 
ATOM     85  C   UNL     1       1.596 -10.345  -6.453  1.00  0.00     0.022 A 
BRANCH  82  86
ATOM     86  S   UNL     1      -1.000 -10.911  -7.303  1.00  0.00     0.124 S 
ATOM     87  O   UNL     1      -1.541 -12.147  -6.751  1.00  0.00    -0.237 OA
ATOM     88  O   UNL     1      -1.880  -9.748  -7.258  1.00  0.00    -0.237 OA
ATOM     89  O   UNL     1      -0.231 -11.061  -8.537  1.00  0.00    -0.744 OA
ENDBRANCH  82  86
ENDBRANCH  55  79
BRANCH  67  90
ATOM     90  C   UNL     1      -1.998 -14.618   0.761  1.00  0.00     0.023 A 
ATOM     91  C   UNL     1      -1.147 -15.693   0.453  1.00  0.00     0.031 A 
ATOM     92  C   UNL     1      -3.371 -14.880   0.909  1.00  0.00     0.131 A 
ATOM     93  C   UNL     1      -1.685 -16.970   0.244  1.00  0.00     0.055 A 
ATOM     94  C   UNL     1      -3.893 -16.165   0.760  1.00  0.00     0.041 A 
ATOM     95  F   UNL     1      -4.228 -13.889   1.206  1.00  0.00    -0.206 F 
ATOM     96  C   UNL     1      -3.050 -17.217   0.413  1.00  0.00     0.022 A 
BRANCH  93  97
ATOM     97  S   UNL     1      -0.587 -18.289  -0.341  1.00  0.00     0.124 S 
ATOM     98  O   UNL     1      -0.080 -17.729  -1.590  1.00  0.00    -0.237 OA
ATOM     99  O   UNL     1       0.380 -18.395   0.748  1.00  0.00    -0.237 OA
ATOM    100  O   UNL     1      -1.478 -19.437  -0.491  1.00  0.00    -0.744 OA
ENDBRANCH  93  97
ENDBRANCH  67  90
ENDBRANCH  41  42
ENDBRANCH  34  36
ENDBRANCH  33  34
ENDBRANCH  32  33
ENDBRANCH   1  32
TORSDOF 20
