REMARK SMILES CCc1ccc2c(c1)C=C(C(=O)OCCOC(=O)c1ccc(-c3c4nc(c(-c5cc(S(=O)(=O)[O-])ccc5F)c5ccc([nH]5)c(-c5cc(S(=O)(=O)[O-])ccc5F)c5nc(c(-c6cc(S(=O)(=O)[O-])ccc6F)c6ccc3[nH]6)C=C5)C=C4)cc1)[C@H](C(F)(F)F)O2
REMARK SMILES IDX 15 1 14 2 13 3 11 4 12 5 10 6 3 7 4 8 8 9 5 10 7 11 6 12
REMARK SMILES IDX 9 13 87 14 82 15 2 16 1 17 83 18 84 19 85 20 86 21 16 22
REMARK SMILES IDX 17 23 18 24 19 25 20 26 81 27 21 28 80 29 22 30 23 31 24 32
REMARK SMILES IDX 74 33 25 34 79 35 73 36 75 37 26 38 78 39 72 40 71 41 27 43
REMARK SMILES IDX 59 44 39 45 58 46 40 47 43 48 57 49 76 50 41 51 42 52 56 54
REMARK SMILES IDX 77 55 44 56 28 57 29 58 37 59 30 60 36 61 38 62 35 63 31 64
REMARK SMILES IDX 32 65 33 66 34 67 60 68 61 69 69 70 62 71 68 72 70 73 67 74
REMARK SMILES IDX 63 75 64 76 65 77 66 78 45 79 46 80 54 81 47 82 53 83 55 84
REMARK SMILES IDX 52 85 48 86 49 87 50 88 51 89
REMARK H PARENT 75 42 43 53
REMARK Flexibility Score: inf
ROOT
ATOM      1  C   UNL     1      -0.118  -7.711  -5.458  1.00  0.00     0.275 C 
ENDROOT
BRANCH   1   2
ATOM      2  C   UNL     1       1.105  -7.237  -4.667  1.00  0.00     0.275 C 
BRANCH   2   3
ATOM      3  O   UNL     1       1.120  -5.802  -4.513  1.00  0.00    -0.459 OA
BRANCH   3   4
ATOM      4  C   UNL     1       2.097  -5.136  -5.186  1.00  0.00     0.338 C 
ATOM      5  O   UNL     1       2.942  -5.658  -5.885  1.00  0.00    -0.246 OA
BRANCH   4   6
ATOM      6  C   UNL     1       2.011  -3.670  -4.973  1.00  0.00     0.087 C 
ATOM      7  C   UNL     1       0.910   0.216  -2.297  1.00  0.00    -0.047 A 
ATOM      8  C   UNL     1       1.490   1.031  -3.280  1.00  0.00     0.007 A 
ATOM      9  C   UNL     1       0.881  -1.175  -2.496  1.00  0.00     0.015 A 
ATOM     10  C   UNL     1       2.101   0.463  -4.396  1.00  0.00     0.047 A 
ATOM     11  C   UNL     1       1.490  -1.749  -3.618  1.00  0.00     0.018 A 
ATOM     12  C   UNL     1       2.119  -0.920  -4.546  1.00  0.00     0.128 A 
ATOM     13  C   UNL     1       1.546  -3.197  -3.803  1.00  0.00     0.027 C 
ATOM     14  O   UNL     1       2.852  -1.412  -5.586  1.00  0.00    -0.475 OA
ATOM     15  C   UNL     1       2.452  -2.721  -6.080  1.00  0.00     0.316 C 
BRANCH   7  16
ATOM     16  C   UNL     1       0.348   0.842  -1.044  1.00  0.00     0.032 C 
ATOM     17  C   UNL     1       0.940   0.244   0.228  1.00  0.00     0.009 C 
ENDBRANCH   7  16
BRANCH  15  18
ATOM     18  C   UNL     1       3.553  -3.185  -7.055  1.00  0.00     0.430 C 
ATOM     19  F   UNL     1       3.129  -4.176  -7.869  1.00  0.00    -0.167 F 
ATOM     20  F   UNL     1       3.910  -2.164  -7.877  1.00  0.00    -0.167 F 
ATOM     21  F   UNL     1       4.671  -3.589  -6.415  1.00  0.00    -0.167 F 
ENDBRANCH  15  18
ENDBRANCH   4   6
ENDBRANCH   3   4
ENDBRANCH   2   3
ENDBRANCH   1   2
BRANCH   1  22
ATOM     22  O   UNL     1      -0.085  -7.241  -6.817  1.00  0.00    -0.458 OA
BRANCH  22  23
ATOM     23  C   UNL     1      -0.747  -6.078  -7.032  1.00  0.00     0.338 C 
ATOM     24  O   UNL     1      -1.399  -5.449  -6.215  1.00  0.00    -0.246 OA
BRANCH  23  25
ATOM     25  C   UNL     1      -0.395  -5.547  -8.363  1.00  0.00     0.060 A 
ATOM     26  C   UNL     1       0.055  -4.226  -8.411  1.00  0.00     0.016 A 
ATOM     27  C   UNL     1      -0.504  -6.293  -9.537  1.00  0.00     0.016 A 
ATOM     28  C   UNL     1       0.479  -3.662  -9.611  1.00  0.00     0.010 A 
ATOM     29  C   UNL     1      -0.135  -5.707 -10.755  1.00  0.00     0.010 A 
ATOM     30  C   UNL     1       0.375  -4.396 -10.796  1.00  0.00    -0.014 A 
BRANCH  30  31
ATOM     31  C   UNL     1       0.686  -3.746 -12.092  1.00  0.00     0.031 A 
ATOM     32  C   UNL     1      -0.416  -3.055 -12.838  1.00  0.00     0.074 A 
ATOM     33  C   UNL     1       1.939  -3.748 -12.583  1.00  0.00     0.049 A 
ATOM     34  N   UNL     1      -0.410  -2.538 -14.038  1.00  0.00    -0.248 NA
ATOM     35  C   UNL     1      -1.697  -2.925 -12.127  1.00  0.00     0.031 C 
ATOM     36  C   UNL     1       3.114  -4.280 -11.894  1.00  0.00     0.029 A 
ATOM     37  N   UNL     1       2.429  -3.295 -13.783  1.00  0.00    -0.354 N 
ATOM     38  C   UNL     1      -1.688  -2.025 -14.233  1.00  0.00     0.074 A 
ATOM     39  C   UNL     1      -2.443  -2.307 -13.030  1.00  0.00     0.031 C 
ATOM     40  C   UNL     1       4.184  -4.149 -12.697  1.00  0.00     0.029 A 
ATOM     41  C   UNL     1       3.763  -3.578 -13.975  1.00  0.00     0.049 A 
ATOM     42  H   UNL     1       1.880  -2.813 -14.443  1.00  0.00     0.167 HD
ATOM     43  C   UNL     1      -2.183  -1.386 -15.322  1.00  0.00     0.034 A 
ATOM     44  C   UNL     1       4.535  -3.439 -15.074  1.00  0.00     0.034 A 
ATOM     45  C   UNL     1      -1.422  -1.147 -16.524  1.00  0.00     0.049 A 
ATOM     46  C   UNL     1       3.919  -2.867 -16.332  1.00  0.00     0.074 A 
ATOM     47  C   UNL     1      -1.834  -0.541 -17.698  1.00  0.00     0.029 A 
ATOM     48  N   UNL     1      -0.097  -1.520 -16.715  1.00  0.00    -0.354 N 
ATOM     49  N   UNL     1       2.697  -2.426 -16.529  1.00  0.00    -0.248 NA
ATOM     50  C   UNL     1       4.782  -2.781 -17.519  1.00  0.00     0.031 C 
ATOM     51  C   UNL     1      -0.788  -0.623 -18.623  1.00  0.00     0.029 A 
ATOM     52  C   UNL     1       0.310  -1.193 -17.999  1.00  0.00     0.049 A 
ATOM     53  H   UNL     1       0.470  -1.954 -16.036  1.00  0.00     0.167 HD
ATOM     54  C   UNL     1       2.661  -1.974 -17.847  1.00  0.00     0.074 A 
ATOM     55  C   UNL     1       3.982  -2.195 -18.398  1.00  0.00     0.031 C 
ATOM     56  C   UNL     1       1.632  -1.417 -18.537  1.00  0.00     0.034 A 
BRANCH  43  57
ATOM     57  C   UNL     1      -3.637  -0.989 -15.284  1.00  0.00     0.023 A 
ATOM     58  C   UNL     1      -4.125  -0.038 -14.370  1.00  0.00     0.031 A 
ATOM     59  C   UNL     1      -4.559  -1.607 -16.148  1.00  0.00     0.131 A 
ATOM     60  C   UNL     1      -5.504   0.211 -14.293  1.00  0.00     0.055 A 
ATOM     61  C   UNL     1      -5.918  -1.292 -16.122  1.00  0.00     0.041 A 
ATOM     62  F   UNL     1      -4.155  -2.543 -17.021  1.00  0.00    -0.206 F 
ATOM     63  C   UNL     1      -6.401  -0.390 -15.180  1.00  0.00     0.022 A 
BRANCH  60  64
ATOM     64  S   UNL     1      -6.128   1.212 -12.914  1.00  0.00     0.124 S 
ATOM     65  O   UNL     1      -5.647   0.458 -11.759  1.00  0.00    -0.237 OA
ATOM     66  O   UNL     1      -5.489   2.502 -13.146  1.00  0.00    -0.237 OA
ATOM     67  O   UNL     1      -7.577   1.190 -13.103  1.00  0.00    -0.744 OA
ENDBRANCH  60  64
ENDBRANCH  43  57
BRANCH  44  68
ATOM     68  C   UNL     1       5.950  -3.918 -15.077  1.00  0.00     0.023 A 
ATOM     69  C   UNL     1       7.019  -3.042 -15.326  1.00  0.00     0.031 A 
ATOM     70  C   UNL     1       6.247  -5.284 -14.911  1.00  0.00     0.131 A 
ATOM     71  C   UNL     1       8.324  -3.547 -15.453  1.00  0.00     0.055 A 
ATOM     72  C   UNL     1       7.554  -5.771 -14.975  1.00  0.00     0.041 A 
ATOM     73  F   UNL     1       5.265  -6.172 -14.688  1.00  0.00    -0.206 F 
ATOM     74  C   UNL     1       8.601  -4.902 -15.262  1.00  0.00     0.022 A 
BRANCH  71  75
ATOM     75  S   UNL     1       9.646  -2.421 -15.982  1.00  0.00     0.124 S 
ATOM     76  O   UNL     1       9.137  -1.951 -17.265  1.00  0.00    -0.237 OA
ATOM     77  O   UNL     1       9.663  -1.442 -14.900  1.00  0.00    -0.237 OA
ATOM     78  O   UNL     1      10.821  -3.286 -16.055  1.00  0.00    -0.744 OA
ENDBRANCH  71  75
ENDBRANCH  44  68
BRANCH  56  79
ATOM     79  C   UNL     1       1.909  -0.941 -19.943  1.00  0.00     0.023 A 
ATOM     80  C   UNL     1       2.182  -1.830 -20.997  1.00  0.00     0.031 A 
ATOM     81  C   UNL     1       1.867   0.436 -20.235  1.00  0.00     0.131 A 
ATOM     82  C   UNL     1       2.438  -1.330 -22.285  1.00  0.00     0.055 A 
ATOM     83  C   UNL     1       2.064   0.923 -21.527  1.00  0.00     0.041 A 
ATOM     84  F   UNL     1       1.614   1.331 -19.266  1.00  0.00    -0.206 F 
ATOM     85  C   UNL     1       2.360   0.039 -22.559  1.00  0.00     0.022 A 
BRANCH  82  86
ATOM     86  S   UNL     1       2.939  -2.485 -23.591  1.00  0.00     0.124 S 
ATOM     87  O   UNL     1       4.161  -3.058 -23.037  1.00  0.00    -0.237 OA
ATOM     88  O   UNL     1       1.792  -3.384 -23.671  1.00  0.00    -0.237 OA
ATOM     89  O   UNL     1       3.131  -1.624 -24.757  1.00  0.00    -0.744 OA
ENDBRANCH  82  86
ENDBRANCH  56  79
ENDBRANCH  30  31
ENDBRANCH  23  25
ENDBRANCH  22  23
ENDBRANCH   1  22
TORSDOF 16
