REMARK SMILES O=C(COc1ccccc1/C=C1/SC(=S)N(c2ccc(F)c(Cl)c2)C1=O)OCCOC(=O)c1ccc(-c2c3nc(c(-c4cc(S(=O)(=O)[O-])ccc4F)c4ccc([nH]4)c(-c4cc(S(=O)(=O)[O-])ccc4F)c4nc(c(-c5cc(S(=O)(=O)[O-])ccc5F)c5ccc2[nH]5)C=C4)C=C3)cc1
REMARK SMILES IDX 28 1 27 2 2 3 1 4 3 5 4 6 5 7 6 8 10 9 7 10 9 11 8 12 11 13
REMARK SMILES IDX 12 14 13 15 25 16 14 17 16 18 26 19 15 20 17 21 18 22 24 23
REMARK SMILES IDX 19 24 22 25 20 26 23 27 21 28 29 29 30 30 31 31 32 32 33 33
REMARK SMILES IDX 34 34 95 35 35 36 94 37 36 38 37 39 38 40 88 41 39 42 93 43
REMARK SMILES IDX 87 44 89 45 40 46 92 47 86 48 85 49 41 51 73 52 53 53 72 54
REMARK SMILES IDX 54 55 57 56 71 57 90 58 55 59 56 60 70 62 91 63 58 64 42 65
REMARK SMILES IDX 43 66 51 67 44 68 50 69 52 70 49 71 45 72 46 73 47 74 48 75
REMARK SMILES IDX 74 76 75 77 83 78 76 79 82 80 84 81 81 82 77 83 78 84 79 85
REMARK SMILES IDX 80 86 59 87 60 88 68 89 61 90 67 91 69 92 66 93 62 94 63 95
REMARK SMILES IDX 64 96 65 97
REMARK H PARENT 89 50 57 61
REMARK Flexibility Score: inf
ROOT
ATOM      1  C   UNL     1       4.804  -0.404  -0.892  1.00  0.00     0.274 C 
ENDROOT
BRANCH   1   2
ATOM      2  O   UNL     1       3.479  -0.489  -0.323  1.00  0.00    -0.460 OA
BRANCH   2   3
ATOM      3  C   UNL     1       2.545   0.486  -0.473  1.00  0.00     0.344 C 
ATOM      4  O   UNL     1       1.348   0.216  -0.420  1.00  0.00    -0.248 OA
BRANCH   3   5
ATOM      5  C   UNL     1       3.033   1.914  -0.561  1.00  0.00     0.352 C 
BRANCH   5   6
ATOM      6  O   UNL     1       3.901   2.157   0.547  1.00  0.00    -0.481 OA
BRANCH   6   7
ATOM      7  C   UNL     1       3.325   3.025   1.441  1.00  0.00     0.127 A 
ATOM      8  C   UNL     1       3.756   4.353   1.365  1.00  0.00     0.047 A 
ATOM      9  C   UNL     1       2.372   2.625   2.397  1.00  0.00     0.018 A 
ATOM     10  C   UNL     1       3.200   5.314   2.204  1.00  0.00     0.004 A 
ATOM     11  C   UNL     1       1.819   3.612   3.227  1.00  0.00     0.012 A 
ATOM     12  C   UNL     1       2.229   4.945   3.131  1.00  0.00     0.001 A 
BRANCH   9  13
ATOM     13  C   UNL     1       1.815   1.267   2.529  1.00  0.00     0.033 C 
ATOM     14  C   UNL     1       2.459   0.110   2.747  1.00  0.00     0.081 C 
ATOM     15  S   UNL     1       1.658  -1.415   2.712  1.00  0.00    -0.054 SA
ATOM     16  C   UNL     1       3.920  -0.100   2.933  1.00  0.00     0.270 C 
ATOM     17  C   UNL     1       3.169  -2.313   2.579  1.00  0.00     0.152 C 
ATOM     18  N   UNL     1       4.247  -1.443   2.704  1.00  0.00    -0.261 N 
ATOM     19  O   UNL     1       4.683   0.806   3.240  1.00  0.00    -0.268 OA
ATOM     20  S   UNL     1       3.147  -3.985   2.472  1.00  0.00    -0.051 S 
BRANCH  18  21
ATOM     21  C   UNL     1       5.630  -1.817   2.585  1.00  0.00     0.052 A 
ATOM     22  C   UNL     1       6.601  -1.228   3.413  1.00  0.00     0.030 A 
ATOM     23  C   UNL     1       6.071  -2.671   1.559  1.00  0.00     0.050 A 
ATOM     24  C   UNL     1       7.965  -1.453   3.208  1.00  0.00     0.043 A 
ATOM     25  C   UNL     1       7.438  -2.880   1.342  1.00  0.00     0.078 A 
ATOM     26  C   UNL     1       8.377  -2.267   2.163  1.00  0.00     0.141 A 
ATOM     27  Cl  UNL     1       7.942  -3.842   0.005  1.00  0.00    -0.081 Cl
ATOM     28  F   UNL     1       9.691  -2.430   1.951  1.00  0.00    -0.205 F 
ENDBRANCH  18  21
ENDBRANCH   9  13
ENDBRANCH   6   7
ENDBRANCH   5   6
ENDBRANCH   3   5
ENDBRANCH   2   3
ENDBRANCH   1   2
BRANCH   1  29
ATOM     29  C   UNL     1       4.933  -1.495  -1.958  1.00  0.00     0.275 C 
BRANCH  29  30
ATOM     30  O   UNL     1       4.328  -0.998  -3.162  1.00  0.00    -0.458 OA
BRANCH  30  31
ATOM     31  C   UNL     1       2.981  -1.161  -3.263  1.00  0.00     0.338 C 
ATOM     32  O   UNL     1       2.308  -1.990  -2.689  1.00  0.00    -0.246 OA
BRANCH  31  33
ATOM     33  C   UNL     1       2.463   0.046  -3.957  1.00  0.00     0.060 A 
ATOM     34  C   UNL     1       1.227   0.578  -3.565  1.00  0.00     0.016 A 
ATOM     35  C   UNL     1       3.250   0.720  -4.896  1.00  0.00     0.016 A 
ATOM     36  C   UNL     1       0.792   1.801  -4.083  1.00  0.00     0.010 A 
ATOM     37  C   UNL     1       2.810   1.929  -5.426  1.00  0.00     0.010 A 
ATOM     38  C   UNL     1       1.579   2.473  -5.027  1.00  0.00    -0.014 A 
BRANCH  38  39
ATOM     39  C   UNL     1       1.079   3.653  -5.764  1.00  0.00     0.031 A 
ATOM     40  C   UNL     1       0.415   3.408  -7.088  1.00  0.00     0.074 A 
ATOM     41  C   UNL     1       1.334   4.900  -5.329  1.00  0.00     0.049 A 
ATOM     42  N   UNL     1       0.107   4.257  -8.029  1.00  0.00    -0.248 NA
ATOM     43  C   UNL     1       0.081   2.008  -7.399  1.00  0.00     0.031 C 
ATOM     44  C   UNL     1       1.953   5.240  -4.048  1.00  0.00     0.029 A 
ATOM     45  N   UNL     1       1.145   6.113  -5.943  1.00  0.00    -0.354 N 
ATOM     46  C   UNL     1      -0.440   3.494  -9.054  1.00  0.00     0.074 A 
ATOM     47  C   UNL     1      -0.410   2.114  -8.624  1.00  0.00     0.031 C 
ATOM     48  C   UNL     1       2.133   6.572  -3.991  1.00  0.00     0.029 A 
ATOM     49  C   UNL     1       1.688   7.171  -5.249  1.00  0.00     0.049 A 
ATOM     50  H   UNL     1       0.668   6.217  -6.798  1.00  0.00     0.167 HD
ATOM     51  C   UNL     1      -0.914   3.913 -10.250  1.00  0.00     0.034 A 
ATOM     52  C   UNL     1       1.851   8.460  -5.616  1.00  0.00     0.034 A 
ATOM     53  C   UNL     1      -0.918   5.291 -10.664  1.00  0.00     0.049 A 
ATOM     54  C   UNL     1       1.381   8.887  -6.990  1.00  0.00     0.074 A 
ATOM     55  C   UNL     1      -1.424   5.838 -11.828  1.00  0.00     0.029 A 
ATOM     56  N   UNL     1      -0.367   6.336  -9.935  1.00  0.00    -0.354 N 
ATOM     57  N   UNL     1       0.811   8.167  -7.931  1.00  0.00    -0.248 NA
ATOM     58  C   UNL     1       1.581  10.297  -7.356  1.00  0.00     0.031 C 
ATOM     59  C   UNL     1      -1.112   7.202 -11.838  1.00  0.00     0.029 A 
ATOM     60  C   UNL     1      -0.477   7.518 -10.647  1.00  0.00     0.049 A 
ATOM     61  H   UNL     1       0.042   6.249  -9.044  1.00  0.00     0.167 HD
ATOM     62  C   UNL     1       0.563   9.044  -8.985  1.00  0.00     0.074 A 
ATOM     63  C   UNL     1       1.028  10.347  -8.559  1.00  0.00     0.031 C 
ATOM     64  C   UNL     1       0.002   8.803 -10.197  1.00  0.00     0.034 A 
BRANCH  51  65
ATOM     65  C   UNL     1      -1.405   2.863 -11.210  1.00  0.00     0.023 A 
ATOM     66  C   UNL     1      -2.560   2.106 -10.953  1.00  0.00     0.031 A 
ATOM     67  C   UNL     1      -0.695   2.610 -12.397  1.00  0.00     0.131 A 
ATOM     68  C   UNL     1      -2.945   1.098 -11.849  1.00  0.00     0.055 A 
ATOM     69  C   UNL     1      -1.120   1.651 -13.316  1.00  0.00     0.041 A 
ATOM     70  F   UNL     1       0.431   3.286 -12.676  1.00  0.00    -0.206 F 
ATOM     71  C   UNL     1      -2.247   0.881 -13.040  1.00  0.00     0.022 A 
BRANCH  68  72
ATOM     72  S   UNL     1      -4.318   0.006 -11.390  1.00  0.00     0.124 S 
ATOM     73  O   UNL     1      -3.793  -0.637 -10.189  1.00  0.00    -0.237 OA
ATOM     74  O   UNL     1      -5.414   0.946 -11.184  1.00  0.00    -0.237 OA
ATOM     75  O   UNL     1      -4.459  -0.872 -12.550  1.00  0.00    -0.744 OA
ENDBRANCH  68  72
ENDBRANCH  51  65
BRANCH  52  76
ATOM     76  C   UNL     1       2.552   9.435  -4.726  1.00  0.00     0.023 A 
ATOM     77  C   UNL     1       1.901  10.588  -4.261  1.00  0.00     0.031 A 
ATOM     78  C   UNL     1       3.914   9.279  -4.411  1.00  0.00     0.131 A 
ATOM     79  C   UNL     1       2.624  11.570  -3.565  1.00  0.00     0.055 A 
ATOM     80  C   UNL     1       4.615  10.231  -3.667  1.00  0.00     0.041 A 
ATOM     81  F   UNL     1       4.591   8.198  -4.832  1.00  0.00    -0.206 F 
ATOM     82  C   UNL     1       3.974  11.394  -3.255  1.00  0.00     0.022 A 
BRANCH  79  83
ATOM     83  S   UNL     1       1.803  13.142  -3.178  1.00  0.00     0.124 S 
ATOM     84  O   UNL     1       1.345  13.569  -4.496  1.00  0.00    -0.237 OA
ATOM     85  O   UNL     1       0.766  12.717  -2.244  1.00  0.00    -0.237 OA
ATOM     86  O   UNL     1       2.873  13.950  -2.596  1.00  0.00    -0.744 OA
ENDBRANCH  79  83
ENDBRANCH  52  76
BRANCH  64  87
ATOM     87  C   UNL     1      -0.170   9.979 -11.124  1.00  0.00     0.023 A 
ATOM     88  C   UNL     1       0.932  10.611 -11.723  1.00  0.00     0.031 A 
ATOM     89  C   UNL     1      -1.457  10.459 -11.424  1.00  0.00     0.131 A 
ATOM     90  C   UNL     1       0.730  11.717 -12.561  1.00  0.00     0.055 A 
ATOM     91  C   UNL     1      -1.656  11.524 -12.303  1.00  0.00     0.041 A 
ATOM     92  F   UNL     1      -2.543   9.889 -10.878  1.00  0.00    -0.206 F 
ATOM     93  C   UNL     1      -0.558  12.165 -12.870  1.00  0.00     0.022 A 
BRANCH  90  94
ATOM     94  S   UNL     1       2.177  12.604 -13.199  1.00  0.00     0.124 S 
ATOM     95  O   UNL     1       2.813  13.068 -11.970  1.00  0.00    -0.237 OA
ATOM     96  O   UNL     1       2.888  11.561 -13.929  1.00  0.00    -0.237 OA
ATOM     97  O   UNL     1       1.595  13.655 -14.032  1.00  0.00    -0.744 OA
ENDBRANCH  90  94
ENDBRANCH  64  87
ENDBRANCH  38  39
ENDBRANCH  31  33
ENDBRANCH  30  31
ENDBRANCH  29  30
ENDBRANCH   1  29
TORSDOF 18
