REMARK SMILES CCCC[NH2+][C@H]1CS(=O)(=O)C[C@@H]1[NH2+]CC(=O)OCCOC(=O)c1ccc(-c2c3nc(c(-c4cc(S(=O)(=O)[O-])ccc4F)c4ccc([nH]4)c(-c4cc(S(=O)(=O)[O-])ccc4F)c4nc(c(-c5cc(S(=O)(=O)[O-])ccc5F)c5ccc2[nH]5)C=C4)C=C3)cc1
REMARK SMILES IDX 17 1 15 2 16 3 14 4 13 5 12 8 6 9 7 10 8 11 11 12 9 13 10 14
REMARK SMILES IDX 5 15 4 18 3 19 2 20 1 21 18 22 19 23 20 24 21 25 22 26 23 27
REMARK SMILES IDX 24 28 85 29 25 30 84 31 26 32 27 33 28 34 78 35 29 36 83 37
REMARK SMILES IDX 77 38 79 39 30 40 82 41 76 42 75 43 31 45 63 46 43 47 62 48
REMARK SMILES IDX 44 49 47 50 61 51 80 52 45 53 46 54 60 56 81 57 48 58 32 59
REMARK SMILES IDX 33 60 41 61 34 62 40 63 42 64 39 65 35 66 36 67 37 68 38 69
REMARK SMILES IDX 64 70 65 71 73 72 66 73 72 74 74 75 71 76 67 77 68 78 69 79
REMARK SMILES IDX 70 80 49 81 50 82 58 83 51 84 57 85 59 86 56 87 52 88 53 89
REMARK SMILES IDX 54 90 55 91
REMARK H PARENT 13 6 13 7 5 16 5 17 79 44 47 55
REMARK Flexibility Score: inf
ROOT
ATOM      1  O   UNL     1      -4.458  -2.320  -2.546  1.00  0.00    -0.458 OA
ENDROOT
BRANCH   1   2
ATOM      2  C   UNL     1      -4.267  -1.285  -1.683  1.00  0.00     0.361 C 
ATOM      3  O   UNL     1      -4.768  -0.173  -1.802  1.00  0.00    -0.245 OA
BRANCH   2   4
ATOM      4  C   UNL     1      -3.343  -1.661  -0.521  1.00  0.00     0.385 C 
BRANCH   4   5
ATOM      5  N   UNL     1      -3.509  -3.072  -0.115  1.00  0.00    -0.329 N 
ATOM      6  H   UNL     1      -4.505  -3.293  -0.112  1.00  0.00     0.347 HD
ATOM      7  H   UNL     1      -2.991  -3.642  -0.783  1.00  0.00     0.347 HD
BRANCH   5   8
ATOM      8  C   UNL     1      -2.962  -3.360   1.222  1.00  0.00     0.258 C 
ATOM      9  C   UNL     1      -1.482  -3.833   1.089  1.00  0.00     0.257 C 
ATOM     10  C   UNL     1      -1.521  -5.299   0.646  1.00  0.00     0.208 C 
ATOM     11  S   UNL     1      -2.978  -6.010   1.382  1.00  0.00     0.162 S 
ATOM     12  C   UNL     1      -3.749  -4.490   1.899  1.00  0.00     0.208 C 
ATOM     13  O   UNL     1      -3.768  -6.629   0.337  1.00  0.00    -0.228 OA
ATOM     14  O   UNL     1      -2.579  -6.754   2.561  1.00  0.00    -0.228 OA
BRANCH   9  15
ATOM     15  N   UNL     1      -0.596  -3.493   2.216  1.00  0.00    -0.338 N 
ATOM     16  H   UNL     1       0.363  -3.529   1.870  1.00  0.00     0.346 HD
ATOM     17  H   UNL     1      -0.919  -2.577   2.528  1.00  0.00     0.346 HD
BRANCH  15  18
ATOM     18  C   UNL     1      -0.660  -4.330   3.409  1.00  0.00     0.260 C 
BRANCH  18  19
ATOM     19  C   UNL     1       0.275  -3.810   4.511  1.00  0.00     0.061 C 
BRANCH  19  20
ATOM     20  C   UNL     1      -0.015  -2.394   5.021  1.00  0.00     0.002 C 
ATOM     21  C   UNL     1      -1.447  -2.190   5.490  1.00  0.00     0.004 C 
ENDBRANCH  19  20
ENDBRANCH  18  19
ENDBRANCH  15  18
ENDBRANCH   9  15
ENDBRANCH   5   8
ENDBRANCH   4   5
ENDBRANCH   2   4
ENDBRANCH   1   2
BRANCH   1  22
ATOM     22  C   UNL     1      -5.471  -2.148  -3.553  1.00  0.00     0.274 C 
BRANCH  22  23
ATOM     23  C   UNL     1      -6.717  -2.971  -3.209  1.00  0.00     0.275 C 
BRANCH  23  24
ATOM     24  O   UNL     1      -7.462  -2.391  -2.119  1.00  0.00    -0.458 OA
BRANCH  24  25
ATOM     25  C   UNL     1      -7.086  -2.799  -0.885  1.00  0.00     0.338 C 
ATOM     26  O   UNL     1      -6.204  -3.594  -0.608  1.00  0.00    -0.246 OA
BRANCH  25  27
ATOM     27  C   UNL     1      -7.789  -2.033   0.154  1.00  0.00     0.060 A 
ATOM     28  C   UNL     1      -7.011  -1.410   1.135  1.00  0.00     0.016 A 
ATOM     29  C   UNL     1      -9.182  -2.007   0.224  1.00  0.00     0.016 A 
ATOM     30  C   UNL     1      -7.626  -0.767   2.204  1.00  0.00     0.010 A 
ATOM     31  C   UNL     1      -9.798  -1.354   1.295  1.00  0.00     0.010 A 
ATOM     32  C   UNL     1      -9.024  -0.743   2.297  1.00  0.00    -0.014 A 
BRANCH  32  33
ATOM     33  C   UNL     1      -9.666  -0.106   3.472  1.00  0.00     0.031 A 
ATOM     34  C   UNL     1     -10.262  -0.960   4.554  1.00  0.00     0.074 A 
ATOM     35  C   UNL     1      -9.685   1.236   3.572  1.00  0.00     0.049 A 
ATOM     36  N   UNL     1     -10.905  -0.598   5.634  1.00  0.00    -0.248 NA
ATOM     37  C   UNL     1     -10.117  -2.414   4.395  1.00  0.00     0.031 C 
ATOM     38  C   UNL     1      -9.101   2.160   2.598  1.00  0.00     0.029 A 
ATOM     39  N   UNL     1     -10.213   2.054   4.536  1.00  0.00    -0.354 N 
ATOM     40  C   UNL     1     -11.250  -1.778   6.283  1.00  0.00     0.074 A 
ATOM     41  C   UNL     1     -10.769  -2.866   5.457  1.00  0.00     0.031 C 
ATOM     42  C   UNL     1      -9.304   3.420   3.017  1.00  0.00     0.029 A 
ATOM     43  C   UNL     1     -10.071   3.393   4.259  1.00  0.00     0.049 A 
ATOM     44  H   UNL     1     -10.653   1.716   5.349  1.00  0.00     0.167 HD
ATOM     45  C   UNL     1     -11.903  -1.935   7.462  1.00  0.00     0.034 A 
ATOM     46  C   UNL     1     -10.533   4.475   4.917  1.00  0.00     0.034 A 
ATOM     47  C   UNL     1     -12.382  -0.837   8.268  1.00  0.00     0.049 A 
ATOM     48  C   UNL     1     -11.319   4.273   6.186  1.00  0.00     0.074 A 
ATOM     49  C   UNL     1     -13.045  -0.881   9.482  1.00  0.00     0.029 A 
ATOM     50  N   UNL     1     -12.259   0.507   7.935  1.00  0.00    -0.354 N 
ATOM     51  N   UNL     1     -11.642   3.151   6.788  1.00  0.00    -0.248 NA
ATOM     52  C   UNL     1     -11.799   5.482   6.866  1.00  0.00     0.031 C 
ATOM     53  C   UNL     1     -13.377   0.428   9.851  1.00  0.00     0.029 A 
ATOM     54  C   UNL     1     -12.860   1.297   8.903  1.00  0.00     0.049 A 
ATOM     55  H   UNL     1     -11.809   0.849   7.128  1.00  0.00     0.167 HD
ATOM     56  C   UNL     1     -12.345   3.524   7.930  1.00  0.00     0.074 A 
ATOM     57  C   UNL     1     -12.384   4.972   7.939  1.00  0.00     0.031 C 
ATOM     58  C   UNL     1     -12.905   2.740   8.888  1.00  0.00     0.034 A 
BRANCH  45  59
ATOM     59  C   UNL     1     -12.181  -3.347   7.915  1.00  0.00     0.023 A 
ATOM     60  C   UNL     1     -11.144  -4.232   8.256  1.00  0.00     0.031 A 
ATOM     61  C   UNL     1     -13.502  -3.825   7.975  1.00  0.00     0.131 A 
ATOM     62  C   UNL     1     -11.439  -5.567   8.575  1.00  0.00     0.055 A 
ATOM     63  C   UNL     1     -13.794  -5.134   8.365  1.00  0.00     0.041 A 
ATOM     64  F   UNL     1     -14.531  -3.032   7.640  1.00  0.00    -0.206 F 
ATOM     65  C   UNL     1     -12.759  -6.018   8.653  1.00  0.00     0.022 A 
BRANCH  62  66
ATOM     66  S   UNL     1     -10.067  -6.740   8.749  1.00  0.00     0.124 S 
ATOM     67  O   UNL     1      -9.417  -6.628   7.445  1.00  0.00    -0.237 OA
ATOM     68  O   UNL     1      -9.327  -6.193   9.880  1.00  0.00    -0.237 OA
ATOM     69  O   UNL     1     -10.736  -8.015   8.997  1.00  0.00    -0.744 OA
ENDBRANCH  62  66
ENDBRANCH  45  59
BRANCH  46  70
ATOM     70  C   UNL     1     -10.307   5.841   4.367  1.00  0.00     0.023 A 
ATOM     71  C   UNL     1      -9.522   6.780   5.053  1.00  0.00     0.031 A 
ATOM     72  C   UNL     1     -10.909   6.238   3.160  1.00  0.00     0.131 A 
ATOM     73  C   UNL     1      -9.391   8.083   4.547  1.00  0.00     0.055 A 
ATOM     74  C   UNL     1     -10.736   7.519   2.636  1.00  0.00     0.041 A 
ATOM     75  F   UNL     1     -11.668   5.376   2.464  1.00  0.00    -0.206 F 
ATOM     76  C   UNL     1      -9.983   8.455   3.337  1.00  0.00     0.022 A 
BRANCH  73  77
ATOM     77  S   UNL     1      -8.494   9.312   5.534  1.00  0.00     0.124 S 
ATOM     78  O   UNL     1      -9.255   9.307   6.779  1.00  0.00    -0.237 OA
ATOM     79  O   UNL     1      -7.157   8.731   5.597  1.00  0.00    -0.237 OA
ATOM     80  O   UNL     1      -8.604  10.533   4.739  1.00  0.00    -0.744 OA
ENDBRANCH  73  77
ENDBRANCH  46  70
BRANCH  58  81
ATOM     81  C   UNL     1     -13.570   3.448  10.042  1.00  0.00     0.023 A 
ATOM     82  C   UNL     1     -14.756   4.184   9.872  1.00  0.00     0.031 A 
ATOM     83  C   UNL     1     -12.998   3.399  11.325  1.00  0.00     0.131 A 
ATOM     84  C   UNL     1     -15.302   4.887  10.957  1.00  0.00     0.055 A 
ATOM     85  C   UNL     1     -13.576   4.056  12.412  1.00  0.00     0.041 A 
ATOM     86  F   UNL     1     -11.864   2.712  11.541  1.00  0.00    -0.206 F 
ATOM     87  C   UNL     1     -14.727   4.816  12.228  1.00  0.00     0.022 A 
BRANCH  84  88
ATOM     88  S   UNL     1     -16.728   5.970  10.665  1.00  0.00     0.124 S 
ATOM     89  O   UNL     1     -16.205   6.899   9.668  1.00  0.00    -0.237 OA
ATOM     90  O   UNL     1     -17.741   5.032  10.192  1.00  0.00    -0.237 OA
ATOM     91  O   UNL     1     -16.991   6.554  11.979  1.00  0.00    -0.744 OA
ENDBRANCH  84  88
ENDBRANCH  58  81
ENDBRANCH  32  33
ENDBRANCH  25  27
ENDBRANCH  24  25
ENDBRANCH  23  24
ENDBRANCH  22  23
ENDBRANCH   1  22
TORSDOF 20
