REMARK SMILES O=C(OCCOC(=O)c1cccnc1C[N@@H+]1CCC[C@H]1c1ccccn1)c1ccc(-c2c3nc(c(-c4cc(S(=O)(=O)[O-])ccc4F)c4ccc([nH]4)c(-c4cc(S(=O)(=O)[O-])ccc4F)c4nc(c(-c5cc(S(=O)(=O)[O-])ccc5F)c5ccc2[nH]5)C=C4)C=C3)cc1
REMARK SMILES IDX 4 1 3 2 2 3 1 4 27 5 28 6 89 7 29 8 88 9 30 10 31 11 32 12
REMARK SMILES IDX 82 13 33 14 87 15 81 16 83 17 34 18 86 19 80 20 79 21 35 23
REMARK SMILES IDX 67 24 47 25 66 26 48 27 51 28 65 29 84 30 49 31 50 32 64 34
REMARK SMILES IDX 85 35 52 36 36 37 37 38 45 39 38 40 44 41 46 42 43 43 39 44
REMARK SMILES IDX 40 45 41 46 42 47 68 48 69 49 77 50 70 51 76 52 78 53 75 54
REMARK SMILES IDX 71 55 72 56 73 57 74 58 53 59 54 60 62 61 55 62 61 63 63 64
REMARK SMILES IDX 60 65 56 66 57 67 58 68 59 69 5 70 6 71 7 72 8 73 9 74 10 75
REMARK SMILES IDX 14 76 11 77 13 78 12 79 15 80 16 81 17 82 20 83 18 85 19 86
REMARK SMILES IDX 21 87 22 88 26 89 23 90 25 91 24 92
REMARK H PARENT 83 22 51 33 16 84
REMARK Flexibility Score: inf
ROOT
ATOM      1  C   UNL     1       4.754   1.321  -1.465  1.00  0.00     0.275 C 
ENDROOT
BRANCH   1   2
ATOM      2  O   UNL     1       4.297  -0.032  -1.504  1.00  0.00    -0.458 OA
BRANCH   2   3
ATOM      3  C   UNL     1       4.158  -0.814  -0.413  1.00  0.00     0.338 C 
ATOM      4  O   UNL     1       3.393  -1.771  -0.453  1.00  0.00    -0.246 OA
BRANCH   3   5
ATOM      5  C   UNL     1       4.804  -0.442   0.879  1.00  0.00     0.060 A 
ATOM      6  C   UNL     1       6.127  -0.088   1.112  1.00  0.00     0.016 A 
ATOM      7  C   UNL     1       3.949  -0.500   1.966  1.00  0.00     0.016 A 
ATOM      8  C   UNL     1       6.555   0.169   2.432  1.00  0.00     0.010 A 
ATOM      9  C   UNL     1       4.337  -0.243   3.270  1.00  0.00     0.010 A 
ATOM     10  C   UNL     1       5.667   0.050   3.515  1.00  0.00    -0.014 A 
BRANCH  10  11
ATOM     11  C   UNL     1       6.101   0.066   4.924  1.00  0.00     0.031 A 
ATOM     12  C   UNL     1       6.437  -1.245   5.577  1.00  0.00     0.074 A 
ATOM     13  C   UNL     1       6.043   1.202   5.639  1.00  0.00     0.049 A 
ATOM     14  N   UNL     1       7.001  -1.467   6.733  1.00  0.00    -0.248 NA
ATOM     15  C   UNL     1       6.077  -2.467   4.836  1.00  0.00     0.031 C 
ATOM     16  C   UNL     1       5.571   2.491   5.132  1.00  0.00     0.029 A 
ATOM     17  N   UNL     1       6.352   1.450   6.949  1.00  0.00    -0.354 N 
ATOM     18  C   UNL     1       7.142  -2.848   6.820  1.00  0.00     0.074 A 
ATOM     19  C   UNL     1       6.496  -3.416   5.658  1.00  0.00     0.031 C 
ATOM     20  C   UNL     1       5.611   3.394   6.128  1.00  0.00     0.029 A 
ATOM     21  C   UNL     1       6.141   2.753   7.328  1.00  0.00     0.049 A 
ATOM     22  H   UNL     1       6.694   0.759   7.561  1.00  0.00     0.167 HD
ATOM     23  C   UNL     1       7.801  -3.559   7.766  1.00  0.00     0.034 A 
ATOM     24  C   UNL     1       6.390   3.359   8.505  1.00  0.00     0.034 A 
ATOM     25  C   UNL     1       8.352  -2.943   8.948  1.00  0.00     0.049 A 
ATOM     26  C   UNL     1       7.109   2.562   9.565  1.00  0.00     0.074 A 
ATOM     27  C   UNL     1       9.113  -3.508   9.954  1.00  0.00     0.029 A 
ATOM     28  N   UNL     1       8.157  -1.609   9.298  1.00  0.00    -0.354 N 
ATOM     29  N   UNL     1       7.446   1.291   9.554  1.00  0.00    -0.248 NA
ATOM     30  C   UNL     1       7.543   3.292  10.760  1.00  0.00     0.031 C 
ATOM     31  C   UNL     1       9.312  -2.538  10.944  1.00  0.00     0.029 A 
ATOM     32  C   UNL     1       8.749  -1.342  10.519  1.00  0.00     0.049 A 
ATOM     33  H   UNL     1       7.668  -0.951   8.754  1.00  0.00     0.167 HD
ATOM     34  C   UNL     1       8.180   1.081  10.717  1.00  0.00     0.074 A 
ATOM     35  C   UNL     1       8.237   2.362  11.399  1.00  0.00     0.031 C 
ATOM     36  C   UNL     1       8.770  -0.054  11.177  1.00  0.00     0.034 A 
BRANCH  23  37
ATOM     37  C   UNL     1       7.958  -5.046   7.542  1.00  0.00     0.023 A 
ATOM     38  C   UNL     1       8.617  -5.545   6.400  1.00  0.00     0.031 A 
ATOM     39  C   UNL     1       7.447  -5.981   8.457  1.00  0.00     0.131 A 
ATOM     40  C   UNL     1       8.684  -6.927   6.167  1.00  0.00     0.055 A 
ATOM     41  C   UNL     1       7.583  -7.358   8.258  1.00  0.00     0.041 A 
ATOM     42  F   UNL     1       6.791  -5.576   9.556  1.00  0.00    -0.206 F 
ATOM     43  C   UNL     1       8.193  -7.839   7.101  1.00  0.00     0.022 A 
BRANCH  40  44
ATOM     44  S   UNL     1       9.313  -7.511   4.567  1.00  0.00     0.124 S 
ATOM     45  O   UNL     1       8.384  -6.880   3.633  1.00  0.00    -0.237 OA
ATOM     46  O   UNL     1      10.677  -6.995   4.556  1.00  0.00    -0.237 OA
ATOM     47  O   UNL     1       9.197  -8.964   4.663  1.00  0.00    -0.744 OA
ENDBRANCH  40  44
ENDBRANCH  23  37
BRANCH  24  48
ATOM     48  C   UNL     1       6.052   4.797   8.694  1.00  0.00     0.023 A 
ATOM     49  C   UNL     1       7.056   5.769   8.823  1.00  0.00     0.031 A 
ATOM     50  C   UNL     1       4.712   5.224   8.743  1.00  0.00     0.131 A 
ATOM     51  C   UNL     1       6.710   7.112   9.039  1.00  0.00     0.055 A 
ATOM     52  C   UNL     1       4.372   6.568   8.919  1.00  0.00     0.041 A 
ATOM     53  F   UNL     1       3.712   4.340   8.599  1.00  0.00    -0.206 F 
ATOM     54  C   UNL     1       5.375   7.520   9.080  1.00  0.00     0.022 A 
BRANCH  51  55
ATOM     55  S   UNL     1       8.037   8.314   9.330  1.00  0.00     0.124 S 
ATOM     56  O   UNL     1       8.746   7.710  10.452  1.00  0.00    -0.237 OA
ATOM     57  O   UNL     1       8.735   8.304   8.049  1.00  0.00    -0.237 OA
ATOM     58  O   UNL     1       7.316   9.547   9.636  1.00  0.00    -0.744 OA
ENDBRANCH  51  55
ENDBRANCH  24  48
BRANCH  36  59
ATOM     59  C   UNL     1       9.552   0.062  12.461  1.00  0.00     0.023 A 
ATOM     60  C   UNL     1       8.925   0.368  13.680  1.00  0.00     0.031 A 
ATOM     61  C   UNL     1      10.946  -0.123  12.459  1.00  0.00     0.131 A 
ATOM     62  C   UNL     1       9.699   0.551  14.833  1.00  0.00     0.055 A 
ATOM     63  C   UNL     1      11.701  -0.016  13.627  1.00  0.00     0.041 A 
ATOM     64  F   UNL     1      11.597  -0.414  11.321  1.00  0.00    -0.206 F 
ATOM     65  C   UNL     1      11.080   0.339  14.820  1.00  0.00     0.022 A 
BRANCH  62  66
ATOM     66  S   UNL     1       8.888   1.188  16.324  1.00  0.00     0.124 S 
ATOM     67  O   UNL     1       8.346   2.458  15.852  1.00  0.00    -0.237 OA
ATOM     68  O   UNL     1       7.908   0.146  16.615  1.00  0.00    -0.237 OA
ATOM     69  O   UNL     1       9.981   1.298  17.288  1.00  0.00    -0.744 OA
ENDBRANCH  62  66
ENDBRANCH  36  59
ENDBRANCH  10  11
ENDBRANCH   3   5
ENDBRANCH   2   3
ENDBRANCH   1   2
BRANCH   1  70
ATOM     70  C   UNL     1       3.746   2.323  -0.887  1.00  0.00     0.275 C 
BRANCH  70  71
ATOM     71  O   UNL     1       3.276   2.016   0.440  1.00  0.00    -0.458 OA
BRANCH  71  72
ATOM     72  C   UNL     1       1.978   1.612   0.609  1.00  0.00     0.340 C 
ATOM     73  O   UNL     1       1.177   1.370  -0.268  1.00  0.00    -0.246 OA
BRANCH  72  74
ATOM     74  C   UNL     1       1.661   1.585   2.069  1.00  0.00     0.087 A 
ATOM     75  C   UNL     1       2.181   2.656   2.831  1.00  0.00     0.019 A 
ATOM     76  C   UNL     1       0.909   0.584   2.728  1.00  0.00     0.109 A 
ATOM     77  C   UNL     1       1.933   2.741   4.192  1.00  0.00     0.021 A 
ATOM     78  N   UNL     1       0.596   0.749   4.045  1.00  0.00    -0.254 NA
ATOM     79  C   UNL     1       1.122   1.780   4.746  1.00  0.00     0.111 A 
BRANCH  76  80
ATOM     80  C   UNL     1       0.370  -0.718   2.072  1.00  0.00     0.321 C 
BRANCH  80  81
ATOM     81  N   UNL     1       0.305  -2.035   2.825  1.00  0.00    -0.322 N 
ATOM     82  C   UNL     1      -0.345  -1.963   4.137  1.00  0.00     0.263 C 
ATOM     83  C   UNL     1       1.575  -2.779   3.039  1.00  0.00     0.234 C 
ATOM     84  H   UNL     1      -0.258  -2.553   2.150  1.00  0.00     0.349 HD
ATOM     85  C   UNL     1       0.760  -2.044   5.180  1.00  0.00     0.068 C 
ATOM     86  C   UNL     1       1.776  -2.962   4.551  1.00  0.00     0.078 C 
BRANCH  83  87
ATOM     87  C   UNL     1       1.791  -4.121   2.341  1.00  0.00     0.098 A 
ATOM     88  C   UNL     1       1.014  -5.242   2.636  1.00  0.00     0.030 A 
ATOM     89  N   UNL     1       2.948  -4.233   1.634  1.00  0.00    -0.255 NA
ATOM     90  C   UNL     1       1.473  -6.506   2.253  1.00  0.00     0.004 A 
ATOM     91  C   UNL     1       3.355  -5.463   1.251  1.00  0.00     0.111 A 
ATOM     92  C   UNL     1       2.669  -6.622   1.555  1.00  0.00     0.020 A 
ENDBRANCH  83  87
ENDBRANCH  80  81
ENDBRANCH  76  80
ENDBRANCH  72  74
ENDBRANCH  71  72
ENDBRANCH  70  71
ENDBRANCH   1  70
TORSDOF 17
