REMARK SMILES CC[C@]1(C(=O)OCCOC(=O)c2ccc(-c3c4nc(c(-c5cc(S(=O)(=O)[O-])ccc5F)c5ccc([nH]5)c(-c5cc(S(=O)(=O)[O-])ccc5F)c5nc(c(-c6cc(S(=O)(=O)[O-])ccc6F)c6ccc3[nH]6)C=C5)C=C4)cc2)CC[N@@H+](Cc2nc(C)ccc2O)C1
REMARK SMILES IDX 7 1 6 2 4 3 5 4 3 5 75 6 87 7 76 8 77 9 2 11 1 12 78 13
REMARK SMILES IDX 79 14 80 15 85 16 81 17 84 18 82 19 83 20 86 21 8 23 9 24
REMARK SMILES IDX 10 25 11 26 12 27 13 28 74 29 14 30 73 31 15 32 16 33 17 34
REMARK SMILES IDX 67 35 18 36 72 37 66 38 68 39 19 40 71 41 65 42 64 43 20 45
REMARK SMILES IDX 52 46 32 47 51 48 33 49 36 50 50 51 69 52 34 53 35 54 49 56
REMARK SMILES IDX 70 57 37 58 21 59 22 60 30 61 23 62 29 63 31 64 28 65 24 66
REMARK SMILES IDX 25 67 26 68 27 69 53 70 54 71 62 72 55 73 61 74 63 75 60 76
REMARK SMILES IDX 56 77 57 78 58 79 59 80 38 81 39 82 47 83 40 84 46 85 48 86
REMARK SMILES IDX 45 87 41 88 42 89 43 90 44 91
REMARK H PARENT 77 10 86 22 68 44 36 55
REMARK Flexibility Score: inf
ROOT
ATOM      1  C   UNL     1       3.054  -0.412  -3.160  1.00  0.00     0.274 C 
ENDROOT
BRANCH   1   2
ATOM      2  O   UNL     1       2.424   0.640  -2.411  1.00  0.00    -0.461 OA
BRANCH   2   3
ATOM      3  C   UNL     1       1.111   0.860  -2.670  1.00  0.00     0.318 C 
ATOM      4  O   UNL     1       0.488   0.243  -3.528  1.00  0.00    -0.251 OA
BRANCH   3   5
ATOM      5  C   UNL     1       0.513   1.927  -1.748  1.00  0.00     0.122 C 
ATOM      6  C   UNL     1       1.565   2.942  -1.243  1.00  0.00     0.086 C 
ATOM      7  C   UNL     1      -0.421   2.823  -2.606  1.00  0.00     0.281 C 
ATOM      8  C   UNL     1       0.860   4.284  -1.281  1.00  0.00     0.264 C 
ATOM      9  N   UNL     1       0.002   4.225  -2.461  1.00  0.00    -0.329 N 
ATOM     10  H   UNL     1      -0.816   4.819  -2.328  1.00  0.00     0.348 HD
BRANCH   5  11
ATOM     11  C   UNL     1      -0.249   1.310  -0.531  1.00  0.00     0.021 C 
ATOM     12  C   UNL     1      -0.312  -0.212  -0.461  1.00  0.00     0.005 C 
ENDBRANCH   5  11
BRANCH   9  13
ATOM     13  C   UNL     1       0.600   4.818  -3.681  1.00  0.00     0.323 C 
BRANCH  13  14
ATOM     14  C   UNL     1       2.013   4.422  -4.082  1.00  0.00     0.136 A 
ATOM     15  N   UNL     1       3.021   5.218  -3.621  1.00  0.00    -0.248 NA
ATOM     16  C   UNL     1       2.276   3.281  -4.840  1.00  0.00     0.142 A 
ATOM     17  C   UNL     1       4.301   4.858  -3.876  1.00  0.00     0.038 A 
ATOM     18  C   UNL     1       3.594   2.913  -5.081  1.00  0.00     0.050 A 
ATOM     19  C   UNL     1       5.373   5.801  -3.418  1.00  0.00     0.067 C 
ATOM     20  C   UNL     1       4.624   3.711  -4.591  1.00  0.00     0.027 A 
BRANCH  16  21
ATOM     21  O   UNL     1       1.259   2.537  -5.356  1.00  0.00    -0.506 OA
ATOM     22  H   UNL     1       0.369   2.783  -5.196  1.00  0.00     0.293 HD
ENDBRANCH  16  21
ENDBRANCH  13  14
ENDBRANCH   9  13
ENDBRANCH   3   5
ENDBRANCH   2   3
ENDBRANCH   1   2
BRANCH   1  23
ATOM     23  C   UNL     1       4.449  -0.656  -2.584  1.00  0.00     0.275 C 
BRANCH  23  24
ATOM     24  O   UNL     1       4.315  -1.105  -1.226  1.00  0.00    -0.458 OA
BRANCH  24  25
ATOM     25  C   UNL     1       4.261  -0.106  -0.306  1.00  0.00     0.338 C 
ATOM     26  O   UNL     1       4.593   1.056  -0.473  1.00  0.00    -0.246 OA
BRANCH  25  27
ATOM     27  C   UNL     1       3.525  -0.595   0.880  1.00  0.00     0.060 A 
ATOM     28  C   UNL     1       2.686   0.308   1.540  1.00  0.00     0.016 A 
ATOM     29  C   UNL     1       3.615  -1.920   1.319  1.00  0.00     0.016 A 
ATOM     30  C   UNL     1       1.914  -0.111   2.618  1.00  0.00     0.010 A 
ATOM     31  C   UNL     1       2.872  -2.333   2.427  1.00  0.00     0.010 A 
ATOM     32  C   UNL     1       2.025  -1.426   3.082  1.00  0.00    -0.014 A 
BRANCH  32  33
ATOM     33  C   UNL     1       1.394  -1.777   4.372  1.00  0.00     0.031 A 
ATOM     34  C   UNL     1       2.131  -1.424   5.630  1.00  0.00     0.074 A 
ATOM     35  C   UNL     1       0.178  -2.348   4.414  1.00  0.00     0.049 A 
ATOM     36  N   UNL     1       1.765  -1.565   6.875  1.00  0.00    -0.248 NA
ATOM     37  C   UNL     1       3.460  -0.816   5.452  1.00  0.00     0.031 C 
ATOM     38  C   UNL     1      -0.638  -2.683   3.247  1.00  0.00     0.029 A 
ATOM     39  N   UNL     1      -0.584  -2.743   5.482  1.00  0.00    -0.354 N 
ATOM     40  C   UNL     1       2.802  -1.031   7.632  1.00  0.00     0.074 A 
ATOM     41  C   UNL     1       3.827  -0.602   6.705  1.00  0.00     0.031 C 
ATOM     42  C   UNL     1      -1.785  -3.246   3.666  1.00  0.00     0.029 A 
ATOM     43  C   UNL     1      -1.773  -3.335   5.125  1.00  0.00     0.049 A 
ATOM     44  H   UNL     1      -0.306  -2.616   6.418  1.00  0.00     0.167 HD
ATOM     45  C   UNL     1       2.889  -0.911   8.978  1.00  0.00     0.034 A 
ATOM     46  C   UNL     1      -2.727  -3.897   5.894  1.00  0.00     0.034 A 
ATOM     47  C   UNL     1       1.892  -1.425   9.883  1.00  0.00     0.049 A 
ATOM     48  C   UNL     1      -2.550  -3.867   7.395  1.00  0.00     0.074 A 
ATOM     49  C   UNL     1       1.891  -1.415  11.266  1.00  0.00     0.029 A 
ATOM     50  N   UNL     1       0.728  -2.077   9.489  1.00  0.00    -0.354 N 
ATOM     51  N   UNL     1      -1.575  -3.341   8.104  1.00  0.00    -0.248 NA
ATOM     52  C   UNL     1      -3.605  -4.495   8.199  1.00  0.00     0.031 C 
ATOM     53  C   UNL     1       0.769  -2.127  11.706  1.00  0.00     0.029 A 
ATOM     54  C   UNL     1       0.022  -2.508  10.601  1.00  0.00     0.049 A 
ATOM     55  H   UNL     1       0.447  -2.213   8.556  1.00  0.00     0.167 HD
ATOM     56  C   UNL     1      -1.917  -3.549   9.438  1.00  0.00     0.074 A 
ATOM     57  C   UNL     1      -3.195  -4.234   9.432  1.00  0.00     0.031 C 
ATOM     58  C   UNL     1      -1.245  -3.203  10.567  1.00  0.00     0.034 A 
BRANCH  45  59
ATOM     59  C   UNL     1       4.145  -0.278   9.522  1.00  0.00     0.023 A 
ATOM     60  C   UNL     1       4.472   1.064   9.248  1.00  0.00     0.031 A 
ATOM     61  C   UNL     1       5.070  -1.046  10.249  1.00  0.00     0.131 A 
ATOM     62  C   UNL     1       5.724   1.570   9.628  1.00  0.00     0.055 A 
ATOM     63  C   UNL     1       6.281  -0.512  10.694  1.00  0.00     0.041 A 
ATOM     64  F   UNL     1       4.827  -2.340  10.512  1.00  0.00    -0.206 F 
ATOM     65  C   UNL     1       6.622   0.797  10.369  1.00  0.00     0.022 A 
BRANCH  62  66
ATOM     66  S   UNL     1       6.233   3.194   8.998  1.00  0.00     0.124 S 
ATOM     67  O   UNL     1       6.155   2.989   7.554  1.00  0.00    -0.237 OA
ATOM     68  O   UNL     1       5.231   4.084   9.574  1.00  0.00    -0.237 OA
ATOM     69  O   UNL     1       7.588   3.357   9.524  1.00  0.00    -0.744 OA
ENDBRANCH  62  66
ENDBRANCH  45  59
BRANCH  46  70
ATOM     70  C   UNL     1      -3.905  -4.574   5.275  1.00  0.00     0.023 A 
ATOM     71  C   UNL     1      -5.215  -4.125   5.506  1.00  0.00     0.031 A 
ATOM     72  C   UNL     1      -3.735  -5.728   4.488  1.00  0.00     0.131 A 
ATOM     73  C   UNL     1      -6.304  -4.851   4.995  1.00  0.00     0.055 A 
ATOM     74  C   UNL     1      -4.818  -6.416   3.938  1.00  0.00     0.041 A 
ATOM     75  F   UNL     1      -2.505  -6.205   4.238  1.00  0.00    -0.206 F 
ATOM     76  C   UNL     1      -6.114  -5.986   4.202  1.00  0.00     0.022 A 
BRANCH  73  77
ATOM     77  S   UNL     1      -7.985  -4.343   5.453  1.00  0.00     0.124 S 
ATOM     78  O   UNL     1      -7.935  -4.428   6.908  1.00  0.00    -0.237 OA
ATOM     79  O   UNL     1      -8.059  -2.999   4.890  1.00  0.00    -0.237 OA
ATOM     80  O   UNL     1      -8.832  -5.338   4.798  1.00  0.00    -0.744 OA
ENDBRANCH  73  77
ENDBRANCH  46  70
BRANCH  58  81
ATOM     81  C   UNL     1      -1.908  -3.527  11.885  1.00  0.00     0.023 A 
ATOM     82  C   UNL     1      -2.112  -4.852  12.308  1.00  0.00     0.031 A 
ATOM     83  C   UNL     1      -2.347  -2.489  12.727  1.00  0.00     0.131 A 
ATOM     84  C   UNL     1      -2.792  -5.105  13.509  1.00  0.00     0.055 A 
ATOM     85  C   UNL     1      -2.963  -2.746  13.952  1.00  0.00     0.041 A 
ATOM     86  F   UNL     1      -2.178  -1.204  12.373  1.00  0.00    -0.206 F 
ATOM     87  C   UNL     1      -3.202  -4.060  14.342  1.00  0.00     0.022 A 
BRANCH  84  88
ATOM     88  S   UNL     1      -3.221  -6.817  13.923  1.00  0.00     0.124 S 
ATOM     89  O   UNL     1      -4.005  -7.223  12.761  1.00  0.00    -0.237 OA
ATOM     90  O   UNL     1      -1.911  -7.444  14.059  1.00  0.00    -0.237 OA
ATOM     91  O   UNL     1      -3.979  -6.690  15.167  1.00  0.00    -0.744 OA
ENDBRANCH  84  88
ENDBRANCH  58  81
ENDBRANCH  32  33
ENDBRANCH  25  27
ENDBRANCH  24  25
ENDBRANCH  23  24
ENDBRANCH   1  23
TORSDOF 18
