REMARK SMILES CC(C)(C)OC(=O)[C@@H]1[NH2+][C@H](C(=O)OCCOC(=O)c2ccc(-c3c4nc(c(-c5cc(S(=O)(=O)[O-])ccc5F)c5ccc([nH]5)c(-c5cc(S(=O)(=O)[O-])ccc5F)c5nc(c(-c6cc(S(=O)(=O)[O-])ccc6F)c6ccc3[nH]6)C=C5)C=C4)cc2)C(C)(C)S1
REMARK SMILES IDX 14 1 13 2 11 3 12 4 10 5 8 6 9 7 85 8 82 11 83 12 84 13 6 14
REMARK SMILES IDX 7 15 5 16 2 17 1 18 3 19 4 20 15 21 16 22 17 23 18 24 19 25
REMARK SMILES IDX 20 26 81 27 21 28 80 29 22 30 23 31 24 32 74 33 25 34 79 35
REMARK SMILES IDX 73 36 75 37 26 38 78 39 72 40 71 41 27 43 59 44 39 45 58 46
REMARK SMILES IDX 40 47 43 48 57 49 76 50 41 51 42 52 56 54 77 55 44 56 28 57
REMARK SMILES IDX 29 58 37 59 30 60 36 61 38 62 35 63 31 64 32 65 33 66 34 67
REMARK SMILES IDX 60 68 61 69 69 70 62 71 68 72 70 73 67 74 63 75 64 76 65 77
REMARK SMILES IDX 66 78 45 79 46 80 54 81 47 82 53 83 55 84 52 85 48 86 49 87
REMARK SMILES IDX 50 88 51 89
REMARK H PARENT 9 9 9 10 75 42 43 53
REMARK Flexibility Score: inf
ROOT
ATOM      1  C   UNL     1       3.562  -2.793   8.418  1.00  0.00     0.274 C 
ENDROOT
BRANCH   1   2
ATOM      2  O   UNL     1       2.660  -2.495   7.339  1.00  0.00    -0.458 OA
BRANCH   2   3
ATOM      3  C   UNL     1       1.444  -3.102   7.418  1.00  0.00     0.366 C 
ATOM      4  O   UNL     1       1.118  -3.897   8.295  1.00  0.00    -0.245 OA
BRANCH   3   5
ATOM      5  C   UNL     1       0.506  -2.759   6.254  1.00  0.00     0.310 C 
ATOM      6  C   UNL     1       1.383  -1.055   4.757  1.00  0.00     0.354 C 
ATOM      7  N   UNL     1       0.510  -1.314   5.921  1.00  0.00    -0.313 N 
ATOM      8  S   UNL     1       1.924  -2.635   4.043  1.00  0.00    -0.074 SA
ATOM      9  H   UNL     1      -0.440  -1.016   5.702  1.00  0.00     0.348 HD
ATOM     10  H   UNL     1       0.865  -0.791   6.723  1.00  0.00     0.348 HD
ATOM     11  C   UNL     1       0.727  -3.617   5.000  1.00  0.00     0.079 C 
ATOM     12  C   UNL     1      -0.576  -3.739   4.193  1.00  0.00     0.030 C 
ATOM     13  C   UNL     1       1.288  -5.015   5.274  1.00  0.00     0.030 C 
BRANCH   6  14
ATOM     14  C   UNL     1       2.491  -0.038   5.100  1.00  0.00     0.376 C 
ATOM     15  O   UNL     1       2.242   1.103   5.477  1.00  0.00    -0.244 OA
BRANCH  14  16
ATOM     16  O   UNL     1       3.746  -0.509   4.872  1.00  0.00    -0.455 OA
BRANCH  16  17
ATOM     17  C   UNL     1       4.924   0.286   5.166  1.00  0.00     0.104 C 
ATOM     18  C   UNL     1       6.079  -0.492   4.518  1.00  0.00     0.056 C 
ATOM     19  C   UNL     1       5.161   0.345   6.675  1.00  0.00     0.056 C 
ATOM     20  C   UNL     1       4.883   1.693   4.559  1.00  0.00     0.056 C 
ENDBRANCH  16  17
ENDBRANCH  14  16
ENDBRANCH   6  14
ENDBRANCH   3   5
ENDBRANCH   2   3
ENDBRANCH   1   2
BRANCH   1  21
ATOM     21  C   UNL     1       3.568  -1.686   9.470  1.00  0.00     0.275 C 
BRANCH  21  22
ATOM     22  O   UNL     1       2.239  -1.393   9.918  1.00  0.00    -0.458 OA
BRANCH  22  23
ATOM     23  C   UNL     1       1.692  -0.277   9.380  1.00  0.00     0.338 C 
ATOM     24  O   UNL     1       2.212   0.513   8.610  1.00  0.00    -0.246 OA
BRANCH  23  25
ATOM     25  C   UNL     1       0.347  -0.113   9.930  1.00  0.00     0.060 A 
ATOM     26  C   UNL     1      -0.739  -0.751   9.328  1.00  0.00     0.016 A 
ATOM     27  C   UNL     1       0.175   0.705  11.044  1.00  0.00     0.016 A 
ATOM     28  C   UNL     1      -2.016  -0.577   9.851  1.00  0.00     0.010 A 
ATOM     29  C   UNL     1      -1.098   0.852  11.587  1.00  0.00     0.010 A 
ATOM     30  C   UNL     1      -2.200   0.211  10.995  1.00  0.00    -0.014 A 
BRANCH  30  31
ATOM     31  C   UNL     1      -3.544   0.374  11.591  1.00  0.00     0.031 A 
ATOM     32  C   UNL     1      -4.240   1.698  11.495  1.00  0.00     0.074 A 
ATOM     33  C   UNL     1      -4.101  -0.659  12.249  1.00  0.00     0.049 A 
ATOM     34  N   UNL     1      -5.333   2.103  12.084  1.00  0.00    -0.248 NA
ATOM     35  C   UNL     1      -3.611   2.704  10.625  1.00  0.00     0.031 C 
ATOM     36  C   UNL     1      -3.516  -1.998  12.365  1.00  0.00     0.029 A 
ATOM     37  N   UNL     1      -5.270  -0.744  12.958  1.00  0.00    -0.354 N 
ATOM     38  C   UNL     1      -5.524   3.415  11.667  1.00  0.00     0.074 A 
ATOM     39  C   UNL     1      -4.411   3.746  10.801  1.00  0.00     0.031 C 
ATOM     40  C   UNL     1      -4.329  -2.768  13.105  1.00  0.00     0.029 A 
ATOM     41  C   UNL     1      -5.456  -1.964  13.566  1.00  0.00     0.049 A 
ATOM     42  H   UNL     1      -5.915  -0.004  13.025  1.00  0.00     0.167 HD
ATOM     43  C   UNL     1      -6.539   4.258  11.978  1.00  0.00     0.034 A 
ATOM     44  C   UNL     1      -6.406  -2.369  14.430  1.00  0.00     0.034 A 
ATOM     45  C   UNL     1      -7.623   3.904  12.863  1.00  0.00     0.049 A 
ATOM     46  C   UNL     1      -7.477  -1.385  14.828  1.00  0.00     0.074 A 
ATOM     47  C   UNL     1      -8.692   4.679  13.279  1.00  0.00     0.029 A 
ATOM     48  N   UNL     1      -7.772   2.665  13.476  1.00  0.00    -0.354 N 
ATOM     49  N   UNL     1      -7.633  -0.136  14.451  1.00  0.00    -0.248 NA
ATOM     50  C   UNL     1      -8.499  -1.864  15.766  1.00  0.00     0.031 C 
ATOM     51  C   UNL     1      -9.455   3.928  14.180  1.00  0.00     0.029 A 
ATOM     52  C   UNL     1      -8.904   2.659  14.276  1.00  0.00     0.049 A 
ATOM     53  H   UNL     1      -7.162   1.901  13.358  1.00  0.00     0.167 HD
ATOM     54  C   UNL     1      -8.790   0.309  15.083  1.00  0.00     0.074 A 
ATOM     55  C   UNL     1      -9.297  -0.811  15.851  1.00  0.00     0.031 C 
ATOM     56  C   UNL     1      -9.383   1.529  15.035  1.00  0.00     0.034 A 
BRANCH  43  57
ATOM     57  C   UNL     1      -6.484   5.649  11.394  1.00  0.00     0.023 A 
ATOM     58  C   UNL     1      -6.569   5.868  10.007  1.00  0.00     0.031 A 
ATOM     59  C   UNL     1      -6.304   6.767  12.227  1.00  0.00     0.131 A 
ATOM     60  C   UNL     1      -6.405   7.163   9.491  1.00  0.00     0.055 A 
ATOM     61  C   UNL     1      -6.217   8.062  11.712  1.00  0.00     0.041 A 
ATOM     62  F   UNL     1      -6.194   6.618  13.556  1.00  0.00    -0.206 F 
ATOM     63  C   UNL     1      -6.253   8.265  10.336  1.00  0.00     0.022 A 
BRANCH  60  64
ATOM     64  S   UNL     1      -6.262   7.370   7.694  1.00  0.00     0.124 S 
ATOM     65  O   UNL     1      -5.078   6.567   7.398  1.00  0.00    -0.237 OA
ATOM     66  O   UNL     1      -7.531   6.837   7.213  1.00  0.00    -0.237 OA
ATOM     67  O   UNL     1      -6.088   8.811   7.528  1.00  0.00    -0.744 OA
ENDBRANCH  60  64
ENDBRANCH  43  57
BRANCH  44  68
ATOM     68  C   UNL     1      -6.373  -3.742  15.010  1.00  0.00     0.023 A 
ATOM     69  C   UNL     1      -7.412  -4.653  14.768  1.00  0.00     0.031 A 
ATOM     70  C   UNL     1      -5.326  -4.147  15.859  1.00  0.00     0.131 A 
ATOM     71  C   UNL     1      -7.410  -5.904  15.406  1.00  0.00     0.055 A 
ATOM     72  C   UNL     1      -5.300  -5.414  16.446  1.00  0.00     0.041 A 
ATOM     73  F   UNL     1      -4.306  -3.316  16.125  1.00  0.00    -0.206 F 
ATOM     74  C   UNL     1      -6.354  -6.295  16.232  1.00  0.00     0.022 A 
BRANCH  71  75
ATOM     75  S   UNL     1      -8.861  -6.975  15.217  1.00  0.00     0.124 S 
ATOM     76  O   UNL     1      -9.938  -6.099  15.664  1.00  0.00    -0.237 OA
ATOM     77  O   UNL     1      -8.830  -7.276  13.790  1.00  0.00    -0.237 OA
ATOM     78  O   UNL     1      -8.568  -8.103  16.098  1.00  0.00    -0.744 OA
ENDBRANCH  71  75
ENDBRANCH  44  68
BRANCH  56  79
ATOM     79  C   UNL     1     -10.675   1.680  15.797  1.00  0.00     0.023 A 
ATOM     80  C   UNL     1     -10.713   1.651  17.201  1.00  0.00     0.031 A 
ATOM     81  C   UNL     1     -11.888   1.827  15.102  1.00  0.00     0.131 A 
ATOM     82  C   UNL     1     -11.947   1.708  17.866  1.00  0.00     0.055 A 
ATOM     83  C   UNL     1     -13.107   1.942  15.770  1.00  0.00     0.041 A 
ATOM     84  F   UNL     1     -11.907   1.859  13.759  1.00  0.00    -0.206 F 
ATOM     85  C   UNL     1     -13.142   1.869  17.160  1.00  0.00     0.022 A 
BRANCH  82  86
ATOM     86  S   UNL     1     -11.977   1.479  19.665  1.00  0.00     0.124 S 
ATOM     87  O   UNL     1     -11.387   0.153  19.812  1.00  0.00    -0.237 OA
ATOM     88  O   UNL     1     -11.164   2.595  20.136  1.00  0.00    -0.237 OA
ATOM     89  O   UNL     1     -13.398   1.566  19.998  1.00  0.00    -0.744 OA
ENDBRANCH  82  86
ENDBRANCH  56  79
ENDBRANCH  30  31
ENDBRANCH  23  25
ENDBRANCH  22  23
ENDBRANCH  21  22
ENDBRANCH   1  21
TORSDOF 17
