REMARK SMILES CN(CC(C)(C)O)S(=O)(=O)c1cc(Cl)cc(C(=O)OCCOC(=O)c2ccc(-c3c4nc(c(-c5cc(S(=O)(=O)[O-])ccc5F)c5ccc([nH]5)c(-c5cc(S(=O)(=O)[O-])ccc5F)c5nc(c(-c6cc(S(=O)(=O)[O-])ccc6F)c6ccc3[nH]6)C=C5)C=C4)cc2)c1Cl
REMARK SMILES IDX 20 1 19 2 17 3 18 4 16 5 11 6 12 7 88 8 13 9 89 10 14 11
REMARK SMILES IDX 15 12 8 13 9 14 10 15 2 16 1 17 3 18 4 19 5 20 6 21 7 22
REMARK SMILES IDX 21 24 22 25 23 26 24 27 25 28 26 29 87 30 27 31 86 32 28 33
REMARK SMILES IDX 29 34 30 35 80 36 31 37 85 38 79 39 81 40 32 41 84 42 78 43
REMARK SMILES IDX 77 44 33 46 65 47 45 48 64 49 46 50 49 51 63 52 82 53 47 54
REMARK SMILES IDX 48 55 62 57 83 58 50 59 34 60 35 61 43 62 36 63 42 64 44 65
REMARK SMILES IDX 41 66 37 67 38 68 39 69 40 70 66 71 67 72 75 73 68 74 74 75
REMARK SMILES IDX 76 76 73 77 69 78 70 79 71 80 72 81 51 82 52 83 60 84 53 85
REMARK SMILES IDX 59 86 61 87 58 88 54 89 55 90 56 91 57 92
REMARK H PARENT 7 23 81 45 49 56
REMARK Flexibility Score: inf
ROOT
ATOM      1  C   UNL     1      -4.608   5.271   3.214  1.00  0.00     0.275 C 
ENDROOT
BRANCH   1   2
ATOM      2  O   UNL     1      -3.189   5.116   3.022  1.00  0.00    -0.458 OA
BRANCH   2   3
ATOM      3  C   UNL     1      -2.633   5.580   1.883  1.00  0.00     0.339 C 
ATOM      4  O   UNL     1      -3.197   6.221   1.017  1.00  0.00    -0.246 OA
BRANCH   3   5
ATOM      5  C   UNL     1      -1.175   5.270   1.821  1.00  0.00     0.081 A 
ATOM      6  C   UNL     1       0.681   3.719   1.754  1.00  0.00     0.103 A 
ATOM      7  C   UNL     1       1.532   4.768   1.362  1.00  0.00     0.044 A 
ATOM      8  C   UNL     1      -0.644   4.002   2.117  1.00  0.00     0.075 A 
ATOM      9  C   UNL     1       1.029   6.054   1.209  1.00  0.00     0.043 A 
ATOM     10  Cl  UNL     1      -1.609   2.877   2.995  1.00  0.00    -0.082 Cl
ATOM     11  Cl  UNL     1       2.085   7.354   0.833  1.00  0.00    -0.084 Cl
ATOM     12  C   UNL     1      -0.331   6.288   1.349  1.00  0.00     0.037 A 
BRANCH   6  13
ATOM     13  S   UNL     1       1.385   2.079   1.806  1.00  0.00     0.244 S 
ATOM     14  O   UNL     1       1.075   1.484   3.085  1.00  0.00    -0.207 OA
ATOM     15  O   UNL     1       2.775   2.222   1.420  1.00  0.00    -0.207 OA
BRANCH  13  16
ATOM     16  N   UNL     1       0.658   1.175   0.552  1.00  0.00    -0.198 NA
ATOM     17  C   UNL     1       1.437   0.000   0.098  1.00  0.00     0.124 C 
BRANCH  16  18
ATOM     18  C   UNL     1      -0.811   0.965   0.431  1.00  0.00     0.136 C 
BRANCH  18  19
ATOM     19  C   UNL     1      -1.480  -0.204   1.222  1.00  0.00     0.073 C 
ATOM     20  C   UNL     1      -1.042  -0.445   2.668  1.00  0.00     0.043 C 
ATOM     21  C   UNL     1      -3.006   0.003   1.169  1.00  0.00     0.043 C 
BRANCH  19  22
ATOM     22  O   UNL     1      -1.217  -1.436   0.517  1.00  0.00    -0.389 OA
ATOM     23  H   UNL     1      -0.263  -1.614   0.522  1.00  0.00     0.211 HD
ENDBRANCH  19  22
ENDBRANCH  18  19
ENDBRANCH  16  18
ENDBRANCH  13  16
ENDBRANCH   6  13
ENDBRANCH   3   5
ENDBRANCH   2   3
ENDBRANCH   1   2
BRANCH   1  24
ATOM     24  C   UNL     1      -4.872   5.813   4.618  1.00  0.00     0.275 C 
BRANCH  24  25
ATOM     25  O   UNL     1      -4.374   7.159   4.706  1.00  0.00    -0.458 OA
BRANCH  25  26
ATOM     26  C   UNL     1      -3.105   7.254   5.164  1.00  0.00     0.338 C 
ATOM     27  O   UNL     1      -2.421   6.371   5.656  1.00  0.00    -0.246 OA
BRANCH  26  28
ATOM     28  C   UNL     1      -2.558   8.556   4.778  1.00  0.00     0.060 A 
ATOM     29  C   UNL     1      -1.906   8.624   3.552  1.00  0.00     0.016 A 
ATOM     30  C   UNL     1      -2.543   9.640   5.645  1.00  0.00     0.016 A 
ATOM     31  C   UNL     1      -1.139   9.729   3.218  1.00  0.00     0.010 A 
ATOM     32  C   UNL     1      -1.856  10.798   5.262  1.00  0.00     0.010 A 
ATOM     33  C   UNL     1      -1.115  10.841   4.062  1.00  0.00    -0.014 A 
BRANCH  33  34
ATOM     34  C   UNL     1      -0.264  12.014   3.721  1.00  0.00     0.031 A 
ATOM     35  C   UNL     1       0.795  12.466   4.690  1.00  0.00     0.074 A 
ATOM     36  C   UNL     1      -0.418  12.657   2.545  1.00  0.00     0.049 A 
ATOM     37  N   UNL     1       1.482  13.578   4.711  1.00  0.00    -0.248 NA
ATOM     38  C   UNL     1       1.101  11.549   5.799  1.00  0.00     0.031 C 
ATOM     39  C   UNL     1      -1.346  12.269   1.479  1.00  0.00     0.029 A 
ATOM     40  N   UNL     1       0.204  13.774   2.045  1.00  0.00    -0.354 N 
ATOM     41  C   UNL     1       2.256  13.523   5.866  1.00  0.00     0.074 A 
ATOM     42  C   UNL     1       1.935  12.276   6.527  1.00  0.00     0.031 C 
ATOM     43  C   UNL     1      -1.207  13.110   0.444  1.00  0.00     0.029 A 
ATOM     44  C   UNL     1      -0.275  14.165   0.815  1.00  0.00     0.049 A 
ATOM     45  H   UNL     1       0.924  14.249   2.520  1.00  0.00     0.167 HD
ATOM     46  C   UNL     1       3.148  14.435   6.327  1.00  0.00     0.034 A 
ATOM     47  C   UNL     1      -0.045  15.281   0.095  1.00  0.00     0.034 A 
ATOM     48  C   UNL     1       3.473  15.653   5.622  1.00  0.00     0.049 A 
ATOM     49  C   UNL     1       0.882  16.322   0.666  1.00  0.00     0.074 A 
ATOM     50  C   UNL     1       4.362  16.649   5.985  1.00  0.00     0.029 A 
ATOM     51  N   UNL     1       2.925  16.038   4.404  1.00  0.00    -0.354 N 
ATOM     52  N   UNL     1       1.552  16.301   1.796  1.00  0.00    -0.248 NA
ATOM     53  C   UNL     1       1.075  17.541  -0.128  1.00  0.00     0.031 C 
ATOM     54  C   UNL     1       4.292  17.669   5.030  1.00  0.00     0.029 A 
ATOM     55  C   UNL     1       3.431  17.270   4.020  1.00  0.00     0.049 A 
ATOM     56  H   UNL     1       2.271  15.512   3.888  1.00  0.00     0.167 HD
ATOM     57  C   UNL     1       2.269  17.494   1.834  1.00  0.00     0.074 A 
ATOM     58  C   UNL     1       1.961  18.199   0.605  1.00  0.00     0.031 C 
ATOM     59  C   UNL     1       3.106  17.963   2.794  1.00  0.00     0.034 A 
BRANCH  46  60
ATOM     60  C   UNL     1       3.770  14.184   7.682  1.00  0.00     0.023 A 
ATOM     61  C   UNL     1       4.583  13.066   7.941  1.00  0.00     0.031 A 
ATOM     62  C   UNL     1       3.507  15.062   8.749  1.00  0.00     0.131 A 
ATOM     63  C   UNL     1       5.032  12.815   9.247  1.00  0.00     0.055 A 
ATOM     64  C   UNL     1       4.033  14.855  10.025  1.00  0.00     0.041 A 
ATOM     65  F   UNL     1       2.716  16.134   8.574  1.00  0.00    -0.206 F 
ATOM     66  C   UNL     1       4.787  13.716  10.285  1.00  0.00     0.022 A 
BRANCH  63  67
ATOM     67  S   UNL     1       5.800  11.210   9.605  1.00  0.00     0.124 S 
ATOM     68  O   UNL     1       4.743  10.283   9.206  1.00  0.00    -0.237 OA
ATOM     69  O   UNL     1       6.986  11.232   8.758  1.00  0.00    -0.237 OA
ATOM     70  O   UNL     1       6.058  11.267  11.043  1.00  0.00    -0.744 OA
ENDBRANCH  63  67
ENDBRANCH  46  60
BRANCH  47  71
ATOM     71  C   UNL     1      -0.760  15.512  -1.195  1.00  0.00     0.023 A 
ATOM     72  C   UNL     1      -0.055  15.659  -2.399  1.00  0.00     0.031 A 
ATOM     73  C   UNL     1      -2.163  15.629  -1.237  1.00  0.00     0.131 A 
ATOM     74  C   UNL     1      -0.747  15.954  -3.584  1.00  0.00     0.055 A 
ATOM     75  C   UNL     1      -2.852  15.855  -2.430  1.00  0.00     0.041 A 
ATOM     76  F   UNL     1      -2.891  15.507  -0.116  1.00  0.00    -0.206 F 
ATOM     77  C   UNL     1      -2.141  16.033  -3.611  1.00  0.00     0.022 A 
BRANCH  74  78
ATOM     78  S   UNL     1       0.210  16.331  -5.077  1.00  0.00     0.124 S 
ATOM     79  O   UNL     1       1.020  17.459  -4.632  1.00  0.00    -0.237 OA
ATOM     80  O   UNL     1       0.923  15.079  -5.305  1.00  0.00    -0.237 OA
ATOM     81  O   UNL     1      -0.816  16.652  -6.067  1.00  0.00    -0.744 OA
ENDBRANCH  74  78
ENDBRANCH  47  71
BRANCH  59  82
ATOM     82  C   UNL     1       3.792  19.279   2.517  1.00  0.00     0.023 A 
ATOM     83  C   UNL     1       3.075  20.484   2.421  1.00  0.00     0.031 A 
ATOM     84  C   UNL     1       5.185  19.320   2.331  1.00  0.00     0.131 A 
ATOM     85  C   UNL     1       3.747  21.669   2.084  1.00  0.00     0.055 A 
ATOM     86  C   UNL     1       5.857  20.514   2.067  1.00  0.00     0.041 A 
ATOM     87  F   UNL     1       5.919  18.198   2.405  1.00  0.00    -0.206 F 
ATOM     88  C   UNL     1       5.135  21.695   1.928  1.00  0.00     0.022 A 
BRANCH  85  89
ATOM     89  S   UNL     1       2.767  23.157   1.745  1.00  0.00     0.124 S 
ATOM     90  O   UNL     1       1.906  22.710   0.655  1.00  0.00    -0.237 OA
ATOM     91  O   UNL     1       2.105  23.394   3.024  1.00  0.00    -0.237 OA
ATOM     92  O   UNL     1       3.771  24.152   1.374  1.00  0.00    -0.744 OA
ENDBRANCH  85  89
ENDBRANCH  59  82
ENDBRANCH  33  34
ENDBRANCH  26  28
ENDBRANCH  25  26
ENDBRANCH  24  25
ENDBRANCH   1  24
TORSDOF 19
