REMARK SMILES NC(=O)c1c(-c2ccc(Cl)cc2)csc1NC(=O)[C@H]1[C@@H](C(=O)OCCOC(=O)c2ccc(-c3c4nc(c(-c5cc(S(=O)(=O)[O-])ccc5F)c5ccc([nH]5)c(-c5cc(S(=O)(=O)[O-])ccc5F)c5nc(c(-c6cc(S(=O)(=O)[O-])ccc6F)c6ccc3[nH]6)C=C5)C=C4)cc2)[C@@H]2CC[C@H]1O2
REMARK SMILES IDX 24 1 23 2 21 3 22 4 20 5 19 6 95 7 92 8 94 9 96 10 93 11
REMARK SMILES IDX 17 12 16 13 18 15 15 16 4 17 5 18 13 19 14 20 2 21 1 22 3 25
REMARK SMILES IDX 6 26 7 27 12 28 8 29 11 30 9 31 10 32 25 33 26 34 27 35
REMARK SMILES IDX 28 36 29 37 30 38 91 39 31 40 90 41 32 42 33 43 34 44 84 45
REMARK SMILES IDX 35 46 89 47 83 48 85 49 36 50 88 51 82 52 81 53 37 55 69 56
REMARK SMILES IDX 49 57 68 58 50 59 53 60 67 61 86 62 51 63 52 64 66 66 87 67
REMARK SMILES IDX 54 68 38 69 39 70 47 71 40 72 46 73 48 74 45 75 41 76 42 77
REMARK SMILES IDX 43 78 44 79 70 80 71 81 79 82 72 83 78 84 80 85 77 86 73 87
REMARK SMILES IDX 74 88 75 89 76 90 55 91 56 92 64 93 57 94 63 95 65 96 62 97
REMARK SMILES IDX 58 98 59 99 60 100 61 101
REMARK H PARENT 16 14 1 23 1 24 85 54 53 65
REMARK Flexibility Score: inf
ROOT
ATOM      1  C   UNL     1       2.173  -7.097  -4.732  1.00  0.00     0.274 C 
ENDROOT
BRANCH   1   2
ATOM      2  O   UNL     1       1.443  -5.929  -5.156  1.00  0.00    -0.462 OA
BRANCH   2   3
ATOM      3  C   UNL     1       1.133  -5.045  -4.187  1.00  0.00     0.312 C 
ATOM      4  O   UNL     1       1.365  -5.222  -2.991  1.00  0.00    -0.252 OA
BRANCH   3   5
ATOM      5  C   UNL     1       0.637  -3.706  -4.671  1.00  0.00     0.143 C 
ATOM      6  C   UNL     1      -0.415  -3.439  -5.732  1.00  0.00     0.124 C 
ATOM      7  C   UNL     1       0.369  -2.672  -6.827  1.00  0.00     0.132 C 
ATOM      8  C   UNL     1       1.794  -2.922  -5.250  1.00  0.00     0.133 C 
ATOM      9  C   UNL     1       0.675  -1.223  -6.439  1.00  0.00     0.035 C 
ATOM     10  O   UNL     1       1.692  -3.219  -6.654  1.00  0.00    -0.373 OA
ATOM     11  C   UNL     1       1.531  -1.416  -5.197  1.00  0.00     0.036 C 
BRANCH   6  12
ATOM     12  C   UNL     1      -1.242  -4.524  -6.377  1.00  0.00     0.231 C 
ATOM     13  N   UNL     1      -2.521  -4.254  -6.802  1.00  0.00    -0.317 N 
ATOM     14  H   UNL     1      -2.960  -5.016  -7.244  1.00  0.00     0.170 HD
ATOM     15  O   UNL     1      -0.825  -5.671  -6.537  1.00  0.00    -0.274 OA
BRANCH  13  16
ATOM     16  C   UNL     1      -3.316  -3.116  -6.731  1.00  0.00     0.108 A 
ATOM     17  C   UNL     1      -4.684  -3.040  -6.960  1.00  0.00     0.082 A 
ATOM     18  C   UNL     1      -5.191  -1.733  -6.584  1.00  0.00     0.007 A 
ATOM     19  C   UNL     1      -4.186  -0.880  -6.188  1.00  0.00     0.076 A 
ATOM     20  S   UNL     1      -2.687  -1.561  -6.501  1.00  0.00    -0.125 S 
BRANCH  17  21
ATOM     21  C   UNL     1      -5.432  -4.177  -7.480  1.00  0.00     0.252 C 
ATOM     22  N   UNL     1      -6.435  -3.860  -8.349  1.00  0.00    -0.365 N 
ATOM     23  H   UNL     1      -6.986  -4.573  -8.745  1.00  0.00     0.159 HD
ATOM     24  H   UNL     1      -6.606  -2.918  -8.581  1.00  0.00     0.159 HD
ATOM     25  O   UNL     1      -5.146  -5.341  -7.245  1.00  0.00    -0.269 OA
ENDBRANCH  17  21
BRANCH  18  26
ATOM     26  C   UNL     1      -6.548  -1.230  -6.579  1.00  0.00    -0.017 A 
ATOM     27  C   UNL     1      -6.841  -0.070  -7.311  1.00  0.00     0.010 A 
ATOM     28  C   UNL     1      -7.550  -1.877  -5.853  1.00  0.00     0.010 A 
ATOM     29  C   UNL     1      -8.138   0.430  -7.335  1.00  0.00     0.021 A 
ATOM     30  C   UNL     1      -8.851  -1.375  -5.882  1.00  0.00     0.021 A 
ATOM     31  C   UNL     1      -9.140  -0.231  -6.628  1.00  0.00     0.041 A 
ATOM     32  Cl  UNL     1     -10.751   0.367  -6.685  1.00  0.00    -0.084 Cl
ENDBRANCH  18  26
ENDBRANCH  13  16
ENDBRANCH   6  12
ENDBRANCH   3   5
ENDBRANCH   2   3
ENDBRANCH   1   2
BRANCH   1  33
ATOM     33  C   UNL     1       3.604  -7.010  -5.261  1.00  0.00     0.275 C 
BRANCH  33  34
ATOM     34  O   UNL     1       4.231  -5.806  -4.771  1.00  0.00    -0.458 OA
BRANCH  34  35
ATOM     35  C   UNL     1       4.941  -5.090  -5.684  1.00  0.00     0.338 C 
ATOM     36  O   UNL     1       5.220  -5.458  -6.814  1.00  0.00    -0.246 OA
BRANCH  35  37
ATOM     37  C   UNL     1       5.265  -3.724  -5.168  1.00  0.00     0.060 A 
ATOM     38  C   UNL     1       4.750  -3.258  -3.962  1.00  0.00     0.016 A 
ATOM     39  C   UNL     1       5.910  -2.813  -6.011  1.00  0.00     0.016 A 
ATOM     40  C   UNL     1       4.657  -1.875  -3.751  1.00  0.00     0.010 A 
ATOM     41  C   UNL     1       5.989  -1.447  -5.673  1.00  0.00     0.010 A 
ATOM     42  C   UNL     1       5.307  -0.927  -4.562  1.00  0.00    -0.014 A 
BRANCH  42  43
ATOM     43  C   UNL     1       5.274   0.561  -4.270  1.00  0.00     0.031 A 
ATOM     44  C   UNL     1       5.219   1.595  -5.391  1.00  0.00     0.074 A 
ATOM     45  C   UNL     1       5.317   1.037  -3.002  1.00  0.00     0.049 A 
ATOM     46  N   UNL     1       5.594   2.854  -5.382  1.00  0.00    -0.248 NA
ATOM     47  C   UNL     1       4.688   1.155  -6.691  1.00  0.00     0.031 C 
ATOM     48  C   UNL     1       5.275   0.239  -1.776  1.00  0.00     0.029 A 
ATOM     49  N   UNL     1       5.424   2.330  -2.527  1.00  0.00    -0.354 N 
ATOM     50  C   UNL     1       5.438   3.325  -6.688  1.00  0.00     0.074 A 
ATOM     51  C   UNL     1       4.910   2.217  -7.458  1.00  0.00     0.031 C 
ATOM     52  C   UNL     1       5.280   1.042  -0.709  1.00  0.00     0.029 A 
ATOM     53  C   UNL     1       5.562   2.392  -1.156  1.00  0.00     0.049 A 
ATOM     54  H   UNL     1       5.403   3.126  -3.107  1.00  0.00     0.167 HD
ATOM     55  C   UNL     1       5.728   4.555  -7.191  1.00  0.00     0.034 A 
ATOM     56  C   UNL     1       6.003   3.360  -0.328  1.00  0.00     0.034 A 
ATOM     57  C   UNL     1       6.180   5.672  -6.385  1.00  0.00     0.049 A 
ATOM     58  C   UNL     1       6.434   4.673  -0.904  1.00  0.00     0.074 A 
ATOM     59  C   UNL     1       6.481   6.964  -6.790  1.00  0.00     0.029 A 
ATOM     60  N   UNL     1       6.382   5.641  -5.011  1.00  0.00    -0.354 N 
ATOM     61  N   UNL     1       6.432   5.062  -2.156  1.00  0.00    -0.248 NA
ATOM     62  C   UNL     1       6.948   5.670   0.042  1.00  0.00     0.031 C 
ATOM     63  C   UNL     1       6.942   7.683  -5.683  1.00  0.00     0.029 A 
ATOM     64  C   UNL     1       6.835   6.875  -4.564  1.00  0.00     0.049 A 
ATOM     65  H   UNL     1       6.226   4.856  -4.437  1.00  0.00     0.167 HD
ATOM     66  C   UNL     1       6.921   6.363  -2.144  1.00  0.00     0.074 A 
ATOM     67  C   UNL     1       7.193   6.695  -0.760  1.00  0.00     0.031 C 
ATOM     68  C   UNL     1       7.119   7.206  -3.188  1.00  0.00     0.034 A 
BRANCH  55  69
ATOM     69  C   UNL     1       5.652   4.764  -8.694  1.00  0.00     0.023 A 
ATOM     70  C   UNL     1       4.451   4.694  -9.421  1.00  0.00     0.031 A 
ATOM     71  C   UNL     1       6.825   5.084  -9.409  1.00  0.00     0.131 A 
ATOM     72  C   UNL     1       4.460   4.891 -10.815  1.00  0.00     0.055 A 
ATOM     73  C   UNL     1       6.815   5.356 -10.779  1.00  0.00     0.041 A 
ATOM     74  F   UNL     1       8.010   5.153  -8.780  1.00  0.00    -0.206 F 
ATOM     75  C   UNL     1       5.628   5.248 -11.493  1.00  0.00     0.022 A 
BRANCH  72  76
ATOM     76  S   UNL     1       2.944   4.554 -11.756  1.00  0.00     0.124 S 
ATOM     77  O   UNL     1       2.657   3.174 -11.375  1.00  0.00    -0.237 OA
ATOM     78  O   UNL     1       2.023   5.562 -11.242  1.00  0.00    -0.237 OA
ATOM     79  O   UNL     1       3.354   4.736 -13.147  1.00  0.00    -0.744 OA
ENDBRANCH  72  76
ENDBRANCH  55  69
BRANCH  56  80
ATOM     80  C   UNL     1       6.187   3.062   1.125  1.00  0.00     0.023 A 
ATOM     81  C   UNL     1       5.457   3.751   2.102  1.00  0.00     0.031 A 
ATOM     82  C   UNL     1       7.099   2.077   1.556  1.00  0.00     0.131 A 
ATOM     83  C   UNL     1       5.663   3.458   3.459  1.00  0.00     0.055 A 
ATOM     84  C   UNL     1       7.242   1.736   2.900  1.00  0.00     0.041 A 
ATOM     85  F   UNL     1       7.835   1.393   0.663  1.00  0.00    -0.206 F 
ATOM     86  C   UNL     1       6.527   2.437   3.863  1.00  0.00     0.022 A 
BRANCH  83  87
ATOM     87  S   UNL     1       4.846   4.497   4.699  1.00  0.00     0.124 S 
ATOM     88  O   UNL     1       5.338   5.823   4.345  1.00  0.00    -0.237 OA
ATOM     89  O   UNL     1       3.435   4.241   4.426  1.00  0.00    -0.237 OA
ATOM     90  O   UNL     1       5.340   3.964   5.967  1.00  0.00    -0.744 OA
ENDBRANCH  83  87
ENDBRANCH  56  80
BRANCH  68  91
ATOM     91  C   UNL     1       7.590   8.600  -2.855  1.00  0.00     0.023 A 
ATOM     92  C   UNL     1       8.859   8.843  -2.299  1.00  0.00     0.031 A 
ATOM     93  C   UNL     1       6.734   9.697  -3.053  1.00  0.00     0.131 A 
ATOM     94  C   UNL     1       9.208  10.141  -1.899  1.00  0.00     0.055 A 
ATOM     95  C   UNL     1       7.114  10.997  -2.717  1.00  0.00     0.041 A 
ATOM     96  F   UNL     1       5.506   9.522  -3.568  1.00  0.00    -0.206 F 
ATOM     97  C   UNL     1       8.351  11.223  -2.122  1.00  0.00     0.022 A 
BRANCH  94  98
ATOM     98  S   UNL     1      10.749  10.382  -0.973  1.00  0.00     0.124 S 
ATOM     99  O   UNL     1      10.540   9.524   0.189  1.00  0.00    -0.237 OA
ATOM    100  O   UNL     1      11.759   9.932  -1.925  1.00  0.00    -0.237 OA
ATOM    101  O   UNL     1      10.759  11.816  -0.690  1.00  0.00    -0.744 OA
ENDBRANCH  94  98
ENDBRANCH  68  91
ENDBRANCH  42  43
ENDBRANCH  35  37
ENDBRANCH  34  35
ENDBRANCH  33  34
ENDBRANCH   1  33
TORSDOF 18
