REMARK SMILES C[C@@H]1Cc2ccccc2N1S(=O)(=O)c1cccc(C(=O)OCCOC(=O)c2ccc(-c3c4nc(c(-c5cc(S(=O)(=O)[O-])ccc5F)c5ccc([nH]5)c(-c5cc(S(=O)(=O)[O-])ccc5F)c5nc(c(-c6cc(S(=O)(=O)[O-])ccc6F)c6ccc3[nH]6)C=C5)C=C4)cc2)c1
REMARK SMILES IDX 23 1 22 2 21 3 19 4 20 5 18 6 14 7 15 8 90 9 16 10 17 11
REMARK SMILES IDX 11 12 12 13 13 14 10 15 1 16 2 17 3 18 4 19 9 20 5 21 8 22
REMARK SMILES IDX 6 23 7 24 24 25 25 26 26 27 27 28 28 29 89 30 29 31 88 32
REMARK SMILES IDX 30 33 31 34 32 35 82 36 33 37 87 38 81 39 83 40 34 41 86 42
REMARK SMILES IDX 80 43 79 44 35 46 67 47 47 48 66 49 48 50 51 51 65 52 84 53
REMARK SMILES IDX 49 54 50 55 64 57 85 58 52 59 36 60 37 61 45 62 38 63 44 64
REMARK SMILES IDX 46 65 43 66 39 67 40 68 41 69 42 70 68 71 69 72 77 73 70 74
REMARK SMILES IDX 76 75 78 76 75 77 71 78 72 79 73 80 74 81 53 82 54 83 62 84
REMARK SMILES IDX 55 85 61 86 63 87 60 88 56 89 57 90 58 91 59 92
REMARK H PARENT 83 45 51 56
REMARK Flexibility Score: inf
ROOT
ATOM      1  C   UNL     1      -3.227   7.909   5.352  1.00  0.00     0.275 C 
ENDROOT
BRANCH   1   2
ATOM      2  C   UNL     1      -3.569   7.863   3.859  1.00  0.00     0.275 C 
BRANCH   2   3
ATOM      3  O   UNL     1      -2.647   7.031   3.127  1.00  0.00    -0.458 OA
BRANCH   3   4
ATOM      4  C   UNL     1      -1.748   7.690   2.351  1.00  0.00     0.338 C 
ATOM      5  O   UNL     1      -1.668   8.893   2.211  1.00  0.00    -0.246 OA
BRANCH   4   6
ATOM      6  C   UNL     1      -0.770   6.743   1.746  1.00  0.00     0.061 A 
ATOM      7  C   UNL     1      -0.010   4.557   1.068  1.00  0.00     0.088 A 
ATOM      8  C   UNL     1       1.235   5.092   0.701  1.00  0.00     0.022 A 
ATOM      9  C   UNL     1      -1.024   5.376   1.584  1.00  0.00     0.038 A 
ATOM     10  C   UNL     1       1.476   6.452   0.847  1.00  0.00     0.002 A 
ATOM     11  C   UNL     1       0.469   7.275   1.343  1.00  0.00     0.016 A 
BRANCH   7  12
ATOM     12  S   UNL     1      -0.305   2.845   0.721  1.00  0.00     0.264 S 
ATOM     13  O   UNL     1       0.608   2.485  -0.349  1.00  0.00    -0.201 OA
ATOM     14  O   UNL     1      -1.733   2.690   0.507  1.00  0.00    -0.201 OA
BRANCH  12  15
ATOM     15  N   UNL     1       0.095   1.916   2.100  1.00  0.00    -0.263 N 
ATOM     16  C   UNL     1      -0.952  -0.334   1.755  1.00  0.00     0.032 C 
ATOM     17  C   UNL     1       0.346   0.455   1.741  1.00  0.00     0.101 C 
ATOM     18  C   UNL     1       1.381  -0.076   2.751  1.00  0.00     0.063 C 
ATOM     19  C   UNL     1       1.905   1.175   3.370  1.00  0.00    -0.021 A 
ATOM     20  C   UNL     1       1.152   2.288   2.999  1.00  0.00     0.055 A 
ATOM     21  C   UNL     1       2.933   1.264   4.301  1.00  0.00     0.006 A 
ATOM     22  C   UNL     1       1.333   3.485   3.672  1.00  0.00     0.027 A 
ATOM     23  C   UNL     1       3.178   2.495   4.905  1.00  0.00     0.000 A 
ATOM     24  C   UNL     1       2.370   3.596   4.605  1.00  0.00     0.002 A 
ENDBRANCH  12  15
ENDBRANCH   7  12
ENDBRANCH   4   6
ENDBRANCH   3   4
ENDBRANCH   2   3
ENDBRANCH   1   2
BRANCH   1  25
ATOM     25  O   UNL     1      -2.032   8.672   5.601  1.00  0.00    -0.458 OA
BRANCH  25  26
ATOM     26  C   UNL     1      -0.892   7.949   5.702  1.00  0.00     0.338 C 
ATOM     27  O   UNL     1      -0.779   6.735   5.642  1.00  0.00    -0.246 OA
BRANCH  26  28
ATOM     28  C   UNL     1       0.260   8.864   5.735  1.00  0.00     0.060 A 
ATOM     29  C   UNL     1       0.578   9.628   6.857  1.00  0.00     0.016 A 
ATOM     30  C   UNL     1       1.080   8.896   4.609  1.00  0.00     0.016 A 
ATOM     31  C   UNL     1       1.718  10.444   6.827  1.00  0.00     0.010 A 
ATOM     32  C   UNL     1       2.223   9.690   4.585  1.00  0.00     0.010 A 
ATOM     33  C   UNL     1       2.552  10.483   5.690  1.00  0.00    -0.014 A 
BRANCH  33  34
ATOM     34  C   UNL     1       3.794  11.305   5.661  1.00  0.00     0.031 A 
ATOM     35  C   UNL     1       3.936  12.460   4.704  1.00  0.00     0.074 A 
ATOM     36  C   UNL     1       4.824  10.969   6.465  1.00  0.00     0.049 A 
ATOM     37  N   UNL     1       4.938  13.290   4.559  1.00  0.00    -0.248 NA
ATOM     38  C   UNL     1       2.822  12.704   3.772  1.00  0.00     0.031 C 
ATOM     39  C   UNL     1       4.835   9.822   7.373  1.00  0.00     0.029 A 
ATOM     40  N   UNL     1       6.052  11.554   6.655  1.00  0.00    -0.354 N 
ATOM     41  C   UNL     1       4.578  14.151   3.527  1.00  0.00     0.074 A 
ATOM     42  C   UNL     1       3.293  13.704   3.038  1.00  0.00     0.031 C 
ATOM     43  C   UNL     1       5.986   9.819   8.063  1.00  0.00     0.029 A 
ATOM     44  C   UNL     1       6.814  10.941   7.625  1.00  0.00     0.049 A 
ATOM     45  H   UNL     1       6.359  12.339   6.146  1.00  0.00     0.167 HD
ATOM     46  C   UNL     1       5.243  15.235   3.058  1.00  0.00     0.034 A 
ATOM     47  C   UNL     1       8.030  11.254   8.119  1.00  0.00     0.034 A 
ATOM     48  C   UNL     1       6.507  15.688   3.581  1.00  0.00     0.049 A 
ATOM     49  C   UNL     1       8.736  12.482   7.595  1.00  0.00     0.074 A 
ATOM     50  C   UNL     1       7.227  16.813   3.217  1.00  0.00     0.029 A 
ATOM     51  N   UNL     1       7.233  15.058   4.581  1.00  0.00    -0.354 N 
ATOM     52  N   UNL     1       8.328  13.348   6.698  1.00  0.00    -0.248 NA
ATOM     53  C   UNL     1      10.060  12.786   8.158  1.00  0.00     0.031 C 
ATOM     54  C   UNL     1       8.409  16.835   3.955  1.00  0.00     0.029 A 
ATOM     55  C   UNL     1       8.398  15.763   4.833  1.00  0.00     0.049 A 
ATOM     56  H   UNL     1       6.960  14.232   5.042  1.00  0.00     0.167 HD
ATOM     57  C   UNL     1       9.326  14.317   6.617  1.00  0.00     0.074 A 
ATOM     58  C   UNL     1      10.345  13.943   7.574  1.00  0.00     0.031 C 
ATOM     59  C   UNL     1       9.393  15.409   5.817  1.00  0.00     0.034 A 
BRANCH  46  60
ATOM     60  C   UNL     1       4.612  16.069   1.968  1.00  0.00     0.023 A 
ATOM     61  C   UNL     1       5.270  16.244   0.735  1.00  0.00     0.031 A 
ATOM     62  C   UNL     1       3.458  16.833   2.219  1.00  0.00     0.131 A 
ATOM     63  C   UNL     1       4.798  17.197  -0.177  1.00  0.00     0.055 A 
ATOM     64  C   UNL     1       2.965  17.747   1.287  1.00  0.00     0.041 A 
ATOM     65  F   UNL     1       2.799  16.710   3.383  1.00  0.00    -0.206 F 
ATOM     66  C   UNL     1       3.645  17.944   0.090  1.00  0.00     0.022 A 
BRANCH  63  67
ATOM     67  S   UNL     1       5.700  17.563  -1.708  1.00  0.00     0.124 S 
ATOM     68  O   UNL     1       4.665  17.370  -2.722  1.00  0.00    -0.237 OA
ATOM     69  O   UNL     1       6.113  18.946  -1.495  1.00  0.00    -0.237 OA
ATOM     70  O   UNL     1       6.774  16.576  -1.726  1.00  0.00    -0.744 OA
ENDBRANCH  63  67
ENDBRANCH  46  60
BRANCH  47  71
ATOM     71  C   UNL     1       8.601  10.449   9.240  1.00  0.00     0.023 A 
ATOM     72  C   UNL     1       8.888   9.080   9.092  1.00  0.00     0.031 A 
ATOM     73  C   UNL     1       8.793  11.028  10.507  1.00  0.00     0.131 A 
ATOM     74  C   UNL     1       9.300   8.329  10.203  1.00  0.00     0.055 A 
ATOM     75  C   UNL     1       9.271  10.293  11.593  1.00  0.00     0.041 A 
ATOM     76  F   UNL     1       8.516  12.326  10.706  1.00  0.00    -0.206 F 
ATOM     77  C   UNL     1       9.511   8.931  11.447  1.00  0.00     0.022 A 
BRANCH  74  78
ATOM     78  S   UNL     1       9.443   6.522  10.103  1.00  0.00     0.124 S 
ATOM     79  O   UNL     1      10.871   6.319  10.318  1.00  0.00    -0.237 OA
ATOM     80  O   UNL     1       8.572   6.090  11.193  1.00  0.00    -0.237 OA
ATOM     81  O   UNL     1       8.953   6.213   8.763  1.00  0.00    -0.744 OA
ENDBRANCH  74  78
ENDBRANCH  47  71
BRANCH  59  82
ATOM     82  C   UNL     1      10.589  16.325   5.928  1.00  0.00     0.023 A 
ATOM     83  C   UNL     1      10.408  17.671   6.304  1.00  0.00     0.031 A 
ATOM     84  C   UNL     1      11.864  15.920   5.501  1.00  0.00     0.131 A 
ATOM     85  C   UNL     1      11.474  18.573   6.199  1.00  0.00     0.055 A 
ATOM     86  C   UNL     1      12.936  16.811   5.448  1.00  0.00     0.041 A 
ATOM     87  F   UNL     1      12.084  14.651   5.119  1.00  0.00    -0.206 F 
ATOM     88  C   UNL     1      12.740  18.148   5.782  1.00  0.00     0.022 A 
BRANCH  85  89
ATOM     89  S   UNL     1      11.236  20.346   6.503  1.00  0.00     0.124 S 
ATOM     90  O   UNL     1      12.157  20.589   7.611  1.00  0.00    -0.237 OA
ATOM     91  O   UNL     1      11.630  20.933   5.225  1.00  0.00    -0.237 OA
ATOM     92  O   UNL     1       9.820  20.460   6.836  1.00  0.00    -0.744 OA
ENDBRANCH  85  89
ENDBRANCH  59  82
ENDBRANCH  33  34
ENDBRANCH  26  28
ENDBRANCH  25  26
ENDBRANCH   1  25
TORSDOF 16
