REMARK SMILES CCn1c(=O)n(CC)c2cc(C(=O)OCCOC(=O)c3ccc(-c4c5nc(c(-c6cc(S(=O)(=O)[O-])ccc6F)c6ccc([nH]6)c(-c6cc(S(=O)(=O)[O-])ccc6F)c6nc(c(-c7cc(S(=O)(=O)[O-])ccc7F)c7ccc4[nH]7)C=C6)C=C5)cc3)ccc21
REMARK SMILES IDX 16 1 15 2 14 3 12 4 13 5 11 6 3 7 4 8 85 9 5 10 6 11 9 12
REMARK SMILES IDX 84 13 10 14 83 15 2 16 1 17 7 18 8 19 17 20 18 21 19 22
REMARK SMILES IDX 20 23 21 24 82 25 22 26 81 27 23 28 24 29 25 30 75 31 26 32
REMARK SMILES IDX 80 33 74 34 76 35 27 36 79 37 73 38 72 39 28 41 60 42 40 43
REMARK SMILES IDX 59 44 41 45 44 46 58 47 77 48 42 49 43 50 57 52 78 53 45 54
REMARK SMILES IDX 29 55 30 56 38 57 31 58 37 59 39 60 36 61 32 62 33 63 34 64
REMARK SMILES IDX 35 65 61 66 62 67 70 68 63 69 69 70 71 71 68 72 64 73 65 74
REMARK SMILES IDX 66 75 67 76 46 77 47 78 55 79 48 80 54 81 56 82 53 83 49 84
REMARK SMILES IDX 50 85 51 86 52 87
REMARK H PARENT 76 40 44 51
REMARK Flexibility Score: inf
ROOT
ATOM      1  C   UNL     1       5.359  -0.067   9.190  1.00  0.00     0.275 C 
ENDROOT
BRANCH   1   2
ATOM      2  C   UNL     1       4.327  -1.024   8.579  1.00  0.00     0.275 C 
BRANCH   2   3
ATOM      3  O   UNL     1       4.018  -0.680   7.202  1.00  0.00    -0.458 OA
BRANCH   3   4
ATOM      4  C   UNL     1       2.734  -0.948   6.839  1.00  0.00     0.338 C 
ATOM      5  O   UNL     1       1.846  -1.328   7.586  1.00  0.00    -0.246 OA
BRANCH   4   6
ATOM      6  C   UNL     1       2.506  -0.849   5.375  1.00  0.00     0.062 A 
ATOM      7  N   UNL     1       1.029  -0.330   1.527  1.00  0.00    -0.292 N 
ATOM      8  C   UNL     1       0.923   1.079   1.481  1.00  0.00     0.329 A 
ATOM      9  C   UNL     1       1.541  -0.713   2.776  1.00  0.00     0.069 A 
ATOM     10  O   UNL     1       0.474   1.762   0.586  1.00  0.00    -0.248 OA
ATOM     11  N   UNL     1       1.428   1.548   2.716  1.00  0.00    -0.292 N 
ATOM     12  C   UNL     1       1.843   0.449   3.485  1.00  0.00     0.070 A 
ATOM     13  C   UNL     1       1.702  -1.961   3.347  1.00  0.00     0.029 A 
ATOM     14  C   UNL     1       2.397   0.395   4.747  1.00  0.00     0.044 A 
ATOM     15  C   UNL     1       2.156  -2.022   4.676  1.00  0.00     0.018 A 
BRANCH   7  16
ATOM     16  C   UNL     1       0.452  -1.194   0.530  1.00  0.00     0.124 C 
ATOM     17  C   UNL     1       0.999  -0.891  -0.860  1.00  0.00     0.028 C 
ENDBRANCH   7  16
BRANCH  11  18
ATOM     18  C   UNL     1       1.137   2.887   3.162  1.00  0.00     0.124 C 
ATOM     19  C   UNL     1      -0.332   3.030   3.557  1.00  0.00     0.028 C 
ENDBRANCH  11  18
ENDBRANCH   4   6
ENDBRANCH   3   4
ENDBRANCH   2   3
ENDBRANCH   1   2
BRANCH   1  20
ATOM     20  O   UNL     1       4.665   1.081   9.709  1.00  0.00    -0.458 OA
BRANCH  20  21
ATOM     21  C   UNL     1       4.762   2.198   8.952  1.00  0.00     0.338 C 
ATOM     22  O   UNL     1       5.720   2.559   8.293  1.00  0.00    -0.246 OA
BRANCH  21  23
ATOM     23  C   UNL     1       3.369   2.623   8.729  1.00  0.00     0.060 A 
ATOM     24  C   UNL     1       2.428   2.767   9.754  1.00  0.00     0.016 A 
ATOM     25  C   UNL     1       2.973   2.628   7.399  1.00  0.00     0.016 A 
ATOM     26  C   UNL     1       1.068   2.848   9.431  1.00  0.00     0.010 A 
ATOM     27  C   UNL     1       1.621   2.627   7.099  1.00  0.00     0.010 A 
ATOM     28  C   UNL     1       0.661   2.728   8.099  1.00  0.00    -0.014 A 
BRANCH  28  29
ATOM     29  C   UNL     1      -0.735   2.897   7.682  1.00  0.00     0.031 A 
ATOM     30  C   UNL     1      -1.117   4.287   7.276  1.00  0.00     0.074 A 
ATOM     31  C   UNL     1      -1.597   1.895   7.387  1.00  0.00     0.049 A 
ATOM     32  N   UNL     1      -2.122   4.980   7.696  1.00  0.00    -0.248 NA
ATOM     33  C   UNL     1      -0.289   5.007   6.293  1.00  0.00     0.031 C 
ATOM     34  C   UNL     1      -1.329   0.458   7.283  1.00  0.00     0.029 A 
ATOM     35  N   UNL     1      -2.914   1.986   7.014  1.00  0.00    -0.354 N 
ATOM     36  C   UNL     1      -2.144   6.151   6.939  1.00  0.00     0.074 A 
ATOM     37  C   UNL     1      -0.980   6.128   6.099  1.00  0.00     0.031 C 
ATOM     38  C   UNL     1      -2.399  -0.164   6.727  1.00  0.00     0.029 A 
ATOM     39  C   UNL     1      -3.481   0.797   6.563  1.00  0.00     0.049 A 
ATOM     40  H   UNL     1      -3.421   2.829   7.062  1.00  0.00     0.167 HD
ATOM     41  C   UNL     1      -3.180   7.027   6.989  1.00  0.00     0.034 A 
ATOM     42  C   UNL     1      -4.741   0.610   6.091  1.00  0.00     0.034 A 
ATOM     43  C   UNL     1      -3.952   6.840   8.181  1.00  0.00     0.049 A 
ATOM     44  C   UNL     1      -5.567   1.766   6.508  1.00  0.00     0.074 A 
ATOM     45  C   UNL     1      -3.647   6.901   9.525  1.00  0.00     0.029 A 
ATOM     46  N   UNL     1      -5.144   6.170   8.085  1.00  0.00    -0.354 N 
ATOM     47  N   UNL     1      -6.019   1.967   7.712  1.00  0.00    -0.248 NA
ATOM     48  C   UNL     1      -5.706   2.889   5.595  1.00  0.00     0.031 C 
ATOM     49  C   UNL     1      -4.416   5.867  10.120  1.00  0.00     0.029 A 
ATOM     50  C   UNL     1      -5.192   5.272   9.121  1.00  0.00     0.049 A 
ATOM     51  H   UNL     1      -5.837   6.308   7.399  1.00  0.00     0.167 HD
ATOM     52  C   UNL     1      -6.055   3.341   7.839  1.00  0.00     0.074 A 
ATOM     53  C   UNL     1      -6.044   3.839   6.468  1.00  0.00     0.031 C 
ATOM     54  C   UNL     1      -5.783   3.946   9.033  1.00  0.00     0.034 A 
BRANCH  41  55
ATOM     55  C   UNL     1      -3.612   7.910   5.854  1.00  0.00     0.023 A 
ATOM     56  C   UNL     1      -3.239   7.662   4.519  1.00  0.00     0.031 A 
ATOM     57  C   UNL     1      -4.608   8.887   6.054  1.00  0.00     0.131 A 
ATOM     58  C   UNL     1      -3.828   8.367   3.460  1.00  0.00     0.055 A 
ATOM     59  C   UNL     1      -5.236   9.548   4.993  1.00  0.00     0.041 A 
ATOM     60  F   UNL     1      -5.041   9.189   7.288  1.00  0.00    -0.206 F 
ATOM     61  C   UNL     1      -4.848   9.289   3.686  1.00  0.00     0.022 A 
BRANCH  58  62
ATOM     62  S   UNL     1      -3.290   8.090   1.750  1.00  0.00     0.124 S 
ATOM     63  O   UNL     1      -4.506   7.571   1.135  1.00  0.00    -0.237 OA
ATOM     64  O   UNL     1      -2.897   9.436   1.341  1.00  0.00    -0.237 OA
ATOM     65  O   UNL     1      -2.189   7.141   1.893  1.00  0.00    -0.744 OA
ENDBRANCH  58  62
ENDBRANCH  41  55
BRANCH  42  66
ATOM     66  C   UNL     1      -5.338  -0.418   5.201  1.00  0.00     0.023 A 
ATOM     67  C   UNL     1      -4.593  -0.974   4.146  1.00  0.00     0.031 A 
ATOM     68  C   UNL     1      -6.735  -0.626   5.183  1.00  0.00     0.131 A 
ATOM     69  C   UNL     1      -5.247  -1.639   3.093  1.00  0.00     0.055 A 
ATOM     70  C   UNL     1      -7.380  -1.294   4.137  1.00  0.00     0.041 A 
ATOM     71  F   UNL     1      -7.518  -0.126   6.150  1.00  0.00    -0.206 F 
ATOM     72  C   UNL     1      -6.636  -1.789   3.075  1.00  0.00     0.022 A 
BRANCH  69  73
ATOM     73  S   UNL     1      -4.304  -2.280   1.680  1.00  0.00     0.124 S 
ATOM     74  O   UNL     1      -4.982  -3.543   1.391  1.00  0.00    -0.237 OA
ATOM     75  O   UNL     1      -4.496  -1.229   0.688  1.00  0.00    -0.237 OA
ATOM     76  O   UNL     1      -2.949  -2.421   2.205  1.00  0.00    -0.744 OA
ENDBRANCH  69  73
ENDBRANCH  42  66
BRANCH  54  77
ATOM     77  C   UNL     1      -5.797   3.133  10.320  1.00  0.00     0.023 A 
ATOM     78  C   UNL     1      -6.336   3.763  11.462  1.00  0.00     0.031 A 
ATOM     79  C   UNL     1      -5.133   1.907  10.526  1.00  0.00     0.131 A 
ATOM     80  C   UNL     1      -6.148   3.220  12.739  1.00  0.00     0.055 A 
ATOM     81  C   UNL     1      -5.044   1.314  11.792  1.00  0.00     0.041 A 
ATOM     82  F   UNL     1      -4.460   1.285   9.549  1.00  0.00    -0.206 F 
ATOM     83  C   UNL     1      -5.529   1.982  12.909  1.00  0.00     0.022 A 
BRANCH  80  84
ATOM     84  S   UNL     1      -6.505   4.214  14.214  1.00  0.00     0.124 S 
ATOM     85  O   UNL     1      -7.698   3.562  14.745  1.00  0.00    -0.237 OA
ATOM     86  O   UNL     1      -5.291   4.043  15.011  1.00  0.00    -0.237 OA
ATOM     87  O   UNL     1      -6.705   5.562  13.690  1.00  0.00    -0.744 OA
ENDBRANCH  80  84
ENDBRANCH  54  77
ENDBRANCH  28  29
ENDBRANCH  21  23
ENDBRANCH  20  21
ENDBRANCH   1  20
TORSDOF 16
