REMARK SMILES O=C(Cc1ccccc1Nc1c(Cl)cccc1C(F)(F)F)OCCOC(=O)c1ccc(-c2c3nc(c(-c4cc(S(=O)(=O)[O-])ccc4F)c4ccc([nH]4)c(-c4cc(S(=O)(=O)[O-])ccc4F)c4nc(c(-c5cc(S(=O)(=O)[O-])ccc5F)c5ccc2[nH]5)C=C4)C=C3)cc1
REMARK SMILES IDX 23 1 22 2 2 3 1 4 3 5 4 6 5 7 9 8 6 9 8 10 7 11 10 12 11 14
REMARK SMILES IDX 12 15 17 16 13 17 14 18 16 19 15 20 18 21 19 22 20 23 21 24
REMARK SMILES IDX 24 25 25 26 26 27 27 28 28 29 29 30 90 31 30 32 89 33 31 34
REMARK SMILES IDX 32 35 33 36 83 37 34 38 88 39 82 40 84 41 35 42 87 43 81 44
REMARK SMILES IDX 80 45 36 47 68 48 48 49 67 50 49 51 52 52 66 53 85 54 50 55
REMARK SMILES IDX 51 56 65 58 86 59 53 60 37 61 38 62 46 63 39 64 45 65 47 66
REMARK SMILES IDX 44 67 40 68 41 69 42 70 43 71 69 72 70 73 78 74 71 75 77 76
REMARK SMILES IDX 79 77 76 78 72 79 73 80 74 81 75 82 54 83 55 84 63 85 56 86
REMARK SMILES IDX 62 87 64 88 61 89 57 90 58 91 59 92 60 93
REMARK H PARENT 10 13 84 46 52 57
REMARK Flexibility Score: inf
ROOT
ATOM      1  C   UNL     1       4.582  -0.817   0.977  1.00  0.00     0.274 C 
ENDROOT
BRANCH   1   2
ATOM      2  O   UNL     1       3.252  -0.265   0.980  1.00  0.00    -0.462 OA
BRANCH   2   3
ATOM      3  C   UNL     1       2.637   0.305  -0.080  1.00  0.00     0.310 C 
ATOM      4  O   UNL     1       1.493   0.745   0.044  1.00  0.00    -0.252 OA
BRANCH   3   5
ATOM      5  C   UNL     1       3.378   0.473  -1.386  1.00  0.00     0.160 C 
BRANCH   5   6
ATOM      6  C   UNL     1       4.218   1.725  -1.463  1.00  0.00    -0.013 A 
ATOM      7  C   UNL     1       5.587   1.587  -1.768  1.00  0.00     0.006 A 
ATOM      8  C   UNL     1       3.657   3.012  -1.314  1.00  0.00     0.042 A 
ATOM      9  C   UNL     1       6.407   2.703  -1.887  1.00  0.00     0.000 A 
ATOM     10  C   UNL     1       4.506   4.120  -1.438  1.00  0.00     0.026 A 
ATOM     11  C   UNL     1       5.868   3.970  -1.713  1.00  0.00     0.002 A 
BRANCH   8  12
ATOM     12  N   UNL     1       2.271   3.171  -1.135  1.00  0.00    -0.354 N 
ATOM     13  H   UNL     1       1.827   2.392  -0.728  1.00  0.00     0.167 HD
BRANCH  12  14
ATOM     14  C   UNL     1       1.398   4.240  -1.430  1.00  0.00     0.070 A 
ATOM     15  C   UNL     1       0.520   4.694  -0.414  1.00  0.00     0.065 A 
ATOM     16  C   UNL     1       1.367   4.890  -2.680  1.00  0.00     0.080 A 
ATOM     17  Cl  UNL     1       0.491   3.934   1.145  1.00  0.00    -0.082 Cl
ATOM     18  C   UNL     1      -0.342   5.771  -0.616  1.00  0.00     0.023 A 
ATOM     19  C   UNL     1       0.503   5.996  -2.855  1.00  0.00     0.015 A 
ATOM     20  C   UNL     1      -0.343   6.431  -1.837  1.00  0.00     0.002 A 
BRANCH  16  21
ATOM     21  C   UNL     1       2.169   4.433  -3.879  1.00  0.00     0.418 C 
ATOM     22  F   UNL     1       1.570   4.775  -5.058  1.00  0.00    -0.166 F 
ATOM     23  F   UNL     1       3.401   5.015  -3.934  1.00  0.00    -0.166 F 
ATOM     24  F   UNL     1       2.365   3.089  -3.966  1.00  0.00    -0.166 F 
ENDBRANCH  16  21
ENDBRANCH  12  14
ENDBRANCH   8  12
ENDBRANCH   5   6
ENDBRANCH   3   5
ENDBRANCH   2   3
ENDBRANCH   1   2
BRANCH   1  25
ATOM     25  C   UNL     1       4.550  -2.332   0.773  1.00  0.00     0.275 C 
BRANCH  25  26
ATOM     26  O   UNL     1       4.120  -2.636  -0.565  1.00  0.00    -0.458 OA
BRANCH  26  27
ATOM     27  C   UNL     1       2.799  -2.921  -0.708  1.00  0.00     0.338 C 
ATOM     28  O   UNL     1       1.996  -3.091   0.193  1.00  0.00    -0.246 OA
BRANCH  27  29
ATOM     29  C   UNL     1       2.429  -2.776  -2.136  1.00  0.00     0.060 A 
ATOM     30  C   UNL     1       1.174  -2.233  -2.443  1.00  0.00     0.016 A 
ATOM     31  C   UNL     1       3.315  -3.117  -3.164  1.00  0.00     0.016 A 
ATOM     32  C   UNL     1       0.791  -2.059  -3.776  1.00  0.00     0.010 A 
ATOM     33  C   UNL     1       2.929  -2.945  -4.497  1.00  0.00     0.010 A 
ATOM     34  C   UNL     1       1.655  -2.442  -4.810  1.00  0.00    -0.014 A 
BRANCH  34  35
ATOM     35  C   UNL     1       1.169  -2.499  -6.211  1.00  0.00     0.031 A 
ATOM     36  C   UNL     1       0.651  -3.813  -6.729  1.00  0.00     0.074 A 
ATOM     37  C   UNL     1       1.206  -1.422  -7.016  1.00  0.00     0.049 A 
ATOM     38  N   UNL     1       0.225  -4.129  -7.924  1.00  0.00    -0.248 NA
ATOM     39  C   UNL     1       0.624  -4.923  -5.764  1.00  0.00     0.031 C 
ATOM     40  C   UNL     1       1.668  -0.090  -6.631  1.00  0.00     0.029 A 
ATOM     41  N   UNL     1       0.862  -1.291  -8.339  1.00  0.00    -0.354 N 
ATOM     42  C   UNL     1      -0.129  -5.472  -7.855  1.00  0.00     0.074 A 
ATOM     43  C   UNL     1       0.179  -5.919  -6.513  1.00  0.00     0.031 C 
ATOM     44  C   UNL     1       1.600   0.720  -7.704  1.00  0.00     0.029 A 
ATOM     45  C   UNL     1       1.115  -0.041  -8.855  1.00  0.00     0.049 A 
ATOM     46  H   UNL     1       0.470  -2.022  -8.869  1.00  0.00     0.167 HD
ATOM     47  C   UNL     1      -0.674  -6.258  -8.815  1.00  0.00     0.034 A 
ATOM     48  C   UNL     1       0.993   0.423 -10.116  1.00  0.00     0.034 A 
ATOM     49  C   UNL     1      -0.951  -5.813 -10.157  1.00  0.00     0.049 A 
ATOM     50  C   UNL     1       0.471  -0.495 -11.198  1.00  0.00     0.074 A 
ATOM     51  C   UNL     1      -1.524  -6.520 -11.200  1.00  0.00     0.029 A 
ATOM     52  N   UNL     1      -0.654  -4.549 -10.651  1.00  0.00    -0.354 N 
ATOM     53  N   UNL     1       0.098  -1.752 -11.110  1.00  0.00    -0.248 NA
ATOM     54  C   UNL     1       0.346   0.072 -12.549  1.00  0.00     0.031 C 
ATOM     55  C   UNL     1      -1.508  -5.709 -12.341  1.00  0.00     0.029 A 
ATOM     56  C   UNL     1      -0.994  -4.470 -11.993  1.00  0.00     0.049 A 
ATOM     57  H   UNL     1      -0.259  -3.817 -10.126  1.00  0.00     0.167 HD
ATOM     58  C   UNL     1      -0.336  -2.111 -12.385  1.00  0.00     0.074 A 
ATOM     59  C   UNL     1      -0.182  -0.940 -13.222  1.00  0.00     0.031 C 
ATOM     60  C   UNL     1      -0.827  -3.299 -12.821  1.00  0.00     0.034 A 
BRANCH  47  61
ATOM     61  C   UNL     1      -0.952  -7.693  -8.446  1.00  0.00     0.023 A 
ATOM     62  C   UNL     1      -1.895  -8.029  -7.458  1.00  0.00     0.031 A 
ATOM     63  C   UNL     1      -0.227  -8.735  -9.048  1.00  0.00     0.131 A 
ATOM     64  C   UNL     1      -2.030  -9.362  -7.045  1.00  0.00     0.055 A 
ATOM     65  C   UNL     1      -0.424 -10.070  -8.689  1.00  0.00     0.041 A 
ATOM     66  F   UNL     1       0.703  -8.472  -9.979  1.00  0.00    -0.206 F 
ATOM     67  C   UNL     1      -1.318 -10.388  -7.670  1.00  0.00     0.022 A 
BRANCH  64  68
ATOM     68  S   UNL     1      -3.034  -9.717  -5.577  1.00  0.00     0.124 S 
ATOM     69  O   UNL     1      -2.372  -8.900  -4.562  1.00  0.00    -0.237 OA
ATOM     70  O   UNL     1      -4.362  -9.275  -5.988  1.00  0.00    -0.237 OA
ATOM     71  O   UNL     1      -2.883 -11.159  -5.399  1.00  0.00    -0.744 OA
ENDBRANCH  64  68
ENDBRANCH  47  61
BRANCH  48  72
ATOM     72  C   UNL     1       1.415   1.813 -10.453  1.00  0.00     0.023 A 
ATOM     73  C   UNL     1       0.488   2.772 -10.891  1.00  0.00     0.031 A 
ATOM     74  C   UNL     1       2.773   2.178 -10.409  1.00  0.00     0.131 A 
ATOM     75  C   UNL     1       0.935   4.035 -11.313  1.00  0.00     0.055 A 
ATOM     76  C   UNL     1       3.207   3.451 -10.783  1.00  0.00     0.041 A 
ATOM     77  F   UNL     1       3.700   1.297 -10.003  1.00  0.00    -0.206 F 
ATOM     78  C   UNL     1       2.286   4.384 -11.251  1.00  0.00     0.022 A 
BRANCH  75  79
ATOM     79  S   UNL     1      -0.268   5.190 -12.027  1.00  0.00     0.124 S 
ATOM     80  O   UNL     1      -0.771   4.429 -13.165  1.00  0.00    -0.237 OA
ATOM     81  O   UNL     1      -1.200   5.383 -10.921  1.00  0.00    -0.237 OA
ATOM     82  O   UNL     1       0.542   6.359 -12.367  1.00  0.00    -0.744 OA
ENDBRANCH  75  79
ENDBRANCH  48  72
BRANCH  60  83
ATOM     83  C   UNL     1      -1.283  -3.376 -14.259  1.00  0.00     0.023 A 
ATOM     84  C   UNL     1      -0.376  -3.324 -15.331  1.00  0.00     0.031 A 
ATOM     85  C   UNL     1      -2.651  -3.517 -14.555  1.00  0.00     0.131 A 
ATOM     86  C   UNL     1      -0.851  -3.373 -16.652  1.00  0.00     0.055 A 
ATOM     87  C   UNL     1      -3.113  -3.615 -15.868  1.00  0.00     0.041 A 
ATOM     88  F   UNL     1      -3.561  -3.571 -13.570  1.00  0.00    -0.206 F 
ATOM     89  C   UNL     1      -2.212  -3.534 -16.926  1.00  0.00     0.022 A 
BRANCH  86  90
ATOM     90  S   UNL     1       0.326  -3.159 -18.016  1.00  0.00     0.124 S 
ATOM     91  O   UNL     1       0.872  -1.834 -17.742  1.00  0.00    -0.237 OA
ATOM     92  O   UNL     1       1.241  -4.279 -17.818  1.00  0.00    -0.237 OA
ATOM     93  O   UNL     1      -0.511  -3.249 -19.210  1.00  0.00    -0.744 OA
ENDBRANCH  86  90
ENDBRANCH  60  83
ENDBRANCH  34  35
ENDBRANCH  27  29
ENDBRANCH  26  27
ENDBRANCH  25  26
ENDBRANCH   1  25
TORSDOF 18
