REMARK SMILES CCCC[C@@H](C)[NH2+]Cc1ccc(C(=O)OCCOC(=O)c2ccc(-c3c4nc(c(-c5cc(S(=O)(=O)[O-])ccc5F)c5ccc([nH]5)c(-c5cc(S(=O)(=O)[O-])ccc5F)c5nc(c(-c6cc(S(=O)(=O)[O-])ccc6F)c6ccc3[nH]6)C=C5)C=C4)cc2)cn1
REMARK SMILES IDX 15 1 13 2 14 3 12 4 9 5 10 6 85 7 11 8 84 9 8 10 7 11 5 14
REMARK SMILES IDX 6 15 4 16 3 17 2 18 1 19 16 20 17 21 18 22 19 23 20 24 21 25
REMARK SMILES IDX 22 26 83 27 23 28 82 29 24 30 25 31 26 32 76 33 27 34 81 35
REMARK SMILES IDX 75 36 77 37 28 38 80 39 74 40 73 41 29 43 61 44 41 45 60 46
REMARK SMILES IDX 42 47 45 48 59 49 78 50 43 51 44 52 58 54 79 55 46 56 30 57
REMARK SMILES IDX 31 58 39 59 32 60 38 61 40 62 37 63 33 64 34 65 35 66 36 67
REMARK SMILES IDX 62 68 63 69 71 70 64 71 70 72 72 73 69 74 65 75 66 76 67 77
REMARK SMILES IDX 68 78 47 79 48 80 56 81 49 82 55 83 57 84 54 85 50 86 51 87
REMARK SMILES IDX 52 88 53 89
REMARK H PARENT 7 12 7 13 77 42 45 53
REMARK Flexibility Score: inf
ROOT
ATOM      1  O   UNL     1      -4.432  -0.352   7.105  1.00  0.00    -0.458 OA
ENDROOT
BRANCH   1   2
ATOM      2  C   UNL     1      -5.250   0.583   6.566  1.00  0.00     0.339 C 
ATOM      3  O   UNL     1      -6.280   1.031   7.051  1.00  0.00    -0.246 OA
BRANCH   2   4
ATOM      4  C   UNL     1      -4.698   1.058   5.295  1.00  0.00     0.078 A 
ATOM      5  C   UNL     1      -3.605   2.091   2.997  1.00  0.00     0.094 A 
ATOM      6  C   UNL     1      -3.955   0.739   3.034  1.00  0.00     0.031 A 
ATOM      7  N   UNL     1      -3.837   2.927   4.034  1.00  0.00    -0.254 NA
ATOM      8  C   UNL     1      -4.504   0.212   4.207  1.00  0.00     0.019 A 
ATOM      9  C   UNL     1      -4.383   2.398   5.147  1.00  0.00     0.127 A 
BRANCH   5  10
ATOM     10  C   UNL     1      -2.746   2.651   1.885  1.00  0.00     0.318 C 
BRANCH  10  11
ATOM     11  N   UNL     1      -1.340   2.856   2.289  1.00  0.00    -0.339 N 
ATOM     12  H   UNL     1      -0.849   3.321   1.525  1.00  0.00     0.346 HD
ATOM     13  H   UNL     1      -1.353   3.418   3.140  1.00  0.00     0.346 HD
BRANCH  11  14
ATOM     14  C   UNL     1      -0.631   1.608   2.606  1.00  0.00     0.179 C 
ATOM     15  C   UNL     1      -0.592   1.323   4.116  1.00  0.00     0.075 C 
BRANCH  14  16
ATOM     16  C   UNL     1       0.804   1.739   2.062  1.00  0.00     0.065 C 
BRANCH  16  17
ATOM     17  C   UNL     1       1.595   0.423   2.068  1.00  0.00     0.006 C 
BRANCH  17  18
ATOM     18  C   UNL     1       1.066  -0.647   1.108  1.00  0.00    -0.003 C 
ATOM     19  C   UNL     1       1.162  -0.236  -0.354  1.00  0.00     0.004 C 
ENDBRANCH  17  18
ENDBRANCH  16  17
ENDBRANCH  14  16
ENDBRANCH  11  14
ENDBRANCH  10  11
ENDBRANCH   5  10
ENDBRANCH   2   4
ENDBRANCH   1   2
BRANCH   1  20
ATOM     20  C   UNL     1      -4.835  -0.873   8.389  1.00  0.00     0.275 C 
BRANCH  20  21
ATOM     21  C   UNL     1      -4.063  -0.222   9.537  1.00  0.00     0.275 C 
BRANCH  21  22
ATOM     22  O   UNL     1      -4.420   1.166   9.656  1.00  0.00    -0.458 OA
BRANCH  22  23
ATOM     23  C   UNL     1      -3.414   2.043   9.434  1.00  0.00     0.338 C 
ATOM     24  O   UNL     1      -2.251   1.781   9.182  1.00  0.00    -0.246 OA
BRANCH  23  25
ATOM     25  C   UNL     1      -3.923   3.423   9.482  1.00  0.00     0.060 A 
ATOM     26  C   UNL     1      -4.778   3.853   8.475  1.00  0.00     0.016 A 
ATOM     27  C   UNL     1      -3.410   4.339  10.396  1.00  0.00     0.016 A 
ATOM     28  C   UNL     1      -4.985   5.214   8.270  1.00  0.00     0.010 A 
ATOM     29  C   UNL     1      -3.753   5.694  10.281  1.00  0.00     0.010 A 
ATOM     30  C   UNL     1      -4.500   6.160   9.183  1.00  0.00    -0.014 A 
BRANCH  30  31
ATOM     31  C   UNL     1      -4.751   7.621   8.971  1.00  0.00     0.031 A 
ATOM     32  C   UNL     1      -3.601   8.602   8.965  1.00  0.00     0.074 A 
ATOM     33  C   UNL     1      -6.004   8.080   8.766  1.00  0.00     0.049 A 
ATOM     34  N   UNL     1      -3.624   9.911   9.007  1.00  0.00    -0.248 NA
ATOM     35  C   UNL     1      -2.245   8.032   8.931  1.00  0.00     0.031 C 
ATOM     36  C   UNL     1      -7.212   7.252   8.697  1.00  0.00     0.029 A 
ATOM     37  N   UNL     1      -6.476   9.355   8.563  1.00  0.00    -0.354 N 
ATOM     38  C   UNL     1      -2.294  10.318   9.074  1.00  0.00     0.074 A 
ATOM     39  C   UNL     1      -1.491   9.113   9.076  1.00  0.00     0.031 C 
ATOM     40  C   UNL     1      -8.266   8.026   8.408  1.00  0.00     0.029 A 
ATOM     41  C   UNL     1      -7.841   9.419   8.394  1.00  0.00     0.049 A 
ATOM     42  H   UNL     1      -5.893  10.148   8.542  1.00  0.00     0.167 HD
ATOM     43  C   UNL     1      -1.792  11.578   9.133  1.00  0.00     0.034 A 
ATOM     44  C   UNL     1      -8.675  10.474   8.295  1.00  0.00     0.034 A 
ATOM     45  C   UNL     1      -2.605  12.771   9.066  1.00  0.00     0.049 A 
ATOM     46  C   UNL     1      -8.102  11.861   8.389  1.00  0.00     0.074 A 
ATOM     47  C   UNL     1      -2.201  14.096   9.103  1.00  0.00     0.029 A 
ATOM     48  N   UNL     1      -3.988  12.786   8.930  1.00  0.00    -0.354 N 
ATOM     49  N   UNL     1      -6.851  12.227   8.546  1.00  0.00    -0.248 NA
ATOM     50  C   UNL     1      -9.054  12.976   8.312  1.00  0.00     0.031 C 
ATOM     51  C   UNL     1      -3.340  14.907   9.044  1.00  0.00     0.029 A 
ATOM     52  C   UNL     1      -4.452  14.093   8.901  1.00  0.00     0.049 A 
ATOM     53  H   UNL     1      -4.556  11.985   8.863  1.00  0.00     0.167 HD
ATOM     54  C   UNL     1      -6.866  13.617   8.576  1.00  0.00     0.074 A 
ATOM     55  C   UNL     1      -8.246  14.023   8.399  1.00  0.00     0.031 C 
ATOM     56  C   UNL     1      -5.833  14.481   8.738  1.00  0.00     0.034 A 
BRANCH  43  57
ATOM     57  C   UNL     1      -0.303  11.730   9.346  1.00  0.00     0.023 A 
ATOM     58  C   UNL     1       0.643  11.310   8.395  1.00  0.00     0.031 A 
ATOM     59  C   UNL     1       0.178  12.290  10.545  1.00  0.00     0.131 A 
ATOM     60  C   UNL     1       2.014  11.389   8.688  1.00  0.00     0.055 A 
ATOM     61  C   UNL     1       1.544  12.439  10.797  1.00  0.00     0.041 A 
ATOM     62  F   UNL     1      -0.674  12.694  11.501  1.00  0.00    -0.206 F 
ATOM     63  C   UNL     1       2.471  11.974   9.872  1.00  0.00     0.022 A 
BRANCH  60  64
ATOM     64  S   UNL     1       3.193  10.592   7.562  1.00  0.00     0.124 S 
ATOM     65  O   UNL     1       2.729   9.207   7.582  1.00  0.00    -0.237 OA
ATOM     66  O   UNL     1       2.983  11.320   6.317  1.00  0.00    -0.237 OA
ATOM     67  O   UNL     1       4.487  10.816   8.205  1.00  0.00    -0.744 OA
ENDBRANCH  60  64
ENDBRANCH  43  57
BRANCH  44  68
ATOM     68  C   UNL     1     -10.147  10.259   8.179  1.00  0.00     0.023 A 
ATOM     69  C   UNL     1     -10.854  10.663   7.036  1.00  0.00     0.031 A 
ATOM     70  C   UNL     1     -10.872   9.659   9.226  1.00  0.00     0.131 A 
ATOM     71  C   UNL     1     -12.247  10.487   6.979  1.00  0.00     0.055 A 
ATOM     72  C   UNL     1     -12.246   9.435   9.139  1.00  0.00     0.041 A 
ATOM     73  F   UNL     1     -10.246   9.257  10.343  1.00  0.00    -0.206 F 
ATOM     74  C   UNL     1     -12.944   9.860   8.014  1.00  0.00     0.022 A 
BRANCH  71  75
ATOM     75  S   UNL     1     -13.152  11.159   5.557  1.00  0.00     0.124 S 
ATOM     76  O   UNL     1     -12.804  12.574   5.624  1.00  0.00    -0.237 OA
ATOM     77  O   UNL     1     -12.575  10.408   4.447  1.00  0.00    -0.237 OA
ATOM     78  O   UNL     1     -14.546  10.844   5.862  1.00  0.00    -0.744 OA
ENDBRANCH  71  75
ENDBRANCH  44  68
BRANCH  56  79
ATOM     79  C   UNL     1      -6.164  15.950   8.684  1.00  0.00     0.023 A 
ATOM     80  C   UNL     1      -6.897  16.579   9.705  1.00  0.00     0.031 A 
ATOM     81  C   UNL     1      -5.759  16.723   7.582  1.00  0.00     0.131 A 
ATOM     82  C   UNL     1      -7.250  17.931   9.578  1.00  0.00     0.055 A 
ATOM     83  C   UNL     1      -6.068  18.080   7.486  1.00  0.00     0.041 A 
ATOM     84  F   UNL     1      -5.059  16.169   6.580  1.00  0.00    -0.206 F 
ATOM     85  C   UNL     1      -6.828  18.689   8.482  1.00  0.00     0.022 A 
BRANCH  82  86
ATOM     86  S   UNL     1      -8.337  18.671  10.828  1.00  0.00     0.124 S 
ATOM     87  O   UNL     1      -9.532  17.841  10.720  1.00  0.00    -0.237 OA
ATOM     88  O   UNL     1      -7.559  18.514  12.052  1.00  0.00    -0.237 OA
ATOM     89  O   UNL     1      -8.496  20.051  10.370  1.00  0.00    -0.744 OA
ENDBRANCH  82  86
ENDBRANCH  56  79
ENDBRANCH  30  31
ENDBRANCH  23  25
ENDBRANCH  22  23
ENDBRANCH  21  22
ENDBRANCH  20  21
ENDBRANCH   1  20
TORSDOF 20
