REMARK SMILES CN(C)c1cccc2c(S(=O)(=O)N[C@H](CO)C(=O)OCCOC(=O)c3ccc(-c4c5nc(c(-c6cc(S(=O)(=O)[O-])ccc6F)c6ccc([nH]6)c(-c6cc(S(=O)(=O)[O-])ccc6F)c6nc(c(-c7cc(S(=O)(=O)[O-])ccc7F)c7ccc4[nH]7)C=C6)C=C5)cc3)cccc12
REMARK SMILES IDX 20 1 19 2 17 3 18 4 14 5 13 6 10 8 11 9 12 10 9 11 4 12 5 13
REMARK SMILES IDX 91 14 6 15 8 16 90 17 7 18 89 19 88 20 2 21 1 22 3 23 15 24
REMARK SMILES IDX 16 25 21 27 22 28 23 29 24 30 25 31 26 32 87 33 27 34 86 35
REMARK SMILES IDX 28 36 29 37 30 38 80 39 31 40 85 41 79 42 81 43 32 44 84 45
REMARK SMILES IDX 78 46 77 47 33 49 65 50 45 51 64 52 46 53 49 54 63 55 82 56
REMARK SMILES IDX 47 57 48 58 62 60 83 61 50 62 34 63 35 64 43 65 36 66 42 67
REMARK SMILES IDX 44 68 41 69 37 70 38 71 39 72 40 73 66 74 67 75 75 76 68 77
REMARK SMILES IDX 74 78 76 79 73 80 69 81 70 82 71 83 72 84 51 85 52 86 60 87
REMARK SMILES IDX 53 88 59 89 61 90 58 91 54 92 55 93 56 94 57 95
REMARK H PARENT 13 7 16 26 81 48 49 59
REMARK Flexibility Score: inf
ROOT
ATOM      1  C   UNL     1       5.346   8.298   1.873  1.00  0.00     0.274 C 
ENDROOT
BRANCH   1   2
ATOM      2  O   UNL     1       3.978   8.486   1.457  1.00  0.00    -0.461 OA
BRANCH   2   3
ATOM      3  C   UNL     1       3.563   7.632   0.484  1.00  0.00     0.326 C 
ATOM      4  O   UNL     1       4.276   6.759   0.005  1.00  0.00    -0.250 OA
BRANCH   3   5
ATOM      5  C   UNL     1       2.145   7.870   0.009  1.00  0.00     0.205 C 
BRANCH   5   6
ATOM      6  N   UNL     1       1.983   8.634  -1.240  1.00  0.00    -0.194 NA
ATOM      7  H   UNL     1       1.949   7.938  -1.984  1.00  0.00     0.142 HD
BRANCH   6   8
ATOM      8  S   UNL     1       3.030   9.806  -1.774  1.00  0.00     0.242 S 
ATOM      9  O   UNL     1       3.345  10.633  -0.614  1.00  0.00    -0.207 OA
ATOM     10  O   UNL     1       2.426  10.376  -2.948  1.00  0.00    -0.207 OA
BRANCH   8  11
ATOM     11  C   UNL     1       4.559   9.047  -2.299  1.00  0.00     0.090 A 
ATOM     12  C   UNL     1       6.176   5.724  -2.965  1.00  0.00     0.044 A 
ATOM     13  C   UNL     1       5.045   4.934  -3.223  1.00  0.00     0.026 A 
ATOM     14  C   UNL     1       5.994   7.130  -2.766  1.00  0.00     0.006 A 
ATOM     15  C   UNL     1       3.775   5.489  -3.294  1.00  0.00     0.003 A 
ATOM     16  C   UNL     1       4.683   7.692  -2.713  1.00  0.00     0.004 A 
ATOM     17  C   UNL     1       7.101   7.998  -2.621  1.00  0.00     0.011 A 
ATOM     18  C   UNL     1       3.600   6.848  -3.052  1.00  0.00     0.010 A 
ATOM     19  C   UNL     1       6.959   9.349  -2.326  1.00  0.00     0.002 A 
ATOM     20  C   UNL     1       5.691   9.864  -2.128  1.00  0.00     0.022 A 
BRANCH  12  21
ATOM     21  N   UNL     1       7.449   5.121  -2.846  1.00  0.00    -0.377 N 
ATOM     22  C   UNL     1       7.734   3.949  -3.672  1.00  0.00     0.143 C 
ATOM     23  C   UNL     1       7.955   5.054  -1.472  1.00  0.00     0.143 C 
ENDBRANCH  12  21
ENDBRANCH   8  11
ENDBRANCH   6   8
ENDBRANCH   5   6
BRANCH   5  24
ATOM     24  C   UNL     1       1.189   8.351   1.111  1.00  0.00     0.188 C 
BRANCH  24  25
ATOM     25  O   UNL     1       1.375   9.711   1.488  1.00  0.00    -0.394 OA
ATOM     26  H   UNL     1       2.266   9.826   1.854  1.00  0.00     0.210 HD
ENDBRANCH  24  25
ENDBRANCH   5  24
ENDBRANCH   3   5
ENDBRANCH   2   3
ENDBRANCH   1   2
BRANCH   1  27
ATOM     27  C   UNL     1       5.489   7.277   3.012  1.00  0.00     0.275 C 
BRANCH  27  28
ATOM     28  O   UNL     1       5.311   5.917   2.570  1.00  0.00    -0.458 OA
BRANCH  28  29
ATOM     29  C   UNL     1       4.029   5.472   2.565  1.00  0.00     0.338 C 
ATOM     30  O   UNL     1       3.053   6.093   2.960  1.00  0.00    -0.246 OA
BRANCH  29  31
ATOM     31  C   UNL     1       3.916   4.189   1.836  1.00  0.00     0.060 A 
ATOM     32  C   UNL     1       2.784   3.994   1.032  1.00  0.00     0.016 A 
ATOM     33  C   UNL     1       4.871   3.178   1.960  1.00  0.00     0.016 A 
ATOM     34  C   UNL     1       2.591   2.788   0.362  1.00  0.00     0.010 A 
ATOM     35  C   UNL     1       4.665   1.957   1.310  1.00  0.00     0.010 A 
ATOM     36  C   UNL     1       3.514   1.751   0.528  1.00  0.00    -0.014 A 
BRANCH  36  37
ATOM     37  C   UNL     1       3.200   0.396   0.020  1.00  0.00     0.031 A 
ATOM     38  C   UNL     1       2.489  -0.562   0.929  1.00  0.00     0.074 A 
ATOM     39  C   UNL     1       3.548   0.028  -1.225  1.00  0.00     0.049 A 
ATOM     40  N   UNL     1       2.214  -1.827   0.752  1.00  0.00    -0.248 NA
ATOM     41  C   UNL     1       2.026  -0.014   2.213  1.00  0.00     0.031 C 
ATOM     42  C   UNL     1       4.179   0.900  -2.214  1.00  0.00     0.029 A 
ATOM     43  N   UNL     1       3.435  -1.181  -1.862  1.00  0.00    -0.354 N 
ATOM     44  C   UNL     1       1.544  -2.230   1.901  1.00  0.00     0.074 A 
ATOM     45  C   UNL     1       1.477  -1.078   2.776  1.00  0.00     0.031 C 
ATOM     46  C   UNL     1       4.429   0.186  -3.326  1.00  0.00     0.029 A 
ATOM     47  C   UNL     1       4.016  -1.200  -3.108  1.00  0.00     0.049 A 
ATOM     48  H   UNL     1       2.982  -1.960  -1.466  1.00  0.00     0.167 HD
ATOM     49  C   UNL     1       1.034  -3.450   2.199  1.00  0.00     0.034 A 
ATOM     50  C   UNL     1       4.229  -2.230  -3.950  1.00  0.00     0.034 A 
ATOM     51  C   UNL     1       1.153  -4.598   1.336  1.00  0.00     0.049 A 
ATOM     52  C   UNL     1       3.762  -3.609  -3.550  1.00  0.00     0.074 A 
ATOM     53  C   UNL     1       0.707  -5.891   1.546  1.00  0.00     0.029 A 
ATOM     54  N   UNL     1       1.782  -4.592   0.097  1.00  0.00    -0.354 N 
ATOM     55  N   UNL     1       3.150  -3.987  -2.451  1.00  0.00    -0.248 NA
ATOM     56  C   UNL     1       4.017  -4.699  -4.502  1.00  0.00     0.031 C 
ATOM     57  C   UNL     1       1.117  -6.678   0.463  1.00  0.00     0.029 A 
ATOM     58  C   UNL     1       1.762  -5.863  -0.455  1.00  0.00     0.049 A 
ATOM     59  H   UNL     1       2.184  -3.800  -0.327  1.00  0.00     0.167 HD
ATOM     60  C   UNL     1       2.921  -5.353  -2.594  1.00  0.00     0.074 A 
ATOM     61  C   UNL     1       3.459  -5.731  -3.885  1.00  0.00     0.031 C 
ATOM     62  C   UNL     1       2.312  -6.217  -1.742  1.00  0.00     0.034 A 
BRANCH  49  63
ATOM     63  C   UNL     1       0.375  -3.599   3.546  1.00  0.00     0.023 A 
ATOM     64  C   UNL     1      -0.808  -2.910   3.866  1.00  0.00     0.031 A 
ATOM     65  C   UNL     1       0.979  -4.377   4.549  1.00  0.00     0.131 A 
ATOM     66  C   UNL     1      -1.308  -2.950   5.176  1.00  0.00     0.055 A 
ATOM     67  C   UNL     1       0.435  -4.472   5.831  1.00  0.00     0.041 A 
ATOM     68  F   UNL     1       2.124  -5.033   4.308  1.00  0.00    -0.206 F 
ATOM     69  C   UNL     1      -0.706  -3.743   6.156  1.00  0.00     0.022 A 
BRANCH  66  70
ATOM     70  S   UNL     1      -2.663  -1.829   5.621  1.00  0.00     0.124 S 
ATOM     71  O   UNL     1      -2.084  -0.525   5.306  1.00  0.00    -0.237 OA
ATOM     72  O   UNL     1      -3.742  -2.277   4.749  1.00  0.00    -0.237 OA
ATOM     73  O   UNL     1      -2.864  -2.084   7.046  1.00  0.00    -0.744 OA
ENDBRANCH  66  70
ENDBRANCH  49  63
BRANCH  50  74
ATOM     74  C   UNL     1       4.977  -2.021  -5.221  1.00  0.00     0.023 A 
ATOM     75  C   UNL     1       4.359  -2.195  -6.469  1.00  0.00     0.031 A 
ATOM     76  C   UNL     1       6.344  -1.687  -5.200  1.00  0.00     0.131 A 
ATOM     77  C   UNL     1       5.116  -2.071  -7.645  1.00  0.00     0.055 A 
ATOM     78  C   UNL     1       7.082  -1.523  -6.374  1.00  0.00     0.041 A 
ATOM     79  F   UNL     1       6.981  -1.506  -4.032  1.00  0.00    -0.206 F 
ATOM     80  C   UNL     1       6.470  -1.727  -7.606  1.00  0.00     0.022 A 
BRANCH  77  81
ATOM     81  S   UNL     1       4.319  -2.434  -9.233  1.00  0.00     0.124 S 
ATOM     82  O   UNL     1       3.904  -3.820  -9.048  1.00  0.00    -0.237 OA
ATOM     83  O   UNL     1       3.249  -1.442  -9.268  1.00  0.00    -0.237 OA
ATOM     84  O   UNL     1       5.390  -2.227 -10.206  1.00  0.00    -0.744 OA
ENDBRANCH  77  81
ENDBRANCH  50  74
BRANCH  62  85
ATOM     85  C   UNL     1       2.150  -7.640  -2.212  1.00  0.00     0.023 A 
ATOM     86  C   UNL     1       3.245  -8.515  -2.319  1.00  0.00     0.031 A 
ATOM     87  C   UNL     1       0.875  -8.123  -2.555  1.00  0.00     0.131 A 
ATOM     88  C   UNL     1       3.049  -9.819  -2.800  1.00  0.00     0.055 A 
ATOM     89  C   UNL     1       0.680  -9.435  -2.989  1.00  0.00     0.041 A 
ATOM     90  F   UNL     1      -0.202  -7.327  -2.470  1.00  0.00    -0.206 F 
ATOM     91  C   UNL     1       1.772 -10.288  -3.122  1.00  0.00     0.022 A 
BRANCH  88  92
ATOM     92  S   UNL     1       4.497 -10.880  -3.060  1.00  0.00     0.124 S 
ATOM     93  O   UNL     1       5.263 -10.114  -4.038  1.00  0.00    -0.237 OA
ATOM     94  O   UNL     1       5.071 -10.960  -1.721  1.00  0.00    -0.237 OA
ATOM     95  O   UNL     1       3.923 -12.127  -3.562  1.00  0.00    -0.744 OA
ENDBRANCH  88  92
ENDBRANCH  62  85
ENDBRANCH  36  37
ENDBRANCH  29  31
ENDBRANCH  28  29
ENDBRANCH  27  28
ENDBRANCH   1  27
TORSDOF 20
