REMARK SMILES O=C(OCCOC(=O)[C@@H]1CN(c2cccc(Cl)c2)CCO1)c1ccc(-c2c3nc(c(-c4cc(S(=O)(=O)[O-])ccc4F)c4ccc([nH]4)c(-c4cc(S(=O)(=O)[O-])ccc4F)c4nc(c(-c5cc(S(=O)(=O)[O-])ccc5F)c5ccc2[nH]5)C=C4)C=C3)cc1
REMARK SMILES IDX 4 1 3 2 2 3 1 4 22 5 23 6 84 7 24 8 83 9 25 10 26 11 27 12
REMARK SMILES IDX 77 13 28 14 82 15 76 16 78 17 29 18 81 19 75 20 74 21 30 23
REMARK SMILES IDX 62 24 42 25 61 26 43 27 46 28 60 29 79 30 44 31 45 32 59 34
REMARK SMILES IDX 80 35 47 36 31 37 32 38 40 39 33 40 39 41 41 42 38 43 34 44
REMARK SMILES IDX 35 45 36 46 37 47 63 48 64 49 72 50 65 51 71 52 73 53 70 54
REMARK SMILES IDX 66 55 67 56 68 57 69 58 48 59 49 60 57 61 50 62 56 63 58 64
REMARK SMILES IDX 55 65 51 66 52 67 53 68 54 69 5 70 6 71 7 72 8 73 9 74 10 75
REMARK SMILES IDX 21 76 11 77 20 78 19 79 12 80 13 81 18 82 14 83 16 84 15 85
REMARK SMILES IDX 17 86
REMARK H PARENT 78 22 46 33
REMARK Flexibility Score: inf
ROOT
ATOM      1  C   UNL     1       3.898  -1.487   0.270  1.00  0.00     0.275 C 
ENDROOT
BRANCH   1   2
ATOM      2  O   UNL     1       3.206  -0.404   0.898  1.00  0.00    -0.458 OA
BRANCH   2   3
ATOM      3  C   UNL     1       3.603   0.890   0.956  1.00  0.00     0.338 C 
ATOM      4  O   UNL     1       3.148   1.618   1.835  1.00  0.00    -0.246 OA
BRANCH   3   5
ATOM      5  C   UNL     1       4.384   1.513  -0.155  1.00  0.00     0.060 A 
ATOM      6  C   UNL     1       5.485   0.957  -0.822  1.00  0.00     0.016 A 
ATOM      7  C   UNL     1       3.956   2.788  -0.541  1.00  0.00     0.016 A 
ATOM      8  C   UNL     1       6.069   1.595  -1.929  1.00  0.00     0.010 A 
ATOM      9  C   UNL     1       4.534   3.423  -1.638  1.00  0.00     0.010 A 
ATOM     10  C   UNL     1       5.581   2.825  -2.362  1.00  0.00    -0.014 A 
BRANCH  10  11
ATOM     11  C   UNL     1       6.212   3.626  -3.447  1.00  0.00     0.031 A 
ATOM     12  C   UNL     1       6.725   4.979  -3.046  1.00  0.00     0.074 A 
ATOM     13  C   UNL     1       6.126   3.275  -4.744  1.00  0.00     0.049 A 
ATOM     14  N   UNL     1       6.825   6.081  -3.736  1.00  0.00    -0.248 NA
ATOM     15  C   UNL     1       7.031   5.116  -1.615  1.00  0.00     0.031 C 
ATOM     16  C   UNL     1       5.580   2.019  -5.259  1.00  0.00     0.029 A 
ATOM     17  N   UNL     1       6.392   4.014  -5.876  1.00  0.00    -0.354 N 
ATOM     18  C   UNL     1       7.085   7.072  -2.792  1.00  0.00     0.074 A 
ATOM     19  C   UNL     1       7.053   6.431  -1.495  1.00  0.00     0.031 C 
ATOM     20  C   UNL     1       5.455   2.111  -6.596  1.00  0.00     0.029 A 
ATOM     21  C   UNL     1       5.876   3.444  -7.021  1.00  0.00     0.049 A 
ATOM     22  H   UNL     1       6.897   4.859  -5.868  1.00  0.00     0.167 HD
ATOM     23  C   UNL     1       7.334   8.391  -2.996  1.00  0.00     0.034 A 
ATOM     24  C   UNL     1       5.678   3.978  -8.244  1.00  0.00     0.034 A 
ATOM     25  C   UNL     1       7.415   8.963  -4.316  1.00  0.00     0.049 A 
ATOM     26  C   UNL     1       6.086   5.408  -8.496  1.00  0.00     0.074 A 
ATOM     27  C   UNL     1       7.774  10.243  -4.694  1.00  0.00     0.029 A 
ATOM     28  N   UNL     1       7.136   8.264  -5.485  1.00  0.00    -0.354 N 
ATOM     29  N   UNL     1       6.407   6.337  -7.626  1.00  0.00    -0.248 NA
ATOM     30  C   UNL     1       6.127   5.853  -9.896  1.00  0.00     0.031 C 
ATOM     31  C   UNL     1       7.684  10.326  -6.089  1.00  0.00     0.029 A 
ATOM     32  C   UNL     1       7.325   9.081  -6.583  1.00  0.00     0.049 A 
ATOM     33  H   UNL     1       6.847   7.324  -5.524  1.00  0.00     0.167 HD
ATOM     34  C   UNL     1       6.743   7.460  -8.378  1.00  0.00     0.074 A 
ATOM     35  C   UNL     1       6.556   7.101  -9.769  1.00  0.00     0.031 C 
ATOM     36  C   UNL     1       7.186   8.671  -7.959  1.00  0.00     0.034 A 
BRANCH  23  37
ATOM     37  C   UNL     1       7.503   9.263  -1.768  1.00  0.00     0.023 A 
ATOM     38  C   UNL     1       8.425   8.937  -0.758  1.00  0.00     0.031 A 
ATOM     39  C   UNL     1       6.645  10.352  -1.535  1.00  0.00     0.131 A 
ATOM     40  C   UNL     1       8.334   9.550   0.499  1.00  0.00     0.055 A 
ATOM     41  C   UNL     1       6.661  11.058  -0.328  1.00  0.00     0.041 A 
ATOM     42  F   UNL     1       5.742  10.726  -2.455  1.00  0.00    -0.206 F 
ATOM     43  C   UNL     1       7.480  10.632   0.714  1.00  0.00     0.022 A 
BRANCH  40  44
ATOM     44  S   UNL     1       9.156   8.741   1.902  1.00  0.00     0.124 S 
ATOM     45  O   UNL     1       8.455   7.460   1.950  1.00  0.00    -0.237 OA
ATOM     46  O   UNL     1      10.547   8.685   1.466  1.00  0.00    -0.237 OA
ATOM     47  O   UNL     1       8.887   9.637   3.023  1.00  0.00    -0.744 OA
ENDBRANCH  40  44
ENDBRANCH  23  37
BRANCH  24  48
ATOM     48  C   UNL     1       4.990   3.204  -9.313  1.00  0.00     0.023 A 
ATOM     49  C   UNL     1       5.704   2.656 -10.388  1.00  0.00     0.031 A 
ATOM     50  C   UNL     1       3.593   3.056  -9.300  1.00  0.00     0.131 A 
ATOM     51  C   UNL     1       5.013   2.027 -11.436  1.00  0.00     0.055 A 
ATOM     52  C   UNL     1       2.912   2.400 -10.328  1.00  0.00     0.041 A 
ATOM     53  F   UNL     1       2.869   3.553  -8.285  1.00  0.00    -0.206 F 
ATOM     54  C   UNL     1       3.623   1.891 -11.411  1.00  0.00     0.022 A 
BRANCH  51  55
ATOM     55  S   UNL     1       5.960   1.427 -12.862  1.00  0.00     0.124 S 
ATOM     56  O   UNL     1       6.479   2.672 -13.416  1.00  0.00    -0.237 OA
ATOM     57  O   UNL     1       6.939   0.550 -12.228  1.00  0.00    -0.237 OA
ATOM     58  O   UNL     1       4.955   0.747 -13.676  1.00  0.00    -0.744 OA
ENDBRANCH  51  55
ENDBRANCH  24  48
BRANCH  36  59
ATOM     59  C   UNL     1       7.647   9.646  -9.008  1.00  0.00     0.023 A 
ATOM     60  C   UNL     1       6.754  10.386  -9.796  1.00  0.00     0.031 A 
ATOM     61  C   UNL     1       9.027   9.877  -9.158  1.00  0.00     0.131 A 
ATOM     62  C   UNL     1       7.257  11.322 -10.714  1.00  0.00     0.055 A 
ATOM     63  C   UNL     1       9.518  10.832 -10.045  1.00  0.00     0.041 A 
ATOM     64  F   UNL     1       9.917   9.191  -8.422  1.00  0.00    -0.206 F 
ATOM     65  C   UNL     1       8.631  11.560 -10.832  1.00  0.00     0.022 A 
BRANCH  62  66
ATOM     66  S   UNL     1       6.093  12.220 -11.776  1.00  0.00     0.124 S 
ATOM     67  O   UNL     1       5.478  11.137 -12.537  1.00  0.00    -0.237 OA
ATOM     68  O   UNL     1       5.233  12.887 -10.804  1.00  0.00    -0.237 OA
ATOM     69  O   UNL     1       6.954  13.111 -12.552  1.00  0.00    -0.744 OA
ENDBRANCH  62  66
ENDBRANCH  36  59
ENDBRANCH  10  11
ENDBRANCH   3   5
ENDBRANCH   2   3
ENDBRANCH   1   2
BRANCH   1  70
ATOM     70  C   UNL     1       3.420  -1.817  -1.145  1.00  0.00     0.274 C 
BRANCH  70  71
ATOM     71  O   UNL     1       3.028  -0.686  -1.947  1.00  0.00    -0.460 OA
BRANCH  71  72
ATOM     72  C   UNL     1       1.674  -0.500  -2.053  1.00  0.00     0.337 C 
ATOM     73  O   UNL     1       0.858  -1.125  -1.383  1.00  0.00    -0.249 OA
BRANCH  72  74
ATOM     74  C   UNL     1       1.308   0.478  -3.183  1.00  0.00     0.247 C 
ATOM     75  C   UNL     1       1.865   1.886  -2.899  1.00  0.00     0.160 C 
ATOM     76  O   UNL     1      -0.134   0.475  -3.321  1.00  0.00    -0.363 OA
ATOM     77  N   UNL     1       1.257   2.902  -3.775  1.00  0.00    -0.366 N 
ATOM     78  C   UNL     1      -0.578   1.436  -4.288  1.00  0.00     0.183 C 
ATOM     79  C   UNL     1      -0.199   2.853  -3.854  1.00  0.00     0.145 C 
BRANCH  77  80
ATOM     80  C   UNL     1       1.867   4.132  -3.947  1.00  0.00     0.038 A 
ATOM     81  C   UNL     1       2.738   4.306  -5.027  1.00  0.00     0.026 A 
ATOM     82  C   UNL     1       1.609   5.241  -3.134  1.00  0.00     0.046 A 
ATOM     83  C   UNL     1       3.336   5.541  -5.295  1.00  0.00     0.004 A 
ATOM     84  C   UNL     1       2.216   6.477  -3.397  1.00  0.00     0.043 A 
ATOM     85  C   UNL     1       3.083   6.631  -4.473  1.00  0.00     0.020 A 
ATOM     86  Cl  UNL     1       1.871   7.828  -2.386  1.00  0.00    -0.084 Cl
ENDBRANCH  77  80
ENDBRANCH  72  74
ENDBRANCH  71  72
ENDBRANCH  70  71
ENDBRANCH   1  70
TORSDOF 15
