REMARK SMILES CC1(C)[C@H](O)CC[C@]2(C)[C@@H]1CC[C@]1(C)Oc3oc(C(=O)OCCOC(=O)c4ccc(-c5c6nc(c(-c7cc(S(=O)(=O)[O-])ccc7F)c7ccc([nH]7)c(-c7cc(S(=O)(=O)[O-])ccc7F)c7nc(c(-c8cc(S(=O)(=O)[O-])ccc8F)c8ccc5[nH]8)C=C7)C=C6)cc4)cc(=O)c3C[C@H]21
REMARK SMILES IDX 23 1 22 2 21 3 19 4 20 5 18 6 1 7 2 8 3 9 4 10 10 11 6 12
REMARK SMILES IDX 8 13 11 14 7 15 9 16 95 17 12 18 13 19 94 20 14 21 15 22
REMARK SMILES IDX 93 23 16 24 91 25 17 26 90 27 92 28 5 29 24 31 25 32 26 33
REMARK SMILES IDX 27 34 28 35 89 36 29 37 88 38 30 39 31 40 32 41 82 42 33 43
REMARK SMILES IDX 87 44 81 45 83 46 34 47 86 48 80 49 79 50 35 52 67 53 47 54
REMARK SMILES IDX 66 55 48 56 51 57 65 58 84 59 49 60 50 61 64 63 85 64 52 65
REMARK SMILES IDX 36 66 37 67 45 68 38 69 44 70 46 71 43 72 39 73 40 74 41 75
REMARK SMILES IDX 42 76 68 77 69 78 77 79 70 80 76 81 78 82 75 83 71 84 72 85
REMARK SMILES IDX 73 86 74 87 53 88 54 89 62 90 55 91 61 92 63 93 60 94 56 95
REMARK SMILES IDX 57 96 58 97 59 98
REMARK H PARENT 5 30 83 51 51 62
REMARK Flexibility Score: inf
ROOT
ATOM      1  C   UNL     1       4.250  11.197   2.998  1.00  0.00     0.275 C 
ENDROOT
BRANCH   1   2
ATOM      2  C   UNL     1       5.572  10.441   3.160  1.00  0.00     0.275 C 
BRANCH   2   3
ATOM      3  O   UNL     1       5.404   9.040   2.870  1.00  0.00    -0.456 OA
BRANCH   3   4
ATOM      4  C   UNL     1       5.279   8.224   3.950  1.00  0.00     0.374 C 
ATOM      5  O   UNL     1       5.421   8.556   5.114  1.00  0.00    -0.242 OA
BRANCH   4   6
ATOM      6  C   UNL     1       4.855   6.858   3.545  1.00  0.00     0.219 A 
ATOM      7  C   UNL     1       0.727   0.341   0.364  1.00  0.00     0.014 C 
ATOM      8  C   UNL     1       0.453  -0.082   1.843  1.00  0.00    -0.006 C 
ATOM      9  C   UNL     1      -1.080  -0.237   1.948  1.00  0.00     0.014 C 
ATOM     10  C   UNL     1       1.140  -1.458   2.043  1.00  0.00     0.120 C 
ATOM     11  C   UNL     1       1.034   1.048   2.790  1.00  0.00     0.004 C 
ATOM     12  C   UNL     1       2.676  -1.409   2.096  1.00  0.00     0.033 C 
ATOM     13  C   UNL     1       2.382   0.724   3.536  1.00  0.00    -0.022 C 
ATOM     14  C   UNL     1       0.068   1.824   3.706  1.00  0.00     0.009 C 
ATOM     15  C   UNL     1       3.279  -0.072   2.556  1.00  0.00     0.010 C 
ATOM     16  C   UNL     1       2.252  -0.147   4.817  1.00  0.00     0.012 C 
ATOM     17  C   UNL     1       3.041   2.111   3.957  1.00  0.00     0.044 C 
ATOM     18  C   UNL     1       0.694   3.165   4.144  1.00  0.00     0.049 C 
ATOM     19  C   UNL     1       2.095   3.049   4.787  1.00  0.00     0.113 C 
ATOM     20  C   UNL     1       3.621   2.860   2.731  1.00  0.00     0.055 C 
ATOM     21  C   UNL     1       1.921   2.594   6.252  1.00  0.00     0.057 C 
ATOM     22  O   UNL     1       2.641   4.380   4.970  1.00  0.00    -0.458 OA
ATOM     23  C   UNL     1       4.005   4.257   3.031  1.00  0.00     0.081 A 
ATOM     24  C   UNL     1       3.558   4.916   4.103  1.00  0.00     0.292 A 
ATOM     25  C   UNL     1       4.931   4.939   2.099  1.00  0.00     0.192 A 
ATOM     26  O   UNL     1       4.010   6.189   4.413  1.00  0.00    -0.418 OA
ATOM     27  C   UNL     1       5.324   6.317   2.418  1.00  0.00     0.107 A 
ATOM     28  O   UNL     1       5.369   4.392   1.094  1.00  0.00    -0.289 OA
BRANCH  10  29
ATOM     29  O   UNL     1       0.645  -2.148   3.190  1.00  0.00    -0.393 OA
ATOM     30  H   UNL     1       0.882  -1.656   3.992  1.00  0.00     0.210 HD
ENDBRANCH  10  29
ENDBRANCH   4   6
ENDBRANCH   3   4
ENDBRANCH   2   3
ENDBRANCH   1   2
BRANCH   1  31
ATOM     31  O   UNL     1       3.334  10.889   4.064  1.00  0.00    -0.458 OA
BRANCH  31  32
ATOM     32  C   UNL     1       2.460   9.891   3.806  1.00  0.00     0.338 C 
ATOM     33  O   UNL     1       2.352   9.252   2.771  1.00  0.00    -0.246 OA
BRANCH  32  34
ATOM     34  C   UNL     1       1.689   9.589   5.019  1.00  0.00     0.060 A 
ATOM     35  C   UNL     1       2.103   8.522   5.816  1.00  0.00     0.016 A 
ATOM     36  C   UNL     1       0.509  10.275   5.308  1.00  0.00     0.016 A 
ATOM     37  C   UNL     1       1.313   8.090   6.872  1.00  0.00     0.010 A 
ATOM     38  C   UNL     1      -0.264   9.868   6.401  1.00  0.00     0.010 A 
ATOM     39  C   UNL     1       0.119   8.755   7.170  1.00  0.00    -0.014 A 
BRANCH  39  40
ATOM     40  C   UNL     1      -0.737   8.242   8.265  1.00  0.00     0.031 A 
ATOM     41  C   UNL     1      -2.032   7.556   7.944  1.00  0.00     0.074 A 
ATOM     42  C   UNL     1      -0.320   8.353   9.541  1.00  0.00     0.049 A 
ATOM     43  N   UNL     1      -2.925   7.063   8.759  1.00  0.00    -0.248 NA
ATOM     44  C   UNL     1      -2.368   7.400   6.518  1.00  0.00     0.031 C 
ATOM     45  C   UNL     1       0.943   8.962   9.959  1.00  0.00     0.029 A 
ATOM     46  N   UNL     1      -0.904   7.953  10.716  1.00  0.00    -0.354 N 
ATOM     47  C   UNL     1      -3.938   6.558   7.953  1.00  0.00     0.074 A 
ATOM     48  C   UNL     1      -3.559   6.821   6.582  1.00  0.00     0.031 C 
ATOM     49  C   UNL     1       1.044   8.886  11.294  1.00  0.00     0.029 A 
ATOM     50  C   UNL     1      -0.166   8.269  11.832  1.00  0.00     0.049 A 
ATOM     51  H   UNL     1      -1.769   7.484  10.756  1.00  0.00     0.167 HD
ATOM     52  C   UNL     1      -5.073   5.925   8.328  1.00  0.00     0.034 A 
ATOM     53  C   UNL     1      -0.440   8.099  13.142  1.00  0.00     0.034 A 
ATOM     54  C   UNL     1      -5.423   5.650   9.697  1.00  0.00     0.049 A 
ATOM     55  C   UNL     1      -1.725   7.416  13.533  1.00  0.00     0.074 A 
ATOM     56  C   UNL     1      -6.549   5.003  10.176  1.00  0.00     0.029 A 
ATOM     57  N   UNL     1      -4.657   5.994  10.801  1.00  0.00    -0.354 N 
ATOM     58  N   UNL     1      -2.664   6.926  12.758  1.00  0.00    -0.248 NA
ATOM     59  C   UNL     1      -1.990   7.255  14.969  1.00  0.00     0.031 C 
ATOM     60  C   UNL     1      -6.485   4.995  11.570  1.00  0.00     0.029 A 
ATOM     61  C   UNL     1      -5.293   5.585  11.961  1.00  0.00     0.049 A 
ATOM     62  H   UNL     1      -3.790   6.459  10.765  1.00  0.00     0.167 HD
ATOM     63  C   UNL     1      -3.618   6.378  13.610  1.00  0.00     0.074 A 
ATOM     64  C   UNL     1      -3.134   6.581  14.960  1.00  0.00     0.031 C 
ATOM     65  C   UNL     1      -4.788   5.767  13.300  1.00  0.00     0.034 A 
BRANCH  52  66
ATOM     66  C   UNL     1      -6.034   5.476   7.261  1.00  0.00     0.023 A 
ATOM     67  C   UNL     1      -7.306   6.070   7.171  1.00  0.00     0.031 A 
ATOM     68  C   UNL     1      -5.744   4.385   6.424  1.00  0.00     0.131 A 
ATOM     69  C   UNL     1      -8.257   5.544   6.288  1.00  0.00     0.055 A 
ATOM     70  C   UNL     1      -6.684   3.886   5.522  1.00  0.00     0.041 A 
ATOM     71  F   UNL     1      -4.540   3.791   6.470  1.00  0.00    -0.206 F 
ATOM     72  C   UNL     1      -7.951   4.460   5.459  1.00  0.00     0.022 A 
BRANCH  69  73
ATOM     73  S   UNL     1      -9.935   6.225   6.210  1.00  0.00     0.124 S 
ATOM     74  O   UNL     1     -10.092   6.481   4.779  1.00  0.00    -0.237 OA
ATOM     75  O   UNL     1     -10.734   5.124   6.739  1.00  0.00    -0.237 OA
ATOM     76  O   UNL     1      -9.868   7.419   7.045  1.00  0.00    -0.744 OA
ENDBRANCH  69  73
ENDBRANCH  52  66
BRANCH  53  77
ATOM     77  C   UNL     1       0.547   8.564  14.157  1.00  0.00     0.023 A 
ATOM     78  C   UNL     1       0.868   9.928  14.277  1.00  0.00     0.031 A 
ATOM     79  C   UNL     1       1.251   7.645  14.952  1.00  0.00     0.131 A 
ATOM     80  C   UNL     1       1.906  10.328  15.128  1.00  0.00     0.055 A 
ATOM     81  C   UNL     1       2.243   8.055  15.845  1.00  0.00     0.041 A 
ATOM     82  F   UNL     1       0.986   6.333  14.864  1.00  0.00    -0.206 F 
ATOM     83  C   UNL     1       2.585   9.401  15.925  1.00  0.00     0.022 A 
BRANCH  80  84
ATOM     84  S   UNL     1       2.477  12.050  15.154  1.00  0.00     0.124 S 
ATOM     85  O   UNL     1       2.345  12.394  16.566  1.00  0.00    -0.237 OA
ATOM     86  O   UNL     1       3.846  11.916  14.662  1.00  0.00    -0.237 OA
ATOM     87  O   UNL     1       1.556  12.733  14.252  1.00  0.00    -0.744 OA
ENDBRANCH  80  84
ENDBRANCH  53  77
BRANCH  65  88
ATOM     88  C   UNL     1      -5.644   5.238  14.421  1.00  0.00     0.023 A 
ATOM     89  C   UNL     1      -5.868   3.853  14.535  1.00  0.00     0.031 A 
ATOM     90  C   UNL     1      -6.360   6.104  15.265  1.00  0.00     0.131 A 
ATOM     91  C   UNL     1      -6.816   3.375  15.447  1.00  0.00     0.055 A 
ATOM     92  C   UNL     1      -7.274   5.619  16.202  1.00  0.00     0.041 A 
ATOM     93  F   UNL     1      -6.187   7.432  15.184  1.00  0.00    -0.206 F 
ATOM     94  C   UNL     1      -7.515   4.250  16.286  1.00  0.00     0.022 A 
BRANCH  91  95
ATOM     95  S   UNL     1      -7.231   1.611  15.526  1.00  0.00     0.124 S 
ATOM     96  O   UNL     1      -6.963   1.299  16.928  1.00  0.00    -0.237 OA
ATOM     97  O   UNL     1      -8.640   1.610  15.145  1.00  0.00    -0.237 OA
ATOM     98  O   UNL     1      -6.320   0.991  14.569  1.00  0.00    -0.744 OA
ENDBRANCH  91  95
ENDBRANCH  65  88
ENDBRANCH  39  40
ENDBRANCH  32  34
ENDBRANCH  31  32
ENDBRANCH   1  31
TORSDOF 15
