REMARK SMILES Nc1ccc(O)c(C(=O)OCCOC(=O)c2ccc(-c3c4nc(c(-c5cc(S(=O)(=O)[O-])ccc5F)c5ccc([nH]5)c(-c5cc(S(=O)(=O)[O-])ccc5F)c5nc(c(-c6cc(S(=O)(=O)[O-])ccc6F)c6ccc3[nH]6)C=C5)C=C4)cc2)c1
REMARK SMILES IDX 12 1 11 2 10 3 8 4 9 5 7 6 2 7 3 8 79 9 4 10 5 11 1 12 6 15
REMARK SMILES IDX 13 17 14 18 15 19 16 20 17 21 78 22 18 23 77 24 19 25 20 26
REMARK SMILES IDX 21 27 71 28 22 29 76 30 70 31 72 32 23 33 75 34 69 35 68 36
REMARK SMILES IDX 24 38 56 39 36 40 55 41 37 42 40 43 54 44 73 45 38 46 39 47
REMARK SMILES IDX 53 49 74 50 41 51 25 52 26 53 34 54 27 55 33 56 35 57 32 58
REMARK SMILES IDX 28 59 29 60 30 61 31 62 57 63 58 64 66 65 59 66 65 67 67 68
REMARK SMILES IDX 64 69 60 70 61 71 62 72 63 73 42 74 43 75 51 76 44 77 50 78
REMARK SMILES IDX 52 79 49 80 45 81 46 82 47 83 48 84
REMARK H PARENT 1 13 1 14 6 16 72 37 40 48
REMARK Flexibility Score: inf
ROOT
ATOM      1  C   UNL     1       2.212  -4.904  -1.047  1.00  0.00     0.275 C 
ENDROOT
BRANCH   1   2
ATOM      2  C   UNL     1       1.156  -4.621   0.026  1.00  0.00     0.275 C 
BRANCH   2   3
ATOM      3  O   UNL     1       0.404  -3.420  -0.253  1.00  0.00    -0.458 OA
BRANCH   3   4
ATOM      4  C   UNL     1       0.741  -2.335   0.486  1.00  0.00     0.342 C 
ATOM      5  O   UNL     1       1.619  -2.292   1.335  1.00  0.00    -0.246 OA
BRANCH   4   6
ATOM      6  C   UNL     1      -0.123  -1.183   0.156  1.00  0.00     0.103 A 
ATOM      7  C   UNL     1      -2.337  -0.182   0.162  1.00  0.00     0.032 A 
ATOM      8  C   UNL     1      -1.754   1.075  -0.027  1.00  0.00     0.029 A 
ATOM      9  C   UNL     1      -1.510  -1.302   0.307  1.00  0.00     0.045 A 
ATOM     10  C   UNL     1      -0.379   1.200  -0.199  1.00  0.00     0.049 A 
ATOM     11  C   UNL     1       0.421   0.067  -0.147  1.00  0.00     0.130 A 
BRANCH   7  12
ATOM     12  N   UNL     1      -3.708  -0.283   0.357  1.00  0.00    -0.399 N 
ATOM     13  H   UNL     1      -4.280   0.511   0.252  1.00  0.00     0.156 HD
ATOM     14  H   UNL     1      -4.107  -1.149   0.600  1.00  0.00     0.156 HD
ENDBRANCH   7  12
BRANCH  11  15
ATOM     15  O   UNL     1       1.730   0.264  -0.452  1.00  0.00    -0.507 OA
ATOM     16  H   UNL     1       2.040   1.127  -0.647  1.00  0.00     0.293 HD
ENDBRANCH  11  15
ENDBRANCH   4   6
ENDBRANCH   3   4
ENDBRANCH   2   3
ENDBRANCH   1   2
BRANCH   1  17
ATOM     17  O   UNL     1       3.346  -4.025  -0.926  1.00  0.00    -0.458 OA
BRANCH  17  18
ATOM     18  C   UNL     1       3.302  -2.937  -1.725  1.00  0.00     0.338 C 
ATOM     19  O   UNL     1       2.420  -2.632  -2.510  1.00  0.00    -0.246 OA
BRANCH  18  20
ATOM     20  C   UNL     1       4.428  -2.032  -1.457  1.00  0.00     0.060 A 
ATOM     21  C   UNL     1       4.278  -1.134  -0.409  1.00  0.00     0.016 A 
ATOM     22  C   UNL     1       5.447  -1.855  -2.393  1.00  0.00     0.016 A 
ATOM     23  C   UNL     1       5.026   0.037  -0.397  1.00  0.00     0.010 A 
ATOM     24  C   UNL     1       6.303  -0.748  -2.280  1.00  0.00     0.010 A 
ATOM     25  C   UNL     1       6.069   0.245  -1.311  1.00  0.00    -0.014 A 
BRANCH  25  26
ATOM     26  C   UNL     1       6.868   1.511  -1.257  1.00  0.00     0.031 A 
ATOM     27  C   UNL     1       7.027   2.381  -2.483  1.00  0.00     0.074 A 
ATOM     28  C   UNL     1       7.420   1.913  -0.092  1.00  0.00     0.049 A 
ATOM     29  N   UNL     1       7.831   3.396  -2.680  1.00  0.00    -0.248 NA
ATOM     30  C   UNL     1       6.183   2.059  -3.644  1.00  0.00     0.031 C 
ATOM     31  C   UNL     1       7.303   1.210   1.189  1.00  0.00     0.029 A 
ATOM     32  N   UNL     1       8.172   3.022   0.216  1.00  0.00    -0.354 N 
ATOM     33  C   UNL     1       7.641   3.790  -4.003  1.00  0.00     0.074 A 
ATOM     34  C   UNL     1       6.642   2.901  -4.560  1.00  0.00     0.031 C 
ATOM     35  C   UNL     1       7.891   1.934   2.149  1.00  0.00     0.029 A 
ATOM     36  C   UNL     1       8.549   3.081   1.539  1.00  0.00     0.049 A 
ATOM     37  H   UNL     1       8.418   3.708  -0.446  1.00  0.00     0.167 HD
ATOM     38  C   UNL     1       8.249   4.795  -4.685  1.00  0.00     0.034 A 
ATOM     39  C   UNL     1       9.382   3.918   2.189  1.00  0.00     0.034 A 
ATOM     40  C   UNL     1       9.198   5.711  -4.092  1.00  0.00     0.049 A 
ATOM     41  C   UNL     1      10.072   4.999   1.405  1.00  0.00     0.074 A 
ATOM     42  C   UNL     1       9.874   6.761  -4.691  1.00  0.00     0.029 A 
ATOM     43  N   UNL     1       9.592   5.699  -2.760  1.00  0.00    -0.354 N 
ATOM     44  N   UNL     1       9.966   5.287   0.129  1.00  0.00    -0.248 NA
ATOM     45  C   UNL     1      11.012   5.851   2.142  1.00  0.00     0.031 C 
ATOM     46  C   UNL     1      10.714   7.348  -3.737  1.00  0.00     0.029 A 
ATOM     47  C   UNL     1      10.514   6.710  -2.525  1.00  0.00     0.049 A 
ATOM     48  H   UNL     1       9.265   5.066  -2.081  1.00  0.00     0.167 HD
ATOM     49  C   UNL     1      10.826   6.357  -0.088  1.00  0.00     0.074 A 
ATOM     50  C   UNL     1      11.417   6.682   1.194  1.00  0.00     0.031 C 
ATOM     51  C   UNL     1      11.110   7.008  -1.244  1.00  0.00     0.034 A 
BRANCH  38  52
ATOM     52  C   UNL     1       7.965   4.915  -6.165  1.00  0.00     0.023 A 
ATOM     53  C   UNL     1       6.700   5.268  -6.667  1.00  0.00     0.031 A 
ATOM     54  C   UNL     1       8.992   4.664  -7.095  1.00  0.00     0.131 A 
ATOM     55  C   UNL     1       6.483   5.304  -8.055  1.00  0.00     0.055 A 
ATOM     56  C   UNL     1       8.789   4.774  -8.472  1.00  0.00     0.041 A 
ATOM     57  F   UNL     1      10.217   4.304  -6.678  1.00  0.00    -0.206 F 
ATOM     58  C   UNL     1       7.525   5.084  -8.960  1.00  0.00     0.022 A 
BRANCH  55  59
ATOM     59  S   UNL     1       4.790   5.526  -8.669  1.00  0.00     0.124 S 
ATOM     60  O   UNL     1       4.108   4.377  -8.079  1.00  0.00    -0.237 OA
ATOM     61  O   UNL     1       4.426   6.831  -8.129  1.00  0.00    -0.237 OA
ATOM     62  O   UNL     1       4.940   5.473 -10.122  1.00  0.00    -0.744 OA
ENDBRANCH  55  59
ENDBRANCH  38  52
BRANCH  39  63
ATOM     63  C   UNL     1       9.685   3.704   3.635  1.00  0.00     0.023 A 
ATOM     64  C   UNL     1       9.367   4.673   4.598  1.00  0.00     0.031 A 
ATOM     65  C   UNL     1      10.328   2.529   4.070  1.00  0.00     0.131 A 
ATOM     66  C   UNL     1       9.718   4.463   5.942  1.00  0.00     0.055 A 
ATOM     67  C   UNL     1      10.616   2.297   5.414  1.00  0.00     0.041 A 
ATOM     68  F   UNL     1      10.664   1.572   3.190  1.00  0.00    -0.206 F 
ATOM     69  C   UNL     1      10.321   3.274   6.359  1.00  0.00     0.022 A 
BRANCH  66  70
ATOM     70  S   UNL     1       9.458   5.809   7.130  1.00  0.00     0.124 S 
ATOM     71  O   UNL     1      10.218   6.895   6.521  1.00  0.00    -0.237 OA
ATOM     72  O   UNL     1       8.007   5.953   7.114  1.00  0.00    -0.237 OA
ATOM     73  O   UNL     1      10.016   5.277   8.372  1.00  0.00    -0.744 OA
ENDBRANCH  66  70
ENDBRANCH  39  63
BRANCH  51  74
ATOM     74  C   UNL     1      12.081   8.155  -1.148  1.00  0.00     0.023 A 
ATOM     75  C   UNL     1      13.441   7.944  -0.861  1.00  0.00     0.031 A 
ATOM     76  C   UNL     1      11.632   9.478  -1.302  1.00  0.00     0.131 A 
ATOM     77  C   UNL     1      14.293   9.043  -0.676  1.00  0.00     0.055 A 
ATOM     78  C   UNL     1      12.496  10.565  -1.172  1.00  0.00     0.041 A 
ATOM     79  F   UNL     1      10.342   9.734  -1.574  1.00  0.00    -0.206 F 
ATOM     80  C   UNL     1      13.832  10.352  -0.843  1.00  0.00     0.022 A 
BRANCH  77  81
ATOM     81  S   UNL     1      15.994   8.743  -0.120  1.00  0.00     0.124 S 
ATOM     82  O   UNL     1      15.781   8.050   1.147  1.00  0.00    -0.237 OA
ATOM     83  O   UNL     1      16.540   7.935  -1.205  1.00  0.00    -0.237 OA
ATOM     84  O   UNL     1      16.559  10.086  -0.004  1.00  0.00    -0.744 OA
ENDBRANCH  77  81
ENDBRANCH  51  74
ENDBRANCH  25  26
ENDBRANCH  18  20
ENDBRANCH  17  18
ENDBRANCH   1  17
TORSDOF 16
