REMARK SMILES CC(C)[C@H]([NH2+]Cc1ccc(O)cn1)C(=O)OCCOC(=O)c1ccc(-c2c3nc(c(-c4cc(S(=O)(=O)[O-])ccc4F)c4ccc([nH]4)c(-c4cc(S(=O)(=O)[O-])ccc4F)c4nc(c(-c5cc(S(=O)(=O)[O-])ccc5F)c5ccc2[nH]5)C=C4)C=C3)cc1
REMARK SMILES IDX 17 1 16 2 14 3 15 4 4 5 2 6 1 7 3 8 5 9 6 12 7 13 8 14 13 15
REMARK SMILES IDX 9 16 12 17 10 18 11 19 18 21 19 22 20 23 21 24 22 25 23 26
REMARK SMILES IDX 84 27 24 28 83 29 25 30 26 31 27 32 77 33 28 34 82 35 76 36
REMARK SMILES IDX 78 37 29 38 81 39 75 40 74 41 30 43 62 44 42 45 61 46 43 47
REMARK SMILES IDX 46 48 60 49 79 50 44 51 45 52 59 54 80 55 47 56 31 57 32 58
REMARK SMILES IDX 40 59 33 60 39 61 41 62 38 63 34 64 35 65 36 66 37 67 63 68
REMARK SMILES IDX 64 69 72 70 65 71 71 72 73 73 70 74 66 75 67 76 68 77 69 78
REMARK SMILES IDX 48 79 49 80 57 81 50 82 56 83 58 84 55 85 51 86 52 87 53 88
REMARK SMILES IDX 54 89
REMARK H PARENT 5 10 5 11 11 20 78 42 46 53
REMARK Flexibility Score: inf
ROOT
ATOM      1  C   UNL     1      -1.551   4.218  -2.795  1.00  0.00     0.274 C 
ENDROOT
BRANCH   1   2
ATOM      2  O   UNL     1      -1.004   3.294  -1.837  1.00  0.00    -0.458 OA
BRANCH   2   3
ATOM      3  C   UNL     1      -1.827   2.265  -1.480  1.00  0.00     0.365 C 
ATOM      4  O   UNL     1      -3.004   2.171  -1.815  1.00  0.00    -0.245 OA
BRANCH   3   5
ATOM      5  C   UNL     1      -1.136   1.235  -0.559  1.00  0.00     0.296 C 
BRANCH   5   6
ATOM      6  C   UNL     1      -1.394   1.522   0.942  1.00  0.00     0.053 C 
ATOM      7  C   UNL     1      -0.588   2.694   1.504  1.00  0.00     0.014 C 
ATOM      8  C   UNL     1      -2.886   1.733   1.232  1.00  0.00     0.014 C 
ENDBRANCH   5   6
BRANCH   5   9
ATOM      9  N   UNL     1       0.284   1.106  -0.929  1.00  0.00    -0.329 N 
ATOM     10  H   UNL     1       0.803   1.850  -0.463  1.00  0.00     0.347 HD
ATOM     11  H   UNL     1       0.323   1.166  -1.947  1.00  0.00     0.347 HD
BRANCH   9  12
ATOM     12  C   UNL     1       0.897  -0.172  -0.569  1.00  0.00     0.318 C 
BRANCH  12  13
ATOM     13  C   UNL     1       2.412  -0.156  -0.704  1.00  0.00     0.095 A 
ATOM     14  C   UNL     1       3.184   0.613   0.170  1.00  0.00     0.033 A 
ATOM     15  N   UNL     1       2.969  -0.911  -1.680  1.00  0.00    -0.251 NA
ATOM     16  C   UNL     1       4.570   0.623   0.027  1.00  0.00     0.050 A 
ATOM     17  C   UNL     1       4.318  -0.883  -1.803  1.00  0.00     0.157 A 
ATOM     18  C   UNL     1       5.145  -0.136  -0.981  1.00  0.00     0.133 A 
BRANCH  18  19
ATOM     19  O   UNL     1       6.493  -0.161  -1.175  1.00  0.00    -0.506 OA
ATOM     20  H   UNL     1       7.055   0.343  -0.621  1.00  0.00     0.293 HD
ENDBRANCH  18  19
ENDBRANCH  12  13
ENDBRANCH   9  12
ENDBRANCH   5   9
ENDBRANCH   3   5
ENDBRANCH   2   3
ENDBRANCH   1   2
BRANCH   1  21
ATOM     21  C   UNL     1      -1.128   3.863  -4.221  1.00  0.00     0.275 C 
BRANCH  21  22
ATOM     22  O   UNL     1      -1.670   2.592  -4.621  1.00  0.00    -0.458 OA
BRANCH  22  23
ATOM     23  C   UNL     1      -0.782   1.568  -4.638  1.00  0.00     0.338 C 
ATOM     24  O   UNL     1       0.413   1.626  -4.417  1.00  0.00    -0.246 OA
BRANCH  23  25
ATOM     25  C   UNL     1      -1.497   0.319  -4.944  1.00  0.00     0.060 A 
ATOM     26  C   UNL     1      -1.762  -0.584  -3.911  1.00  0.00     0.016 A 
ATOM     27  C   UNL     1      -1.815  -0.001  -6.263  1.00  0.00     0.016 A 
ATOM     28  C   UNL     1      -2.342  -1.821  -4.191  1.00  0.00     0.010 A 
ATOM     29  C   UNL     1      -2.393  -1.242  -6.545  1.00  0.00     0.010 A 
ATOM     30  C   UNL     1      -2.643  -2.167  -5.513  1.00  0.00    -0.014 A 
BRANCH  30  31
ATOM     31  C   UNL     1      -3.102  -3.537  -5.850  1.00  0.00     0.031 A 
ATOM     32  C   UNL     1      -2.131  -4.488  -6.490  1.00  0.00     0.074 A 
ATOM     33  C   UNL     1      -4.368  -3.920  -5.601  1.00  0.00     0.049 A 
ATOM     34  N   UNL     1      -2.350  -5.651  -7.045  1.00  0.00    -0.248 NA
ATOM     35  C   UNL     1      -0.724  -4.061  -6.512  1.00  0.00     0.031 C 
ATOM     36  C   UNL     1      -5.375  -3.113  -4.914  1.00  0.00     0.029 A 
ATOM     37  N   UNL     1      -5.027  -5.083  -5.916  1.00  0.00    -0.354 N 
ATOM     38  C   UNL     1      -1.113  -6.084  -7.513  1.00  0.00     0.074 A 
ATOM     39  C   UNL     1      -0.154  -5.049  -7.185  1.00  0.00     0.031 C 
ATOM     40  C   UNL     1      -6.530  -3.798  -4.876  1.00  0.00     0.029 A 
ATOM     41  C   UNL     1      -6.362  -5.063  -5.588  1.00  0.00     0.049 A 
ATOM     42  H   UNL     1      -4.585  -5.857  -6.335  1.00  0.00     0.167 HD
ATOM     43  C   UNL     1      -0.812  -7.237  -8.161  1.00  0.00     0.034 A 
ATOM     44  C   UNL     1      -7.345  -5.942  -5.873  1.00  0.00     0.034 A 
ATOM     45  C   UNL     1      -1.786  -8.254  -8.475  1.00  0.00     0.049 A 
ATOM     46  C   UNL     1      -7.006  -7.181  -6.667  1.00  0.00     0.074 A 
ATOM     47  C   UNL     1      -1.601  -9.453  -9.140  1.00  0.00     0.029 A 
ATOM     48  N   UNL     1      -3.134  -8.188  -8.143  1.00  0.00    -0.354 N 
ATOM     49  N   UNL     1      -5.846  -7.558  -7.154  1.00  0.00    -0.248 NA
ATOM     50  C   UNL     1      -8.107  -8.110  -6.953  1.00  0.00     0.031 C 
ATOM     51  C   UNL     1      -2.845 -10.085  -9.260  1.00  0.00     0.029 A 
ATOM     52  C   UNL     1      -3.794  -9.315  -8.607  1.00  0.00     0.049 A 
ATOM     53  H   UNL     1      -3.559  -7.449  -7.651  1.00  0.00     0.167 HD
ATOM     54  C   UNL     1      -6.073  -8.785  -7.771  1.00  0.00     0.074 A 
ATOM     55  C   UNL     1      -7.480  -9.084  -7.597  1.00  0.00     0.031 C 
ATOM     56  C   UNL     1      -5.197  -9.597  -8.415  1.00  0.00     0.034 A 
BRANCH  43  57
ATOM     57  C   UNL     1       0.611  -7.414  -8.632  1.00  0.00     0.023 A 
ATOM     58  C   UNL     1       1.685  -7.531  -7.734  1.00  0.00     0.031 A 
ATOM     59  C   UNL     1       0.899  -7.426 -10.009  1.00  0.00     0.131 A 
ATOM     60  C   UNL     1       3.001  -7.586  -8.220  1.00  0.00     0.055 A 
ATOM     61  C   UNL     1       2.204  -7.555 -10.488  1.00  0.00     0.041 A 
ATOM     62  F   UNL     1      -0.084  -7.294 -10.914  1.00  0.00    -0.206 F 
ATOM     63  C   UNL     1       3.266  -7.622  -9.592  1.00  0.00     0.022 A 
BRANCH  60  64
ATOM     64  S   UNL     1       4.373  -7.476  -7.038  1.00  0.00     0.124 S 
ATOM     65  O   UNL     1       4.120  -6.182  -6.411  1.00  0.00    -0.237 OA
ATOM     66  O   UNL     1       4.158  -8.648  -6.196  1.00  0.00    -0.237 OA
ATOM     67  O   UNL     1       5.562  -7.528  -7.886  1.00  0.00    -0.744 OA
ENDBRANCH  60  64
ENDBRANCH  43  57
BRANCH  44  68
ATOM     68  C   UNL     1      -8.752  -5.659  -5.468  1.00  0.00     0.023 A 
ATOM     69  C   UNL     1      -9.425  -6.484  -4.553  1.00  0.00     0.031 A 
ATOM     70  C   UNL     1      -9.460  -4.580  -6.027  1.00  0.00     0.131 A 
ATOM     71  C   UNL     1     -10.775  -6.240  -4.254  1.00  0.00     0.055 A 
ATOM     72  C   UNL     1     -10.786  -4.311  -5.687  1.00  0.00     0.041 A 
ATOM     73  F   UNL     1      -8.865  -3.761  -6.910  1.00  0.00    -0.206 F 
ATOM     74  C   UNL     1     -11.456  -5.151  -4.804  1.00  0.00     0.022 A 
BRANCH  71  75
ATOM     75  S   UNL     1     -11.658  -7.417  -3.192  1.00  0.00     0.124 S 
ATOM     76  O   UNL     1     -11.503  -8.662  -3.936  1.00  0.00    -0.237 OA
ATOM     77  O   UNL     1     -10.912  -7.317  -1.943  1.00  0.00    -0.237 OA
ATOM     78  O   UNL     1     -13.018  -6.882  -3.148  1.00  0.00    -0.744 OA
ENDBRANCH  71  75
ENDBRANCH  44  68
BRANCH  56  79
ATOM     79  C   UNL     1      -5.721 -10.921  -8.910  1.00  0.00     0.023 A 
ATOM     80  C   UNL     1      -6.599 -11.016 -10.003  1.00  0.00     0.031 A 
ATOM     81  C   UNL     1      -5.315 -12.110  -8.277  1.00  0.00     0.131 A 
ATOM     82  C   UNL     1      -7.073 -12.274 -10.408  1.00  0.00     0.055 A 
ATOM     83  C   UNL     1      -5.752 -13.361  -8.714  1.00  0.00     0.041 A 
ATOM     84  F   UNL     1      -4.477 -12.073  -7.229  1.00  0.00    -0.206 F 
ATOM     85  C   UNL     1      -6.642 -13.447  -9.780  1.00  0.00     0.022 A 
BRANCH  82  86
ATOM     86  S   UNL     1      -8.304 -12.359 -11.737  1.00  0.00     0.124 S 
ATOM     87  O   UNL     1      -9.420 -11.612 -11.166  1.00  0.00    -0.237 OA
ATOM     88  O   UNL     1      -7.611 -11.719 -12.850  1.00  0.00    -0.237 OA
ATOM     89  O   UNL     1      -8.537 -13.794 -11.898  1.00  0.00    -0.744 OA
ENDBRANCH  82  86
ENDBRANCH  56  79
ENDBRANCH  30  31
ENDBRANCH  23  25
ENDBRANCH  22  23
ENDBRANCH  21  22
ENDBRANCH   1  21
TORSDOF 19
