REMARK SMILES O=C(OCCOC(=O)[C@H]1CCCC[N@H+]1Cc1ccc([N+](=O)[O-])o1)c1ccc(-c2c3nc(c(-c4cc(S(=O)(=O)[O-])ccc4F)c4ccc([nH]4)c(-c4cc(S(=O)(=O)[O-])ccc4F)c4nc(c(-c5cc(S(=O)(=O)[O-])ccc5F)c5ccc2[nH]5)C=C4)C=C3)cc1
REMARK SMILES IDX 4 1 3 2 2 3 1 4 24 5 25 6 86 7 26 8 85 9 27 10 28 11 29 12
REMARK SMILES IDX 79 13 30 14 84 15 78 16 80 17 31 18 83 19 77 20 76 21 32 23
REMARK SMILES IDX 64 24 44 25 63 26 45 27 48 28 62 29 81 30 46 31 47 32 61 34
REMARK SMILES IDX 82 35 49 36 33 37 34 38 42 39 35 40 41 41 43 42 40 43 36 44
REMARK SMILES IDX 37 45 38 46 39 47 65 48 66 49 74 50 67 51 73 52 75 53 72 54
REMARK SMILES IDX 68 55 69 56 70 57 71 58 50 59 51 60 59 61 52 62 58 63 60 64
REMARK SMILES IDX 57 65 53 66 54 67 55 68 56 69 5 70 6 71 7 72 8 73 9 74 10 75
REMARK SMILES IDX 14 76 11 77 13 78 12 80 15 81 16 82 17 83 23 84 18 85 19 86
REMARK SMILES IDX 20 87 21 88 22 89
REMARK H PARENT 80 22 48 33 14 79
REMARK Flexibility Score: inf
ROOT
ATOM      1  C   UNL     1       2.493  -0.954  -5.090  1.00  0.00     0.275 C 
ENDROOT
BRANCH   1   2
ATOM      2  O   UNL     1       1.715  -0.257  -4.075  1.00  0.00    -0.458 OA
BRANCH   2   3
ATOM      3  C   UNL     1       0.354  -0.450  -3.901  1.00  0.00     0.338 C 
ATOM      4  O   UNL     1      -0.445   0.475  -3.916  1.00  0.00    -0.246 OA
BRANCH   3   5
ATOM      5  C   UNL     1       0.022  -1.748  -3.216  1.00  0.00     0.060 A 
ATOM      6  C   UNL     1       1.164  -2.910  -3.526  1.00  0.00     0.016 A 
ATOM      7  C   UNL     1      -0.798  -1.659  -1.685  1.00  0.00     0.016 A 
ATOM      8  C   UNL     1       1.637  -4.000  -2.263  1.00  0.00     0.010 A 
ATOM      9  C   UNL     1      -0.481  -2.715  -0.331  1.00  0.00     0.010 A 
ATOM     10  C   UNL     1       0.753  -3.998  -0.506  1.00  0.00    -0.014 A 
BRANCH  10  11
ATOM     11  C   UNL     1       0.125  -5.157   0.532  1.00  0.00     0.031 A 
ATOM     12  C   UNL     1      -1.402  -5.646   0.462  1.00  0.00     0.074 A 
ATOM     13  C   UNL     1       0.876  -5.815   1.440  1.00  0.00     0.049 A 
ATOM     14  N   UNL     1      -1.910  -6.838   0.743  1.00  0.00    -0.248 NA
ATOM     15  C   UNL     1      -2.466  -4.724   0.014  1.00  0.00     0.031 C 
ATOM     16  C   UNL     1       2.229  -5.445   1.805  1.00  0.00     0.029 A 
ATOM     17  N   UNL     1       0.669  -7.015   2.096  1.00  0.00    -0.354 N 
ATOM     18  C   UNL     1      -3.280  -6.793   0.412  1.00  0.00     0.074 A 
ATOM     19  C   UNL     1      -3.536  -5.487  -0.114  1.00  0.00     0.031 C 
ATOM     20  C   UNL     1       2.820  -6.494   2.395  1.00  0.00     0.029 A 
ATOM     21  C   UNL     1       1.833  -7.553   2.621  1.00  0.00     0.049 A 
ATOM     22  H   UNL     1      -0.214  -7.442   2.182  1.00  0.00     0.167 HD
ATOM     23  C   UNL     1      -4.293  -7.681   0.592  1.00  0.00     0.034 A 
ATOM     24  C   UNL     1       2.092  -8.745   3.212  1.00  0.00     0.034 A 
ATOM     25  C   UNL     1      -4.162  -8.892   1.352  1.00  0.00     0.049 A 
ATOM     26  C   UNL     1       0.945  -9.705   3.453  1.00  0.00     0.074 A 
ATOM     27  C   UNL     1      -5.145  -9.805   1.695  1.00  0.00     0.029 A 
ATOM     28  N   UNL     1      -2.996  -9.301   1.972  1.00  0.00    -0.354 N 
ATOM     29  N   UNL     1      -0.290  -9.657   3.007  1.00  0.00    -0.248 NA
ATOM     30  C   UNL     1       1.218 -10.855   4.329  1.00  0.00     0.031 C 
ATOM     31  C   UNL     1      -4.598 -10.700   2.618  1.00  0.00     0.029 A 
ATOM     32  C   UNL     1      -3.251 -10.408   2.762  1.00  0.00     0.049 A 
ATOM     33  H   UNL     1      -2.117  -8.870   1.868  1.00  0.00     0.167 HD
ATOM     34  C   UNL     1      -0.946 -10.740   3.594  1.00  0.00     0.074 A 
ATOM     35  C   UNL     1       0.047 -11.472   4.348  1.00  0.00     0.031 C 
ATOM     36  C   UNL     1      -2.259 -11.084   3.554  1.00  0.00     0.034 A 
BRANCH  23  37
ATOM     37  C   UNL     1      -5.691  -7.302   0.118  1.00  0.00     0.023 A 
ATOM     38  C   UNL     1      -6.058  -7.312  -1.242  1.00  0.00     0.031 A 
ATOM     39  C   UNL     1      -6.679  -6.950   1.059  1.00  0.00     0.131 A 
ATOM     40  C   UNL     1      -7.372  -6.968  -1.617  1.00  0.00     0.055 A 
ATOM     41  C   UNL     1      -7.992  -6.656   0.684  1.00  0.00     0.041 A 
ATOM     42  F   UNL     1      -6.382  -6.891   2.367  1.00  0.00    -0.206 F 
ATOM     43  C   UNL     1      -8.345  -6.662  -0.661  1.00  0.00     0.022 A 
BRANCH  40  44
ATOM     44  S   UNL     1      -7.794  -6.855  -3.382  1.00  0.00     0.124 S 
ATOM     45  O   UNL     1      -6.882  -5.810  -3.841  1.00  0.00    -0.237 OA
ATOM     46  O   UNL     1      -7.516  -8.203  -3.862  1.00  0.00    -0.237 OA
ATOM     47  O   UNL     1      -9.207  -6.477  -3.376  1.00  0.00    -0.744 OA
ENDBRANCH  40  44
ENDBRANCH  23  37
BRANCH  24  48
ATOM     48  C   UNL     1       3.470  -9.076   3.724  1.00  0.00     0.023 A 
ATOM     49  C   UNL     1       4.120 -10.286   3.408  1.00  0.00     0.031 A 
ATOM     50  C   UNL     1       4.135  -8.209   4.614  1.00  0.00     0.131 A 
ATOM     51  C   UNL     1       5.364 -10.593   3.994  1.00  0.00     0.055 A 
ATOM     52  C   UNL     1       5.415  -8.469   5.102  1.00  0.00     0.041 A 
ATOM     53  F   UNL     1       3.549  -7.073   5.026  1.00  0.00    -0.206 F 
ATOM     54  C   UNL     1       6.032  -9.674   4.803  1.00  0.00     0.022 A 
BRANCH  51  55
ATOM     55  S   UNL     1       6.029 -12.278   3.834  1.00  0.00     0.124 S 
ATOM     56  O   UNL     1       4.899 -13.087   4.277  1.00  0.00    -0.237 OA
ATOM     57  O   UNL     1       6.351 -12.345   2.413  1.00  0.00    -0.237 OA
ATOM     58  O   UNL     1       7.181 -12.274   4.735  1.00  0.00    -0.744 OA
ENDBRANCH  51  55
ENDBRANCH  24  48
BRANCH  36  59
ATOM     59  C   UNL     1      -2.695 -12.254   4.397  1.00  0.00     0.023 A 
ATOM     60  C   UNL     1      -2.626 -12.194   5.801  1.00  0.00     0.031 A 
ATOM     61  C   UNL     1      -3.183 -13.430   3.806  1.00  0.00     0.131 A 
ATOM     62  C   UNL     1      -2.974 -13.315   6.565  1.00  0.00     0.055 A 
ATOM     63  C   UNL     1      -3.591 -14.521   4.576  1.00  0.00     0.041 A 
ATOM     64  F   UNL     1      -3.278 -13.538   2.471  1.00  0.00    -0.206 F 
ATOM     65  C   UNL     1      -3.473 -14.473   5.963  1.00  0.00     0.022 A 
BRANCH  62  66
ATOM     66  S   UNL     1      -2.671 -13.273   8.352  1.00  0.00     0.124 S 
ATOM     67  O   UNL     1      -1.234 -13.029   8.409  1.00  0.00    -0.237 OA
ATOM     68  O   UNL     1      -3.523 -12.172   8.789  1.00  0.00    -0.237 OA
ATOM     69  O   UNL     1      -3.093 -14.598   8.802  1.00  0.00    -0.744 OA
ENDBRANCH  62  66
ENDBRANCH  36  59
ENDBRANCH  10  11
ENDBRANCH   3   5
ENDBRANCH   2   3
ENDBRANCH   1   2
BRANCH   1  70
ATOM     70  C   UNL     1       3.810  -1.655  -4.586  1.00  0.00     0.274 C 
BRANCH  70  71
ATOM     71  O   UNL     1       3.691  -2.561  -3.454  1.00  0.00    -0.458 OA
BRANCH  71  72
ATOM     72  C   UNL     1       3.793  -2.055  -2.187  1.00  0.00     0.365 C 
ATOM     73  O   UNL     1       4.259  -0.939  -1.960  1.00  0.00    -0.245 OA
BRANCH  72  74
ATOM     74  C   UNL     1       3.031  -2.901  -1.079  1.00  0.00     0.295 C 
ATOM     75  C   UNL     1       1.275  -2.353  -1.427  1.00  0.00     0.078 C 
ATOM     76  N   UNL     1       3.391  -4.489  -0.910  1.00  0.00    -0.317 N 
ATOM     77  C   UNL     1      -0.190  -3.841  -2.161  1.00  0.00     0.013 C 
ATOM     78  C   UNL     1       2.354  -5.840  -1.269  1.00  0.00     0.263 C 
ATOM     79  H   UNL     1       2.381  -4.625  -0.958  1.00  0.00     0.349 HD
ATOM     80  C   UNL     1       0.562  -5.700  -2.018  1.00  0.00     0.062 C 
BRANCH  76  81
ATOM     81  C   UNL     1       4.757  -4.749  -0.449  1.00  0.00     0.339 C 
BRANCH  81  82
ATOM     82  C   UNL     1       5.797  -4.176  -1.369  1.00  0.00     0.165 A 
ATOM     83  C   UNL     1       6.497  -2.975  -1.400  1.00  0.00     0.059 A 
ATOM     84  O   UNL     1       6.098  -4.912  -2.482  1.00  0.00    -0.400 OA
ATOM     85  C   UNL     1       7.152  -2.914  -2.660  1.00  0.00     0.134 A 
ATOM     86  C   UNL     1       6.904  -4.131  -3.245  1.00  0.00     0.433 A 
BRANCH  86  87
ATOM     87  N   UNL     1       7.256  -4.657  -4.519  1.00  0.00     0.102 N 
ATOM     88  O   UNL     1       7.454  -5.875  -4.603  1.00  0.00    -0.256 OA
ATOM     89  O   UNL     1       7.367  -3.836  -5.441  1.00  0.00    -0.256 OA
ENDBRANCH  86  87
ENDBRANCH  81  82
ENDBRANCH  76  81
ENDBRANCH  72  74
ENDBRANCH  71  72
ENDBRANCH  70  71
ENDBRANCH   1  70
TORSDOF 17
