REMARK SMILES CCC[N@@H+](C)CC[C@@H]1CCC[C@]1([NH2+]C)C(=O)OCCOC(=O)c1ccc(-c2c3nc(c(-c4cc(S(=O)(=O)[O-])ccc4F)c4ccc([nH]4)c(-c4cc(S(=O)(=O)[O-])ccc4F)c4nc(c(-c5cc(S(=O)(=O)[O-])ccc5F)c5ccc2[nH]5)C=C4)C=C3)cc1
REMARK SMILES IDX 18 1 17 2 15 3 16 4 12 5 8 6 9 7 10 8 11 9 7 10 6 11 4 12
REMARK SMILES IDX 5 13 3 15 2 16 1 17 13 18 14 19 19 22 20 23 21 24 22 25
REMARK SMILES IDX 23 26 24 27 85 28 25 29 84 30 26 31 27 32 28 33 78 34 29 35
REMARK SMILES IDX 83 36 77 37 79 38 30 39 82 40 76 41 75 42 31 44 63 45 43 46
REMARK SMILES IDX 62 47 44 48 47 49 61 50 80 51 45 52 46 53 60 55 81 56 48 57
REMARK SMILES IDX 32 58 33 59 41 60 34 61 40 62 42 63 39 64 35 65 36 66 37 67
REMARK SMILES IDX 38 68 64 69 65 70 73 71 66 72 72 73 74 74 71 75 67 76 68 77
REMARK SMILES IDX 69 78 70 79 49 80 50 81 58 82 51 83 57 84 59 85 56 86 52 87
REMARK SMILES IDX 53 88 54 89 55 90
REMARK H PARENT 4 14 13 20 13 21 79 43 47 54
REMARK Flexibility Score: inf
ROOT
ATOM      1  C   UNL     1       5.666  -0.203  -5.088  1.00  0.00     0.274 C 
ENDROOT
BRANCH   1   2
ATOM      2  O   UNL     1       5.114  -0.335  -3.763  1.00  0.00    -0.457 OA
BRANCH   2   3
ATOM      3  C   UNL     1       5.660   0.449  -2.791  1.00  0.00     0.368 C 
ATOM      4  O   UNL     1       6.651   1.150  -2.975  1.00  0.00    -0.245 OA
BRANCH   3   5
ATOM      5  C   UNL     1       4.992   0.238  -1.386  1.00  0.00     0.197 C 
ATOM      6  C   UNL     1       3.417   0.218  -1.359  1.00  0.00     0.068 C 
ATOM      7  C   UNL     1       3.054   1.694  -1.274  1.00  0.00     0.011 C 
ATOM      8  C   UNL     1       4.060   2.285  -0.314  1.00  0.00     0.008 C 
ATOM      9  C   UNL     1       5.324   1.452  -0.460  1.00  0.00     0.081 C 
BRANCH   6  10
ATOM     10  C   UNL     1       2.683  -0.537  -2.484  1.00  0.00     0.072 C 
BRANCH  10  11
ATOM     11  C   UNL     1       1.194  -0.898  -2.253  1.00  0.00     0.262 C 
BRANCH  11  12
ATOM     12  N   UNL     1       0.090  -0.056  -2.740  1.00  0.00    -0.337 N 
ATOM     13  C   UNL     1       0.241   0.271  -4.164  1.00  0.00     0.332 C 
ATOM     14  H   UNL     1      -0.704  -0.674  -2.572  1.00  0.00     0.347 HD
BRANCH  12  15
ATOM     15  C   UNL     1      -0.262   1.156  -1.995  1.00  0.00     0.261 C 
BRANCH  15  16
ATOM     16  C   UNL     1      -0.872   1.040  -0.585  1.00  0.00     0.058 C 
ATOM     17  C   UNL     1      -0.144   0.231   0.472  1.00  0.00     0.010 C 
ENDBRANCH  15  16
ENDBRANCH  12  15
ENDBRANCH  11  12
ENDBRANCH  10  11
ENDBRANCH   6  10
BRANCH   5  18
ATOM     18  N   UNL     1       5.532  -1.028  -0.800  1.00  0.00    -0.334 N 
ATOM     19  C   UNL     1       6.994  -1.025  -0.681  1.00  0.00     0.331 C 
ATOM     20  H   UNL     1       5.256  -1.807  -1.398  1.00  0.00     0.347 HD
ATOM     21  H   UNL     1       5.149  -1.118   0.141  1.00  0.00     0.347 HD
ENDBRANCH   5  18
ENDBRANCH   3   5
ENDBRANCH   2   3
ENDBRANCH   1   2
BRANCH   1  22
ATOM     22  C   UNL     1       4.869   0.824  -5.890  1.00  0.00     0.275 C 
BRANCH  22  23
ATOM     23  O   UNL     1       5.037   2.115  -5.283  1.00  0.00    -0.458 OA
BRANCH  23  24
ATOM     24  C   UNL     1       4.003   2.975  -5.403  1.00  0.00     0.338 C 
ATOM     25  O   UNL     1       2.992   2.806  -6.074  1.00  0.00    -0.246 OA
BRANCH  24  26
ATOM     26  C   UNL     1       4.261   4.178  -4.578  1.00  0.00     0.060 A 
ATOM     27  C   UNL     1       4.938   4.073  -3.363  1.00  0.00     0.016 A 
ATOM     28  C   UNL     1       3.755   5.417  -4.970  1.00  0.00     0.016 A 
ATOM     29  C   UNL     1       5.043   5.169  -2.509  1.00  0.00     0.010 A 
ATOM     30  C   UNL     1       3.943   6.540  -4.150  1.00  0.00     0.010 A 
ATOM     31  C   UNL     1       4.561   6.424  -2.890  1.00  0.00    -0.014 A 
BRANCH  31  32
ATOM     32  C   UNL     1       4.641   7.583  -1.950  1.00  0.00     0.031 A 
ATOM     33  C   UNL     1       3.386   8.326  -1.567  1.00  0.00     0.074 A 
ATOM     34  C   UNL     1       5.818   7.958  -1.404  1.00  0.00     0.049 A 
ATOM     35  N   UNL     1       3.254   9.479  -0.961  1.00  0.00    -0.248 NA
ATOM     36  C   UNL     1       2.110   7.694  -1.934  1.00  0.00     0.031 C 
ATOM     37  C   UNL     1       7.106   7.295  -1.619  1.00  0.00     0.029 A 
ATOM     38  N   UNL     1       6.121   8.986  -0.543  1.00  0.00    -0.354 N 
ATOM     39  C   UNL     1       1.888   9.747  -0.944  1.00  0.00     0.074 A 
ATOM     40  C   UNL     1       1.236   8.632  -1.599  1.00  0.00     0.031 C 
ATOM     41  C   UNL     1       8.044   7.896  -0.872  1.00  0.00     0.029 A 
ATOM     42  C   UNL     1       7.457   9.058  -0.216  1.00  0.00     0.049 A 
ATOM     43  H   UNL     1       5.447   9.611  -0.192  1.00  0.00     0.167 HD
ATOM     44  C   UNL     1       1.243  10.828  -0.438  1.00  0.00     0.034 A 
ATOM     45  C   UNL     1       8.149   9.982   0.480  1.00  0.00     0.034 A 
ATOM     46  C   UNL     1       1.903  11.899   0.271  1.00  0.00     0.049 A 
ATOM     47  C   UNL     1       7.419  11.189   1.007  1.00  0.00     0.074 A 
ATOM     48  C   UNL     1       1.347  13.036   0.834  1.00  0.00     0.029 A 
ATOM     49  N   UNL     1       3.267  11.958   0.533  1.00  0.00    -0.354 N 
ATOM     50  N   UNL     1       6.144  11.489   0.916  1.00  0.00    -0.248 NA
ATOM     51  C   UNL     1       8.228  12.195   1.707  1.00  0.00     0.031 C 
ATOM     52  C   UNL     1       2.378  13.805   1.388  1.00  0.00     0.029 A 
ATOM     53  C   UNL     1       3.570  13.118   1.231  1.00  0.00     0.049 A 
ATOM     54  H   UNL     1       3.922  11.275   0.263  1.00  0.00     0.167 HD
ATOM     55  C   UNL     1       6.000  12.721   1.545  1.00  0.00     0.074 A 
ATOM     56  C   UNL     1       7.310  13.090   2.042  1.00  0.00     0.031 C 
ATOM     57  C   UNL     1       4.888  13.485   1.692  1.00  0.00     0.034 A 
BRANCH  44  58
ATOM     58  C   UNL     1      -0.241  10.939  -0.698  1.00  0.00     0.023 A 
ATOM     59  C   UNL     1      -1.172  10.036  -0.158  1.00  0.00     0.031 A 
ATOM     60  C   UNL     1      -0.727  11.961  -1.535  1.00  0.00     0.131 A 
ATOM     61  C   UNL     1      -2.527  10.130  -0.516  1.00  0.00     0.055 A 
ATOM     62  C   UNL     1      -2.086  12.097  -1.825  1.00  0.00     0.041 A 
ATOM     63  F   UNL     1       0.116  12.841  -2.098  1.00  0.00    -0.206 F 
ATOM     64  C   UNL     1      -2.994  11.168  -1.326  1.00  0.00     0.022 A 
BRANCH  61  65
ATOM     65  S   UNL     1      -3.651   8.793  -0.022  1.00  0.00     0.124 S 
ATOM     66  O   UNL     1      -3.014   7.630  -0.635  1.00  0.00    -0.237 OA
ATOM     67  O   UNL     1      -3.596   8.858   1.433  1.00  0.00    -0.237 OA
ATOM     68  O   UNL     1      -4.928   9.181  -0.617  1.00  0.00    -0.744 OA
ENDBRANCH  61  65
ENDBRANCH  44  58
BRANCH  45  69
ATOM     69  C   UNL     1       9.627   9.857   0.638  1.00  0.00     0.023 A 
ATOM     70  C   UNL     1      10.214   9.702   1.903  1.00  0.00     0.031 A 
ATOM     71  C   UNL     1      10.479   9.922  -0.481  1.00  0.00     0.131 A 
ATOM     72  C   UNL     1      11.612   9.644   2.022  1.00  0.00     0.055 A 
ATOM     73  C   UNL     1      11.864   9.807  -0.362  1.00  0.00     0.041 A 
ATOM     74  F   UNL     1       9.971  10.078  -1.714  1.00  0.00    -0.206 F 
ATOM     75  C   UNL     1      12.440   9.677   0.897  1.00  0.00     0.022 A 
BRANCH  72  76
ATOM     76  S   UNL     1      12.345   9.594   3.681  1.00  0.00     0.124 S 
ATOM     77  O   UNL     1      11.837  10.829   4.268  1.00  0.00    -0.237 OA
ATOM     78  O   UNL     1      11.794   8.354   4.219  1.00  0.00    -0.237 OA
ATOM     79  O   UNL     1      13.782   9.572   3.419  1.00  0.00    -0.744 OA
ENDBRANCH  72  76
ENDBRANCH  45  69
BRANCH  57  80
ATOM     80  C   UNL     1       5.056  14.784   2.439  1.00  0.00     0.023 A 
ATOM     81  C   UNL     1       5.799  15.849   1.899  1.00  0.00     0.031 A 
ATOM     82  C   UNL     1       4.504  14.942   3.722  1.00  0.00     0.131 A 
ATOM     83  C   UNL     1       6.022  17.003   2.665  1.00  0.00     0.055 A 
ATOM     84  C   UNL     1       4.683  16.115   4.457  1.00  0.00     0.041 A 
ATOM     85  F   UNL     1       3.789  13.955   4.284  1.00  0.00    -0.206 F 
ATOM     86  C   UNL     1       5.457  17.148   3.935  1.00  0.00     0.022 A 
BRANCH  83  87
ATOM     87  S   UNL     1       7.145  18.273   2.020  1.00  0.00     0.124 S 
ATOM     88  O   UNL     1       8.380  17.520   1.833  1.00  0.00    -0.237 OA
ATOM     89  O   UNL     1       6.466  18.699   0.800  1.00  0.00    -0.237 OA
ATOM     90  O   UNL     1       7.183  19.271   3.087  1.00  0.00    -0.744 OA
ENDBRANCH  83  87
ENDBRANCH  57  80
ENDBRANCH  31  32
ENDBRANCH  24  26
ENDBRANCH  23  24
ENDBRANCH  22  23
ENDBRANCH   1  22
TORSDOF 20
