REMARK SMILES Cc1ccc(S(=O)(=O)n2cc(C(=O)C(=O)NCC(=O)OCCOC(=O)c3ccc(-c4c5nc(c(-c6cc(S(=O)(=O)[O-])ccc6F)c6ccc([nH]6)c(-c6cc(S(=O)(=O)[O-])ccc6F)c6nc(c(-c7cc(S(=O)(=O)[O-])ccc7F)c7ccc4[nH]7)C=C6)C=C5)cc3)c3ccccc32)cc1
REMARK SMILES IDX 21 1 20 2 18 3 19 4 17 5 16 6 14 7 15 8 12 10 13 11 11 12
REMARK SMILES IDX 9 13 10 14 94 15 89 16 93 17 90 18 92 19 91 20 6 21 7 22
REMARK SMILES IDX 8 23 5 24 1 25 2 26 3 27 96 28 4 29 95 30 22 31 23 32 24 33
REMARK SMILES IDX 25 34 26 35 27 36 88 37 28 38 87 39 29 40 30 41 31 42 81 43
REMARK SMILES IDX 32 44 86 45 80 46 82 47 33 48 85 49 79 50 78 51 34 53 66 54
REMARK SMILES IDX 46 55 65 56 47 57 50 58 64 59 83 60 48 61 49 62 63 64 84 65
REMARK SMILES IDX 51 66 35 67 36 68 44 69 37 70 43 71 45 72 42 73 38 74 39 75
REMARK SMILES IDX 40 76 41 77 67 78 68 79 76 80 69 81 75 82 77 83 74 84 70 85
REMARK SMILES IDX 71 86 72 87 73 88 52 89 53 90 61 91 54 92 60 93 62 94 59 95
REMARK SMILES IDX 55 96 56 97 57 98 58 99
REMARK H PARENT 16 9 82 52 50 63
REMARK Flexibility Score: inf
ROOT
ATOM      1  C   UNL     1     -11.647   4.152   2.375  1.00  0.00     0.274 C 
ENDROOT
BRANCH   1   2
ATOM      2  O   UNL     1     -10.273   3.802   2.562  1.00  0.00    -0.461 OA
BRANCH   2   3
ATOM      3  C   UNL     1      -9.517   4.038   1.459  1.00  0.00     0.325 C 
ATOM      4  O   UNL     1      -9.958   4.148   0.321  1.00  0.00    -0.250 OA
BRANCH   3   5
ATOM      5  C   UNL     1      -8.096   4.407   1.835  1.00  0.00     0.239 C 
BRANCH   5   6
ATOM      6  N   UNL     1      -7.456   3.652   2.890  1.00  0.00    -0.338 N 
ATOM      7  C   UNL     1      -6.089   3.496   2.970  1.00  0.00     0.292 C 
ATOM      8  O   UNL     1      -5.535   2.873   3.864  1.00  0.00    -0.265 OA
ATOM      9  H   UNL     1      -8.020   3.233   3.580  1.00  0.00     0.164 HD
BRANCH   7  10
ATOM     10  C   UNL     1      -5.266   4.100   1.817  1.00  0.00     0.252 C 
ATOM     11  O   UNL     1      -5.122   5.318   1.790  1.00  0.00    -0.283 OA
BRANCH  10  12
ATOM     12  C   UNL     1      -4.781   3.216   0.761  1.00  0.00     0.054 A 
ATOM     13  N   UNL     1      -4.101   1.368  -0.272  1.00  0.00    -0.240 N 
ATOM     14  C   UNL     1      -4.679   1.843   0.873  1.00  0.00     0.117 A 
ATOM     15  C   UNL     1      -3.874   2.383  -1.178  1.00  0.00     0.065 A 
ATOM     16  C   UNL     1      -4.317   3.561  -0.554  1.00  0.00     0.012 A 
ATOM     17  C   UNL     1      -3.281   2.396  -2.455  1.00  0.00     0.028 A 
ATOM     18  C   UNL     1      -4.211   4.777  -1.265  1.00  0.00     0.011 A 
ATOM     19  C   UNL     1      -3.162   3.620  -3.117  1.00  0.00     0.002 A 
ATOM     20  C   UNL     1      -3.635   4.792  -2.540  1.00  0.00     0.001 A 
BRANCH  13  21
ATOM     21  S   UNL     1      -3.471  -0.208  -0.380  1.00  0.00     0.268 S 
ATOM     22  O   UNL     1      -3.695  -0.636  -1.751  1.00  0.00    -0.201 OA
ATOM     23  O   UNL     1      -4.021  -0.935   0.745  1.00  0.00    -0.201 OA
BRANCH  21  24
ATOM     24  C   UNL     1      -1.719  -0.088  -0.129  1.00  0.00     0.088 A 
ATOM     25  C   UNL     1       2.573  -0.031   0.056  1.00  0.00     0.044 C 
ATOM     26  C   UNL     1       1.074  -0.049   0.037  1.00  0.00    -0.051 A 
ATOM     27  C   UNL     1       0.390  -1.266  -0.058  1.00  0.00     0.005 A 
ATOM     28  C   UNL     1       0.345   1.144   0.099  1.00  0.00     0.005 A 
ATOM     29  C   UNL     1      -1.002  -1.289  -0.146  1.00  0.00     0.022 A 
ATOM     30  C   UNL     1      -1.050   1.127   0.029  1.00  0.00     0.022 A 
ENDBRANCH  21  24
ENDBRANCH  13  21
ENDBRANCH  10  12
ENDBRANCH   7  10
ENDBRANCH   5   6
ENDBRANCH   3   5
ENDBRANCH   2   3
ENDBRANCH   1   2
BRANCH   1  31
ATOM     31  C   UNL     1     -12.286   4.550   3.712  1.00  0.00     0.275 C 
BRANCH  31  32
ATOM     32  O   UNL     1     -11.381   4.929   4.803  1.00  0.00    -0.458 OA
BRANCH  32  33
ATOM     33  C   UNL     1     -10.406   5.878   4.931  1.00  0.00     0.338 C 
ATOM     34  O   UNL     1      -9.595   5.810   5.850  1.00  0.00    -0.246 OA
BRANCH  33  35
ATOM     35  C   UNL     1     -10.176   6.846   3.839  1.00  0.00     0.060 A 
ATOM     36  C   UNL     1      -8.889   7.355   3.565  1.00  0.00     0.016 A 
ATOM     37  C   UNL     1     -11.207   7.113   2.974  1.00  0.00     0.016 A 
ATOM     38  C   UNL     1      -8.626   7.964   2.330  1.00  0.00     0.010 A 
ATOM     39  C   UNL     1     -10.897   7.422   1.683  1.00  0.00     0.010 A 
ATOM     40  C   UNL     1      -9.630   7.925   1.367  1.00  0.00    -0.014 A 
BRANCH  40  41
ATOM     41  C   UNL     1      -9.624   8.587   0.069  1.00  0.00     0.031 A 
ATOM     42  C   UNL     1      -8.835   8.096  -1.070  1.00  0.00     0.074 A 
ATOM     43  C   UNL     1     -10.576   9.547  -0.005  1.00  0.00     0.049 A 
ATOM     44  N   UNL     1      -8.422   8.827  -2.042  1.00  0.00    -0.248 NA
ATOM     45  C   UNL     1      -8.424   6.702  -1.217  1.00  0.00     0.031 C 
ATOM     46  C   UNL     1     -11.163  10.268  -1.115  1.00  0.00     0.029 A 
ATOM     47  N   UNL     1     -11.160  10.153   1.108  1.00  0.00    -0.354 N 
ATOM     48  C   UNL     1      -8.054   7.974  -3.067  1.00  0.00     0.074 A 
ATOM     49  C   UNL     1      -7.925   6.676  -2.459  1.00  0.00     0.031 C 
ATOM     50  C   UNL     1     -11.740  11.392  -0.632  1.00  0.00     0.029 A 
ATOM     51  C   UNL     1     -11.439  11.472   0.795  1.00  0.00     0.049 A 
ATOM     52  H   UNL     1     -11.343   9.716   1.971  1.00  0.00     0.167 HD
ATOM     53  C   UNL     1      -8.124   8.415  -4.356  1.00  0.00     0.034 A 
ATOM     54  C   UNL     1     -10.658  12.396   1.434  1.00  0.00     0.034 A 
ATOM     55  C   UNL     1      -8.644   9.778  -4.374  1.00  0.00     0.049 A 
ATOM     56  C   UNL     1      -9.706  12.998   0.429  1.00  0.00     0.074 A 
ATOM     57  C   UNL     1      -9.929  10.266  -4.545  1.00  0.00     0.029 A 
ATOM     58  N   UNL     1      -7.909  10.791  -3.775  1.00  0.00    -0.354 N 
ATOM     59  N   UNL     1      -9.256  12.376  -0.631  1.00  0.00    -0.248 NA
ATOM     60  C   UNL     1      -9.322  14.401   0.474  1.00  0.00     0.031 C 
ATOM     61  C   UNL     1      -9.987  11.541  -3.919  1.00  0.00     0.029 A 
ATOM     62  C   UNL     1      -8.739  11.826  -3.388  1.00  0.00     0.049 A 
ATOM     63  H   UNL     1      -6.933  10.775  -3.644  1.00  0.00     0.167 HD
ATOM     64  C   UNL     1      -8.649  13.282  -1.458  1.00  0.00     0.074 A 
ATOM     65  C   UNL     1      -8.699  14.531  -0.708  1.00  0.00     0.031 C 
ATOM     66  C   UNL     1      -8.188  12.986  -2.713  1.00  0.00     0.034 A 
BRANCH  53  67
ATOM     67  C   UNL     1      -8.064   7.544  -5.588  1.00  0.00     0.023 A 
ATOM     68  C   UNL     1      -8.823   7.909  -6.722  1.00  0.00     0.031 A 
ATOM     69  C   UNL     1      -7.284   6.381  -5.729  1.00  0.00     0.131 A 
ATOM     70  C   UNL     1      -8.842   7.125  -7.889  1.00  0.00     0.055 A 
ATOM     71  C   UNL     1      -7.322   5.580  -6.884  1.00  0.00     0.041 A 
ATOM     72  F   UNL     1      -6.427   5.996  -4.771  1.00  0.00    -0.206 F 
ATOM     73  C   UNL     1      -8.107   5.948  -7.971  1.00  0.00     0.022 A 
BRANCH  70  74
ATOM     74  S   UNL     1      -9.829   7.691  -9.305  1.00  0.00     0.124 S 
ATOM     75  O   UNL     1     -11.183   7.680  -8.762  1.00  0.00    -0.237 OA
ATOM     76  O   UNL     1      -9.256   9.005  -9.579  1.00  0.00    -0.237 OA
ATOM     77  O   UNL     1      -9.566   6.680 -10.329  1.00  0.00    -0.744 OA
ENDBRANCH  70  74
ENDBRANCH  53  67
BRANCH  54  78
ATOM     78  C   UNL     1     -10.360  12.006   2.869  1.00  0.00     0.023 A 
ATOM     79  C   UNL     1     -11.471  11.618   3.664  1.00  0.00     0.031 A 
ATOM     80  C   UNL     1      -9.092  11.629   3.335  1.00  0.00     0.131 A 
ATOM     81  C   UNL     1     -11.320  10.716   4.732  1.00  0.00     0.055 A 
ATOM     82  C   UNL     1      -8.938  10.820   4.479  1.00  0.00     0.041 A 
ATOM     83  F   UNL     1      -7.987  11.938   2.642  1.00  0.00    -0.206 F 
ATOM     84  C   UNL     1     -10.054  10.321   5.156  1.00  0.00     0.022 A 
BRANCH  81  85
ATOM     85  S   UNL     1     -12.798   9.806   5.292  1.00  0.00     0.124 S 
ATOM     86  O   UNL     1     -13.445  10.772   6.171  1.00  0.00    -0.237 OA
ATOM     87  O   UNL     1     -13.485   9.523   4.031  1.00  0.00    -0.237 OA
ATOM     88  O   UNL     1     -12.252   8.618   5.945  1.00  0.00    -0.744 OA
ENDBRANCH  81  85
ENDBRANCH  54  78
BRANCH  66  89
ATOM     89  C   UNL     1      -7.223  13.857  -3.469  1.00  0.00     0.023 A 
ATOM     90  C   UNL     1      -6.456  14.825  -2.820  1.00  0.00     0.031 A 
ATOM     91  C   UNL     1      -6.967  13.686  -4.850  1.00  0.00     0.131 A 
ATOM     92  C   UNL     1      -5.624  15.685  -3.539  1.00  0.00     0.055 A 
ATOM     93  C   UNL     1      -6.024  14.449  -5.540  1.00  0.00     0.041 A 
ATOM     94  F   UNL     1      -7.609  12.768  -5.587  1.00  0.00    -0.206 F 
ATOM     95  C   UNL     1      -5.370  15.485  -4.892  1.00  0.00     0.022 A 
BRANCH  92  96
ATOM     96  S   UNL     1      -5.021  17.150  -2.675  1.00  0.00     0.124 S 
ATOM     97  O   UNL     1      -6.270  17.842  -2.365  1.00  0.00    -0.237 OA
ATOM     98  O   UNL     1      -4.317  16.577  -1.532  1.00  0.00    -0.237 OA
ATOM     99  O   UNL     1      -4.174  17.808  -3.667  1.00  0.00    -0.744 OA
ENDBRANCH  92  96
ENDBRANCH  66  89
ENDBRANCH  40  41
ENDBRANCH  33  35
ENDBRANCH  32  33
ENDBRANCH  31  32
ENDBRANCH   1  31
TORSDOF 19
