REMARK SMILES N#CCCn1cc(C(=O)OCCOC(=O)c2ccc(-c3c4nc(c(-c5cc(S(=O)(=O)[O-])ccc5F)c5ccc([nH]5)c(-c5cc(S(=O)(=O)[O-])ccc5F)c5nc(c(-c6cc(S(=O)(=O)[O-])ccc6F)c6ccc3[nH]6)C=C5)C=C4)cc2)c(-c2cccc([N+](=O)[O-])c2)n1
REMARK SMILES IDX 11 1 10 2 8 3 9 4 7 5 5 6 6 7 89 8 79 9 4 10 3 11 2 12 1 13
REMARK SMILES IDX 80 14 81 15 88 16 82 17 84 18 83 19 85 20 86 21 87 22 12 23
REMARK SMILES IDX 13 24 14 25 15 26 16 27 17 28 78 29 18 30 77 31 19 32 20 33
REMARK SMILES IDX 21 34 71 35 22 36 76 37 70 38 72 39 23 40 75 41 69 42 68 43
REMARK SMILES IDX 24 45 56 46 36 47 55 48 37 49 40 50 54 51 73 52 38 53 39 54
REMARK SMILES IDX 53 56 74 57 41 58 25 59 26 60 34 61 27 62 33 63 35 64 32 65
REMARK SMILES IDX 28 66 29 67 30 68 31 69 57 70 58 71 66 72 59 73 65 74 67 75
REMARK SMILES IDX 64 76 60 77 61 78 62 79 63 80 42 81 43 82 51 83 44 84 50 85
REMARK SMILES IDX 52 86 49 87 45 88 46 89 47 90 48 91
REMARK H PARENT 72 44 40 55
REMARK Flexibility Score: inf
ROOT
ATOM      1  C   UNL     1       1.310   1.125   6.174  1.00  0.00     0.275 C 
ENDROOT
BRANCH   1   2
ATOM      2  O   UNL     1       1.897   1.356   4.883  1.00  0.00    -0.458 OA
BRANCH   2   3
ATOM      3  C   UNL     1       2.094   2.662   4.506  1.00  0.00     0.342 C 
ATOM      4  O   UNL     1       1.689   3.627   5.133  1.00  0.00    -0.246 OA
BRANCH   3   5
ATOM      5  C   UNL     1       2.839   2.757   3.262  1.00  0.00     0.106 A 
ATOM      6  N   UNL     1       3.841   2.216   1.384  1.00  0.00    -0.270 N 
ATOM      7  C   UNL     1       3.285   1.692   2.506  1.00  0.00     0.125 A 
ATOM      8  N   UNL     1       3.901   3.558   1.401  1.00  0.00    -0.172 NA
ATOM      9  C   UNL     1       3.330   3.901   2.568  1.00  0.00     0.107 A 
BRANCH   6  10
ATOM     10  C   UNL     1       4.303   1.506   0.204  1.00  0.00     0.159 C 
BRANCH  10  11
ATOM     11  C   UNL     1       3.768   0.085   0.051  1.00  0.00     0.144 C 
BRANCH  11  12
ATOM     12  C   UNL     1       2.248   0.085   0.051  1.00  0.00     0.064 C 
ATOM     13  N   UNL     1       0.987   0.085   0.051  1.00  0.00    -0.198 NA
ENDBRANCH  11  12
ENDBRANCH  10  11
ENDBRANCH   6  10
BRANCH   9  14
ATOM     14  C   UNL     1       3.322   5.287   3.009  1.00  0.00     0.010 A 
ATOM     15  C   UNL     1       4.380   5.755   3.801  1.00  0.00     0.011 A 
ATOM     16  C   UNL     1       2.275   6.147   2.672  1.00  0.00     0.096 A 
ATOM     17  C   UNL     1       4.364   7.047   4.329  1.00  0.00     0.008 A 
ATOM     18  C   UNL     1       2.280   7.454   3.181  1.00  0.00     0.270 A 
ATOM     19  C   UNL     1       3.304   7.900   4.030  1.00  0.00     0.085 A 
BRANCH  18  20
ATOM     20  N   UNL     1       1.204   8.376   2.808  1.00  0.00     0.062 N 
ATOM     21  O   UNL     1       1.072   9.412   3.475  1.00  0.00    -0.258 OA
ATOM     22  O   UNL     1       0.493   8.072   1.839  1.00  0.00    -0.258 OA
ENDBRANCH  18  20
ENDBRANCH   9  14
ENDBRANCH   3   5
ENDBRANCH   2   3
ENDBRANCH   1   2
BRANCH   1  23
ATOM     23  C   UNL     1       2.365   0.949   7.262  1.00  0.00     0.275 C 
BRANCH  23  24
ATOM     24  O   UNL     1       3.061   2.164   7.528  1.00  0.00    -0.458 OA
BRANCH  24  25
ATOM     25  C   UNL     1       4.164   2.346   6.768  1.00  0.00     0.338 C 
ATOM     26  O   UNL     1       4.491   1.700   5.784  1.00  0.00    -0.246 OA
BRANCH  25  27
ATOM     27  C   UNL     1       5.010   3.384   7.351  1.00  0.00     0.060 A 
ATOM     28  C   UNL     1       6.048   3.882   6.556  1.00  0.00     0.016 A 
ATOM     29  C   UNL     1       4.903   3.693   8.712  1.00  0.00     0.016 A 
ATOM     30  C   UNL     1       7.049   4.621   7.145  1.00  0.00     0.010 A 
ATOM     31  C   UNL     1       5.919   4.402   9.308  1.00  0.00     0.010 A 
ATOM     32  C   UNL     1       7.002   4.812   8.526  1.00  0.00    -0.014 A 
BRANCH  32  33
ATOM     33  C   UNL     1       8.081   5.548   9.158  1.00  0.00     0.031 A 
ATOM     34  C   UNL     1       7.985   7.017   8.922  1.00  0.00     0.074 A 
ATOM     35  C   UNL     1       8.930   4.894   9.980  1.00  0.00     0.049 A 
ATOM     36  N   UNL     1       8.878   7.810   8.431  1.00  0.00    -0.248 NA
ATOM     37  C   UNL     1       6.664   7.663   9.090  1.00  0.00     0.031 C 
ATOM     38  C   UNL     1       8.871   3.477  10.364  1.00  0.00     0.029 A 
ATOM     39  N   UNL     1       9.950   5.358  10.749  1.00  0.00    -0.354 N 
ATOM     40  C   UNL     1       8.322   9.088   8.489  1.00  0.00     0.074 A 
ATOM     41  C   UNL     1       6.915   8.909   8.691  1.00  0.00     0.031 C 
ATOM     42  C   UNL     1       9.628   3.275  11.465  1.00  0.00     0.029 A 
ATOM     43  C   UNL     1      10.315   4.511  11.798  1.00  0.00     0.049 A 
ATOM     44  H   UNL     1      10.396   6.220  10.581  1.00  0.00     0.167 HD
ATOM     45  C   UNL     1       9.114  10.177   8.677  1.00  0.00     0.034 A 
ATOM     46  C   UNL     1      11.051   4.830  12.901  1.00  0.00     0.034 A 
ATOM     47  C   UNL     1      10.466   9.899   8.252  1.00  0.00     0.049 A 
ATOM     48  C   UNL     1      11.767   6.089  12.576  1.00  0.00     0.074 A 
ATOM     49  C   UNL     1      11.051   9.555   7.050  1.00  0.00     0.029 A 
ATOM     50  N   UNL     1      11.385   9.578   9.224  1.00  0.00    -0.354 N 
ATOM     51  N   UNL     1      12.676   6.171  11.643  1.00  0.00    -0.248 NA
ATOM     52  C   UNL     1      11.117   7.345  12.917  1.00  0.00     0.031 C 
ATOM     53  C   UNL     1      12.072   8.620   7.391  1.00  0.00     0.029 A 
ATOM     54  C   UNL     1      12.121   8.507   8.783  1.00  0.00     0.049 A 
ATOM     55  H   UNL     1      11.495  10.037  10.087  1.00  0.00     0.167 HD
ATOM     56  C   UNL     1      12.409   7.363  10.985  1.00  0.00     0.074 A 
ATOM     57  C   UNL     1      11.496   8.086  11.871  1.00  0.00     0.031 C 
ATOM     58  C   UNL     1      12.713   7.514   9.661  1.00  0.00     0.034 A 
BRANCH  45  59
ATOM     59  C   UNL     1       8.785  11.293   9.653  1.00  0.00     0.023 A 
ATOM     60  C   UNL     1       9.768  12.285   9.833  1.00  0.00     0.031 A 
ATOM     61  C   UNL     1       7.756  11.271  10.626  1.00  0.00     0.131 A 
ATOM     62  C   UNL     1       9.784  13.086  10.987  1.00  0.00     0.055 A 
ATOM     63  C   UNL     1       7.744  12.114  11.741  1.00  0.00     0.041 A 
ATOM     64  F   UNL     1       6.753  10.387  10.612  1.00  0.00    -0.206 F 
ATOM     65  C   UNL     1       8.782  13.003  11.948  1.00  0.00     0.022 A 
BRANCH  62  66
ATOM     66  S   UNL     1      11.249  14.102  11.300  1.00  0.00     0.124 S 
ATOM     67  O   UNL     1      12.311  13.104  11.242  1.00  0.00    -0.237 OA
ATOM     68  O   UNL     1      11.195  15.052  10.194  1.00  0.00    -0.237 OA
ATOM     69  O   UNL     1      10.992  14.667  12.622  1.00  0.00    -0.744 OA
ENDBRANCH  62  66
ENDBRANCH  45  59
BRANCH  46  70
ATOM     70  C   UNL     1      10.834   4.351  14.304  1.00  0.00     0.023 A 
ATOM     71  C   UNL     1      11.818   4.430  15.318  1.00  0.00     0.031 A 
ATOM     72  C   UNL     1       9.526   4.021  14.729  1.00  0.00     0.131 A 
ATOM     73  C   UNL     1      11.476   4.178  16.673  1.00  0.00     0.055 A 
ATOM     74  C   UNL     1       9.195   3.776  16.064  1.00  0.00     0.041 A 
ATOM     75  F   UNL     1       8.498   4.007  13.866  1.00  0.00    -0.206 F 
ATOM     76  C   UNL     1      10.167   3.862  17.044  1.00  0.00     0.022 A 
BRANCH  73  77
ATOM     77  S   UNL     1      12.720   4.325  18.003  1.00  0.00     0.124 S 
ATOM     78  O   UNL     1      13.633   3.230  17.698  1.00  0.00    -0.237 OA
ATOM     79  O   UNL     1      13.234   5.675  17.806  1.00  0.00    -0.237 OA
ATOM     80  O   UNL     1      11.936   4.144  19.227  1.00  0.00    -0.744 OA
ENDBRANCH  73  77
ENDBRANCH  46  70
BRANCH  58  81
ATOM     81  C   UNL     1      13.607   6.473   9.013  1.00  0.00     0.023 A 
ATOM     82  C   UNL     1      13.305   5.096   8.878  1.00  0.00     0.031 A 
ATOM     83  C   UNL     1      14.782   6.945   8.403  1.00  0.00     0.131 A 
ATOM     84  C   UNL     1      14.178   4.252   8.160  1.00  0.00     0.055 A 
ATOM     85  C   UNL     1      15.629   6.112   7.677  1.00  0.00     0.041 A 
ATOM     86  F   UNL     1      15.107   8.247   8.473  1.00  0.00    -0.206 F 
ATOM     87  C   UNL     1      15.333   4.760   7.557  1.00  0.00     0.022 A 
BRANCH  84  88
ATOM     88  S   UNL     1      13.842   2.464   8.007  1.00  0.00     0.124 S 
ATOM     89  O   UNL     1      13.554   2.052   9.376  1.00  0.00    -0.237 OA
ATOM     90  O   UNL     1      12.716   2.430   7.078  1.00  0.00    -0.237 OA
ATOM     91  O   UNL     1      15.092   1.928   7.462  1.00  0.00    -0.744 OA
ENDBRANCH  84  88
ENDBRANCH  58  81
ENDBRANCH  32  33
ENDBRANCH  25  27
ENDBRANCH  24  25
ENDBRANCH  23  24
ENDBRANCH   1  23
TORSDOF 19
