REMARK SMILES O=C(COc1ccccc1/C=N/N1[C@@H](S)N=N[C@H]1[C@@H]1C=C(c2ccccc2)N=N1)OCCOC(=O)c1ccc(-c2c3nc(c(-c4cc(S(=O)(=O)[O-])ccc4F)c4ccc([nH]4)c(-c4cc(S(=O)(=O)[O-])ccc4F)c4nc(c(-c5cc(S(=O)(=O)[O-])ccc5F)c5ccc2[nH]5)C=C4)C=C3)cc1
REMARK SMILES IDX 30 1 2 2 1 3 3 4 4 5 5 6 6 7 10 8 7 9 9 10 8 11 11 12 12 13
REMARK SMILES IDX 13 14 14 15 18 16 16 17 17 18 15 19 19 21 20 22 29 23 21 24
REMARK SMILES IDX 28 25 22 26 23 27 27 28 24 29 26 30 25 31 31 32 32 33 33 34
REMARK SMILES IDX 34 35 35 36 36 37 37 38 98 39 38 40 97 41 39 42 40 43 41 44
REMARK SMILES IDX 91 45 42 46 96 47 90 48 92 49 43 50 95 51 89 52 88 53 44 55
REMARK SMILES IDX 76 56 56 57 75 58 57 59 60 60 74 61 93 62 58 63 59 64 73 66
REMARK SMILES IDX 94 67 61 68 45 69 46 70 54 71 47 72 53 73 55 74 52 75 48 76
REMARK SMILES IDX 49 77 50 78 51 79 77 80 78 81 86 82 79 83 85 84 87 85 84 86
REMARK SMILES IDX 80 87 81 88 82 89 83 90 62 91 63 92 71 93 64 94 70 95 72 96
REMARK SMILES IDX 69 97 65 98 66 99 67 100 68 101
REMARK H PARENT 15 20 92 54 60 65
REMARK Flexibility Score: inf
ROOT
ATOM      1  O   UNL     1       2.718   0.808   0.689  1.00  0.00    -0.460 OA
ENDROOT
BRANCH   1   2
ATOM      2  C   UNL     1       1.643   0.070  -0.120  1.00  0.00     0.344 C 
ATOM      3  O   UNL     1       0.580  -0.312   0.373  1.00  0.00    -0.248 OA
BRANCH   2   4
ATOM      4  C   UNL     1       2.051  -0.317  -1.532  1.00  0.00     0.352 C 
BRANCH   4   5
ATOM      5  O   UNL     1       2.820   0.601  -2.260  1.00  0.00    -0.481 OA
BRANCH   5   6
ATOM      6  C   UNL     1       2.142   1.618  -2.873  1.00  0.00     0.129 A 
ATOM      7  C   UNL     1       2.570   1.799  -4.194  1.00  0.00     0.047 A 
ATOM      8  C   UNL     1       1.405   2.626  -2.223  1.00  0.00     0.037 A 
ATOM      9  C   UNL     1       2.337   3.004  -4.846  1.00  0.00     0.004 A 
ATOM     10  C   UNL     1       1.125   3.812  -2.906  1.00  0.00     0.013 A 
ATOM     11  C   UNL     1       1.618   4.009  -4.201  1.00  0.00     0.001 A 
BRANCH   8  12
ATOM     12  C   UNL     1       1.242   2.684  -0.752  1.00  0.00     0.145 C 
ATOM     13  N   UNL     1       0.128   2.393  -0.172  1.00  0.00    -0.180 NA
BRANCH  13  14
ATOM     14  N   UNL     1       0.033   2.317   1.202  1.00  0.00    -0.233 NA
ATOM     15  C   UNL     1      -1.302   1.978   1.779  1.00  0.00     0.298 C 
ATOM     16  C   UNL     1       0.911   1.756   2.276  1.00  0.00     0.274 C 
ATOM     17  N   UNL     1      -1.134   1.146   2.987  1.00  0.00    -0.153 NA
ATOM     18  N   UNL     1       0.077   0.999   3.249  1.00  0.00    -0.161 NA
BRANCH  15  19
ATOM     19  S   UNL     1      -2.508   1.331   0.575  1.00  0.00    -0.128 SA
ATOM     20  H   UNL     1      -2.066   0.142   0.084  1.00  0.00     0.106 HD
ENDBRANCH  15  19
BRANCH  16  21
ATOM     21  C   UNL     1       2.360   1.119   2.386  1.00  0.00     0.202 C 
ATOM     22  C   UNL     1       3.694   2.258   1.470  1.00  0.00     0.037 C 
ATOM     23  N   UNL     1       2.777  -0.662   1.533  1.00  0.00    -0.177 NA
ATOM     24  C   UNL     1       4.434   1.447   0.335  1.00  0.00     0.091 C 
ATOM     25  N   UNL     1       3.995  -0.324   0.327  1.00  0.00    -0.155 NA
BRANCH  24  26
ATOM     26  C   UNL     1       5.463   1.960  -0.567  1.00  0.00     0.002 A 
ATOM     27  C   UNL     1       5.091   2.533  -1.778  1.00  0.00     0.010 A 
ATOM     28  C   UNL     1       6.819   1.856  -0.274  1.00  0.00     0.010 A 
ATOM     29  C   UNL     1       6.016   2.747  -2.793  1.00  0.00     0.001 A 
ATOM     30  C   UNL     1       7.766   2.145  -1.260  1.00  0.00     0.001 A 
ATOM     31  C   UNL     1       7.359   2.523  -2.540  1.00  0.00     0.000 A 
ENDBRANCH  24  26
ENDBRANCH  16  21
ENDBRANCH  13  14
ENDBRANCH   8  12
ENDBRANCH   5   6
ENDBRANCH   4   5
ENDBRANCH   2   4
ENDBRANCH   1   2
BRANCH   1  32
ATOM     32  C   UNL     1       4.224   0.297   2.099  1.00  0.00     0.274 C 
BRANCH  32  33
ATOM     33  C   UNL     1       4.735  -1.386   2.417  1.00  0.00     0.275 C 
BRANCH  33  34
ATOM     34  O   UNL     1       4.621  -2.371   1.367  1.00  0.00    -0.458 OA
BRANCH  34  35
ATOM     35  C   UNL     1       3.438  -3.051   1.275  1.00  0.00     0.338 C 
ATOM     36  O   UNL     1       2.579  -3.138   2.137  1.00  0.00    -0.246 OA
BRANCH  35  37
ATOM     37  C   UNL     1       3.335  -3.691  -0.060  1.00  0.00     0.060 A 
ATOM     38  C   UNL     1       2.203  -4.476  -0.276  1.00  0.00     0.016 A 
ATOM     39  C   UNL     1       4.541  -4.019  -0.661  1.00  0.00     0.016 A 
ATOM     40  C   UNL     1       2.418  -5.820  -0.508  1.00  0.00     0.010 A 
ATOM     41  C   UNL     1       4.742  -5.343  -0.937  1.00  0.00     0.010 A 
ATOM     42  C   UNL     1       3.738  -6.262  -0.622  1.00  0.00    -0.014 A 
BRANCH  42  43
ATOM     43  C   UNL     1       4.075  -7.679  -0.708  1.00  0.00     0.031 A 
ATOM     44  C   UNL     1       3.895  -8.078  -2.126  1.00  0.00     0.074 A 
ATOM     45  C   UNL     1       4.577  -8.441   0.302  1.00  0.00     0.049 A 
ATOM     46  N   UNL     1       2.773  -8.461  -2.651  1.00  0.00    -0.248 NA
ATOM     47  C   UNL     1       4.868  -7.600  -3.134  1.00  0.00     0.031 C 
ATOM     48  C   UNL     1       4.904  -8.086   1.689  1.00  0.00     0.029 A 
ATOM     49  N   UNL     1       4.944  -9.767   0.268  1.00  0.00    -0.354 N 
ATOM     50  C   UNL     1       3.073  -8.620  -3.994  1.00  0.00     0.074 A 
ATOM     51  C   UNL     1       4.139  -7.704  -4.249  1.00  0.00     0.031 C 
ATOM     52  C   UNL     1       5.628  -9.081   2.273  1.00  0.00     0.029 A 
ATOM     53  C   UNL     1       5.725 -10.213   1.365  1.00  0.00     0.049 A 
ATOM     54  H   UNL     1       4.683 -10.366  -0.469  1.00  0.00     0.167 HD
ATOM     55  C   UNL     1       2.800  -9.802  -4.612  1.00  0.00     0.034 A 
ATOM     56  C   UNL     1       6.373 -11.427   1.474  1.00  0.00     0.034 A 
ATOM     57  C   UNL     1       1.879 -10.576  -3.802  1.00  0.00     0.049 A 
ATOM     58  C   UNL     1       5.668 -12.336   0.524  1.00  0.00     0.074 A 
ATOM     59  C   UNL     1       0.614 -10.358  -3.293  1.00  0.00     0.029 A 
ATOM     60  N   UNL     1       2.433 -11.577  -3.033  1.00  0.00    -0.354 N 
ATOM     61  N   UNL     1       4.425 -12.697   0.702  1.00  0.00    -0.248 NA
ATOM     62  C   UNL     1       6.121 -12.304  -0.861  1.00  0.00     0.031 C 
ATOM     63  C   UNL     1       0.648 -10.899  -1.973  1.00  0.00     0.029 A 
ATOM     64  C   UNL     1       1.865 -11.555  -1.783  1.00  0.00     0.049 A 
ATOM     65  H   UNL     1       3.126 -12.208  -3.332  1.00  0.00     0.167 HD
ATOM     66  C   UNL     1       3.817 -12.473  -0.526  1.00  0.00     0.074 A 
ATOM     67  C   UNL     1       4.926 -12.256  -1.462  1.00  0.00     0.031 C 
ATOM     68  C   UNL     1       2.493 -12.139  -0.609  1.00  0.00     0.034 A 
BRANCH  55  69
ATOM     69  C   UNL     1       3.708 -10.465  -5.633  1.00  0.00     0.023 A 
ATOM     70  C   UNL     1       3.260 -11.696  -6.140  1.00  0.00     0.031 A 
ATOM     71  C   UNL     1       5.057 -10.142  -5.924  1.00  0.00     0.131 A 
ATOM     72  C   UNL     1       4.144 -12.579  -6.781  1.00  0.00     0.055 A 
ATOM     73  C   UNL     1       5.916 -11.000  -6.615  1.00  0.00     0.041 A 
ATOM     74  F   UNL     1       5.665  -9.029  -5.505  1.00  0.00    -0.206 F 
ATOM     75  C   UNL     1       5.471 -12.241  -7.022  1.00  0.00     0.022 A 
BRANCH  72  76
ATOM     76  S   UNL     1       3.558 -14.249  -7.144  1.00  0.00     0.124 S 
ATOM     77  O   UNL     1       3.205 -14.726  -5.812  1.00  0.00    -0.237 OA
ATOM     78  O   UNL     1       2.447 -13.984  -8.052  1.00  0.00    -0.237 OA
ATOM     79  O   UNL     1       4.722 -14.887  -7.753  1.00  0.00    -0.744 OA
ENDBRANCH  72  76
ENDBRANCH  55  69
BRANCH  56  80
ATOM     80  C   UNL     1       7.772 -11.737   1.977  1.00  0.00     0.023 A 
ATOM     81  C   UNL     1       8.299 -13.042   2.248  1.00  0.00     0.031 A 
ATOM     82  C   UNL     1       8.727 -10.700   1.924  1.00  0.00     0.131 A 
ATOM     83  C   UNL     1       9.703 -13.240   2.447  1.00  0.00     0.055 A 
ATOM     84  C   UNL     1      10.101 -10.906   2.094  1.00  0.00     0.041 A 
ATOM     85  F   UNL     1       8.367  -9.447   1.613  1.00  0.00    -0.206 F 
ATOM     86  C   UNL     1      10.596 -12.174   2.346  1.00  0.00     0.022 A 
BRANCH  83  87
ATOM     87  S   UNL     1      10.447 -14.889   2.801  1.00  0.00     0.124 S 
ATOM     88  O   UNL     1       9.893 -15.213   4.110  1.00  0.00    -0.237 OA
ATOM     89  O   UNL     1       9.989 -15.700   1.680  1.00  0.00    -0.237 OA
ATOM     90  O   UNL     1      11.889 -14.624   2.805  1.00  0.00    -0.744 OA
ENDBRANCH  83  87
ENDBRANCH  56  80
BRANCH  68  91
ATOM     91  C   UNL     1       1.624 -12.292   0.628  1.00  0.00     0.023 A 
ATOM     92  C   UNL     1       1.791 -11.626   1.869  1.00  0.00     0.031 A 
ATOM     93  C   UNL     1       0.486 -13.102   0.475  1.00  0.00     0.131 A 
ATOM     94  C   UNL     1       0.837 -11.809   2.897  1.00  0.00     0.055 A 
ATOM     95  C   UNL     1      -0.468 -13.249   1.477  1.00  0.00     0.041 A 
ATOM     96  F   UNL     1       0.264 -13.747  -0.682  1.00  0.00    -0.206 F 
ATOM     97  C   UNL     1      -0.293 -12.609   2.695  1.00  0.00     0.022 A 
BRANCH  94  98
ATOM     98  S   UNL     1       1.064 -11.063   4.550  1.00  0.00     0.124 S 
ATOM     99  O   UNL     1       2.452 -11.373   4.871  1.00  0.00    -0.237 OA
ATOM    100  O   UNL     1       0.764  -9.655   4.307  1.00  0.00    -0.237 OA
ATOM    101  O   UNL     1       0.077 -11.761   5.377  1.00  0.00    -0.744 OA
ENDBRANCH  94  98
ENDBRANCH  68  91
ENDBRANCH  42  43
ENDBRANCH  35  37
ENDBRANCH  34  35
ENDBRANCH  33  34
ENDBRANCH  32  33
ENDBRANCH   1  32
TORSDOF 21
