REMARK SMILES C[C@]12CC/C(=N\OCC(=O)OCCOC(=O)c3ccc(-c4c5nc(c(-c6cc(S(=O)(=O)[O-])ccc6F)c6ccc([nH]6)c(-c6cc(S(=O)(=O)[O-])ccc6F)c6nc(c(-c7cc(S(=O)(=O)[O-])ccc7F)c7ccc4[nH]7)C=C6)C=C5)cc3)C=C1CC[C@@H]1[C@@H]2CC[C@@]2(C)[C@H]1CC[C@]2(C)O
REMARK SMILES IDX 12 1 11 2 9 3 10 4 8 5 7 6 6 7 94 8 93 9 92 10 88 11 91 12
REMARK SMILES IDX 90 13 87 14 89 15 84 16 86 17 83 18 85 19 82 20 2 21 81 22
REMARK SMILES IDX 3 23 1 24 80 25 4 26 5 27 95 28 13 30 14 31 15 32 16 33
REMARK SMILES IDX 17 34 18 35 79 36 19 37 78 38 20 39 21 40 22 41 72 42 23 43
REMARK SMILES IDX 77 44 71 45 73 46 24 47 76 48 70 49 69 50 25 52 57 53 37 54
REMARK SMILES IDX 56 55 38 56 41 57 55 58 74 59 39 60 40 61 54 63 75 64 42 65
REMARK SMILES IDX 26 66 27 67 35 68 28 69 34 70 36 71 33 72 29 73 30 74 31 75
REMARK SMILES IDX 32 76 58 77 59 78 67 79 60 80 66 81 68 82 65 83 61 84 62 85
REMARK SMILES IDX 63 86 64 87 43 88 44 89 52 90 45 91 51 92 53 93 50 94 46 95
REMARK SMILES IDX 47 96 48 97 49 98
REMARK H PARENT 95 29 73 51 41 62
REMARK Flexibility Score: inf
ROOT
ATOM      1  C   UNL     1       3.474  -1.630   8.095  1.00  0.00     0.274 C 
ENDROOT
BRANCH   1   2
ATOM      2  O   UNL     1       4.345  -0.599   7.597  1.00  0.00    -0.459 OA
BRANCH   2   3
ATOM      3  C   UNL     1       5.672  -0.778   7.847  1.00  0.00     0.347 C 
ATOM      4  O   UNL     1       6.133  -1.632   8.598  1.00  0.00    -0.248 OA
BRANCH   3   5
ATOM      5  C   UNL     1       6.540   0.252   7.144  1.00  0.00     0.386 C 
BRANCH   5   6
ATOM      6  O   UNL     1       5.960   0.931   6.046  1.00  0.00    -0.384 OA
BRANCH   6   7
ATOM      7  N   UNL     1       5.949   0.104   4.908  1.00  0.00    -0.091 NA
ATOM      8  C   UNL     1      -0.953   0.727  -0.019  1.00  0.00     0.042 C 
ATOM      9  C   UNL     1      -0.485   1.627  -1.185  1.00  0.00     0.068 C 
ATOM     10  C   UNL     1      -0.109   0.749  -2.423  1.00  0.00     0.036 C 
ATOM     11  C   UNL     1       0.836   2.429  -0.933  1.00  0.00    -0.001 C 
ATOM     12  C   UNL     1       1.440   0.698  -2.475  1.00  0.00     0.007 C 
ATOM     13  C   UNL     1       1.837   1.262  -1.117  1.00  0.00     0.001 C 
ATOM     14  C   UNL     1       1.019   3.094   0.440  1.00  0.00     0.010 C 
ATOM     15  C   UNL     1       0.966   3.561  -1.997  1.00  0.00     0.015 C 
ATOM     16  C   UNL     1       3.311   1.494  -0.739  1.00  0.00    -0.003 C 
ATOM     17  C   UNL     1       2.501   3.418   0.705  1.00  0.00     0.005 C 
ATOM     18  C   UNL     1       4.044   0.131  -0.747  1.00  0.00     0.008 C 
ATOM     19  C   UNL     1       3.318   2.107   0.693  1.00  0.00     0.002 C 
ATOM     20  C   UNL     1       5.358   0.082   0.032  1.00  0.00     0.032 C 
ATOM     21  C   UNL     1       4.722   2.181   1.375  1.00  0.00    -0.008 C 
ATOM     22  C   UNL     1       5.278   0.754   1.388  1.00  0.00    -0.062 C 
ATOM     23  C   UNL     1       4.514   2.716   2.820  1.00  0.00     0.018 C 
ATOM     24  C   UNL     1       5.704   3.107   0.633  1.00  0.00     0.016 C 
ATOM     25  C   UNL     1       5.661   0.105   2.505  1.00  0.00     0.027 C 
ATOM     26  C   UNL     1       5.593   2.305   3.800  1.00  0.00     0.061 C 
ATOM     27  C   UNL     1       5.718   0.796   3.826  1.00  0.00     0.080 C 
BRANCH   9  28
ATOM     28  O   UNL     1      -1.571   2.494  -1.495  1.00  0.00    -0.390 OA
ATOM     29  H   UNL     1      -2.372   1.969  -1.645  1.00  0.00     0.211 HD
ENDBRANCH   9  28
ENDBRANCH   6   7
ENDBRANCH   5   6
ENDBRANCH   3   5
ENDBRANCH   2   3
ENDBRANCH   1   2
BRANCH   1  30
ATOM     30  C   UNL     1       3.211  -2.661   7.000  1.00  0.00     0.275 C 
BRANCH  30  31
ATOM     31  O   UNL     1       4.452  -3.276   6.619  1.00  0.00    -0.458 OA
BRANCH  31  32
ATOM     32  C   UNL     1       4.677  -3.380   5.292  1.00  0.00     0.338 C 
ATOM     33  O   UNL     1       3.912  -3.092   4.381  1.00  0.00    -0.246 OA
BRANCH  32  34
ATOM     34  C   UNL     1       5.986  -4.016   5.086  1.00  0.00     0.060 A 
ATOM     35  C   UNL     1       7.168  -3.331   5.381  1.00  0.00     0.016 A 
ATOM     36  C   UNL     1       6.029  -5.297   4.535  1.00  0.00     0.016 A 
ATOM     37  C   UNL     1       8.402  -3.922   5.101  1.00  0.00     0.010 A 
ATOM     38  C   UNL     1       7.263  -5.901   4.290  1.00  0.00     0.010 A 
ATOM     39  C   UNL     1       8.461  -5.211   4.549  1.00  0.00    -0.014 A 
BRANCH  39  40
ATOM     40  C   UNL     1       9.761  -5.824   4.167  1.00  0.00     0.031 A 
ATOM     41  C   UNL     1      10.089  -6.013   2.709  1.00  0.00     0.074 A 
ATOM     42  C   UNL     1      10.634  -6.225   5.111  1.00  0.00     0.049 A 
ATOM     43  N   UNL     1      11.090  -6.650   2.157  1.00  0.00    -0.248 NA
ATOM     44  C   UNL     1       9.156  -5.407   1.747  1.00  0.00     0.031 C 
ATOM     45  C   UNL     1      10.454  -6.059   6.553  1.00  0.00     0.029 A 
ATOM     46  N   UNL     1      11.843  -6.866   4.998  1.00  0.00    -0.354 N 
ATOM     47  C   UNL     1      10.905  -6.530   0.783  1.00  0.00     0.074 A 
ATOM     48  C   UNL     1       9.672  -5.794   0.590  1.00  0.00     0.031 C 
ATOM     49  C   UNL     1      11.514  -6.583   7.190  1.00  0.00     0.029 A 
ATOM     50  C   UNL     1      12.420  -7.174   6.208  1.00  0.00     0.049 A 
ATOM     51  H   UNL     1      12.258  -7.085   4.132  1.00  0.00     0.167 HD
ATOM     52  C   UNL     1      11.695  -6.982  -0.223  1.00  0.00     0.034 A 
ATOM     53  C   UNL     1      13.533  -7.881   6.494  1.00  0.00     0.034 A 
ATOM     54  C   UNL     1      12.917  -7.723  -0.017  1.00  0.00     0.049 A 
ATOM     55  C   UNL     1      14.345  -8.456   5.358  1.00  0.00     0.074 A 
ATOM     56  C   UNL     1      13.780  -8.248  -0.964  1.00  0.00     0.029 A 
ATOM     57  N   UNL     1      13.452  -8.043   1.224  1.00  0.00    -0.354 N 
ATOM     58  N   UNL     1      14.140  -8.364   4.064  1.00  0.00    -0.248 NA
ATOM     59  C   UNL     1      15.540  -9.229   5.723  1.00  0.00     0.031 C 
ATOM     60  C   UNL     1      14.805  -8.930  -0.297  1.00  0.00     0.029 A 
ATOM     61  C   UNL     1      14.621  -8.772   1.067  1.00  0.00     0.049 A 
ATOM     62  H   UNL     1      13.058  -7.789   2.090  1.00  0.00     0.167 HD
ATOM     63  C   UNL     1      15.201  -9.039   3.464  1.00  0.00     0.074 A 
ATOM     64  C   UNL     1      16.049  -9.517   4.535  1.00  0.00     0.031 C 
ATOM     65  C   UNL     1      15.456  -9.243   2.146  1.00  0.00     0.034 A 
BRANCH  52  66
ATOM     66  C   UNL     1      11.232  -6.720  -1.636  1.00  0.00     0.023 A 
ATOM     67  C   UNL     1      11.141  -5.414  -2.151  1.00  0.00     0.031 A 
ATOM     68  C   UNL     1      10.853  -7.785  -2.472  1.00  0.00     0.131 A 
ATOM     69  C   UNL     1      10.622  -5.203  -3.437  1.00  0.00     0.055 A 
ATOM     70  C   UNL     1      10.409  -7.573  -3.779  1.00  0.00     0.041 A 
ATOM     71  F   UNL     1      10.897  -9.051  -2.028  1.00  0.00    -0.206 F 
ATOM     72  C   UNL     1      10.279  -6.275  -4.264  1.00  0.00     0.022 A 
BRANCH  69  73
ATOM     73  S   UNL     1      10.281  -3.502  -3.968  1.00  0.00     0.124 S 
ATOM     74  O   UNL     1       9.304  -3.071  -2.971  1.00  0.00    -0.237 OA
ATOM     75  O   UNL     1      11.595  -2.876  -3.888  1.00  0.00    -0.237 OA
ATOM     76  O   UNL     1       9.750  -3.665  -5.320  1.00  0.00    -0.744 OA
ENDBRANCH  69  73
ENDBRANCH  52  66
BRANCH  53  77
ATOM     77  C   UNL     1      13.933  -8.137   7.908  1.00  0.00     0.023 A 
ATOM     78  C   UNL     1      15.159  -7.669   8.409  1.00  0.00     0.031 A 
ATOM     79  C   UNL     1      13.133  -8.922   8.757  1.00  0.00     0.131 A 
ATOM     80  C   UNL     1      15.576  -8.039   9.697  1.00  0.00     0.055 A 
ATOM     81  C   UNL     1      13.525  -9.237  10.060  1.00  0.00     0.041 A 
ATOM     82  F   UNL     1      11.953  -9.401   8.329  1.00  0.00    -0.206 F 
ATOM     83  C   UNL     1      14.762  -8.808  10.530  1.00  0.00     0.022 A 
BRANCH  80  84
ATOM     84  S   UNL     1      17.255  -7.597  10.224  1.00  0.00     0.124 S 
ATOM     85  O   UNL     1      18.065  -8.184   9.163  1.00  0.00    -0.237 OA
ATOM     86  O   UNL     1      17.189  -6.140  10.250  1.00  0.00    -0.237 OA
ATOM     87  O   UNL     1      17.380  -8.237  11.532  1.00  0.00    -0.744 OA
ENDBRANCH  80  84
ENDBRANCH  53  77
BRANCH  65  88
ATOM     88  C   UNL     1      16.735  -9.965   1.802  1.00  0.00     0.023 A 
ATOM     89  C   UNL     1      16.929 -11.322   2.114  1.00  0.00     0.031 A 
ATOM     90  C   UNL     1      17.787  -9.273   1.174  1.00  0.00     0.131 A 
ATOM     91  C   UNL     1      18.167 -11.929   1.852  1.00  0.00     0.055 A 
ATOM     92  C   UNL     1      18.996  -9.898   0.865  1.00  0.00     0.041 A 
ATOM     93  F   UNL     1      17.656  -7.976   0.853  1.00  0.00    -0.206 F 
ATOM     94  C   UNL     1      19.197 -11.229   1.217  1.00  0.00     0.022 A 
BRANCH  91  95
ATOM     95  S   UNL     1      18.448 -13.624   2.436  1.00  0.00     0.124 S 
ATOM     96  O   UNL     1      18.230 -13.492   3.873  1.00  0.00    -0.237 OA
ATOM     97  O   UNL     1      17.436 -14.378   1.704  1.00  0.00    -0.237 OA
ATOM     98  O   UNL     1      19.829 -13.898   2.041  1.00  0.00    -0.744 OA
ENDBRANCH  91  95
ENDBRANCH  65  88
ENDBRANCH  39  40
ENDBRANCH  32  34
ENDBRANCH  31  32
ENDBRANCH  30  31
ENDBRANCH   1  30
TORSDOF 17
