REMARK SMILES C=CCOc1ccccc1/C=C1\SC(=S)N(CC(=O)OCCOC(=O)c2ccc(-c3c4nc(c(-c5cc(S(=O)(=O)[O-])ccc5F)c5ccc([nH]5)c(-c5cc(S(=O)(=O)[O-])ccc5F)c5nc(c(-c6cc(S(=O)(=O)[O-])ccc6F)c6ccc3[nH]6)C=C5)C=C4)cc2)C1=O
REMARK SMILES IDX 21 1 20 2 18 3 19 4 17 5 16 6 11 7 12 8 13 9 89 10 14 11
REMARK SMILES IDX 90 12 15 13 10 14 5 15 6 16 7 17 9 18 8 19 4 20 3 21 2 22
REMARK SMILES IDX 1 23 22 24 23 25 24 26 25 27 26 28 27 29 88 30 28 31 87 32
REMARK SMILES IDX 29 33 30 34 31 35 81 36 32 37 86 38 80 39 82 40 33 41 85 42
REMARK SMILES IDX 79 43 78 44 34 46 66 47 46 48 65 49 47 50 50 51 64 52 83 53
REMARK SMILES IDX 48 54 49 55 63 57 84 58 51 59 35 60 36 61 44 62 37 63 43 64
REMARK SMILES IDX 45 65 42 66 38 67 39 68 40 69 41 70 67 71 68 72 76 73 69 74
REMARK SMILES IDX 75 75 77 76 74 77 70 78 71 79 72 80 73 81 52 82 53 83 61 84
REMARK SMILES IDX 54 85 60 86 62 87 59 88 55 89 56 90 57 91 58 92
REMARK H PARENT 82 45 50 56
REMARK Flexibility Score: inf
ROOT
ATOM      1  C   UNL     1       6.160  -3.478  -2.878  1.00  0.00     0.274 C 
ENDROOT
BRANCH   1   2
ATOM      2  O   UNL     1       4.736  -3.579  -3.072  1.00  0.00    -0.461 OA
BRANCH   2   3
ATOM      3  C   UNL     1       4.147  -4.667  -2.501  1.00  0.00     0.326 C 
ATOM      4  O   UNL     1       4.752  -5.617  -2.015  1.00  0.00    -0.250 OA
BRANCH   3   5
ATOM      5  C   UNL     1       2.627  -4.596  -2.508  1.00  0.00     0.250 C 
BRANCH   5   6
ATOM      6  N   UNL     1       2.072  -3.371  -3.077  1.00  0.00    -0.282 N 
ATOM      7  C   UNL     1       1.164   0.042  -2.356  1.00  0.00     0.033 C 
ATOM      8  C   UNL     1       1.378  -1.126  -2.973  1.00  0.00     0.081 C 
ATOM      9  S   UNL     1       0.822  -1.641  -4.514  1.00  0.00    -0.054 SA
ATOM     10  C   UNL     1       2.078  -2.237  -2.286  1.00  0.00     0.266 C 
ATOM     11  C   UNL     1       1.502  -3.252  -4.322  1.00  0.00     0.148 C 
ATOM     12  O   UNL     1       2.547  -2.172  -1.159  1.00  0.00    -0.268 OA
ATOM     13  S   UNL     1       1.416  -4.405  -5.524  1.00  0.00    -0.052 S 
BRANCH   7  14
ATOM     14  C   UNL     1       0.159   1.027  -2.771  1.00  0.00     0.018 A 
ATOM     15  C   UNL     1      -1.210   0.755  -2.592  1.00  0.00     0.127 A 
ATOM     16  C   UNL     1      -2.179   1.670  -3.004  1.00  0.00     0.047 A 
ATOM     17  C   UNL     1      -1.786   2.894  -3.541  1.00  0.00     0.004 A 
ATOM     18  C   UNL     1       0.544   2.264  -3.295  1.00  0.00     0.012 A 
ATOM     19  C   UNL     1      -0.428   3.195  -3.675  1.00  0.00     0.001 A 
BRANCH  15  20
ATOM     20  O   UNL     1      -1.621  -0.446  -2.062  1.00  0.00    -0.489 OA
BRANCH  20  21
ATOM     21  C   UNL     1      -1.883  -0.338  -0.651  1.00  0.00     0.257 C 
BRANCH  21  22
ATOM     22  C   UNL     1      -0.720  -0.887   0.121  1.00  0.00     0.006 C 
ATOM     23  C   UNL     1       0.001  -0.184   1.006  1.00  0.00     0.007 C 
ENDBRANCH  21  22
ENDBRANCH  20  21
ENDBRANCH  15  20
ENDBRANCH   7  14
ENDBRANCH   5   6
ENDBRANCH   3   5
ENDBRANCH   2   3
ENDBRANCH   1   2
BRANCH   1  24
ATOM     24  C   UNL     1       6.457  -2.530  -1.720  1.00  0.00     0.275 C 
BRANCH  24  25
ATOM     25  O   UNL     1       5.781  -2.993  -0.540  1.00  0.00    -0.458 OA
BRANCH  25  26
ATOM     26  C   UNL     1       5.226  -2.021   0.225  1.00  0.00     0.338 C 
ATOM     27  O   UNL     1       5.291  -0.818   0.034  1.00  0.00    -0.246 OA
BRANCH  26  28
ATOM     28  C   UNL     1       4.642  -2.632   1.438  1.00  0.00     0.060 A 
ATOM     29  C   UNL     1       3.845  -3.782   1.388  1.00  0.00     0.016 A 
ATOM     30  C   UNL     1       4.907  -2.017   2.660  1.00  0.00     0.016 A 
ATOM     31  C   UNL     1       3.296  -4.306   2.563  1.00  0.00     0.010 A 
ATOM     32  C   UNL     1       4.411  -2.577   3.836  1.00  0.00     0.010 A 
ATOM     33  C   UNL     1       3.593  -3.720   3.801  1.00  0.00    -0.014 A 
BRANCH  33  34
ATOM     34  C   UNL     1       3.074  -4.257   5.088  1.00  0.00     0.031 A 
ATOM     35  C   UNL     1       2.197  -3.391   5.947  1.00  0.00     0.074 A 
ATOM     36  C   UNL     1       3.493  -5.452   5.544  1.00  0.00     0.049 A 
ATOM     37  N   UNL     1       1.888  -3.511   7.212  1.00  0.00    -0.248 NA
ATOM     38  C   UNL     1       1.617  -2.211   5.291  1.00  0.00     0.031 C 
ATOM     39  C   UNL     1       4.326  -6.397   4.801  1.00  0.00     0.029 A 
ATOM     40  N   UNL     1       3.316  -6.052   6.768  1.00  0.00    -0.354 N 
ATOM     41  C   UNL     1       1.116  -2.396   7.521  1.00  0.00     0.074 A 
ATOM     42  C   UNL     1       1.026  -1.605   6.310  1.00  0.00     0.031 C 
ATOM     43  C   UNL     1       4.617  -7.441   5.593  1.00  0.00     0.029 A 
ATOM     44  C   UNL     1       4.055  -7.203   6.919  1.00  0.00     0.049 A 
ATOM     45  H   UNL     1       2.720  -5.695   7.466  1.00  0.00     0.167 HD
ATOM     46  C   UNL     1       0.543  -2.066   8.706  1.00  0.00     0.034 A 
ATOM     47  C   UNL     1       4.312  -7.947   8.014  1.00  0.00     0.034 A 
ATOM     48  C   UNL     1       0.644  -2.878   9.897  1.00  0.00     0.049 A 
ATOM     49  C   UNL     1       3.718  -7.541   9.336  1.00  0.00     0.074 A 
ATOM     50  C   UNL     1       0.062  -2.671  11.136  1.00  0.00     0.029 A 
ATOM     51  N   UNL     1       1.388  -4.048  10.003  1.00  0.00    -0.354 N 
ATOM     52  N   UNL     1       2.989  -6.487   9.625  1.00  0.00    -0.248 NA
ATOM     53  C   UNL     1       3.982  -8.422  10.481  1.00  0.00     0.031 C 
ATOM     54  C   UNL     1       0.512  -3.669  12.007  1.00  0.00     0.029 A 
ATOM     55  C   UNL     1       1.309  -4.551  11.294  1.00  0.00     0.049 A 
ATOM     56  H   UNL     1       1.897  -4.460   9.268  1.00  0.00     0.167 HD
ATOM     57  C   UNL     1       2.684  -6.595  10.979  1.00  0.00     0.074 A 
ATOM     58  C   UNL     1       3.307  -7.816  11.448  1.00  0.00     0.031 C 
ATOM     59  C   UNL     1       1.945  -5.763  11.758  1.00  0.00     0.034 A 
BRANCH  46  60
ATOM     60  C   UNL     1      -0.181  -0.741   8.781  1.00  0.00     0.023 A 
ATOM     61  C   UNL     1      -1.300  -0.454   7.978  1.00  0.00     0.031 A 
ATOM     62  C   UNL     1       0.291   0.276   9.632  1.00  0.00     0.131 A 
ATOM     63  C   UNL     1      -1.845   0.839   7.971  1.00  0.00     0.055 A 
ATOM     64  C   UNL     1      -0.315   1.533   9.688  1.00  0.00     0.041 A 
ATOM     65  F   UNL     1       1.367   0.073  10.409  1.00  0.00    -0.206 F 
ATOM     66  C   UNL     1      -1.377   1.827   8.839  1.00  0.00     0.022 A 
BRANCH  63  67
ATOM     67  S   UNL     1      -3.055   1.260   6.685  1.00  0.00     0.124 S 
ATOM     68  O   UNL     1      -2.324   0.920   5.466  1.00  0.00    -0.237 OA
ATOM     69  O   UNL     1      -4.181   0.396   7.016  1.00  0.00    -0.237 OA
ATOM     70  O   UNL     1      -3.284   2.690   6.884  1.00  0.00    -0.744 OA
ENDBRANCH  63  67
ENDBRANCH  46  60
BRANCH  47  71
ATOM     71  C   UNL     1       5.236  -9.111   7.911  1.00  0.00     0.023 A 
ATOM     72  C   UNL     1       4.771 -10.425   8.060  1.00  0.00     0.031 A 
ATOM     73  C   UNL     1       6.606  -8.918   7.650  1.00  0.00     0.131 A 
ATOM     74  C   UNL     1       5.672 -11.498   7.967  1.00  0.00     0.055 A 
ATOM     75  C   UNL     1       7.489  -9.989   7.513  1.00  0.00     0.041 A 
ATOM     76  F   UNL     1       7.099  -7.679   7.495  1.00  0.00    -0.206 F 
ATOM     77  C   UNL     1       7.023 -11.290   7.679  1.00  0.00     0.022 A 
BRANCH  74  78
ATOM     78  S   UNL     1       5.058 -13.177   8.271  1.00  0.00     0.124 S 
ATOM     79  O   UNL     1       4.599 -13.080   9.652  1.00  0.00    -0.237 OA
ATOM     80  O   UNL     1       4.018 -13.309   7.257  1.00  0.00    -0.237 OA
ATOM     81  O   UNL     1       6.238 -14.014   8.061  1.00  0.00    -0.744 OA
ENDBRANCH  74  78
ENDBRANCH  47  71
BRANCH  59  82
ATOM     82  C   UNL     1       1.719  -6.180  13.191  1.00  0.00     0.023 A 
ATOM     83  C   UNL     1       2.755  -6.186  14.141  1.00  0.00     0.031 A 
ATOM     84  C   UNL     1       0.433  -6.566  13.612  1.00  0.00     0.131 A 
ATOM     85  C   UNL     1       2.494  -6.606  15.455  1.00  0.00     0.055 A 
ATOM     86  C   UNL     1       0.168  -6.932  14.932  1.00  0.00     0.041 A 
ATOM     87  F   UNL     1      -0.593  -6.582  12.745  1.00  0.00    -0.206 F 
ATOM     88  C   UNL     1       1.204  -6.962  15.860  1.00  0.00     0.022 A 
BRANCH  85  89
ATOM     89  S   UNL     1       3.877  -6.747  16.622  1.00  0.00     0.124 S 
ATOM     90  O   UNL     1       4.727  -7.735  15.966  1.00  0.00    -0.237 OA
ATOM     91  O   UNL     1       4.395  -5.384  16.661  1.00  0.00    -0.237 OA
ATOM     92  O   UNL     1       3.239  -7.202  17.857  1.00  0.00    -0.744 OA
ENDBRANCH  85  89
ENDBRANCH  59  82
ENDBRANCH  33  34
ENDBRANCH  26  28
ENDBRANCH  25  26
ENDBRANCH  24  25
ENDBRANCH   1  24
TORSDOF 19
