REMARK SMILES C[C@@H](Oc1cncc(C(=O)OCCOC(=O)c2ccc(-c3c4nc(c(-c5cc(S(=O)(=O)[O-])ccc5F)c5ccc([nH]5)c(-c5cc(S(=O)(=O)[O-])ccc5F)c5nc(c(-c6cc(S(=O)(=O)[O-])ccc6F)c6ccc3[nH]6)C=C5)C=C4)cc2)n1)C(F)(F)F
REMARK SMILES IDX 12 1 11 2 9 3 10 4 8 5 4 6 5 7 80 8 6 9 7 10 3 11 2 12 1 13
REMARK SMILES IDX 81 14 82 15 83 16 84 17 13 18 14 19 15 20 16 21 17 22 18 23
REMARK SMILES IDX 79 24 19 25 78 26 20 27 21 28 22 29 72 30 23 31 77 32 71 33
REMARK SMILES IDX 73 34 24 35 76 36 70 37 69 38 25 40 57 41 37 42 56 43 38 44
REMARK SMILES IDX 41 45 55 46 74 47 39 48 40 49 54 51 75 52 42 53 26 54 27 55
REMARK SMILES IDX 35 56 28 57 34 58 36 59 33 60 29 61 30 62 31 63 32 64 58 65
REMARK SMILES IDX 59 66 67 67 60 68 66 69 68 70 65 71 61 72 62 73 63 74 64 75
REMARK SMILES IDX 43 76 44 77 52 78 45 79 51 80 53 81 50 82 46 83 47 84 48 85
REMARK SMILES IDX 49 86
REMARK H PARENT 73 39 41 50
REMARK Flexibility Score: inf
ROOT
ATOM      1  C   UNL     1       4.219  -2.827  -6.635  1.00  0.00     0.275 C 
ENDROOT
BRANCH   1   2
ATOM      2  O   UNL     1       3.695  -2.259  -5.414  1.00  0.00    -0.457 OA
BRANCH   2   3
ATOM      3  C   UNL     1       4.126  -2.863  -4.277  1.00  0.00     0.358 C 
ATOM      4  O   UNL     1       4.909  -3.802  -4.225  1.00  0.00    -0.244 OA
BRANCH   3   5
ATOM      5  C   UNL     1       3.606  -2.228  -3.043  1.00  0.00     0.170 A 
ATOM      6  C   UNL     1       1.904  -1.502  -1.708  1.00  0.00     0.233 A 
ATOM      7  C   UNL     1       2.765  -1.503  -0.613  1.00  0.00     0.179 A 
ATOM      8  N   UNL     1       2.295  -1.861  -2.955  1.00  0.00    -0.203 NA
ATOM      9  N   UNL     1       4.072  -1.808  -0.714  1.00  0.00    -0.257 NA
ATOM     10  C   UNL     1       4.463  -2.197  -1.946  1.00  0.00     0.147 A 
BRANCH   6  11
ATOM     11  O   UNL     1       0.555  -1.360  -1.506  1.00  0.00    -0.464 OA
BRANCH  11  12
ATOM     12  C   UNL     1       0.145   0.013  -1.342  1.00  0.00     0.277 C 
ATOM     13  C   UNL     1       0.348   0.474   0.105  1.00  0.00     0.063 C 
BRANCH  12  14
ATOM     14  C   UNL     1      -1.344   0.108  -1.686  1.00  0.00     0.425 C 
ATOM     15  F   UNL     1      -1.794   1.379  -1.548  1.00  0.00    -0.167 F 
ATOM     16  F   UNL     1      -1.594  -0.263  -2.961  1.00  0.00    -0.167 F 
ATOM     17  F   UNL     1      -2.097  -0.671  -0.874  1.00  0.00    -0.167 F 
ENDBRANCH  12  14
ENDBRANCH  11  12
ENDBRANCH   6  11
ENDBRANCH   3   5
ENDBRANCH   2   3
ENDBRANCH   1   2
BRANCH   1  18
ATOM     18  C   UNL     1       5.420  -2.043  -7.167  1.00  0.00     0.275 C 
BRANCH  18  19
ATOM     19  O   UNL     1       6.515  -2.090  -6.233  1.00  0.00    -0.458 OA
BRANCH  19  20
ATOM     20  C   UNL     1       6.905  -0.896  -5.732  1.00  0.00     0.338 C 
ATOM     21  O   UNL     1       6.446   0.204  -6.014  1.00  0.00    -0.246 OA
BRANCH  20  22
ATOM     22  C   UNL     1       7.970  -1.069  -4.729  1.00  0.00     0.060 A 
ATOM     23  C   UNL     1       7.735  -1.861  -3.612  1.00  0.00     0.016 A 
ATOM     24  C   UNL     1       9.131  -0.301  -4.800  1.00  0.00     0.016 A 
ATOM     25  C   UNL     1       8.573  -1.772  -2.501  1.00  0.00     0.010 A 
ATOM     26  C   UNL     1      10.045  -0.325  -3.737  1.00  0.00     0.010 A 
ATOM     27  C   UNL     1       9.754  -1.014  -2.545  1.00  0.00    -0.014 A 
BRANCH  27  28
ATOM     28  C   UNL     1      10.646  -0.903  -1.344  1.00  0.00     0.031 A 
ATOM     29  C   UNL     1      11.055   0.456  -0.819  1.00  0.00     0.074 A 
ATOM     30  C   UNL     1      11.087  -2.005  -0.700  1.00  0.00     0.049 A 
ATOM     31  N   UNL     1      11.980   0.768   0.055  1.00  0.00    -0.248 NA
ATOM     32  C   UNL     1      10.343   1.619  -1.369  1.00  0.00     0.031 C 
ATOM     33  C   UNL     1      10.748  -3.387  -1.048  1.00  0.00     0.029 A 
ATOM     34  N   UNL     1      11.908  -2.140   0.396  1.00  0.00    -0.354 N 
ATOM     35  C   UNL     1      12.014   2.160   0.102  1.00  0.00     0.074 A 
ATOM     36  C   UNL     1      11.017   2.629  -0.838  1.00  0.00     0.031 C 
ATOM     37  C   UNL     1      11.301  -4.219  -0.154  1.00  0.00     0.029 A 
ATOM     38  C   UNL     1      12.133  -3.449   0.761  1.00  0.00     0.049 A 
ATOM     39  H   UNL     1      12.298  -1.373   0.874  1.00  0.00     0.167 HD
ATOM     40  C   UNL     1      12.804   2.969   0.854  1.00  0.00     0.034 A 
ATOM     41  C   UNL     1      12.956  -3.985   1.685  1.00  0.00     0.034 A 
ATOM     42  C   UNL     1      13.745   2.489   1.840  1.00  0.00     0.049 A 
ATOM     43  C   UNL     1      13.837  -3.072   2.495  1.00  0.00     0.074 A 
ATOM     44  C   UNL     1      14.578   3.223   2.668  1.00  0.00     0.029 A 
ATOM     45  N   UNL     1      13.964   1.152   2.148  1.00  0.00    -0.354 N 
ATOM     46  N   UNL     1      13.926  -1.764   2.457  1.00  0.00    -0.248 NA
ATOM     47  C   UNL     1      14.743  -3.712   3.457  1.00  0.00     0.031 C 
ATOM     48  C   UNL     1      15.337   2.332   3.436  1.00  0.00     0.029 A 
ATOM     49  C   UNL     1      14.931   1.042   3.138  1.00  0.00     0.049 A 
ATOM     50  H   UNL     1      13.501   0.393   1.726  1.00  0.00     0.167 HD
ATOM     51  C   UNL     1      14.898  -1.425   3.393  1.00  0.00     0.074 A 
ATOM     52  C   UNL     1      15.343  -2.663   3.999  1.00  0.00     0.031 C 
ATOM     53  C   UNL     1      15.382  -0.200   3.719  1.00  0.00     0.034 A 
BRANCH  40  54
ATOM     54  C   UNL     1      12.731   4.457   0.594  1.00  0.00     0.023 A 
ATOM     55  C   UNL     1      11.574   5.212   0.852  1.00  0.00     0.031 A 
ATOM     56  C   UNL     1      13.844   5.127   0.052  1.00  0.00     0.131 A 
ATOM     57  C   UNL     1      11.534   6.572   0.503  1.00  0.00     0.055 A 
ATOM     58  C   UNL     1      13.824   6.496  -0.220  1.00  0.00     0.041 A 
ATOM     59  F   UNL     1      14.972   4.457  -0.234  1.00  0.00    -0.206 F 
ATOM     60  C   UNL     1      12.658   7.225  -0.009  1.00  0.00     0.022 A 
BRANCH  57  61
ATOM     61  S   UNL     1       9.946   7.446   0.595  1.00  0.00     0.124 S 
ATOM     62  O   UNL     1       9.113   6.642  -0.296  1.00  0.00    -0.237 OA
ATOM     63  O   UNL     1       9.624   7.367   2.015  1.00  0.00    -0.237 OA
ATOM     64  O   UNL     1      10.262   8.785   0.100  1.00  0.00    -0.744 OA
ENDBRANCH  57  61
ENDBRANCH  40  54
BRANCH  41  65
ATOM     65  C   UNL     1      13.051  -5.466   1.837  1.00  0.00     0.023 A 
ATOM     66  C   UNL     1      12.668  -6.102   3.028  1.00  0.00     0.031 A 
ATOM     67  C   UNL     1      13.553  -6.266   0.794  1.00  0.00     0.131 A 
ATOM     68  C   UNL     1      12.819  -7.492   3.156  1.00  0.00     0.055 A 
ATOM     69  C   UNL     1      13.648  -7.653   0.906  1.00  0.00     0.041 A 
ATOM     70  F   UNL     1      13.938  -5.708  -0.365  1.00  0.00    -0.206 F 
ATOM     71  C   UNL     1      13.289  -8.273   2.097  1.00  0.00     0.022 A 
BRANCH  68  72
ATOM     72  S   UNL     1      12.459  -8.263   4.758  1.00  0.00     0.124 S 
ATOM     73  O   UNL     1      13.384  -7.562   5.641  1.00  0.00    -0.237 OA
ATOM     74  O   UNL     1      11.044  -7.951   4.934  1.00  0.00    -0.237 OA
ATOM     75  O   UNL     1      12.759  -9.675   4.532  1.00  0.00    -0.744 OA
ENDBRANCH  68  72
ENDBRANCH  41  65
BRANCH  53  76
ATOM     76  C   UNL     1      16.426  -0.152   4.806  1.00  0.00     0.023 A 
ATOM     77  C   UNL     1      17.720  -0.665   4.607  1.00  0.00     0.031 A 
ATOM     78  C   UNL     1      16.109   0.383   6.066  1.00  0.00     0.131 A 
ATOM     79  C   UNL     1      18.633  -0.685   5.672  1.00  0.00     0.055 A 
ATOM     80  C   UNL     1      17.039   0.408   7.107  1.00  0.00     0.041 A 
ATOM     81  F   UNL     1      14.887   0.882   6.309  1.00  0.00    -0.206 F 
ATOM     82  C   UNL     1      18.305  -0.140   6.916  1.00  0.00     0.022 A 
BRANCH  79  83
ATOM     83  S   UNL     1      20.229  -1.514   5.437  1.00  0.00     0.124 S 
ATOM     84  O   UNL     1      19.818  -2.872   5.094  1.00  0.00    -0.237 OA
ATOM     85  O   UNL     1      20.829  -0.738   4.357  1.00  0.00    -0.237 OA
ATOM     86  O   UNL     1      20.883  -1.375   6.736  1.00  0.00    -0.744 OA
ENDBRANCH  79  83
ENDBRANCH  53  76
ENDBRANCH  27  28
ENDBRANCH  20  22
ENDBRANCH  19  20
ENDBRANCH  18  19
ENDBRANCH   1  18
TORSDOF 17
