REMARK SMILES NC(=O)CC[C@@H](C(=O)OCCOC(=O)c1ccc(-c2c3nc(c(-c4cc(S(=O)(=O)[O-])ccc4F)c4ccc([nH]4)c(-c4cc(S(=O)(=O)[O-])ccc4F)c4nc(c(-c5cc(S(=O)(=O)[O-])ccc5F)c5ccc2[nH]5)C=C4)C=C3)cc1)N1C(=O)/C(=C/c2ccc(C=O)cc2)SC1=S
REMARK SMILES IDX 10 1 9 2 7 3 8 4 6 5 5 6 4 7 2 8 1 9 3 12 78 13 79 14 92 15
REMARK SMILES IDX 80 16 81 17 91 18 93 19 82 20 83 21 84 22 90 23 85 24 89 25
REMARK SMILES IDX 86 26 87 27 88 28 11 29 12 30 13 31 14 32 15 33 16 34 77 35
REMARK SMILES IDX 17 36 76 37 18 38 19 39 20 40 70 41 21 42 75 43 69 44 71 45
REMARK SMILES IDX 22 46 74 47 68 48 67 49 23 51 55 52 35 53 54 54 36 55 39 56
REMARK SMILES IDX 53 57 72 58 37 59 38 60 52 62 73 63 40 64 24 65 25 66 33 67
REMARK SMILES IDX 26 68 32 69 34 70 31 71 27 72 28 73 29 74 30 75 56 76 57 77
REMARK SMILES IDX 65 78 58 79 64 80 66 81 63 82 59 83 60 84 61 85 62 86 41 87
REMARK SMILES IDX 42 88 50 89 43 90 49 91 51 92 48 93 44 94 45 95 46 96 47 97
REMARK H PARENT 1 10 1 11 71 50 39 61
REMARK Flexibility Score: inf
ROOT
ATOM      1  C   UNL     1       4.048   0.158   2.472  1.00  0.00     0.274 C 
ENDROOT
BRANCH   1   2
ATOM      2  O   UNL     1       3.140  -0.741   1.795  1.00  0.00    -0.461 OA
BRANCH   2   3
ATOM      3  C   UNL     1       3.412  -1.054   0.500  1.00  0.00     0.329 C 
ATOM      4  O   UNL     1       4.387  -0.614  -0.099  1.00  0.00    -0.250 OA
BRANCH   3   5
ATOM      5  C   UNL     1       2.323  -1.936  -0.163  1.00  0.00     0.202 C 
BRANCH   5   6
ATOM      6  C   UNL     1       1.232  -2.452   0.802  1.00  0.00     0.047 C 
BRANCH   6   7
ATOM      7  C   UNL     1       0.308  -1.424   1.464  1.00  0.00     0.102 C 
BRANCH   7   8
ATOM      8  C   UNL     1      -0.393  -0.531   0.478  1.00  0.00     0.217 C 
ATOM      9  N   UNL     1       0.245   0.642   0.209  1.00  0.00    -0.370 N 
ATOM     10  H   UNL     1      -0.148   1.282  -0.426  1.00  0.00     0.159 HD
ATOM     11  H   UNL     1       1.101   0.848   0.651  1.00  0.00     0.159 HD
ATOM     12  O   UNL     1      -1.443  -0.830  -0.075  1.00  0.00    -0.275 OA
ENDBRANCH   7   8
ENDBRANCH   6   7
ENDBRANCH   5   6
BRANCH   5  13
ATOM     13  N   UNL     1       2.972  -2.986  -1.028  1.00  0.00    -0.278 N 
ATOM     14  C   UNL     1       3.465  -2.560  -2.268  1.00  0.00     0.266 C 
ATOM     15  C   UNL     1       3.197  -4.323  -0.742  1.00  0.00     0.149 C 
ATOM     16  O   UNL     1       3.324  -1.441  -2.744  1.00  0.00    -0.268 OA
ATOM     17  C   UNL     1       4.197  -3.659  -2.964  1.00  0.00     0.081 C 
ATOM     18  S   UNL     1       3.946  -5.125  -2.115  1.00  0.00    -0.054 SA
ATOM     19  S   UNL     1       2.877  -5.220   0.625  1.00  0.00    -0.052 S 
ATOM     20  C   UNL     1       4.982  -3.485  -4.041  1.00  0.00     0.029 C 
BRANCH  20  21
ATOM     21  C   UNL     1       5.743  -4.557  -4.713  1.00  0.00    -0.024 A 
ATOM     22  C   UNL     1       7.141  -4.495  -4.787  1.00  0.00     0.009 A 
ATOM     23  C   UNL     1       5.086  -5.661  -5.277  1.00  0.00     0.009 A 
ATOM     24  C   UNL     1       7.869  -5.540  -5.371  1.00  0.00     0.012 A 
ATOM     25  C   UNL     1       5.810  -6.715  -5.843  1.00  0.00     0.012 A 
ATOM     26  C   UNL     1       7.203  -6.655  -5.881  1.00  0.00     0.014 A 
BRANCH  26  27
ATOM     27  C   UNL     1       7.959  -7.776  -6.474  1.00  0.00     0.260 C 
ATOM     28  O   UNL     1       9.133  -7.672  -6.798  1.00  0.00    -0.298 OA
ENDBRANCH  26  27
ENDBRANCH  20  21
ENDBRANCH   5  13
ENDBRANCH   3   5
ENDBRANCH   2   3
ENDBRANCH   1   2
BRANCH   1  29
ATOM     29  C   UNL     1       4.868  -0.581   3.528  1.00  0.00     0.275 C 
BRANCH  29  30
ATOM     30  O   UNL     1       5.829  -1.434   2.887  1.00  0.00    -0.458 OA
BRANCH  30  31
ATOM     31  C   UNL     1       5.484  -2.741   2.816  1.00  0.00     0.338 C 
ATOM     32  O   UNL     1       4.507  -3.274   3.305  1.00  0.00    -0.246 OA
BRANCH  31  33
ATOM     33  C   UNL     1       6.430  -3.408   1.911  1.00  0.00     0.060 A 
ATOM     34  C   UNL     1       6.231  -3.262   0.542  1.00  0.00     0.016 A 
ATOM     35  C   UNL     1       7.465  -4.207   2.392  1.00  0.00     0.016 A 
ATOM     36  C   UNL     1       7.027  -3.944  -0.360  1.00  0.00     0.010 A 
ATOM     37  C   UNL     1       8.312  -4.846   1.478  1.00  0.00     0.010 A 
ATOM     38  C   UNL     1       8.089  -4.728   0.095  1.00  0.00    -0.014 A 
BRANCH  38  39
ATOM     39  C   UNL     1       8.923  -5.426  -0.913  1.00  0.00     0.031 A 
ATOM     40  C   UNL     1       8.861  -6.919  -1.026  1.00  0.00     0.074 A 
ATOM     41  C   UNL     1       9.642  -4.697  -1.789  1.00  0.00     0.049 A 
ATOM     42  N   UNL     1       9.542  -7.717  -1.804  1.00  0.00    -0.248 NA
ATOM     43  C   UNL     1       7.910  -7.606  -0.140  1.00  0.00     0.031 C 
ATOM     44  C   UNL     1       9.674  -3.232  -1.832  1.00  0.00     0.029 A 
ATOM     45  N   UNL     1      10.428  -5.073  -2.846  1.00  0.00    -0.354 N 
ATOM     46  C   UNL     1       9.164  -9.007  -1.448  1.00  0.00     0.074 A 
ATOM     47  C   UNL     1       8.167  -8.878  -0.406  1.00  0.00     0.031 C 
ATOM     48  C   UNL     1      10.357  -2.839  -2.917  1.00  0.00     0.029 A 
ATOM     49  C   UNL     1      10.895  -4.014  -3.592  1.00  0.00     0.049 A 
ATOM     50  H   UNL     1      10.639  -6.012  -3.053  1.00  0.00     0.167 HD
ATOM     51  C   UNL     1       9.641 -10.182  -1.928  1.00  0.00     0.034 A 
ATOM     52  C   UNL     1      11.671  -3.999  -4.695  1.00  0.00     0.034 A 
ATOM     53  C   UNL     1      10.624 -10.268  -2.982  1.00  0.00     0.049 A 
ATOM     54  C   UNL     1      12.180  -5.318  -5.216  1.00  0.00     0.074 A 
ATOM     55  C   UNL     1      11.243 -11.391  -3.502  1.00  0.00     0.029 A 
ATOM     56  N   UNL     1      11.127  -9.179  -3.688  1.00  0.00    -0.354 N 
ATOM     57  N   UNL     1      11.923  -6.529  -4.776  1.00  0.00    -0.248 NA
ATOM     58  C   UNL     1      13.105  -5.268  -6.353  1.00  0.00     0.031 C 
ATOM     59  C   UNL     1      12.174 -10.976  -4.462  1.00  0.00     0.029 A 
ATOM     60  C   UNL     1      12.084  -9.600  -4.599  1.00  0.00     0.049 A 
ATOM     61  H   UNL     1      10.845  -8.245  -3.560  1.00  0.00     0.167 HD
ATOM     62  C   UNL     1      12.664  -7.388  -5.582  1.00  0.00     0.074 A 
ATOM     63  C   UNL     1      13.346  -6.555  -6.555  1.00  0.00     0.031 C 
ATOM     64  C   UNL     1      12.794  -8.738  -5.516  1.00  0.00     0.034 A 
BRANCH  51  65
ATOM     65  C   UNL     1       9.209 -11.440  -1.211  1.00  0.00     0.023 A 
ATOM     66  C   UNL     1       7.878 -11.890  -1.203  1.00  0.00     0.031 A 
ATOM     67  C   UNL     1      10.150 -12.158  -0.448  1.00  0.00     0.131 A 
ATOM     68  C   UNL     1       7.512 -12.973  -0.385  1.00  0.00     0.055 A 
ATOM     69  C   UNL     1       9.795 -13.282   0.298  1.00  0.00     0.041 A 
ATOM     70  F   UNL     1      11.431 -11.760  -0.391  1.00  0.00    -0.206 F 
ATOM     71  C   UNL     1       8.465 -13.685   0.348  1.00  0.00     0.022 A 
BRANCH  68  72
ATOM     72  S   UNL     1       5.748 -13.332  -0.156  1.00  0.00     0.124 S 
ATOM     73  O   UNL     1       5.241 -12.046   0.315  1.00  0.00    -0.237 OA
ATOM     74  O   UNL     1       5.332 -13.732  -1.496  1.00  0.00    -0.237 OA
ATOM     75  O   UNL     1       5.741 -14.399   0.844  1.00  0.00    -0.744 OA
ENDBRANCH  68  72
ENDBRANCH  51  65
BRANCH  52  76
ATOM     76  C   UNL     1      12.026  -2.710  -5.356  1.00  0.00     0.023 A 
ATOM     77  C   UNL     1      11.634  -2.441  -6.677  1.00  0.00     0.031 A 
ATOM     78  C   UNL     1      12.764  -1.721  -4.677  1.00  0.00     0.131 A 
ATOM     79  C   UNL     1      11.993  -1.225  -7.282  1.00  0.00     0.055 A 
ATOM     80  C   UNL     1      13.070  -0.492  -5.263  1.00  0.00     0.041 A 
ATOM     81  F   UNL     1      13.171  -1.924  -3.414  1.00  0.00    -0.206 F 
ATOM     82  C   UNL     1      12.691  -0.242  -6.577  1.00  0.00     0.022 A 
BRANCH  79  83
ATOM     83  S   UNL     1      11.586  -0.961  -9.030  1.00  0.00     0.124 S 
ATOM     84  O   UNL     1      12.284  -2.070  -9.671  1.00  0.00    -0.237 OA
ATOM     85  O   UNL     1      10.129  -1.037  -9.018  1.00  0.00    -0.237 OA
ATOM     86  O   UNL     1      12.134   0.365  -9.311  1.00  0.00    -0.744 OA
ENDBRANCH  79  83
ENDBRANCH  52  76
BRANCH  64  87
ATOM     87  C   UNL     1      13.758  -9.374  -6.486  1.00  0.00     0.023 A 
ATOM     88  C   UNL     1      15.144  -9.152  -6.377  1.00  0.00     0.031 A 
ATOM     89  C   UNL     1      13.299 -10.210  -7.516  1.00  0.00     0.131 A 
ATOM     90  C   UNL     1      16.019  -9.722  -7.312  1.00  0.00     0.055 A 
ATOM     91  C   UNL     1      14.180 -10.813  -8.416  1.00  0.00     0.041 A 
ATOM     92  F   UNL     1      11.989 -10.467  -7.659  1.00  0.00    -0.206 F 
ATOM     93  C   UNL     1      15.547 -10.562  -8.323  1.00  0.00     0.022 A 
BRANCH  90  94
ATOM     94  S   UNL     1      17.782  -9.306  -7.224  1.00  0.00     0.124 S 
ATOM     95  O   UNL     1      17.767  -7.862  -7.436  1.00  0.00    -0.237 OA
ATOM     96  O   UNL     1      18.145  -9.749  -5.881  1.00  0.00    -0.237 OA
ATOM     97  O   UNL     1      18.374 -10.084  -8.311  1.00  0.00    -0.744 OA
ENDBRANCH  90  94
ENDBRANCH  64  87
ENDBRANCH  38  39
ENDBRANCH  31  33
ENDBRANCH  30  31
ENDBRANCH  29  30
ENDBRANCH   1  29
TORSDOF 20
