REMARK SMILES O=C(OCCOC(=O)c1cc(NC(=O)c2ccccc2Cl)ccc1N1CCC[C@H](C[NH+]2CCCC2)C1)c1ccc(-c2c3nc(c(-c4cc(S(=O)(=O)[O-])ccc4F)c4ccc([nH]4)c(-c4cc(S(=O)(=O)[O-])ccc4F)c4nc(c(-c5cc(S(=O)(=O)[O-])ccc5F)c5ccc2[nH]5)C=C4)C=C3)cc1
REMARK SMILES IDX 4 1 3 2 2 3 1 4 37 5 38 6 99 7 39 8 98 9 40 10 41 11 42 12
REMARK SMILES IDX 92 13 43 14 97 15 91 16 93 17 44 18 96 19 90 20 89 21 45 23
REMARK SMILES IDX 77 24 57 25 76 26 58 27 61 28 75 29 94 30 59 31 60 32 74 34
REMARK SMILES IDX 95 35 62 36 46 37 47 38 55 39 48 40 54 41 56 42 53 43 49 44
REMARK SMILES IDX 50 45 51 46 52 47 78 48 79 49 87 50 80 51 86 52 88 53 85 54
REMARK SMILES IDX 81 55 82 56 83 57 84 58 63 59 64 60 72 61 65 62 71 63 73 64
REMARK SMILES IDX 70 65 66 66 67 67 68 68 69 69 5 70 6 71 7 72 8 73 9 74 10 75
REMARK SMILES IDX 24 76 11 77 23 78 22 79 25 80 26 81 36 82 27 83 29 84 28 85
REMARK SMILES IDX 30 86 31 87 32 88 35 89 33 91 34 92 12 93 13 94 14 96 15 97
REMARK SMILES IDX 16 98 20 99 17 100 19 101 21 102 18 103
REMARK H PARENT 93 22 61 33 31 90 12 95
REMARK Flexibility Score: inf
ROOT
ATOM      1  C   UNL     1       4.783  -1.472  -0.418  1.00  0.00     0.275 C 
ENDROOT
BRANCH   1   2
ATOM      2  O   UNL     1       4.150  -1.129   0.833  1.00  0.00    -0.458 OA
BRANCH   2   3
ATOM      3  C   UNL     1       3.300  -0.086   0.934  1.00  0.00     0.338 C 
ATOM      4  O   UNL     1       2.095  -0.258   1.061  1.00  0.00    -0.246 OA
BRANCH   3   5
ATOM      5  C   UNL     1       3.905   1.283   1.008  1.00  0.00     0.060 A 
ATOM      6  C   UNL     1       5.216   1.579   0.644  1.00  0.00     0.016 A 
ATOM      7  C   UNL     1       3.065   2.341   1.389  1.00  0.00     0.016 A 
ATOM      8  C   UNL     1       5.653   2.907   0.614  1.00  0.00     0.010 A 
ATOM      9  C   UNL     1       3.491   3.671   1.361  1.00  0.00     0.010 A 
ATOM     10  C   UNL     1       4.790   3.963   0.955  1.00  0.00    -0.014 A 
BRANCH  10  11
ATOM     11  C   UNL     1       5.346   5.337   1.025  1.00  0.00     0.031 A 
ATOM     12  C   UNL     1       6.082   5.699   2.257  1.00  0.00     0.074 A 
ATOM     13  C   UNL     1       5.245   6.207   0.004  1.00  0.00     0.049 A 
ATOM     14  N   UNL     1       6.826   6.739   2.485  1.00  0.00    -0.248 NA
ATOM     15  C   UNL     1       5.903   4.791   3.398  1.00  0.00     0.031 C 
ATOM     16  C   UNL     1       4.374   5.995  -1.126  1.00  0.00     0.029 A 
ATOM     17  N   UNL     1       5.869   7.387  -0.304  1.00  0.00    -0.354 N 
ATOM     18  C   UNL     1       7.191   6.632   3.816  1.00  0.00     0.074 A 
ATOM     19  C   UNL     1       6.570   5.434   4.340  1.00  0.00     0.031 C 
ATOM     20  C   UNL     1       4.641   6.874  -2.099  1.00  0.00     0.029 A 
ATOM     21  C   UNL     1       5.643   7.803  -1.608  1.00  0.00     0.049 A 
ATOM     22  H   UNL     1       6.422   7.891   0.336  1.00  0.00     0.167 HD
ATOM     23  C   UNL     1       7.956   7.491   4.525  1.00  0.00     0.034 A 
ATOM     24  C   UNL     1       6.197   8.812  -2.313  1.00  0.00     0.034 A 
ATOM     25  C   UNL     1       8.454   8.721   3.964  1.00  0.00     0.049 A 
ATOM     26  C   UNL     1       7.119   9.709  -1.529  1.00  0.00     0.074 A 
ATOM     27  C   UNL     1       9.179   9.723   4.575  1.00  0.00     0.029 A 
ATOM     28  N   UNL     1       8.241   9.129   2.645  1.00  0.00    -0.354 N 
ATOM     29  N   UNL     1       7.511   9.579  -0.280  1.00  0.00    -0.248 NA
ATOM     30  C   UNL     1       7.630  10.902  -2.206  1.00  0.00     0.031 C 
ATOM     31  C   UNL     1       9.354  10.757   3.647  1.00  0.00     0.029 A 
ATOM     32  C   UNL     1       8.811  10.372   2.428  1.00  0.00     0.049 A 
ATOM     33  H   UNL     1       7.754   8.607   1.967  1.00  0.00     0.167 HD
ATOM     34  C   UNL     1       8.283  10.696  -0.004  1.00  0.00     0.074 A 
ATOM     35  C   UNL     1       8.364  11.448  -1.246  1.00  0.00     0.031 C 
ATOM     36  C   UNL     1       8.842  11.089   1.170  1.00  0.00     0.034 A 
BRANCH  23  37
ATOM     37  C   UNL     1       8.156   7.136   5.975  1.00  0.00     0.023 A 
ATOM     38  C   UNL     1       8.772   5.925   6.346  1.00  0.00     0.031 A 
ATOM     39  C   UNL     1       7.564   7.912   6.984  1.00  0.00     0.131 A 
ATOM     40  C   UNL     1       8.666   5.465   7.666  1.00  0.00     0.055 A 
ATOM     41  C   UNL     1       7.556   7.496   8.317  1.00  0.00     0.041 A 
ATOM     42  F   UNL     1       6.926   9.054   6.685  1.00  0.00    -0.206 F 
ATOM     43  C   UNL     1       8.086   6.254   8.661  1.00  0.00     0.022 A 
BRANCH  40  44
ATOM     44  S   UNL     1       9.094   3.735   8.011  1.00  0.00     0.124 S 
ATOM     45  O   UNL     1       8.116   3.022   7.191  1.00  0.00    -0.237 OA
ATOM     46  O   UNL     1      10.479   3.654   7.562  1.00  0.00    -0.237 OA
ATOM     47  O   UNL     1       8.896   3.613   9.453  1.00  0.00    -0.744 OA
ENDBRANCH  40  44
ENDBRANCH  23  37
BRANCH  24  48
ATOM     48  C   UNL     1       5.900   9.047  -3.768  1.00  0.00     0.023 A 
ATOM     49  C   UNL     1       6.933   9.102  -4.725  1.00  0.00     0.031 A 
ATOM     50  C   UNL     1       4.588   9.245  -4.240  1.00  0.00     0.131 A 
ATOM     51  C   UNL     1       6.643   9.365  -6.078  1.00  0.00     0.055 A 
ATOM     52  C   UNL     1       4.297   9.439  -5.595  1.00  0.00     0.041 A 
ATOM     53  F   UNL     1       3.550   9.241  -3.388  1.00  0.00    -0.206 F 
ATOM     54  C   UNL     1       5.329   9.512  -6.522  1.00  0.00     0.022 A 
BRANCH  51  55
ATOM     55  S   UNL     1       8.013   9.604  -7.247  1.00  0.00     0.124 S 
ATOM     56  O   UNL     1       8.780  10.662  -6.600  1.00  0.00    -0.237 OA
ATOM     57  O   UNL     1       8.627   8.280  -7.263  1.00  0.00    -0.237 OA
ATOM     58  O   UNL     1       7.343   9.990  -8.487  1.00  0.00    -0.744 OA
ENDBRANCH  51  55
ENDBRANCH  24  48
BRANCH  36  59
ATOM     59  C   UNL     1       9.590  12.393   1.133  1.00  0.00     0.023 A 
ATOM     60  C   UNL     1       8.925  13.612   0.916  1.00  0.00     0.031 A 
ATOM     61  C   UNL     1      10.984  12.409   1.300  1.00  0.00     0.131 A 
ATOM     62  C   UNL     1       9.667  14.794   0.807  1.00  0.00     0.055 A 
ATOM     63  C   UNL     1      11.708  13.598   1.264  1.00  0.00     0.041 A 
ATOM     64  F   UNL     1      11.661  11.267   1.502  1.00  0.00    -0.206 F 
ATOM     65  C   UNL     1      11.051  14.798   1.002  1.00  0.00     0.022 A 
BRANCH  62  66
ATOM     66  S   UNL     1       8.813  16.308   0.294  1.00  0.00     0.124 S 
ATOM     67  O   UNL     1       8.273  15.923  -1.006  1.00  0.00    -0.237 OA
ATOM     68  O   UNL     1       7.835  16.494   1.361  1.00  0.00    -0.237 OA
ATOM     69  O   UNL     1       9.881  17.305   0.252  1.00  0.00    -0.744 OA
ENDBRANCH  62  66
ENDBRANCH  36  59
ENDBRANCH  10  11
ENDBRANCH   3   5
ENDBRANCH   2   3
ENDBRANCH   1   2
BRANCH   1  70
ATOM     70  C   UNL     1       4.096  -1.103  -1.737  1.00  0.00     0.275 C 
BRANCH  70  71
ATOM     71  O   UNL     1       3.627   0.246  -1.745  1.00  0.00    -0.458 OA
BRANCH  71  72
ATOM     72  C   UNL     1       2.320   0.425  -2.052  1.00  0.00     0.340 C 
ATOM     73  O   UNL     1       1.517  -0.448  -2.369  1.00  0.00    -0.246 OA
BRANCH  72  74
ATOM     74  C   UNL     1       1.937   1.839  -1.894  1.00  0.00     0.085 A 
ATOM     75  C   UNL     1       0.803   2.106  -1.080  1.00  0.00     0.044 A 
ATOM     76  C   UNL     1       2.632   2.861  -2.554  1.00  0.00     0.051 A 
ATOM     77  C   UNL     1       0.326   3.403  -0.919  1.00  0.00     0.042 A 
ATOM     78  C   UNL     1       2.041   4.127  -2.495  1.00  0.00     0.029 A 
ATOM     79  C   UNL     1       0.933   4.404  -1.679  1.00  0.00     0.028 A 
BRANCH  76  80
ATOM     80  N   UNL     1       3.808   2.711  -3.258  1.00  0.00    -0.370 N 
ATOM     81  C   UNL     1       5.097   3.136  -2.708  1.00  0.00     0.116 C 
ATOM     82  C   UNL     1       3.893   1.844  -4.415  1.00  0.00     0.126 C 
ATOM     83  C   UNL     1       5.901   3.894  -3.761  1.00  0.00     0.022 C 
ATOM     84  C   UNL     1       4.586   2.628  -5.539  1.00  0.00     0.064 C 
ATOM     85  C   UNL     1       5.980   3.085  -5.053  1.00  0.00     0.013 C 
BRANCH  84  86
ATOM     86  C   UNL     1       3.646   3.780  -5.988  1.00  0.00     0.267 C 
BRANCH  86  87
ATOM     87  N   UNL     1       3.848   4.408  -7.293  1.00  0.00    -0.335 N 
ATOM     88  C   UNL     1       3.965   3.472  -8.405  1.00  0.00     0.262 C 
ATOM     89  C   UNL     1       4.979   5.338  -7.370  1.00  0.00     0.262 C 
ATOM     90  H   UNL     1       2.982   4.939  -7.388  1.00  0.00     0.348 HD
ATOM     91  C   UNL     1       5.452   3.349  -8.671  1.00  0.00     0.067 C 
ATOM     92  C   UNL     1       5.995   4.724  -8.326  1.00  0.00     0.067 C 
ENDBRANCH  86  87
ENDBRANCH  84  86
ENDBRANCH  76  80
BRANCH  77  93
ATOM     93  N   UNL     1      -0.750   3.812  -0.106  1.00  0.00    -0.322 N 
ATOM     94  C   UNL     1      -1.500   3.233   0.889  1.00  0.00     0.257 C 
ATOM     95  H   UNL     1      -1.032   4.736  -0.298  1.00  0.00     0.170 HD
ATOM     96  O   UNL     1      -2.506   3.807   1.310  1.00  0.00    -0.269 OA
BRANCH  94  97
ATOM     97  C   UNL     1      -1.128   1.972   1.532  1.00  0.00     0.058 A 
ATOM     98  C   UNL     1      -1.626   0.778   1.000  1.00  0.00     0.015 A 
ATOM     99  C   UNL     1      -0.388   1.963   2.720  1.00  0.00     0.053 A 
ATOM    100  C   UNL     1      -1.284  -0.437   1.594  1.00  0.00     0.001 A 
ATOM    101  C   UNL     1      -0.045   0.743   3.307  1.00  0.00     0.021 A 
ATOM    102  Cl  UNL     1       0.146   3.414   3.492  1.00  0.00    -0.083 Cl
ATOM    103  C   UNL     1      -0.481  -0.455   2.736  1.00  0.00     0.002 A 
ENDBRANCH  94  97
ENDBRANCH  77  93
ENDBRANCH  72  74
ENDBRANCH  71  72
ENDBRANCH  70  71
ENDBRANCH   1  70
TORSDOF 19
