REMARK SMILES CC(C)N(CC1CC1)C(=O)N1CC[C@H](C(=O)OCCOC(=O)c2ccc(-c3c4nc(c(-c5cc(S(=O)(=O)[O-])ccc5F)c5ccc([nH]5)c(-c5cc(S(=O)(=O)[O-])ccc5F)c5nc(c(-c6cc(S(=O)(=O)[O-])ccc6F)c6ccc3[nH]6)C=C5)C=C4)cc2)[C@H]1C
REMARK SMILES IDX 18 1 17 2 15 3 16 4 14 5 11 6 12 7 86 8 13 9 87 10 9 11
REMARK SMILES IDX 10 12 4 13 2 14 1 15 3 16 5 17 6 18 7 19 8 20 19 21 20 22
REMARK SMILES IDX 21 23 22 24 23 25 24 26 85 27 25 28 84 29 26 30 27 31 28 32
REMARK SMILES IDX 78 33 29 34 83 35 77 36 79 37 30 38 82 39 76 40 75 41 31 43
REMARK SMILES IDX 63 44 43 45 62 46 44 47 47 48 61 49 80 50 45 51 46 52 60 54
REMARK SMILES IDX 81 55 48 56 32 57 33 58 41 59 34 60 40 61 42 62 39 63 35 64
REMARK SMILES IDX 36 65 37 66 38 67 64 68 65 69 73 70 66 71 72 72 74 73 71 74
REMARK SMILES IDX 67 75 68 76 69 77 70 78 49 79 50 80 58 81 51 82 57 83 59 84
REMARK SMILES IDX 56 85 52 86 53 87 54 88 55 89
REMARK H PARENT 79 42 47 53
REMARK Flexibility Score: inf
ROOT
ATOM      1  C   UNL     1      -4.516   5.133  -0.874  1.00  0.00     0.274 C 
ENDROOT
BRANCH   1   2
ATOM      2  O   UNL     1      -4.568   3.697  -0.903  1.00  0.00    -0.462 OA
BRANCH   2   3
ATOM      3  C   UNL     1      -4.903   3.085   0.260  1.00  0.00     0.311 C 
ATOM      4  O   UNL     1      -5.046   3.658   1.335  1.00  0.00    -0.252 OA
BRANCH   3   5
ATOM      5  C   UNL     1      -5.141   1.594   0.106  1.00  0.00     0.123 C 
ATOM      6  N   UNL     1      -2.962   0.729  -0.005  1.00  0.00    -0.321 N 
ATOM      7  C   UNL     1      -3.468   0.779  -1.383  1.00  0.00     0.122 C 
ATOM      8  C   UNL     1      -4.088   0.843   0.926  1.00  0.00     0.098 C 
ATOM      9  C   UNL     1      -4.965   1.023  -1.294  1.00  0.00     0.039 C 
ATOM     10  C   UNL     1      -4.652  -0.521   1.356  1.00  0.00     0.032 C 
BRANCH   6  11
ATOM     11  C   UNL     1      -1.605   0.891   0.151  1.00  0.00     0.320 C 
ATOM     12  O   UNL     1      -0.939   1.098  -0.874  1.00  0.00    -0.248 OA
BRANCH  11  13
ATOM     13  N   UNL     1      -0.964   0.834   1.375  1.00  0.00    -0.322 N 
BRANCH  13  14
ATOM     14  C   UNL     1       0.508   1.045   1.390  1.00  0.00     0.080 C 
ATOM     15  C   UNL     1       1.281   0.081   0.477  1.00  0.00     0.031 C 
ATOM     16  C   UNL     1       0.902   2.502   1.133  1.00  0.00     0.031 C 
ENDBRANCH  13  14
BRANCH  13  17
ATOM     17  C   UNL     1      -1.521   0.467   2.676  1.00  0.00     0.125 C 
BRANCH  17  18
ATOM     18  C   UNL     1      -1.457   1.592   3.675  1.00  0.00     0.009 C 
ATOM     19  C   UNL     1      -1.991   2.975   3.383  1.00  0.00     0.006 C 
ATOM     20  C   UNL     1      -2.717   2.086   4.350  1.00  0.00     0.006 C 
ENDBRANCH  17  18
ENDBRANCH  13  17
ENDBRANCH  11  13
ENDBRANCH   6  11
ENDBRANCH   3   5
ENDBRANCH   2   3
ENDBRANCH   1   2
BRANCH   1  21
ATOM     21  C   UNL     1      -5.771   5.710  -1.524  1.00  0.00     0.275 C 
BRANCH  21  22
ATOM     22  O   UNL     1      -6.946   5.276  -0.815  1.00  0.00    -0.458 OA
BRANCH  22  23
ATOM     23  C   UNL     1      -7.656   4.298  -1.420  1.00  0.00     0.338 C 
ATOM     24  O   UNL     1      -7.437   3.786  -2.509  1.00  0.00    -0.246 OA
BRANCH  23  25
ATOM     25  C   UNL     1      -8.774   3.889  -0.561  1.00  0.00     0.060 A 
ATOM     26  C   UNL     1      -8.527   3.159   0.603  1.00  0.00     0.016 A 
ATOM     27  C   UNL     1     -10.082   4.125  -0.982  1.00  0.00     0.016 A 
ATOM     28  C   UNL     1      -9.586   2.592   1.307  1.00  0.00     0.010 A 
ATOM     29  C   UNL     1     -11.145   3.632  -0.222  1.00  0.00     0.010 A 
ATOM     30  C   UNL     1     -10.908   2.834   0.911  1.00  0.00    -0.014 A 
BRANCH  30  31
ATOM     31  C   UNL     1     -12.046   2.239   1.661  1.00  0.00     0.031 A 
ATOM     32  C   UNL     1     -12.983   1.284   0.970  1.00  0.00     0.074 A 
ATOM     33  C   UNL     1     -12.252   2.570   2.950  1.00  0.00     0.049 A 
ATOM     34  N   UNL     1     -14.134   0.812   1.373  1.00  0.00    -0.248 NA
ATOM     35  C   UNL     1     -12.572   0.815  -0.362  1.00  0.00     0.031 C 
ATOM     36  C   UNL     1     -11.394   3.450   3.746  1.00  0.00     0.029 A 
ATOM     37  N   UNL     1     -13.255   2.215   3.817  1.00  0.00    -0.354 N 
ATOM     38  C   UNL     1     -14.609   0.025   0.328  1.00  0.00     0.074 A 
ATOM     39  C   UNL     1     -13.625   0.101  -0.732  1.00  0.00     0.031 C 
ATOM     40  C   UNL     1     -11.901   3.559   4.983  1.00  0.00     0.029 A 
ATOM     41  C   UNL     1     -13.159   2.824   5.046  1.00  0.00     0.049 A 
ATOM     42  H   UNL     1     -13.975   1.585   3.581  1.00  0.00     0.167 HD
ATOM     43  C   UNL     1     -15.761  -0.690   0.263  1.00  0.00     0.034 A 
ATOM     44  C   UNL     1     -14.011   2.834   6.090  1.00  0.00     0.034 A 
ATOM     45  C   UNL     1     -16.717  -0.770   1.341  1.00  0.00     0.049 A 
ATOM     46  C   UNL     1     -15.305   2.075   5.979  1.00  0.00     0.074 A 
ATOM     47  C   UNL     1     -17.906  -1.477   1.393  1.00  0.00     0.029 A 
ATOM     48  N   UNL     1     -16.592  -0.121   2.564  1.00  0.00    -0.354 N 
ATOM     49  N   UNL     1     -15.765   1.373   4.969  1.00  0.00    -0.248 NA
ATOM     50  C   UNL     1     -16.196   2.115   7.144  1.00  0.00     0.031 C 
ATOM     51  C   UNL     1     -18.525  -1.211   2.620  1.00  0.00     0.029 A 
ATOM     52  C   UNL     1     -17.692  -0.391   3.364  1.00  0.00     0.049 A 
ATOM     53  H   UNL     1     -15.832   0.449   2.824  1.00  0.00     0.167 HD
ATOM     54  C   UNL     1     -16.997   0.876   5.385  1.00  0.00     0.074 A 
ATOM     55  C   UNL     1     -17.197   1.345   6.742  1.00  0.00     0.031 C 
ATOM     56  C   UNL     1     -17.882   0.102   4.708  1.00  0.00     0.034 A 
BRANCH  43  57
ATOM     57  C   UNL     1     -16.071  -1.385  -1.042  1.00  0.00     0.023 A 
ATOM     58  C   UNL     1     -15.274  -2.433  -1.536  1.00  0.00     0.031 A 
ATOM     59  C   UNL     1     -17.160  -0.962  -1.824  1.00  0.00     0.131 A 
ATOM     60  C   UNL     1     -15.533  -2.969  -2.807  1.00  0.00     0.055 A 
ATOM     61  C   UNL     1     -17.459  -1.553  -3.054  1.00  0.00     0.041 A 
ATOM     62  F   UNL     1     -17.945   0.047  -1.414  1.00  0.00    -0.206 F 
ATOM     63  C   UNL     1     -16.634  -2.552  -3.560  1.00  0.00     0.022 A 
BRANCH  60  64
ATOM     64  S   UNL     1     -14.327  -4.117  -3.527  1.00  0.00     0.124 S 
ATOM     65  O   UNL     1     -13.110  -3.309  -3.520  1.00  0.00    -0.237 OA
ATOM     66  O   UNL     1     -14.357  -5.234  -2.590  1.00  0.00    -0.237 OA
ATOM     67  O   UNL     1     -14.871  -4.400  -4.854  1.00  0.00    -0.744 OA
ENDBRANCH  60  64
ENDBRANCH  43  57
BRANCH  44  68
ATOM     68  C   UNL     1     -13.698   3.642   7.301  1.00  0.00     0.023 A 
ATOM     69  C   UNL     1     -13.448   3.029   8.538  1.00  0.00     0.031 A 
ATOM     70  C   UNL     1     -13.664   5.047   7.240  1.00  0.00     0.131 A 
ATOM     71  C   UNL     1     -13.203   3.819   9.671  1.00  0.00     0.055 A 
ATOM     72  C   UNL     1     -13.373   5.827   8.360  1.00  0.00     0.041 A 
ATOM     73  F   UNL     1     -13.893   5.682   6.079  1.00  0.00    -0.206 F 
ATOM     74  C   UNL     1     -13.150   5.213   9.588  1.00  0.00     0.022 A 
BRANCH  71  75
ATOM     75  S   UNL     1     -13.009   2.999  11.277  1.00  0.00     0.124 S 
ATOM     76  O   UNL     1     -14.285   2.305  11.412  1.00  0.00    -0.237 OA
ATOM     77  O   UNL     1     -11.841   2.155  11.047  1.00  0.00    -0.237 OA
ATOM     78  O   UNL     1     -12.800   4.109  12.203  1.00  0.00    -0.744 OA
ENDBRANCH  71  75
ENDBRANCH  44  68
BRANCH  56  79
ATOM     79  C   UNL     1     -19.125  -0.312   5.453  1.00  0.00     0.023 A 
ATOM     80  C   UNL     1     -20.129   0.615   5.784  1.00  0.00     0.031 A 
ATOM     81  C   UNL     1     -19.293  -1.647   5.859  1.00  0.00     0.131 A 
ATOM     82  C   UNL     1     -21.232   0.205   6.547  1.00  0.00     0.055 A 
ATOM     83  C   UNL     1     -20.418  -2.060   6.573  1.00  0.00     0.041 A 
ATOM     84  F   UNL     1     -18.361  -2.570   5.571  1.00  0.00    -0.206 F 
ATOM     85  C   UNL     1     -21.389  -1.129   6.931  1.00  0.00     0.022 A 
BRANCH  82  86
ATOM     86  S   UNL     1     -22.421   1.456   7.103  1.00  0.00     0.124 S 
ATOM     87  O   UNL     1     -21.575   2.353   7.885  1.00  0.00    -0.237 OA
ATOM     88  O   UNL     1     -22.924   1.992   5.843  1.00  0.00    -0.237 OA
ATOM     89  O   UNL     1     -23.392   0.686   7.879  1.00  0.00    -0.744 OA
ENDBRANCH  82  86
ENDBRANCH  56  79
ENDBRANCH  30  31
ENDBRANCH  23  25
ENDBRANCH  22  23
ENDBRANCH  21  22
ENDBRANCH   1  21
TORSDOF 19
