REMARK SMILES CS(=O)(=O)c1ccc(C2=NN(c3ccc(C(=O)OCCOC(=O)c4ccc(-c5c6nc(c(-c7cc(S(=O)(=O)[O-])ccc7F)c7ccc([nH]7)c(-c7cc(S(=O)(=O)[O-])ccc7F)c7nc(c(-c8cc(S(=O)(=O)[O-])ccc8F)c8ccc5[nH]8)C=C7)C=C6)cc4)cc3)[C@H](c3cccs3)C2)cc1
REMARK SMILES IDX 19 1 18 2 16 3 17 4 15 5 12 6 13 7 88 8 14 9 87 10 11 11
REMARK SMILES IDX 9 12 10 13 95 14 89 15 8 16 5 17 6 18 97 19 7 20 96 21 2 22
REMARK SMILES IDX 1 23 3 24 4 25 90 26 91 27 94 28 92 29 93 30 20 31 21 32
REMARK SMILES IDX 22 33 23 34 24 35 25 36 86 37 26 38 85 39 27 40 28 41 29 42
REMARK SMILES IDX 79 43 30 44 84 45 78 46 80 47 31 48 83 49 77 50 76 51 32 53
REMARK SMILES IDX 64 54 44 55 63 56 45 57 48 58 62 59 81 60 46 61 47 62 61 64
REMARK SMILES IDX 82 65 49 66 33 67 34 68 42 69 35 70 41 71 43 72 40 73 36 74
REMARK SMILES IDX 37 75 38 76 39 77 65 78 66 79 74 80 67 81 73 82 75 83 72 84
REMARK SMILES IDX 68 85 69 86 70 87 71 88 50 89 51 90 59 91 52 92 58 93 60 94
REMARK SMILES IDX 57 95 53 96 54 97 55 98 56 99
REMARK H PARENT 80 52 48 63
REMARK Flexibility Score: inf
ROOT
ATOM      1  C   UNL     1       8.883  12.706  -5.277  1.00  0.00     0.275 C 
ENDROOT
BRANCH   1   2
ATOM      2  O   UNL     1       8.125  11.754  -4.507  1.00  0.00    -0.458 OA
BRANCH   2   3
ATOM      3  C   UNL     1       6.784  11.773  -4.703  1.00  0.00     0.338 C 
ATOM      4  O   UNL     1       6.170  12.541  -5.426  1.00  0.00    -0.246 OA
BRANCH   3   5
ATOM      5  C   UNL     1       6.122  10.680  -3.949  1.00  0.00     0.060 A 
ATOM      6  C   UNL     1       4.717   8.721  -2.506  1.00  0.00     0.060 A 
ATOM      7  C   UNL     1       4.209   9.203  -3.714  1.00  0.00     0.029 A 
ATOM      8  C   UNL     1       5.960   9.190  -2.057  1.00  0.00     0.029 A 
ATOM      9  C   UNL     1       4.887  10.201  -4.411  1.00  0.00     0.018 A 
ATOM     10  C   UNL     1       6.668  10.157  -2.776  1.00  0.00     0.018 A 
BRANCH   6  11
ATOM     11  N   UNL     1       3.946   7.907  -1.674  1.00  0.00    -0.257 N 
ATOM     12  C   UNL     1       2.509   6.350  -1.465  1.00  0.00     0.071 C 
ATOM     13  N   UNL     1       3.624   6.649  -2.058  1.00  0.00    -0.176 NA
ATOM     14  C   UNL     1       1.869   7.460  -0.674  1.00  0.00     0.091 C 
ATOM     15  C   UNL     1       2.916   8.560  -0.857  1.00  0.00     0.154 C 
BRANCH  12  16
ATOM     16  C   UNL     1       1.917   5.000  -1.517  1.00  0.00    -0.002 A 
ATOM     17  C   UNL     1       0.895   2.409  -1.516  1.00  0.00     0.067 A 
ATOM     18  C   UNL     1       2.279   2.603  -1.534  1.00  0.00     0.021 A 
ATOM     19  C   UNL     1       0.020   3.500  -1.532  1.00  0.00     0.021 A 
ATOM     20  C   UNL     1       2.787   3.902  -1.536  1.00  0.00     0.011 A 
ATOM     21  C   UNL     1       0.533   4.802  -1.524  1.00  0.00     0.011 A 
BRANCH  17  22
ATOM     22  S   UNL     1       0.253   0.752  -1.462  1.00  0.00     0.175 S 
ATOM     23  C   UNL     1       0.919   0.084   0.040  1.00  0.00     0.163 C 
ATOM     24  O   UNL     1       0.830   0.024  -2.572  1.00  0.00    -0.224 OA
ATOM     25  O   UNL     1      -1.185   0.841  -1.280  1.00  0.00    -0.224 OA
ENDBRANCH  17  22
ENDBRANCH  12  16
BRANCH  15  26
ATOM     26  C   UNL     1       3.486   9.194   0.397  1.00  0.00     0.030 A 
ATOM     27  C   UNL     1       3.979  10.486   0.499  1.00  0.00     0.017 A 
ATOM     28  S   UNL     1       3.772   8.315   1.840  1.00  0.00    -0.147 S 
ATOM     29  C   UNL     1       4.626  10.733   1.742  1.00  0.00     0.012 A 
ATOM     30  C   UNL     1       4.572   9.637   2.571  1.00  0.00     0.065 A 
ENDBRANCH  15  26
ENDBRANCH   6  11
ENDBRANCH   3   5
ENDBRANCH   2   3
ENDBRANCH   1   2
BRANCH   1  31
ATOM     31  C   UNL     1       9.547  12.033  -6.477  1.00  0.00     0.275 C 
BRANCH  31  32
ATOM     32  O   UNL     1       8.551  11.586  -7.413  1.00  0.00    -0.458 OA
BRANCH  32  33
ATOM     33  C   UNL     1       8.401  10.243  -7.504  1.00  0.00     0.338 C 
ATOM     34  O   UNL     1       9.049   9.385  -6.932  1.00  0.00    -0.246 OA
BRANCH  33  35
ATOM     35  C   UNL     1       7.280   9.938  -8.406  1.00  0.00     0.060 A 
ATOM     36  C   UNL     1       5.979  10.099  -7.939  1.00  0.00     0.016 A 
ATOM     37  C   UNL     1       7.510   9.374  -9.658  1.00  0.00     0.016 A 
ATOM     38  C   UNL     1       4.899   9.627  -8.682  1.00  0.00     0.010 A 
ATOM     39  C   UNL     1       6.419   8.980 -10.443  1.00  0.00     0.010 A 
ATOM     40  C   UNL     1       5.101   9.071  -9.951  1.00  0.00    -0.014 A 
BRANCH  40  41
ATOM     41  C   UNL     1       3.954   8.536 -10.741  1.00  0.00     0.031 A 
ATOM     42  C   UNL     1       3.944   7.087 -11.157  1.00  0.00     0.074 A 
ATOM     43  C   UNL     1       2.922   9.333 -11.087  1.00  0.00     0.049 A 
ATOM     44  N   UNL     1       3.176   6.475 -12.022  1.00  0.00    -0.248 NA
ATOM     45  C   UNL     1       4.948   6.218 -10.526  1.00  0.00     0.031 C 
ATOM     46  C   UNL     1       2.767  10.737 -10.699  1.00  0.00     0.029 A 
ATOM     47  N   UNL     1       1.807   9.079 -11.850  1.00  0.00    -0.354 N 
ATOM     48  C   UNL     1       3.642   5.165 -12.085  1.00  0.00     0.074 A 
ATOM     49  C   UNL     1       4.766   5.078 -11.176  1.00  0.00     0.031 C 
ATOM     50  C   UNL     1       1.618  11.210 -11.203  1.00  0.00     0.029 A 
ATOM     51  C   UNL     1       1.002  10.181 -12.033  1.00  0.00     0.049 A 
ATOM     52  H   UNL     1       1.603   8.194 -12.229  1.00  0.00     0.167 HD
ATOM     53  C   UNL     1       3.178   4.136 -12.839  1.00  0.00     0.034 A 
ATOM     54  C   UNL     1      -0.076  10.365 -12.822  1.00  0.00     0.034 A 
ATOM     55  C   UNL     1       2.024   4.232 -13.703  1.00  0.00     0.049 A 
ATOM     56  C   UNL     1      -0.546   9.226 -13.689  1.00  0.00     0.074 A 
ATOM     57  C   UNL     1       1.453   3.250 -14.494  1.00  0.00     0.029 A 
ATOM     58  N   UNL     1       1.258   5.378 -13.883  1.00  0.00    -0.354 N 
ATOM     59  N   UNL     1      -0.053   8.014 -13.797  1.00  0.00    -0.248 NA
ATOM     60  C   UNL     1      -1.708   9.483 -14.550  1.00  0.00     0.031 C 
ATOM     61  C   UNL     1       0.384   3.815 -15.197  1.00  0.00     0.029 A 
ATOM     62  C   UNL     1       0.238   5.132 -14.790  1.00  0.00     0.049 A 
ATOM     63  H   UNL     1       1.416   6.238 -13.432  1.00  0.00     0.167 HD
ATOM     64  C   UNL     1      -0.857   7.359 -14.725  1.00  0.00     0.074 A 
ATOM     65  C   UNL     1      -1.875   8.305 -15.134  1.00  0.00     0.031 C 
ATOM     66  C   UNL     1      -0.764   6.089 -15.196  1.00  0.00     0.034 A 
BRANCH  53  67
ATOM     67  C   UNL     1       3.959   2.842 -12.815  1.00  0.00     0.023 A 
ATOM     68  C   UNL     1       4.084   2.057 -11.655  1.00  0.00     0.031 A 
ATOM     69  C   UNL     1       4.615   2.401 -13.979  1.00  0.00     0.131 A 
ATOM     70  C   UNL     1       4.901   0.915 -11.668  1.00  0.00     0.055 A 
ATOM     71  C   UNL     1       5.361   1.221 -14.006  1.00  0.00     0.041 A 
ATOM     72  F   UNL     1       4.551   3.118 -15.113  1.00  0.00    -0.206 F 
ATOM     73  C   UNL     1       5.520   0.478 -12.842  1.00  0.00     0.022 A 
BRANCH  70  74
ATOM     74  S   UNL     1       5.260   0.084 -10.096  1.00  0.00     0.124 S 
ATOM     75  O   UNL     1       5.868   1.164  -9.323  1.00  0.00    -0.237 OA
ATOM     76  O   UNL     1       3.938  -0.351  -9.662  1.00  0.00    -0.237 OA
ATOM     77  O   UNL     1       6.176  -0.990 -10.477  1.00  0.00    -0.744 OA
ENDBRANCH  70  74
ENDBRANCH  53  67
BRANCH  54  78
ATOM     78  C   UNL     1      -0.735  11.702 -12.895  1.00  0.00     0.023 A 
ATOM     79  C   UNL     1      -2.064  11.883 -12.481  1.00  0.00     0.031 A 
ATOM     80  C   UNL     1      -0.049  12.817 -13.411  1.00  0.00     0.131 A 
ATOM     81  C   UNL     1      -2.674  13.140 -12.617  1.00  0.00     0.055 A 
ATOM     82  C   UNL     1      -0.641  14.078 -13.493  1.00  0.00     0.041 A 
ATOM     83  F   UNL     1       1.222  12.700 -13.827  1.00  0.00    -0.206 F 
ATOM     84  C   UNL     1      -1.967  14.242 -13.104  1.00  0.00     0.022 A 
BRANCH  81  85
ATOM     85  S   UNL     1      -4.436  13.301 -12.219  1.00  0.00     0.124 S 
ATOM     86  O   UNL     1      -5.037  12.330 -13.126  1.00  0.00    -0.237 OA
ATOM     87  O   UNL     1      -4.460  12.956 -10.802  1.00  0.00    -0.237 OA
ATOM     88  O   UNL     1      -4.727  14.701 -12.522  1.00  0.00    -0.744 OA
ENDBRANCH  81  85
ENDBRANCH  54  78
BRANCH  66  89
ATOM     89  C   UNL     1      -1.826   5.641 -16.167  1.00  0.00     0.023 A 
ATOM     90  C   UNL     1      -1.901   6.156 -17.473  1.00  0.00     0.031 A 
ATOM     91  C   UNL     1      -2.783   4.689 -15.773  1.00  0.00     0.131 A 
ATOM     92  C   UNL     1      -2.941   5.750 -18.324  1.00  0.00     0.055 A 
ATOM     93  C   UNL     1      -3.782   4.249 -16.642  1.00  0.00     0.041 A 
ATOM     94  F   UNL     1      -2.758   4.168 -14.536  1.00  0.00    -0.206 F 
ATOM     95  C   UNL     1      -3.872   4.788 -17.922  1.00  0.00     0.022 A 
BRANCH  92  96
ATOM     96  S   UNL     1      -3.108   6.551 -19.943  1.00  0.00     0.124 S 
ATOM     97  O   UNL     1      -3.308   7.948 -19.571  1.00  0.00    -0.237 OA
ATOM     98  O   UNL     1      -1.835   6.237 -20.582  1.00  0.00    -0.237 OA
ATOM     99  O   UNL     1      -4.274   5.894 -20.532  1.00  0.00    -0.744 OA
ENDBRANCH  92  96
ENDBRANCH  66  89
ENDBRANCH  40  41
ENDBRANCH  33  35
ENDBRANCH  32  33
ENDBRANCH  31  32
ENDBRANCH   1  31
TORSDOF 18
