REMARK SMILES O=C(OCCOC(=O)c1cncc(OCCCc2ccccc2)n1)c1ccc(-c2c3nc(c(-c4cc(S(=O)(=O)[O-])ccc4F)c4ccc([nH]4)c(-c4cc(S(=O)(=O)[O-])ccc4F)c4nc(c(-c5cc(S(=O)(=O)[O-])ccc5F)c5ccc2[nH]5)C=C4)C=C3)cc1
REMARK SMILES IDX 5 1 4 2 3 3 2 4 1 5 25 6 26 7 87 8 27 9 86 10 28 11 29 12
REMARK SMILES IDX 30 13 80 14 31 15 85 16 79 17 81 18 32 19 84 20 78 21 77 22
REMARK SMILES IDX 33 24 65 25 45 26 64 27 46 28 49 29 63 30 82 31 47 32 48 33
REMARK SMILES IDX 62 35 83 36 50 37 34 38 35 39 43 40 36 41 42 42 44 43 41 44
REMARK SMILES IDX 37 45 38 46 39 47 40 48 66 49 67 50 75 51 68 52 74 53 76 54
REMARK SMILES IDX 73 55 69 56 70 57 71 58 72 59 51 60 52 61 60 62 53 63 59 64
REMARK SMILES IDX 61 65 58 66 54 67 55 68 56 69 57 70 6 71 7 72 8 73 9 74
REMARK SMILES IDX 10 75 24 76 11 77 13 78 12 79 14 80 15 81 16 82 17 83 18 84
REMARK SMILES IDX 19 85 23 86 20 87 22 88 21 89
REMARK H PARENT 81 23 49 34
REMARK Flexibility Score: inf
ROOT
ATOM      1  C   UNL     1       3.854   0.464  -2.587  1.00  0.00     0.275 C 
ENDROOT
BRANCH   1   2
ATOM      2  C   UNL     1       4.824  -0.536  -1.934  1.00  0.00     0.275 C 
BRANCH   2   3
ATOM      3  O   UNL     1       4.510  -1.057  -0.627  1.00  0.00    -0.458 OA
BRANCH   3   4
ATOM      4  C   UNL     1       3.590  -0.380   0.093  1.00  0.00     0.338 C 
ATOM      5  O   UNL     1       2.391  -0.477  -0.090  1.00  0.00    -0.246 OA
BRANCH   4   6
ATOM      6  C   UNL     1       4.226   0.580   1.037  1.00  0.00     0.060 A 
ATOM      7  C   UNL     1       5.596   0.863   0.998  1.00  0.00     0.016 A 
ATOM      8  C   UNL     1       3.397   1.307   1.896  1.00  0.00     0.016 A 
ATOM      9  C   UNL     1       6.123   1.879   1.787  1.00  0.00     0.010 A 
ATOM     10  C   UNL     1       3.920   2.325   2.692  1.00  0.00     0.010 A 
ATOM     11  C   UNL     1       5.289   2.609   2.639  1.00  0.00    -0.014 A 
BRANCH  11  12
ATOM     12  C   UNL     1       5.897   3.589   3.558  1.00  0.00     0.031 A 
ATOM     13  C   UNL     1       6.253   3.130   4.937  1.00  0.00     0.074 A 
ATOM     14  C   UNL     1       6.158   4.837   3.133  1.00  0.00     0.049 A 
ATOM     15  N   UNL     1       6.956   3.734   5.855  1.00  0.00    -0.248 NA
ATOM     16  C   UNL     1       5.749   1.805   5.332  1.00  0.00     0.031 C 
ATOM     17  C   UNL     1       5.818   5.355   1.809  1.00  0.00     0.029 A 
ATOM     18  N   UNL     1       6.765   5.891   3.756  1.00  0.00    -0.354 N 
ATOM     19  C   UNL     1       7.016   2.846   6.922  1.00  0.00     0.074 A 
ATOM     20  C   UNL     1       6.208   1.700   6.568  1.00  0.00     0.031 C 
ATOM     21  C   UNL     1       6.205   6.638   1.722  1.00  0.00     0.029 A 
ATOM     22  C   UNL     1       6.845   7.021   2.974  1.00  0.00     0.049 A 
ATOM     23  H   UNL     1       7.113   5.847   4.676  1.00  0.00     0.167 HD
ATOM     24  C   UNL     1       7.715   2.974   8.076  1.00  0.00     0.034 A 
ATOM     25  C   UNL     1       7.404   8.217   3.239  1.00  0.00     0.034 A 
ATOM     26  C   UNL     1       8.461   4.166   8.400  1.00  0.00     0.049 A 
ATOM     27  C   UNL     1       8.158   8.353   4.536  1.00  0.00     0.074 A 
ATOM     28  C   UNL     1       9.206   4.452   9.529  1.00  0.00     0.029 A 
ATOM     29  N   UNL     1       8.535   5.291   7.581  1.00  0.00    -0.354 N 
ATOM     30  N   UNL     1       8.289   7.475   5.508  1.00  0.00    -0.248 NA
ATOM     31  C   UNL     1       8.884   9.607   4.749  1.00  0.00     0.031 C 
ATOM     32  C   UNL     1       9.684   5.764   9.415  1.00  0.00     0.029 A 
ATOM     33  C   UNL     1       9.294   6.277   8.185  1.00  0.00     0.049 A 
ATOM     34  H   UNL     1       8.107   5.372   6.698  1.00  0.00     0.167 HD
ATOM     35  C   UNL     1       9.153   8.054   6.429  1.00  0.00     0.074 A 
ATOM     36  C   UNL     1       9.514   9.353   5.887  1.00  0.00     0.031 C 
ATOM     37  C   UNL     1       9.619   7.562   7.607  1.00  0.00     0.034 A 
BRANCH  24  38
ATOM     38  C   UNL     1       7.643   1.819   9.047  1.00  0.00     0.023 A 
ATOM     39  C   UNL     1       8.089   0.531   8.687  1.00  0.00     0.031 A 
ATOM     40  C   UNL     1       7.037   1.971  10.305  1.00  0.00     0.131 A 
ATOM     41  C   UNL     1       7.829  -0.565   9.526  1.00  0.00     0.055 A 
ATOM     42  C   UNL     1       6.859   0.890  11.173  1.00  0.00     0.041 A 
ATOM     43  F   UNL     1       6.568   3.166  10.698  1.00  0.00    -0.206 F 
ATOM     44  C   UNL     1       7.237  -0.390  10.777  1.00  0.00     0.022 A 
BRANCH  41  45
ATOM     45  S   UNL     1       8.116  -2.238   8.882  1.00  0.00     0.124 S 
ATOM     46  O   UNL     1       7.218  -2.267   7.729  1.00  0.00    -0.237 OA
ATOM     47  O   UNL     1       9.542  -2.221   8.579  1.00  0.00    -0.237 OA
ATOM     48  O   UNL     1       7.722  -3.105   9.990  1.00  0.00    -0.744 OA
ENDBRANCH  41  45
ENDBRANCH  24  38
BRANCH  25  49
ATOM     49  C   UNL     1       7.331   9.323   2.242  1.00  0.00     0.023 A 
ATOM     50  C   UNL     1       8.474   9.780   1.567  1.00  0.00     0.031 A 
ATOM     51  C   UNL     1       6.100   9.931   1.934  1.00  0.00     0.131 A 
ATOM     52  C   UNL     1       8.370  10.831   0.640  1.00  0.00     0.055 A 
ATOM     53  C   UNL     1       5.995  10.952   0.986  1.00  0.00     0.041 A 
ATOM     54  F   UNL     1       4.972   9.525   2.539  1.00  0.00    -0.206 F 
ATOM     55  C   UNL     1       7.137  11.414   0.339  1.00  0.00     0.022 A 
BRANCH  52  56
ATOM     56  S   UNL     1       9.883  11.461  -0.139  1.00  0.00     0.124 S 
ATOM     57  O   UNL     1      10.709  11.780   1.020  1.00  0.00    -0.237 OA
ATOM     58  O   UNL     1      10.310  10.316  -0.936  1.00  0.00    -0.237 OA
ATOM     59  O   UNL     1       9.416  12.613  -0.908  1.00  0.00    -0.744 OA
ENDBRANCH  52  56
ENDBRANCH  25  49
BRANCH  37  60
ATOM     60  C   UNL     1      10.600   8.433   8.346  1.00  0.00     0.023 A 
ATOM     61  C   UNL     1      10.211   9.659   8.909  1.00  0.00     0.031 A 
ATOM     62  C   UNL     1      11.947   8.044   8.452  1.00  0.00     0.131 A 
ATOM     63  C   UNL     1      11.177  10.493   9.487  1.00  0.00     0.055 A 
ATOM     64  C   UNL     1      12.890   8.850   9.088  1.00  0.00     0.041 A 
ATOM     65  F   UNL     1      12.366   6.881   7.930  1.00  0.00    -0.206 F 
ATOM     66  C   UNL     1      12.511  10.090   9.595  1.00  0.00     0.022 A 
BRANCH  63  67
ATOM     67  S   UNL     1      10.682  12.162   9.991  1.00  0.00     0.124 S 
ATOM     68  O   UNL     1      10.178  12.719   8.739  1.00  0.00    -0.237 OA
ATOM     69  O   UNL     1       9.681  11.894  11.018  1.00  0.00    -0.237 OA
ATOM     70  O   UNL     1      11.926  12.755  10.478  1.00  0.00    -0.744 OA
ENDBRANCH  63  67
ENDBRANCH  37  60
ENDBRANCH  11  12
ENDBRANCH   4   6
ENDBRANCH   3   4
ENDBRANCH   2   3
ENDBRANCH   1   2
BRANCH   1  71
ATOM     71  O   UNL     1       3.642   1.637  -1.776  1.00  0.00    -0.457 OA
BRANCH  71  72
ATOM     72  C   UNL     1       2.372   2.138  -1.847  1.00  0.00     0.358 C 
ATOM     73  O   UNL     1       1.525   1.825  -2.670  1.00  0.00    -0.244 OA
BRANCH  72  74
ATOM     74  C   UNL     1       2.136   3.110  -0.754  1.00  0.00     0.170 A 
ATOM     75  C   UNL     1       2.993   4.185  -0.582  1.00  0.00     0.147 A 
ATOM     76  N   UNL     1       1.016   2.940   0.006  1.00  0.00    -0.203 NA
ATOM     77  N   UNL     1       2.768   5.144   0.351  1.00  0.00    -0.257 NA
ATOM     78  C   UNL     1       0.818   3.875   0.958  1.00  0.00     0.233 A 
ATOM     79  C   UNL     1       1.660   4.968   1.116  1.00  0.00     0.179 A 
BRANCH  78  80
ATOM     80  O   UNL     1      -0.337   3.790   1.692  1.00  0.00    -0.477 OA
BRANCH  80  81
ATOM     81  C   UNL     1      -0.272   2.747   2.673  1.00  0.00     0.232 C 
BRANCH  81  82
ATOM     82  C   UNL     1      -1.388   1.718   2.461  1.00  0.00     0.046 C 
BRANCH  82  83
ATOM     83  C   UNL     1      -1.050   0.592   1.474  1.00  0.00     0.039 C 
BRANCH  83  84
ATOM     84  C   UNL     1      -0.257  -0.601   1.975  1.00  0.00    -0.048 A 
ATOM     85  C   UNL     1      -0.213  -1.742   1.154  1.00  0.00     0.004 A 
ATOM     86  C   UNL     1       0.501  -0.610   3.152  1.00  0.00     0.004 A 
ATOM     87  C   UNL     1       0.588  -2.840   1.478  1.00  0.00     0.000 A 
ATOM     88  C   UNL     1       1.319  -1.702   3.468  1.00  0.00     0.000 A 
ATOM     89  C   UNL     1       1.368  -2.812   2.629  1.00  0.00     0.000 A 
ENDBRANCH  83  84
ENDBRANCH  82  83
ENDBRANCH  81  82
ENDBRANCH  80  81
ENDBRANCH  78  80
ENDBRANCH  72  74
ENDBRANCH  71  72
ENDBRANCH   1  71
TORSDOF 19
