REMARK SMILES C[C@H]1SCCC[C@@]1(C(=O)OCCOC(=O)c1ccc(-c2c3nc(c(-c4cc(S(=O)(=O)[O-])ccc4F)c4ccc([nH]4)c(-c4cc(S(=O)(=O)[O-])ccc4F)c4nc(c(-c5cc(S(=O)(=O)[O-])ccc5F)c5ccc2[nH]5)C=C4)C=C3)cc1)[NH+]1CCCC1
REMARK SMILES IDX 12 1 11 2 10 3 8 4 9 5 7 6 1 7 2 8 3 9 4 10 6 11 5 12 79 13
REMARK SMILES IDX 80 14 83 15 81 17 82 18 13 19 14 20 15 21 16 22 17 23 78 24
REMARK SMILES IDX 18 25 77 26 19 27 20 28 21 29 71 30 22 31 76 32 70 33 72 34
REMARK SMILES IDX 23 35 75 36 69 37 68 38 24 40 56 41 36 42 55 43 37 44 40 45
REMARK SMILES IDX 54 46 73 47 38 48 39 49 53 51 74 52 41 53 25 54 26 55 34 56
REMARK SMILES IDX 27 57 33 58 35 59 32 60 28 61 29 62 30 63 31 64 57 65 58 66
REMARK SMILES IDX 66 67 59 68 65 69 67 70 64 71 60 72 61 73 62 74 63 75 42 76
REMARK SMILES IDX 43 77 51 78 44 79 50 80 52 81 49 82 45 83 46 84 47 85 48 86
REMARK H PARENT 79 16 72 39 40 50
REMARK Flexibility Score: inf
ROOT
ATOM      1  C   UNL     1       5.052   2.839   2.504  1.00  0.00     0.275 C 
ENDROOT
BRANCH   1   2
ATOM      2  C   UNL     1       4.655   2.779   1.031  1.00  0.00     0.274 C 
BRANCH   2   3
ATOM      3  O   UNL     1       3.266   3.141   0.873  1.00  0.00    -0.457 OA
BRANCH   3   4
ATOM      4  C   UNL     1       2.364   2.130   0.701  1.00  0.00     0.369 C 
ATOM      5  O   UNL     1       2.708   0.954   0.634  1.00  0.00    -0.245 OA
BRANCH   4   6
ATOM      6  C   UNL     1       0.885   2.645   0.414  1.00  0.00     0.207 C 
ATOM      7  C   UNL     1      -0.425   1.002   1.992  1.00  0.00     0.027 C 
ATOM      8  C   UNL     1      -0.023   1.335   0.550  1.00  0.00     0.117 C 
ATOM      9  S   UNL     1      -1.569   1.210  -0.449  1.00  0.00    -0.152 SA
ATOM     10  C   UNL     1      -0.946   1.795  -2.030  1.00  0.00     0.070 C 
ATOM     11  C   UNL     1       0.961   3.133  -1.065  1.00  0.00     0.083 C 
ATOM     12  C   UNL     1      -0.341   3.174  -1.855  1.00  0.00     0.018 C 
BRANCH   6  13
ATOM     13  N   UNL     1       0.514   3.728   1.381  1.00  0.00    -0.320 N 
ATOM     14  C   UNL     1      -0.886   4.104   1.555  1.00  0.00     0.263 C 
ATOM     15  C   UNL     1       1.315   4.951   1.459  1.00  0.00     0.263 C 
ATOM     16  H   UNL     1       0.782   3.120   2.155  1.00  0.00     0.349 HD
ATOM     17  C   UNL     1      -0.991   5.540   1.092  1.00  0.00     0.067 C 
ATOM     18  C   UNL     1       0.356   6.133   1.429  1.00  0.00     0.067 C 
ENDBRANCH   6  13
ENDBRANCH   4   6
ENDBRANCH   3   4
ENDBRANCH   2   3
ENDBRANCH   1   2
BRANCH   1  19
ATOM     19  O   UNL     1       4.369   1.784   3.191  1.00  0.00    -0.458 OA
BRANCH  19  20
ATOM     20  C   UNL     1       3.982   2.042   4.463  1.00  0.00     0.338 C 
ATOM     21  O   UNL     1       4.280   3.019   5.126  1.00  0.00    -0.246 OA
BRANCH  20  22
ATOM     22  C   UNL     1       3.112   0.936   4.936  1.00  0.00     0.060 A 
ATOM     23  C   UNL     1       2.346   0.200   4.034  1.00  0.00     0.016 A 
ATOM     24  C   UNL     1       2.992   0.675   6.301  1.00  0.00     0.016 A 
ATOM     25  C   UNL     1       1.397  -0.713   4.491  1.00  0.00     0.010 A 
ATOM     26  C   UNL     1       2.116  -0.326   6.748  1.00  0.00     0.010 A 
ATOM     27  C   UNL     1       1.273  -1.010   5.852  1.00  0.00    -0.014 A 
BRANCH  27  28
ATOM     28  C   UNL     1       0.230  -1.970   6.334  1.00  0.00     0.031 A 
ATOM     29  C   UNL     1      -0.721  -1.558   7.431  1.00  0.00     0.074 A 
ATOM     30  C   UNL     1       0.096  -3.200   5.794  1.00  0.00     0.049 A 
ATOM     31  N   UNL     1      -1.493  -2.296   8.187  1.00  0.00    -0.248 NA
ATOM     32  C   UNL     1      -0.783  -0.121   7.736  1.00  0.00     0.031 C 
ATOM     33  C   UNL     1       0.884  -3.735   4.681  1.00  0.00     0.029 A 
ATOM     34  N   UNL     1      -0.764  -4.228   6.105  1.00  0.00    -0.354 N 
ATOM     35  C   UNL     1      -2.061  -1.429   9.117  1.00  0.00     0.074 A 
ATOM     36  C   UNL     1      -1.541  -0.109   8.822  1.00  0.00     0.031 C 
ATOM     37  C   UNL     1       0.437  -4.960   4.369  1.00  0.00     0.029 A 
ATOM     38  C   UNL     1      -0.576  -5.356   5.338  1.00  0.00     0.049 A 
ATOM     39  H   UNL     1      -1.449  -4.163   6.809  1.00  0.00     0.167 HD
ATOM     40  C   UNL     1      -2.924  -1.713  10.126  1.00  0.00     0.034 A 
ATOM     41  C   UNL     1      -1.098  -6.596   5.438  1.00  0.00     0.034 A 
ATOM     42  C   UNL     1      -3.493  -3.022  10.350  1.00  0.00     0.049 A 
ATOM     43  C   UNL     1      -2.045  -6.899   6.566  1.00  0.00     0.074 A 
ATOM     44  C   UNL     1      -4.385  -3.421  11.332  1.00  0.00     0.029 A 
ATOM     45  N   UNL     1      -3.245  -4.144   9.567  1.00  0.00    -0.354 N 
ATOM     46  N   UNL     1      -2.472  -6.106   7.521  1.00  0.00    -0.248 NA
ATOM     47  C   UNL     1      -2.558  -8.273   6.646  1.00  0.00     0.031 C 
ATOM     48  C   UNL     1      -4.635  -4.790  11.174  1.00  0.00     0.029 A 
ATOM     49  C   UNL     1      -3.952  -5.234  10.053  1.00  0.00     0.049 A 
ATOM     50  H   UNL     1      -2.652  -4.162   8.781  1.00  0.00     0.167 HD
ATOM     51  C   UNL     1      -3.296  -6.889   8.323  1.00  0.00     0.074 A 
ATOM     52  C   UNL     1      -3.333  -8.206   7.720  1.00  0.00     0.031 C 
ATOM     53  C   UNL     1      -3.954  -6.552   9.461  1.00  0.00     0.034 A 
BRANCH  40  54
ATOM     54  C   UNL     1      -3.235  -0.604  11.106  1.00  0.00     0.023 A 
ATOM     55  C   UNL     1      -3.896   0.578  10.728  1.00  0.00     0.031 A 
ATOM     56  C   UNL     1      -2.807  -0.716  12.443  1.00  0.00     0.131 A 
ATOM     57  C   UNL     1      -4.029   1.631  11.648  1.00  0.00     0.055 A 
ATOM     58  C   UNL     1      -3.021   0.300  13.376  1.00  0.00     0.041 A 
ATOM     59  F   UNL     1      -2.152  -1.810  12.861  1.00  0.00    -0.206 F 
ATOM     60  C   UNL     1      -3.618   1.491  12.976  1.00  0.00     0.022 A 
BRANCH  57  61
ATOM     61  S   UNL     1      -4.590   3.247  11.043  1.00  0.00     0.124 S 
ATOM     62  O   UNL     1      -3.624   3.518   9.981  1.00  0.00    -0.237 OA
ATOM     63  O   UNL     1      -5.954   2.964  10.611  1.00  0.00    -0.237 OA
ATOM     64  O   UNL     1      -4.473   4.112  12.215  1.00  0.00    -0.744 OA
ENDBRANCH  57  61
ENDBRANCH  40  54
BRANCH  41  65
ATOM     65  C   UNL     1      -0.641  -7.670   4.509  1.00  0.00     0.023 A 
ATOM     66  C   UNL     1      -1.515  -8.265   3.586  1.00  0.00     0.031 A 
ATOM     67  C   UNL     1       0.693  -8.119   4.539  1.00  0.00     0.131 A 
ATOM     68  C   UNL     1      -1.047  -9.285   2.741  1.00  0.00     0.055 A 
ATOM     69  C   UNL     1       1.166  -9.092   3.660  1.00  0.00     0.041 A 
ATOM     70  F   UNL     1       1.569  -7.586   5.407  1.00  0.00    -0.206 F 
ATOM     71  C   UNL     1       0.292  -9.686   2.757  1.00  0.00     0.022 A 
BRANCH  68  72
ATOM     72  S   UNL     1      -2.225 -10.122   1.644  1.00  0.00     0.124 S 
ATOM     73  O   UNL     1      -3.155 -10.710   2.600  1.00  0.00    -0.237 OA
ATOM     74  O   UNL     1      -2.740  -9.015   0.845  1.00  0.00    -0.237 OA
ATOM     75  O   UNL     1      -1.392 -11.077   0.915  1.00  0.00    -0.744 OA
ENDBRANCH  68  72
ENDBRANCH  41  65
BRANCH  53  76
ATOM     76  C   UNL     1      -4.783  -7.633  10.108  1.00  0.00     0.023 A 
ATOM     77  C   UNL     1      -4.186  -8.746  10.726  1.00  0.00     0.031 A 
ATOM     78  C   UNL     1      -6.186  -7.562  10.080  1.00  0.00     0.131 A 
ATOM     79  C   UNL     1      -4.991  -9.772  11.244  1.00  0.00     0.055 A 
ATOM     80  C   UNL     1      -6.982  -8.561  10.643  1.00  0.00     0.041 A 
ATOM     81  F   UNL     1      -6.806  -6.522   9.500  1.00  0.00    -0.206 F 
ATOM     82  C   UNL     1      -6.385  -9.680  11.217  1.00  0.00     0.022 A 
BRANCH  79  83
ATOM     83  S   UNL     1      -4.194 -11.274  11.876  1.00  0.00     0.124 S 
ATOM     84  O   UNL     1      -3.460 -11.745  10.705  1.00  0.00    -0.237 OA
ATOM     85  O   UNL     1      -3.382 -10.759  12.973  1.00  0.00    -0.237 OA
ATOM     86  O   UNL     1      -5.318 -12.116  12.281  1.00  0.00    -0.744 OA
ENDBRANCH  79  83
ENDBRANCH  53  76
ENDBRANCH  27  28
ENDBRANCH  20  22
ENDBRANCH  19  20
ENDBRANCH   1  19
TORSDOF 15
