REMARK SMILES CC[C@H](CCC1CC1)C(=O)OCCOC(=O)c1ccc(-c2c3nc(c(-c4cc(S(=O)(=O)[O-])ccc4F)c4ccc([nH]4)c(-c4cc(S(=O)(=O)[O-])ccc4F)c4nc(c(-c5cc(S(=O)(=O)[O-])ccc5F)c5ccc2[nH]5)C=C4)C=C3)cc1
REMARK SMILES IDX 12 1 11 2 9 3 10 4 3 5 2 6 1 7 4 8 5 9 6 10 7 11 8 12 13 13
REMARK SMILES IDX 14 14 15 15 16 16 17 17 18 18 79 19 19 20 78 21 20 22 21 23
REMARK SMILES IDX 22 24 72 25 23 26 77 27 71 28 73 29 24 30 76 31 70 32 69 33
REMARK SMILES IDX 25 35 57 36 37 37 56 38 38 39 41 40 55 41 74 42 39 43 40 44
REMARK SMILES IDX 54 46 75 47 42 48 26 49 27 50 35 51 28 52 34 53 36 54 33 55
REMARK SMILES IDX 29 56 30 57 31 58 32 59 58 60 59 61 67 62 60 63 66 64 68 65
REMARK SMILES IDX 65 66 61 67 62 68 63 69 64 70 43 71 44 72 52 73 45 74 51 75
REMARK SMILES IDX 53 76 50 77 46 78 47 79 48 80 49 81
REMARK H PARENT 73 34 41 45
REMARK Flexibility Score: inf
ROOT
ATOM      1  C   UNL     1      -0.990   2.611  -5.018  1.00  0.00     0.274 C 
ENDROOT
BRANCH   1   2
ATOM      2  O   UNL     1      -0.783   1.933  -3.761  1.00  0.00    -0.462 OA
BRANCH   2   3
ATOM      3  C   UNL     1       0.265   1.072  -3.739  1.00  0.00     0.309 C 
ATOM      4  O   UNL     1       1.002   0.858  -4.697  1.00  0.00    -0.252 OA
BRANCH   3   5
ATOM      5  C   UNL     1       0.414   0.299  -2.434  1.00  0.00     0.099 C 
BRANCH   5   6
ATOM      6  C   UNL     1       0.035  -1.169  -2.722  1.00  0.00     0.012 C 
ATOM      7  C   UNL     1      -1.416  -1.369  -3.150  1.00  0.00     0.005 C 
ENDBRANCH   5   6
BRANCH   5   8
ATOM      8  C   UNL     1      -0.291   0.813  -1.166  1.00  0.00     0.015 C 
BRANCH   8   9
ATOM      9  C   UNL     1      -0.010   2.274  -0.798  1.00  0.00     0.004 C 
BRANCH   9  10
ATOM     10  C   UNL     1      -1.255   3.040  -0.423  1.00  0.00    -0.011 C 
ATOM     11  C   UNL     1      -1.746   4.128  -1.346  1.00  0.00     0.004 C 
ATOM     12  C   UNL     1      -2.574   2.896  -1.155  1.00  0.00     0.004 C 
ENDBRANCH   9  10
ENDBRANCH   8   9
ENDBRANCH   5   8
ENDBRANCH   3   5
ENDBRANCH   2   3
ENDBRANCH   1   2
BRANCH   1  13
ATOM     13  C   UNL     1      -0.277   3.962  -5.071  1.00  0.00     0.275 C 
BRANCH  13  14
ATOM     14  O   UNL     1       1.111   3.801  -4.746  1.00  0.00    -0.458 OA
BRANCH  14  15
ATOM     15  C   UNL     1       1.589   4.595  -3.760  1.00  0.00     0.338 C 
ATOM     16  O   UNL     1       0.998   5.478  -3.167  1.00  0.00    -0.246 OA
BRANCH  15  17
ATOM     17  C   UNL     1       3.011   4.276  -3.550  1.00  0.00     0.060 A 
ATOM     18  C   UNL     1       3.424   2.975  -3.247  1.00  0.00     0.016 A 
ATOM     19  C   UNL     1       3.939   5.312  -3.645  1.00  0.00     0.016 A 
ATOM     20  C   UNL     1       4.775   2.704  -3.042  1.00  0.00     0.010 A 
ATOM     21  C   UNL     1       5.294   5.031  -3.489  1.00  0.00     0.010 A 
ATOM     22  C   UNL     1       5.722   3.726  -3.188  1.00  0.00    -0.014 A 
BRANCH  22  23
ATOM     23  C   UNL     1       7.173   3.456  -3.062  1.00  0.00     0.031 A 
ATOM     24  C   UNL     1       7.941   4.055  -1.922  1.00  0.00     0.074 A 
ATOM     25  C   UNL     1       7.795   2.750  -4.025  1.00  0.00     0.049 A 
ATOM     26  N   UNL     1       9.233   4.147  -1.750  1.00  0.00    -0.248 NA
ATOM     27  C   UNL     1       7.140   4.649  -0.842  1.00  0.00     0.031 C 
ATOM     28  C   UNL     1       7.130   2.106  -5.160  1.00  0.00     0.029 A 
ATOM     29  N   UNL     1       9.125   2.483  -4.223  1.00  0.00    -0.354 N 
ATOM     30  C   UNL     1       9.406   4.835  -0.553  1.00  0.00     0.074 A 
ATOM     31  C   UNL     1       8.082   5.153  -0.058  1.00  0.00     0.031 C 
ATOM     32  C   UNL     1       8.056   1.534  -5.944  1.00  0.00     0.029 A 
ATOM     33  C   UNL     1       9.379   1.828  -5.405  1.00  0.00     0.049 A 
ATOM     34  H   UNL     1       9.828   2.736  -3.582  1.00  0.00     0.167 HD
ATOM     35  C   UNL     1      10.567   5.169   0.065  1.00  0.00     0.034 A 
ATOM     36  C   UNL     1      10.548   1.544  -6.012  1.00  0.00     0.034 A 
ATOM     37  C   UNL     1      11.870   4.847  -0.471  1.00  0.00     0.049 A 
ATOM     38  C   UNL     1      11.824   1.969  -5.336  1.00  0.00     0.074 A 
ATOM     39  C   UNL     1      13.118   5.132   0.053  1.00  0.00     0.029 A 
ATOM     40  N   UNL     1      12.089   4.168  -1.666  1.00  0.00    -0.354 N 
ATOM     41  N   UNL     1      11.981   2.639  -4.217  1.00  0.00    -0.248 NA
ATOM     42  C   UNL     1      13.078   1.599  -6.002  1.00  0.00     0.031 C 
ATOM     43  C   UNL     1      14.088   4.678  -0.850  1.00  0.00     0.029 A 
ATOM     44  C   UNL     1      13.449   4.045  -1.905  1.00  0.00     0.049 A 
ATOM     45  H   UNL     1      11.380   3.824  -2.256  1.00  0.00     0.167 HD
ATOM     46  C   UNL     1      13.354   2.755  -4.034  1.00  0.00     0.074 A 
ATOM     47  C   UNL     1      13.978   2.069  -5.150  1.00  0.00     0.031 C 
ATOM     48  C   UNL     1      14.042   3.369  -3.037  1.00  0.00     0.034 A 
BRANCH  35  49
ATOM     49  C   UNL     1      10.466   5.970   1.342  1.00  0.00     0.023 A 
ATOM     50  C   UNL     1       9.844   5.455   2.494  1.00  0.00     0.031 A 
ATOM     51  C   UNL     1      10.953   7.288   1.396  1.00  0.00     0.131 A 
ATOM     52  C   UNL     1       9.655   6.276   3.618  1.00  0.00     0.055 A 
ATOM     53  C   UNL     1      10.834   8.074   2.545  1.00  0.00     0.041 A 
ATOM     54  F   UNL     1      11.537   7.846   0.324  1.00  0.00    -0.206 F 
ATOM     55  C   UNL     1      10.167   7.574   3.660  1.00  0.00     0.022 A 
BRANCH  52  56
ATOM     56  S   UNL     1       8.603   5.672   4.967  1.00  0.00     0.124 S 
ATOM     57  O   UNL     1       7.337   5.442   4.275  1.00  0.00    -0.237 OA
ATOM     58  O   UNL     1       9.313   4.480   5.413  1.00  0.00    -0.237 OA
ATOM     59  O   UNL     1       8.591   6.783   5.917  1.00  0.00    -0.744 OA
ENDBRANCH  52  56
ENDBRANCH  35  49
BRANCH  36  60
ATOM     60  C   UNL     1      10.559   0.873  -7.342  1.00  0.00     0.023 A 
ATOM     61  C   UNL     1      11.081  -0.419  -7.499  1.00  0.00     0.031 A 
ATOM     62  C   UNL     1      10.047   1.521  -8.482  1.00  0.00     0.131 A 
ATOM     63  C   UNL     1      11.106  -1.014  -8.770  1.00  0.00     0.055 A 
ATOM     64  C   UNL     1      10.030   0.906  -9.736  1.00  0.00     0.041 A 
ATOM     65  F   UNL     1       9.532   2.757  -8.388  1.00  0.00    -0.206 F 
ATOM     66  C   UNL     1      10.571  -0.366  -9.886  1.00  0.00     0.022 A 
BRANCH  63  67
ATOM     67  S   UNL     1      11.906  -2.631  -8.957  1.00  0.00     0.124 S 
ATOM     68  O   UNL     1      13.253  -2.356  -8.468  1.00  0.00    -0.237 OA
ATOM     69  O   UNL     1      11.077  -3.479  -8.108  1.00  0.00    -0.237 OA
ATOM     70  O   UNL     1      11.804  -2.898 -10.390  1.00  0.00    -0.744 OA
ENDBRANCH  63  67
ENDBRANCH  36  60
BRANCH  48  71
ATOM     71  C   UNL     1      15.545   3.280  -3.104  1.00  0.00     0.023 A 
ATOM     72  C   UNL     1      16.279   3.947  -4.100  1.00  0.00     0.031 A 
ATOM     73  C   UNL     1      16.247   2.492  -2.175  1.00  0.00     0.131 A 
ATOM     74  C   UNL     1      17.667   3.765  -4.181  1.00  0.00     0.055 A 
ATOM     75  C   UNL     1      17.634   2.362  -2.225  1.00  0.00     0.041 A 
ATOM     76  F   UNL     1      15.591   1.833  -1.206  1.00  0.00    -0.206 F 
ATOM     77  C   UNL     1      18.351   2.989  -3.241  1.00  0.00     0.022 A 
BRANCH  74  78
ATOM     78  S   UNL     1      18.558   4.482  -5.588  1.00  0.00     0.124 S 
ATOM     79  O   UNL     1      17.900   3.841  -6.722  1.00  0.00    -0.237 OA
ATOM     80  O   UNL     1      18.303   5.910  -5.426  1.00  0.00    -0.237 OA
ATOM     81  O   UNL     1      19.943   4.072  -5.362  1.00  0.00    -0.744 OA
ENDBRANCH  74  78
ENDBRANCH  48  71
ENDBRANCH  22  23
ENDBRANCH  15  17
ENDBRANCH  14  15
ENDBRANCH  13  14
ENDBRANCH   1  13
TORSDOF 18
