REMARK SMILES O=C(COCCNC(=O)[C@@H]1CCCCO1)OCCOC(=O)c1ccc(-c2c3nc(c(-c4cc(S(=O)(=O)[O-])ccc4F)c4ccc([nH]4)c(-c4cc(S(=O)(=O)[O-])ccc4F)c4nc(c(-c5cc(S(=O)(=O)[O-])ccc5F)c5ccc2[nH]5)C=C4)C=C3)cc1
REMARK SMILES IDX 17 1 16 2 2 3 1 4 3 5 4 6 5 7 6 8 7 9 8 10 9 12 10 13 11 14
REMARK SMILES IDX 15 15 12 16 14 17 13 18 18 19 19 20 20 21 21 22 22 23 23 24
REMARK SMILES IDX 84 25 24 26 83 27 25 28 26 29 27 30 77 31 28 32 82 33 76 34
REMARK SMILES IDX 78 35 29 36 81 37 75 38 74 39 30 41 62 42 42 43 61 44 43 45
REMARK SMILES IDX 46 46 60 47 79 48 44 49 45 50 59 52 80 53 47 54 31 55 32 56
REMARK SMILES IDX 40 57 33 58 39 59 41 60 38 61 34 62 35 63 36 64 37 65 63 66
REMARK SMILES IDX 64 67 72 68 65 69 71 70 73 71 70 72 66 73 67 74 68 75 69 76
REMARK SMILES IDX 48 77 49 78 57 79 50 80 56 81 58 82 55 83 51 84 52 85 53 86
REMARK SMILES IDX 54 87
REMARK H PARENT 7 11 78 40 46 51
REMARK Flexibility Score: inf
ROOT
ATOM      1  C   UNL     1       4.799   1.385  -0.267  1.00  0.00     0.274 C 
ENDROOT
BRANCH   1   2
ATOM      2  O   UNL     1       3.466   1.065  -0.705  1.00  0.00    -0.460 OA
BRANCH   2   3
ATOM      3  C   UNL     1       2.891  -0.160  -0.645  1.00  0.00     0.332 C 
ATOM      4  O   UNL     1       1.761  -0.315  -1.107  1.00  0.00    -0.250 OA
BRANCH   3   5
ATOM      5  C   UNL     1       3.659  -1.322   0.005  1.00  0.00     0.282 C 
BRANCH   5   6
ATOM      6  O   UNL     1       3.901  -2.486  -0.768  1.00  0.00    -0.368 OA
BRANCH   6   7
ATOM      7  C   UNL     1       2.746  -3.192  -1.231  1.00  0.00     0.182 C 
BRANCH   7   8
ATOM      8  C   UNL     1       1.982  -3.949  -0.135  1.00  0.00     0.144 C 
BRANCH   8   9
ATOM      9  N   UNL     1       1.097  -3.096   0.643  1.00  0.00    -0.352 N 
ATOM     10  C   UNL     1      -0.249  -2.904   0.559  1.00  0.00     0.249 C 
ATOM     11  H   UNL     1       1.544  -2.572   1.346  1.00  0.00     0.163 HD
ATOM     12  O   UNL     1      -0.720  -1.955   1.191  1.00  0.00    -0.272 OA
BRANCH  10  13
ATOM     13  C   UNL     1      -1.132  -3.842  -0.298  1.00  0.00     0.207 C 
ATOM     14  C   UNL     1      -2.609  -3.703   0.102  1.00  0.00     0.042 C 
ATOM     15  O   UNL     1      -0.788  -5.227  -0.293  1.00  0.00    -0.368 OA
ATOM     16  C   UNL     1      -2.861  -4.327   1.477  1.00  0.00     0.006 C 
ATOM     17  C   UNL     1      -0.900  -5.825   1.001  1.00  0.00     0.161 C 
ATOM     18  C   UNL     1      -2.323  -5.751   1.531  1.00  0.00     0.029 C 
ENDBRANCH  10  13
ENDBRANCH   8   9
ENDBRANCH   7   8
ENDBRANCH   6   7
ENDBRANCH   5   6
ENDBRANCH   3   5
ENDBRANCH   2   3
ENDBRANCH   1   2
BRANCH   1  19
ATOM     19  C   UNL     1       4.816   1.883   1.179  1.00  0.00     0.275 C 
BRANCH  19  20
ATOM     20  O   UNL     1       4.290   0.897   2.087  1.00  0.00    -0.458 OA
BRANCH  20  21
ATOM     21  C   UNL     1       3.007   1.118   2.491  1.00  0.00     0.338 C 
ATOM     22  O   UNL     1       2.305   2.049   2.152  1.00  0.00    -0.246 OA
BRANCH  21  23
ATOM     23  C   UNL     1       2.522  -0.017   3.317  1.00  0.00     0.060 A 
ATOM     24  C   UNL     1       1.171  -0.360   3.220  1.00  0.00     0.016 A 
ATOM     25  C   UNL     1       3.353  -0.720   4.198  1.00  0.00     0.016 A 
ATOM     26  C   UNL     1       0.639  -1.373   4.023  1.00  0.00     0.010 A 
ATOM     27  C   UNL     1       2.816  -1.734   5.008  1.00  0.00     0.010 A 
ATOM     28  C   UNL     1       1.447  -2.045   4.947  1.00  0.00    -0.014 A 
BRANCH  28  29
ATOM     29  C   UNL     1       0.805  -2.920   5.965  1.00  0.00     0.031 A 
ATOM     30  C   UNL     1       0.409  -2.311   7.284  1.00  0.00     0.074 A 
ATOM     31  C   UNL     1       0.527  -4.213   5.719  1.00  0.00     0.049 A 
ATOM     32  N   UNL     1      -0.240  -2.844   8.288  1.00  0.00    -0.248 NA
ATOM     33  C   UNL     1       0.807  -0.911   7.497  1.00  0.00     0.031 C 
ATOM     34  C   UNL     1       0.846  -4.926   4.485  1.00  0.00     0.029 A 
ATOM     35  N   UNL     1      -0.095  -5.157   6.501  1.00  0.00    -0.354 N 
ATOM     36  C   UNL     1      -0.350  -1.839   9.243  1.00  0.00     0.074 A 
ATOM     37  C   UNL     1       0.353  -0.686   8.720  1.00  0.00     0.031 C 
ATOM     38  C   UNL     1       0.412  -6.196   4.592  1.00  0.00     0.029 A 
ATOM     39  C   UNL     1      -0.206  -6.391   5.903  1.00  0.00     0.049 A 
ATOM     40  H   UNL     1      -0.431  -4.967   7.407  1.00  0.00     0.167 HD
ATOM     41  C   UNL     1      -0.989  -1.865  10.439  1.00  0.00     0.034 A 
ATOM     42  C   UNL     1      -0.745  -7.541   6.360  1.00  0.00     0.034 A 
ATOM     43  C   UNL     1      -1.658  -3.025  10.974  1.00  0.00     0.049 A 
ATOM     44  C   UNL     1      -1.384  -7.570   7.731  1.00  0.00     0.074 A 
ATOM     45  C   UNL     1      -2.338  -3.152  12.174  1.00  0.00     0.029 A 
ATOM     46  N   UNL     1      -1.714  -4.267  10.356  1.00  0.00    -0.354 N 
ATOM     47  N   UNL     1      -1.526  -6.598   8.603  1.00  0.00    -0.248 NA
ATOM     48  C   UNL     1      -1.952  -8.853   8.171  1.00  0.00     0.031 C 
ATOM     49  C   UNL     1      -2.739  -4.485  12.314  1.00  0.00     0.029 A 
ATOM     50  C   UNL     1      -2.385  -5.173  11.165  1.00  0.00     0.049 A 
ATOM     51  H   UNL     1      -1.333  -4.475   9.473  1.00  0.00     0.167 HD
ATOM     52  C   UNL     1      -2.240  -7.143   9.669  1.00  0.00     0.074 A 
ATOM     53  C   UNL     1      -2.506  -8.524   9.328  1.00  0.00     0.031 C 
ATOM     54  C   UNL     1      -2.649  -6.552  10.822  1.00  0.00     0.034 A 
BRANCH  41  55
ATOM     55  C   UNL     1      -0.941  -0.603  11.266  1.00  0.00     0.023 A 
ATOM     56  C   UNL     1      -1.536   0.592  10.823  1.00  0.00     0.031 A 
ATOM     57  C   UNL     1      -0.248  -0.581  12.489  1.00  0.00     0.131 A 
ATOM     58  C   UNL     1      -1.359   1.775  11.557  1.00  0.00     0.055 A 
ATOM     59  C   UNL     1      -0.147   0.581  13.256  1.00  0.00     0.041 A 
ATOM     60  F   UNL     1       0.361  -1.685  12.950  1.00  0.00    -0.206 F 
ATOM     61  C   UNL     1      -0.690   1.772  12.783  1.00  0.00     0.022 A 
BRANCH  58  62
ATOM     62  S   UNL     1      -1.878   3.345  10.810  1.00  0.00     0.124 S 
ATOM     63  O   UNL     1      -1.095   3.357   9.576  1.00  0.00    -0.237 OA
ATOM     64  O   UNL     1      -3.316   3.160  10.655  1.00  0.00    -0.237 OA
ATOM     65  O   UNL     1      -1.479   4.343  11.800  1.00  0.00    -0.744 OA
ENDBRANCH  58  62
ENDBRANCH  41  55
BRANCH  42  66
ATOM     66  C   UNL     1      -0.705  -8.784   5.534  1.00  0.00     0.023 A 
ATOM     67  C   UNL     1      -1.886  -9.405   5.096  1.00  0.00     0.031 A 
ATOM     68  C   UNL     1       0.517  -9.419   5.250  1.00  0.00     0.131 A 
ATOM     69  C   UNL     1      -1.825 -10.653   4.455  1.00  0.00     0.055 A 
ATOM     70  C   UNL     1       0.575 -10.633   4.563  1.00  0.00     0.041 A 
ATOM     71  F   UNL     1       1.676  -8.869   5.644  1.00  0.00    -0.206 F 
ATOM     72  C   UNL     1      -0.602 -11.266   4.176  1.00  0.00     0.022 A 
BRANCH  69  73
ATOM     73  S   UNL     1      -3.378 -11.515   4.080  1.00  0.00     0.124 S 
ATOM     74  O   UNL     1      -3.968 -11.651   5.407  1.00  0.00    -0.237 OA
ATOM     75  O   UNL     1      -4.033 -10.574   3.178  1.00  0.00    -0.237 OA
ATOM     76  O   UNL     1      -2.933 -12.762   3.462  1.00  0.00    -0.744 OA
ENDBRANCH  69  73
ENDBRANCH  42  66
BRANCH  54  77
ATOM     77  C   UNL     1      -3.487  -7.380  11.771  1.00  0.00     0.023 A 
ATOM     78  C   UNL     1      -2.979  -8.516  12.426  1.00  0.00     0.031 A 
ATOM     79  C   UNL     1      -4.829  -7.029  12.012  1.00  0.00     0.131 A 
ATOM     80  C   UNL     1      -3.820  -9.293  13.239  1.00  0.00     0.055 A 
ATOM     81  C   UNL     1      -5.643  -7.769  12.871  1.00  0.00     0.041 A 
ATOM     82  F   UNL     1      -5.372  -5.955  11.416  1.00  0.00    -0.206 F 
ATOM     83  C   UNL     1      -5.144  -8.917  13.478  1.00  0.00     0.022 A 
BRANCH  80  84
ATOM     84  S   UNL     1      -3.194 -10.864  13.898  1.00  0.00     0.124 S 
ATOM     85  O   UNL     1      -2.766 -11.555  12.686  1.00  0.00    -0.237 OA
ATOM     86  O   UNL     1      -2.126 -10.423  14.790  1.00  0.00    -0.237 OA
ATOM     87  O   UNL     1      -4.357 -11.445  14.566  1.00  0.00    -0.744 OA
ENDBRANCH  80  84
ENDBRANCH  54  77
ENDBRANCH  28  29
ENDBRANCH  21  23
ENDBRANCH  20  21
ENDBRANCH  19  20
ENDBRANCH   1  19
TORSDOF 19
