REMARK SMILES O=C(C[C@@H]1CSCC[NH2+]1)NC[C@@H](C(=O)OCCOC(=O)c1ccc(-c2c3nc(c(-c4cc(S(=O)(=O)[O-])ccc4F)c4ccc([nH]4)c(-c4cc(S(=O)(=O)[O-])ccc4F)c4nc(c(-c5cc(S(=O)(=O)[O-])ccc5F)c5ccc2[nH]5)C=C4)C=C3)cc1)c1ccccc1
REMARK SMILES IDX 16 1 15 2 13 3 14 4 12 5 11 6 10 7 1 8 2 9 3 11 4 12 5 13
REMARK SMILES IDX 9 14 6 15 8 16 7 19 84 20 85 21 89 22 86 23 88 24 87 25
REMARK SMILES IDX 17 26 18 27 19 28 20 29 21 30 22 31 83 32 23 33 82 34 24 35
REMARK SMILES IDX 25 36 26 37 76 38 27 39 81 40 75 41 77 42 28 43 80 44 74 45
REMARK SMILES IDX 73 46 29 48 61 49 41 50 60 51 42 52 45 53 59 54 78 55 43 56
REMARK SMILES IDX 44 57 58 59 79 60 46 61 30 62 31 63 39 64 32 65 38 66 40 67
REMARK SMILES IDX 37 68 33 69 34 70 35 71 36 72 62 73 63 74 71 75 64 76 70 77
REMARK SMILES IDX 72 78 69 79 65 80 66 81 67 82 68 83 47 84 48 85 56 86 49 87
REMARK SMILES IDX 55 88 57 89 54 90 50 91 51 92 52 93 53 94
REMARK H PARENT 10 10 9 17 9 18 77 47 45 58
REMARK Flexibility Score: inf
ROOT
ATOM      1  C   UNL     1       6.178   3.334  -0.774  1.00  0.00     0.274 C 
ENDROOT
BRANCH   1   2
ATOM      2  O   UNL     1       4.771   3.006  -0.739  1.00  0.00    -0.462 OA
BRANCH   2   3
ATOM      3  C   UNL     1       3.910   3.983  -0.317  1.00  0.00     0.315 C 
ATOM      4  O   UNL     1       4.296   5.086   0.052  1.00  0.00    -0.251 OA
BRANCH   3   5
ATOM      5  C   UNL     1       2.436   3.512  -0.273  1.00  0.00     0.148 C 
BRANCH   5   6
ATOM      6  C   UNL     1       2.247   2.170  -1.010  1.00  0.00     0.136 C 
BRANCH   6   7
ATOM      7  N   UNL     1       2.931   1.048  -0.382  1.00  0.00    -0.355 N 
ATOM      8  O   UNL     1       1.045   0.088   0.489  1.00  0.00    -0.275 OA
ATOM      9  C   UNL     1       2.246   0.038   0.243  1.00  0.00     0.226 C 
ATOM     10  H   UNL     1       3.915   1.013  -0.408  1.00  0.00     0.163 HD
BRANCH   9  11
ATOM     11  C   UNL     1       3.088  -1.135   0.684  1.00  0.00     0.165 C 
BRANCH  11  12
ATOM     12  C   UNL     1       3.862  -1.901  -0.414  1.00  0.00     0.201 C 
ATOM     13  C   UNL     1       3.441  -1.702  -1.887  1.00  0.00     0.135 C 
ATOM     14  N   UNL     1       3.995  -3.343  -0.068  1.00  0.00    -0.342 N 
ATOM     15  S   UNL     1       1.825  -2.420  -2.281  1.00  0.00    -0.150 SA
ATOM     16  C   UNL     1       2.740  -4.097  -0.268  1.00  0.00     0.271 C 
ATOM     17  H   UNL     1       4.268  -3.420   0.912  1.00  0.00     0.346 HD
ATOM     18  H   UNL     1       4.697  -3.745  -0.688  1.00  0.00     0.346 HD
ATOM     19  C   UNL     1       2.194  -4.098  -1.700  1.00  0.00     0.131 C 
ENDBRANCH  11  12
ENDBRANCH   9  11
ENDBRANCH   6   7
ENDBRANCH   5   6
BRANCH   5  20
ATOM     20  C   UNL     1       1.451   4.603  -0.743  1.00  0.00    -0.032 A 
ATOM     21  C   UNL     1       1.449   5.863  -0.114  1.00  0.00     0.004 A 
ATOM     22  C   UNL     1       0.527   4.408  -1.789  1.00  0.00     0.004 A 
ATOM     23  C   UNL     1       0.598   6.890  -0.538  1.00  0.00     0.000 A 
ATOM     24  C   UNL     1      -0.341   5.428  -2.197  1.00  0.00     0.000 A 
ATOM     25  C   UNL     1      -0.300   6.672  -1.577  1.00  0.00     0.000 A 
ENDBRANCH   5  20
ENDBRANCH   3   5
ENDBRANCH   2   3
ENDBRANCH   1   2
BRANCH   1  26
ATOM     26  C   UNL     1       6.697   3.277  -2.210  1.00  0.00     0.275 C 
BRANCH  26  27
ATOM     27  O   UNL     1       6.096   4.337  -2.971  1.00  0.00    -0.458 OA
BRANCH  27  28
ATOM     28  C   UNL     1       5.250   3.958  -3.958  1.00  0.00     0.338 C 
ATOM     29  O   UNL     1       5.020   2.828  -4.347  1.00  0.00    -0.246 OA
BRANCH  28  30
ATOM     30  C   UNL     1       4.517   5.154  -4.399  1.00  0.00     0.060 A 
ATOM     31  C   UNL     1       3.446   5.569  -3.615  1.00  0.00     0.016 A 
ATOM     32  C   UNL     1       4.841   5.838  -5.569  1.00  0.00     0.016 A 
ATOM     33  C   UNL     1       2.682   6.665  -3.995  1.00  0.00     0.010 A 
ATOM     34  C   UNL     1       4.089   6.966  -5.933  1.00  0.00     0.010 A 
ATOM     35  C   UNL     1       2.999   7.387  -5.148  1.00  0.00    -0.014 A 
BRANCH  35  36
ATOM     36  C   UNL     1       2.157   8.554  -5.522  1.00  0.00     0.031 A 
ATOM     37  C   UNL     1       1.271   8.482  -6.734  1.00  0.00     0.074 A 
ATOM     38  C   UNL     1       2.131   9.651  -4.737  1.00  0.00     0.049 A 
ATOM     39  N   UNL     1       0.561   9.426  -7.295  1.00  0.00    -0.248 NA
ATOM     40  C   UNL     1       1.163   7.173  -7.395  1.00  0.00     0.031 C 
ATOM     41  C   UNL     1       2.857   9.804  -3.474  1.00  0.00     0.029 A 
ATOM     42  N   UNL     1       1.462  10.843  -4.878  1.00  0.00    -0.354 N 
ATOM     43  C   UNL     1      -0.053   8.837  -8.394  1.00  0.00     0.074 A 
ATOM     44  C   UNL     1       0.366   7.451  -8.418  1.00  0.00     0.031 C 
ATOM     45  C   UNL     1       2.589  11.013  -2.956  1.00  0.00     0.029 A 
ATOM     46  C   UNL     1       1.742  11.755  -3.885  1.00  0.00     0.049 A 
ATOM     47  H   UNL     1       0.840  11.027  -5.619  1.00  0.00     0.167 HD
ATOM     48  C   UNL     1      -0.881   9.407  -9.303  1.00  0.00     0.034 A 
ATOM     49  C   UNL     1       1.406  13.056  -3.765  1.00  0.00     0.034 A 
ATOM     50  C   UNL     1      -1.310  10.783  -9.255  1.00  0.00     0.049 A 
ATOM     51  C   UNL     1       0.579  13.694  -4.855  1.00  0.00     0.074 A 
ATOM     52  C   UNL     1      -2.153  11.453 -10.125  1.00  0.00     0.029 A 
ATOM     53  N   UNL     1      -0.926  11.702  -8.289  1.00  0.00    -0.354 N 
ATOM     54  N   UNL     1       0.054  13.141  -5.924  1.00  0.00    -0.248 NA
ATOM     55  C   UNL     1       0.319  15.135  -4.734  1.00  0.00     0.031 C 
ATOM     56  C   UNL     1      -2.225  12.791  -9.723  1.00  0.00     0.029 A 
ATOM     57  C   UNL     1      -1.480  12.943  -8.566  1.00  0.00     0.049 A 
ATOM     58  H   UNL     1      -0.346  11.503  -7.519  1.00  0.00     0.167 HD
ATOM     59  C   UNL     1      -0.604  14.168  -6.596  1.00  0.00     0.074 A 
ATOM     60  C   UNL     1      -0.436  15.364  -5.798  1.00  0.00     0.031 C 
ATOM     61  C   UNL     1      -1.281  14.130  -7.771  1.00  0.00     0.034 A 
BRANCH  48  62
ATOM     62  C   UNL     1      -1.311   8.566 -10.476  1.00  0.00     0.023 A 
ATOM     63  C   UNL     1      -2.222   7.506 -10.348  1.00  0.00     0.031 A 
ATOM     64  C   UNL     1      -0.793   8.847 -11.754  1.00  0.00     0.131 A 
ATOM     65  C   UNL     1      -2.561   6.740 -11.475  1.00  0.00     0.055 A 
ATOM     66  C   UNL     1      -1.177   8.119 -12.880  1.00  0.00     0.041 A 
ATOM     67  F   UNL     1       0.098   9.837 -11.926  1.00  0.00    -0.206 F 
ATOM     68  C   UNL     1      -2.060   7.053 -12.742  1.00  0.00     0.022 A 
BRANCH  65  69
ATOM     69  S   UNL     1      -3.600   5.270 -11.254  1.00  0.00     0.124 S 
ATOM     70  O   UNL     1      -2.776   4.457 -10.364  1.00  0.00    -0.237 OA
ATOM     71  O   UNL     1      -4.815   5.827 -10.669  1.00  0.00    -0.237 OA
ATOM     72  O   UNL     1      -3.746   4.746 -12.610  1.00  0.00    -0.744 OA
ENDBRANCH  65  69
ENDBRANCH  48  62
BRANCH  49  73
ATOM     73  C   UNL     1       1.935  13.883  -2.640  1.00  0.00     0.023 A 
ATOM     74  C   UNL     1       1.074  14.539  -1.747  1.00  0.00     0.031 A 
ATOM     75  C   UNL     1       3.319  14.106  -2.501  1.00  0.00     0.131 A 
ATOM     76  C   UNL     1       1.599  15.424  -0.791  1.00  0.00     0.055 A 
ATOM     77  C   UNL     1       3.840  14.936  -1.508  1.00  0.00     0.041 A 
ATOM     78  F   UNL     1       4.190  13.519  -3.337  1.00  0.00    -0.206 F 
ATOM     79  C   UNL     1       2.976  15.615  -0.656  1.00  0.00     0.022 A 
BRANCH  76  80
ATOM     80  S   UNL     1       0.449  16.424   0.195  1.00  0.00     0.124 S 
ATOM     81  O   UNL     1      -0.350  17.068  -0.841  1.00  0.00    -0.237 OA
ATOM     82  O   UNL     1      -0.230  15.406   0.990  1.00  0.00    -0.237 OA
ATOM     83  O   UNL     1       1.331  17.314   0.947  1.00  0.00    -0.744 OA
ENDBRANCH  76  80
ENDBRANCH  49  73
BRANCH  61  84
ATOM     84  C   UNL     1      -1.898  15.422  -8.243  1.00  0.00     0.023 A 
ATOM     85  C   UNL     1      -1.102  16.497  -8.679  1.00  0.00     0.031 A 
ATOM     86  C   UNL     1      -3.293  15.589  -8.239  1.00  0.00     0.131 A 
ATOM     87  C   UNL     1      -1.705  17.708  -9.047  1.00  0.00     0.055 A 
ATOM     88  C   UNL     1      -3.891  16.779  -8.656  1.00  0.00     0.041 A 
ATOM     89  F   UNL     1      -4.098  14.595  -7.830  1.00  0.00    -0.206 F 
ATOM     90  C   UNL     1      -3.095  17.851  -9.053  1.00  0.00     0.022 A 
BRANCH  87  91
ATOM     91  S   UNL     1      -0.645  19.123  -9.450  1.00  0.00     0.124 S 
ATOM     92  O   UNL     1       0.087  19.320  -8.203  1.00  0.00    -0.237 OA
ATOM     93  O   UNL     1       0.137  18.620 -10.575  1.00  0.00    -0.237 OA
ATOM     94  O   UNL     1      -1.597  20.182  -9.783  1.00  0.00    -0.744 OA
ENDBRANCH  87  91
ENDBRANCH  61  84
ENDBRANCH  35  36
ENDBRANCH  28  30
ENDBRANCH  27  28
ENDBRANCH  26  27
ENDBRANCH   1  26
TORSDOF 19
