REMARK SMILES C[C@H](Sc1ccccn1)C(=O)N[C@H](C(=O)OCCOC(=O)c1ccc(-c2c3nc(c(-c4cc(S(=O)(=O)[O-])ccc4F)c4ccc([nH]4)c(-c4cc(S(=O)(=O)[O-])ccc4F)c4nc(c(-c5cc(S(=O)(=O)[O-])ccc5F)c5ccc2[nH]5)C=C4)C=C3)cc1)c1ccc(F)cc1
REMARK SMILES IDX 17 1 16 2 14 3 15 4 13 5 12 6 10 7 11 8 2 10 1 11 3 12 4 13
REMARK SMILES IDX 5 14 9 15 6 16 8 17 7 18 85 19 86 20 91 21 87 22 90 23 88 24
REMARK SMILES IDX 89 25 18 26 19 27 20 28 21 29 22 30 23 31 84 32 24 33 83 34
REMARK SMILES IDX 25 35 26 36 27 37 77 38 28 39 82 40 76 41 78 42 29 43 81 44
REMARK SMILES IDX 75 45 74 46 30 48 62 49 42 50 61 51 43 52 46 53 60 54 79 55
REMARK SMILES IDX 44 56 45 57 59 59 80 60 47 61 31 62 32 63 40 64 33 65 39 66
REMARK SMILES IDX 41 67 38 68 34 69 35 70 36 71 37 72 63 73 64 74 72 75 65 76
REMARK SMILES IDX 71 77 73 78 70 79 66 80 67 81 68 82 69 83 48 84 49 85 57 86
REMARK SMILES IDX 50 87 56 88 58 89 55 90 51 91 52 92 53 93 54 94
REMARK H PARENT 12 9 78 47 46 58
REMARK Flexibility Score: inf
ROOT
ATOM      1  C   UNL     1      -4.501  -0.101  -1.804  1.00  0.00     0.274 C 
ENDROOT
BRANCH   1   2
ATOM      2  O   UNL     1      -3.737  -1.072  -1.054  1.00  0.00    -0.460 OA
BRANCH   2   3
ATOM      3  C   UNL     1      -2.461  -1.290  -1.490  1.00  0.00     0.333 C 
ATOM      4  O   UNL     1      -1.981  -0.746  -2.483  1.00  0.00    -0.249 OA
BRANCH   3   5
ATOM      5  C   UNL     1      -1.734  -2.415  -0.713  1.00  0.00     0.223 C 
BRANCH   5   6
ATOM      6  N   UNL     1      -2.332  -2.886   0.551  1.00  0.00    -0.338 N 
ATOM      7  C   UNL     1      -2.049  -2.678   1.858  1.00  0.00     0.234 C 
ATOM      8  O   UNL     1      -2.401  -3.604   2.610  1.00  0.00    -0.274 OA
ATOM      9  H   UNL     1      -3.104  -3.481   0.414  1.00  0.00     0.164 HD
BRANCH   7  10
ATOM     10  C   UNL     1      -1.521  -1.405   2.510  1.00  0.00     0.139 C 
ATOM     11  C   UNL     1      -2.704  -0.466   2.762  1.00  0.00     0.030 C 
BRANCH  10  12
ATOM     12  S   UNL     1      -0.127  -0.554   1.733  1.00  0.00    -0.093 SA
BRANCH  12  13
ATOM     13  C   UNL     1       1.100  -1.800   1.486  1.00  0.00     0.097 A 
ATOM     14  C   UNL     1       1.263  -2.920   2.287  1.00  0.00     0.035 A 
ATOM     15  N   UNL     1       1.893  -1.560   0.415  1.00  0.00    -0.250 NA
ATOM     16  C   UNL     1       2.275  -3.825   1.974  1.00  0.00     0.004 A 
ATOM     17  C   UNL     1       2.891  -2.427   0.155  1.00  0.00     0.112 A 
ATOM     18  C   UNL     1       3.112  -3.574   0.893  1.00  0.00     0.020 A 
ENDBRANCH  12  13
ENDBRANCH  10  12
ENDBRANCH   7  10
ENDBRANCH   5   6
BRANCH   5  19
ATOM     19  C   UNL     1      -1.562  -3.679  -1.588  1.00  0.00    -0.014 A 
ATOM     20  C   UNL     1      -2.366  -3.942  -2.714  1.00  0.00     0.009 A 
ATOM     21  C   UNL     1      -0.641  -4.668  -1.184  1.00  0.00     0.009 A 
ATOM     22  C   UNL     1      -2.255  -5.149  -3.408  1.00  0.00     0.039 A 
ATOM     23  C   UNL     1      -0.543  -5.880  -1.871  1.00  0.00     0.039 A 
ATOM     24  C   UNL     1      -1.353  -6.111  -2.975  1.00  0.00     0.123 A 
ATOM     25  F   UNL     1      -1.273  -7.280  -3.624  1.00  0.00    -0.207 F 
ENDBRANCH   5  19
ENDBRANCH   3   5
ENDBRANCH   2   3
ENDBRANCH   1   2
BRANCH   1  26
ATOM     26  C   UNL     1      -4.504   1.292  -1.159  1.00  0.00     0.275 C 
BRANCH  26  27
ATOM     27  O   UNL     1      -3.291   2.036  -1.393  1.00  0.00    -0.458 OA
BRANCH  27  28
ATOM     28  C   UNL     1      -2.300   1.710  -0.537  1.00  0.00     0.338 C 
ATOM     29  O   UNL     1      -2.371   0.844   0.319  1.00  0.00    -0.246 OA
BRANCH  28  30
ATOM     30  C   UNL     1      -1.089   2.509  -0.699  1.00  0.00     0.060 A 
ATOM     31  C   UNL     1       0.113   1.869  -1.021  1.00  0.00     0.016 A 
ATOM     32  C   UNL     1      -1.114   3.853  -0.329  1.00  0.00     0.016 A 
ATOM     33  C   UNL     1       1.307   2.586  -0.987  1.00  0.00     0.010 A 
ATOM     34  C   UNL     1       0.079   4.570  -0.307  1.00  0.00     0.010 A 
ATOM     35  C   UNL     1       1.293   3.945  -0.643  1.00  0.00    -0.014 A 
BRANCH  35  36
ATOM     36  C   UNL     1       2.512   4.778  -0.728  1.00  0.00     0.031 A 
ATOM     37  C   UNL     1       3.198   5.258   0.513  1.00  0.00     0.074 A 
ATOM     38  C   UNL     1       2.899   5.197  -1.946  1.00  0.00     0.049 A 
ATOM     39  N   UNL     1       4.078   6.214   0.652  1.00  0.00    -0.248 NA
ATOM     40  C   UNL     1       2.838   4.577   1.765  1.00  0.00     0.031 C 
ATOM     41  C   UNL     1       2.312   4.749  -3.212  1.00  0.00     0.029 A 
ATOM     42  N   UNL     1       3.837   6.123  -2.319  1.00  0.00    -0.354 N 
ATOM     43  C   UNL     1       4.370   6.268   2.010  1.00  0.00     0.074 A 
ATOM     44  C   UNL     1       3.561   5.250   2.651  1.00  0.00     0.031 C 
ATOM     45  C   UNL     1       2.875   5.431  -4.220  1.00  0.00     0.029 A 
ATOM     46  C   UNL     1       3.810   6.403  -3.665  1.00  0.00     0.049 A 
ATOM     47  H   UNL     1       4.465   6.544  -1.689  1.00  0.00     0.167 HD
ATOM     48  C   UNL     1       5.229   7.102   2.650  1.00  0.00     0.034 A 
ATOM     49  C   UNL     1       4.421   7.377  -4.365  1.00  0.00     0.034 A 
ATOM     50  C   UNL     1       6.000   8.121   1.973  1.00  0.00     0.049 A 
ATOM     51  C   UNL     1       5.310   8.339  -3.628  1.00  0.00     0.074 A 
ATOM     52  C   UNL     1       6.888   9.039   2.509  1.00  0.00     0.029 A 
ATOM     53  N   UNL     1       5.966   8.362   0.603  1.00  0.00    -0.354 N 
ATOM     54  N   UNL     1       5.553   8.412  -2.339  1.00  0.00    -0.248 NA
ATOM     55  C   UNL     1       6.008   9.345  -4.434  1.00  0.00     0.031 C 
ATOM     56  C   UNL     1       7.349   9.863   1.475  1.00  0.00     0.029 A 
ATOM     57  C   UNL     1       6.802   9.421   0.281  1.00  0.00     0.049 A 
ATOM     58  H   UNL     1       5.427   7.854  -0.045  1.00  0.00     0.167 HD
ATOM     59  C   UNL     1       6.460   9.452  -2.184  1.00  0.00     0.074 A 
ATOM     60  C   UNL     1       6.718   9.978  -3.511  1.00  0.00     0.031 C 
ATOM     61  C   UNL     1       7.039   9.924  -1.051  1.00  0.00     0.034 A 
BRANCH  48  62
ATOM     62  C   UNL     1       5.327   6.986   4.152  1.00  0.00     0.023 A 
ATOM     63  C   UNL     1       5.841   5.836   4.778  1.00  0.00     0.031 A 
ATOM     64  C   UNL     1       4.884   8.038   4.974  1.00  0.00     0.131 A 
ATOM     65  C   UNL     1       5.846   5.743   6.180  1.00  0.00     0.055 A 
ATOM     66  C   UNL     1       4.955   7.968   6.368  1.00  0.00     0.041 A 
ATOM     67  F   UNL     1       4.365   9.153   4.437  1.00  0.00    -0.206 F 
ATOM     68  C   UNL     1       5.426   6.810   6.979  1.00  0.00     0.022 A 
BRANCH  65  69
ATOM     69  S   UNL     1       6.302   4.164   6.949  1.00  0.00     0.124 S 
ATOM     70  O   UNL     1       5.288   3.265   6.405  1.00  0.00    -0.237 OA
ATOM     71  O   UNL     1       7.663   3.959   6.469  1.00  0.00    -0.237 OA
ATOM     72  O   UNL     1       6.181   4.432   8.381  1.00  0.00    -0.744 OA
ENDBRANCH  65  69
ENDBRANCH  48  62
BRANCH  49  73
ATOM     73  C   UNL     1       4.170   7.511  -5.825  1.00  0.00     0.023 A 
ATOM     74  C   UNL     1       5.188   7.260  -6.756  1.00  0.00     0.031 A 
ATOM     75  C   UNL     1       2.904   7.886  -6.310  1.00  0.00     0.131 A 
ATOM     76  C   UNL     1       4.931   7.413  -8.127  1.00  0.00     0.055 A 
ATOM     77  C   UNL     1       2.641   7.992  -7.676  1.00  0.00     0.041 A 
ATOM     78  F   UNL     1       1.894   8.129  -5.459  1.00  0.00    -0.206 F 
ATOM     79  C   UNL     1       3.661   7.764  -8.594  1.00  0.00     0.022 A 
BRANCH  76  80
ATOM     80  S   UNL     1       6.303   7.204  -9.293  1.00  0.00     0.124 S 
ATOM     81  O   UNL     1       7.266   8.182  -8.799  1.00  0.00    -0.237 OA
ATOM     82  O   UNL     1       6.654   5.801  -9.098  1.00  0.00    -0.237 OA
ATOM     83  O   UNL     1       5.701   7.519 -10.586  1.00  0.00    -0.744 OA
ENDBRANCH  76  80
ENDBRANCH  49  73
BRANCH  61  84
ATOM     84  C   UNL     1       8.058  11.018  -1.224  1.00  0.00     0.023 A 
ATOM     85  C   UNL     1       7.688  12.328  -1.573  1.00  0.00     0.031 A 
ATOM     86  C   UNL     1       9.424  10.732  -1.055  1.00  0.00     0.131 A 
ATOM     87  C   UNL     1       8.681  13.295  -1.788  1.00  0.00     0.055 A 
ATOM     88  C   UNL     1      10.403  11.709  -1.225  1.00  0.00     0.041 A 
ATOM     89  F   UNL     1       9.825   9.494  -0.724  1.00  0.00    -0.206 F 
ATOM     90  C   UNL     1      10.034  12.997  -1.603  1.00  0.00     0.022 A 
BRANCH  87  91
ATOM     91  S   UNL     1       8.186  14.938  -2.377  1.00  0.00     0.124 S 
ATOM     92  O   UNL     1       7.585  14.628  -3.670  1.00  0.00    -0.237 OA
ATOM     93  O   UNL     1       7.265  15.380  -1.335  1.00  0.00    -0.237 OA
ATOM     94  O   UNL     1       9.447  15.674  -2.439  1.00  0.00    -0.744 OA
ENDBRANCH  87  91
ENDBRANCH  61  84
ENDBRANCH  35  36
ENDBRANCH  28  30
ENDBRANCH  27  28
ENDBRANCH  26  27
ENDBRANCH   1  26
TORSDOF 19
