REMARK SMILES O=C(CC[NH+]1CCC(CC(=O)OCCOC(=O)c2ccc(-c3c4nc(c(-c5cc(S(=O)(=O)[O-])ccc5F)c5ccc([nH]5)c(-c5cc(S(=O)(=O)[O-])ccc5F)c5nc(c(-c6cc(S(=O)(=O)[O-])ccc6F)c6ccc3[nH]6)C=C5)C=C4)cc2)CC1)NC1CC1
REMARK SMILES IDX 13 1 12 2 10 3 11 4 9 5 8 6 5 7 6 8 82 9 7 11 81 12 4 13
REMARK SMILES IDX 3 14 2 15 1 16 83 17 84 19 85 20 86 21 14 22 15 23 16 24
REMARK SMILES IDX 17 25 18 26 19 27 80 28 20 29 79 30 21 31 22 32 23 33 73 34
REMARK SMILES IDX 24 35 78 36 72 37 74 38 25 39 77 40 71 41 70 42 26 44 58 45
REMARK SMILES IDX 38 46 57 47 39 48 42 49 56 50 75 51 40 52 41 53 55 55 76 56
REMARK SMILES IDX 43 57 27 58 28 59 36 60 29 61 35 62 37 63 34 64 30 65 31 66
REMARK SMILES IDX 32 67 33 68 59 69 60 70 68 71 61 72 67 73 69 74 66 75 62 76
REMARK SMILES IDX 63 77 64 78 65 79 44 80 45 81 53 82 46 83 52 84 54 85 51 86
REMARK SMILES IDX 47 87 48 88 49 89 50 90
REMARK H PARENT 5 10 83 18 74 43 42 54
REMARK Flexibility Score: inf
ROOT
ATOM      1  C   UNL     1       5.786  -5.927   0.684  1.00  0.00     0.274 C 
ENDROOT
BRANCH   1   2
ATOM      2  O   UNL     1       6.131  -4.564   0.998  1.00  0.00    -0.462 OA
BRANCH   2   3
ATOM      3  C   UNL     1       7.441  -4.292   1.233  1.00  0.00     0.306 C 
ATOM      4  O   UNL     1       8.337  -5.128   1.215  1.00  0.00    -0.252 OA
BRANCH   3   5
ATOM      5  C   UNL     1       7.698  -2.834   1.582  1.00  0.00     0.126 C 
BRANCH   5   6
ATOM      6  C   UNL     1       6.627  -1.847   1.103  1.00  0.00     0.011 C 
ATOM      7  N   UNL     1       4.886   0.505   1.338  1.00  0.00    -0.334 N 
ATOM      8  C   UNL     1       4.380  -0.855   1.527  1.00  0.00     0.262 C 
ATOM      9  C   UNL     1       6.064   0.544   0.461  1.00  0.00     0.262 C 
ATOM     10  H   UNL     1       5.205   0.828   2.251  1.00  0.00     0.348 HD
ATOM     11  C   UNL     1       5.445  -1.791   2.078  1.00  0.00     0.066 C 
ATOM     12  C   UNL     1       7.168  -0.417   0.937  1.00  0.00     0.066 C 
BRANCH   7  13
ATOM     13  C   UNL     1       3.826   1.453   0.930  1.00  0.00     0.272 C 
BRANCH  13  14
ATOM     14  C   UNL     1       2.973   1.117  -0.307  1.00  0.00     0.161 C 
BRANCH  14  15
ATOM     15  C   UNL     1       1.843   0.165   0.039  1.00  0.00     0.225 C 
ATOM     16  O   UNL     1       0.979   0.443   0.868  1.00  0.00    -0.275 OA
ATOM     17  N   UNL     1       1.918  -1.054  -0.612  1.00  0.00    -0.353 N 
ATOM     18  H   UNL     1       2.494  -1.128  -1.407  1.00  0.00     0.163 HD
BRANCH  17  19
ATOM     19  C   UNL     1       1.195  -2.210  -0.180  1.00  0.00     0.082 C 
ATOM     20  C   UNL     1       0.877  -3.332  -1.125  1.00  0.00     0.027 C 
ATOM     21  C   UNL     1       1.923  -3.526  -0.068  1.00  0.00     0.027 C 
ENDBRANCH  17  19
ENDBRANCH  14  15
ENDBRANCH  13  14
ENDBRANCH   7  13
ENDBRANCH   5   6
ENDBRANCH   3   5
ENDBRANCH   2   3
ENDBRANCH   1   2
BRANCH   1  22
ATOM     22  C   UNL     1       5.394  -6.077  -0.787  1.00  0.00     0.275 C 
BRANCH  22  23
ATOM     23  O   UNL     1       6.517  -5.826  -1.648  1.00  0.00    -0.458 OA
BRANCH  23  24
ATOM     24  C   UNL     1       6.619  -4.560  -2.111  1.00  0.00     0.338 C 
ATOM     25  O   UNL     1       5.824  -3.642  -1.944  1.00  0.00    -0.246 OA
BRANCH  24  26
ATOM     26  C   UNL     1       7.927  -4.398  -2.756  1.00  0.00     0.060 A 
ATOM     27  C   UNL     1       8.861  -3.548  -2.159  1.00  0.00     0.016 A 
ATOM     28  C   UNL     1       8.220  -5.048  -3.957  1.00  0.00     0.016 A 
ATOM     29  C   UNL     1      10.100  -3.344  -2.762  1.00  0.00     0.010 A 
ATOM     30  C   UNL     1       9.464  -4.841  -4.561  1.00  0.00     0.010 A 
ATOM     31  C   UNL     1      10.409  -3.982  -3.971  1.00  0.00    -0.014 A 
BRANCH  31  32
ATOM     32  C   UNL     1      11.698  -3.704  -4.652  1.00  0.00     0.031 A 
ATOM     33  C   UNL     1      11.716  -2.821  -5.867  1.00  0.00     0.074 A 
ATOM     34  C   UNL     1      12.842  -4.224  -4.170  1.00  0.00     0.049 A 
ATOM     35  N   UNL     1      12.709  -2.530  -6.666  1.00  0.00    -0.248 NA
ATOM     36  C   UNL     1      10.442  -2.181  -6.229  1.00  0.00     0.031 C 
ATOM     37  C   UNL     1      12.953  -5.046  -2.964  1.00  0.00     0.029 A 
ATOM     38  N   UNL     1      14.130  -4.142  -4.636  1.00  0.00    -0.354 N 
ATOM     39  C   UNL     1      12.184  -1.674  -7.628  1.00  0.00     0.074 A 
ATOM     40  C   UNL     1      10.774  -1.523  -7.331  1.00  0.00     0.031 C 
ATOM     41  C   UNL     1      14.239  -5.392  -2.787  1.00  0.00     0.029 A 
ATOM     42  C   UNL     1      15.034  -4.865  -3.892  1.00  0.00     0.049 A 
ATOM     43  H   UNL     1      14.383  -3.616  -5.429  1.00  0.00     0.167 HD
ATOM     44  C   UNL     1      12.822  -1.065  -8.659  1.00  0.00     0.034 A 
ATOM     45  C   UNL     1      16.346  -5.100  -4.100  1.00  0.00     0.034 A 
ATOM     46  C   UNL     1      14.225  -1.238  -8.949  1.00  0.00     0.049 A 
ATOM     47  C   UNL     1      17.009  -4.494  -5.314  1.00  0.00     0.074 A 
ATOM     48  C   UNL     1      14.967  -0.696  -9.985  1.00  0.00     0.029 A 
ATOM     49  N   UNL     1      15.101  -2.013  -8.199  1.00  0.00    -0.354 N 
ATOM     50  N   UNL     1      16.491  -3.716  -6.237  1.00  0.00    -0.248 NA
ATOM     51  C   UNL     1      18.432  -4.798  -5.513  1.00  0.00     0.031 C 
ATOM     52  C   UNL     1      16.274  -1.186  -9.893  1.00  0.00     0.029 A 
ATOM     53  C   UNL     1      16.368  -1.978  -8.761  1.00  0.00     0.049 A 
ATOM     54  H   UNL     1      14.857  -2.514  -7.388  1.00  0.00     0.167 HD
ATOM     55  C   UNL     1      17.537  -3.410  -7.104  1.00  0.00     0.074 A 
ATOM     56  C   UNL     1      18.715  -4.076  -6.587  1.00  0.00     0.031 C 
ATOM     57  C   UNL     1      17.530  -2.647  -8.227  1.00  0.00     0.034 A 
BRANCH  44  58
ATOM     58  C   UNL     1      11.992  -0.195  -9.569  1.00  0.00     0.023 A 
ATOM     59  C   UNL     1      11.406   0.999  -9.114  1.00  0.00     0.031 A 
ATOM     60  C   UNL     1      11.768  -0.573 -10.905  1.00  0.00     0.131 A 
ATOM     61  C   UNL     1      10.576   1.741  -9.968  1.00  0.00     0.055 A 
ATOM     62  C   UNL     1      11.001   0.208 -11.771  1.00  0.00     0.041 A 
ATOM     63  F   UNL     1      12.283  -1.715 -11.387  1.00  0.00    -0.206 F 
ATOM     64  C   UNL     1      10.390   1.367 -11.301  1.00  0.00     0.022 A 
BRANCH  61  65
ATOM     65  S   UNL     1       9.648   3.138  -9.279  1.00  0.00     0.124 S 
ATOM     66  O   UNL     1       8.824   2.476  -8.270  1.00  0.00    -0.237 OA
ATOM     67  O   UNL     1      10.707   4.003  -8.772  1.00  0.00    -0.237 OA
ATOM     68  O   UNL     1       8.912   3.661 -10.429  1.00  0.00    -0.744 OA
ENDBRANCH  61  65
ENDBRANCH  44  58
BRANCH  45  69
ATOM     69  C   UNL     1      17.120  -5.985  -3.180  1.00  0.00     0.023 A 
ATOM     70  C   UNL     1      18.231  -5.499  -2.474  1.00  0.00     0.031 A 
ATOM     71  C   UNL     1      16.811  -7.352  -3.060  1.00  0.00     0.131 A 
ATOM     72  C   UNL     1      19.029  -6.382  -1.729  1.00  0.00     0.055 A 
ATOM     73  C   UNL     1      17.571  -8.215  -2.268  1.00  0.00     0.041 A 
ATOM     74  F   UNL     1      15.763  -7.873  -3.718  1.00  0.00    -0.206 F 
ATOM     75  C   UNL     1      18.699  -7.734  -1.611  1.00  0.00     0.022 A 
BRANCH  72  76
ATOM     76  S   UNL     1      20.578  -5.761  -1.017  1.00  0.00     0.124 S 
ATOM     77  O   UNL     1      21.245  -5.210  -2.191  1.00  0.00    -0.237 OA
ATOM     78  O   UNL     1      20.093  -4.792  -0.040  1.00  0.00    -0.237 OA
ATOM     79  O   UNL     1      21.196  -6.958  -0.451  1.00  0.00    -0.744 OA
ENDBRANCH  72  76
ENDBRANCH  45  69
BRANCH  57  80
ATOM     80  C   UNL     1      18.851  -2.449  -8.926  1.00  0.00     0.023 A 
ATOM     81  C   UNL     1      19.507  -3.503  -9.584  1.00  0.00     0.031 A 
ATOM     82  C   UNL     1      19.469  -1.185  -8.917  1.00  0.00     0.131 A 
ATOM     83  C   UNL     1      20.770  -3.289 -10.158  1.00  0.00     0.055 A 
ATOM     84  C   UNL     1      20.699  -0.965  -9.538  1.00  0.00     0.041 A 
ATOM     85  F   UNL     1      18.885  -0.144  -8.303  1.00  0.00    -0.206 F 
ATOM     86  C   UNL     1      21.363  -2.024 -10.152  1.00  0.00     0.022 A 
BRANCH  83  87
ATOM     87  S   UNL     1      21.667  -4.709 -10.844  1.00  0.00     0.124 S 
ATOM     88  O   UNL     1      21.785  -5.584  -9.682  1.00  0.00    -0.237 OA
ATOM     89  O   UNL     1      20.768  -5.168 -11.898  1.00  0.00    -0.237 OA
ATOM     90  O   UNL     1      22.923  -4.127 -11.313  1.00  0.00    -0.744 OA
ENDBRANCH  83  87
ENDBRANCH  57  80
ENDBRANCH  31  32
ENDBRANCH  24  26
ENDBRANCH  23  24
ENDBRANCH  22  23
ENDBRANCH   1  22
TORSDOF 19
