REMARK SMILES Cc1ncc(-c2cccc(C(=O)OCCOC(=O)c3ccc(-c4c5nc(c(-c6cc(S(=O)(=O)[O-])ccc6F)c6ccc([nH]6)c(-c6cc(S(=O)(=O)[O-])ccc6F)c6nc(c(-c7cc(S(=O)(=O)[O-])ccc7F)c7ccc4[nH]7)C=C6)C=C5)cc3)c2)[nH]1
REMARK SMILES IDX 15 1 14 2 13 3 11 4 12 5 10 6 6 7 7 8 82 9 8 10 9 11 5 12
REMARK SMILES IDX 1 13 2 14 3 15 83 16 4 17 16 19 17 20 18 21 19 22 20 23
REMARK SMILES IDX 81 24 21 25 80 26 22 27 23 28 24 29 74 30 25 31 79 32 73 33
REMARK SMILES IDX 75 34 26 35 78 36 72 37 71 38 27 40 59 41 39 42 58 43 40 44
REMARK SMILES IDX 43 45 57 46 76 47 41 48 42 49 56 51 77 52 44 53 28 54 29 55
REMARK SMILES IDX 37 56 30 57 36 58 38 59 35 60 31 61 32 62 33 63 34 64 60 65
REMARK SMILES IDX 61 66 69 67 62 68 68 69 70 70 67 71 63 72 64 73 65 74 66 75
REMARK SMILES IDX 45 76 46 77 54 78 47 79 53 80 55 81 52 82 48 83 49 84 50 85
REMARK SMILES IDX 51 86
REMARK H PARENT 83 18 75 39 43 50
REMARK Flexibility Score: inf
ROOT
ATOM      1  C   UNL     1      -6.168  -2.493  -4.884  1.00  0.00     0.275 C 
ENDROOT
BRANCH   1   2
ATOM      2  C   UNL     1      -6.198  -1.203  -4.063  1.00  0.00     0.275 C 
BRANCH   2   3
ATOM      3  O   UNL     1      -5.231  -1.243  -2.994  1.00  0.00    -0.458 OA
BRANCH   3   4
ATOM      4  C   UNL     1      -5.726  -1.455  -1.750  1.00  0.00     0.338 C 
ATOM      5  O   UNL     1      -6.905  -1.603  -1.456  1.00  0.00    -0.246 OA
BRANCH   4   6
ATOM      6  C   UNL     1      -4.627  -1.580  -0.760  1.00  0.00     0.060 A 
ATOM      7  C   UNL     1      -2.374  -1.117   0.017  1.00  0.00     0.000 A 
ATOM      8  C   UNL     1      -2.586  -1.968   1.110  1.00  0.00     0.010 A 
ATOM      9  C   UNL     1      -3.392  -0.946  -0.934  1.00  0.00     0.026 A 
ATOM     10  C   UNL     1      -3.823  -2.583   1.297  1.00  0.00     0.002 A 
ATOM     11  C   UNL     1      -4.851  -2.358   0.384  1.00  0.00     0.016 A 
BRANCH   7  12
ATOM     12  C   UNL     1      -1.141  -0.355  -0.089  1.00  0.00     0.065 A 
ATOM     13  C   UNL     1       2.490  -0.080  -0.032  1.00  0.00     0.087 C 
ATOM     14  C   UNL     1       1.027   0.141  -0.097  1.00  0.00     0.103 A 
ATOM     15  N   UNL     1       0.413   1.297  -0.231  1.00  0.00    -0.242 NA
ATOM     16  N   UNL     1       0.122  -0.890  -0.015  1.00  0.00    -0.342 N 
ATOM     17  C   UNL     1      -0.925   1.002  -0.224  1.00  0.00     0.139 A 
ATOM     18  H   UNL     1       0.341  -1.845   0.079  1.00  0.00     0.168 HD
ENDBRANCH   7  12
ENDBRANCH   4   6
ENDBRANCH   3   4
ENDBRANCH   2   3
ENDBRANCH   1   2
BRANCH   1  19
ATOM     19  O   UNL     1      -6.644  -3.599  -4.095  1.00  0.00    -0.458 OA
BRANCH  19  20
ATOM     20  C   UNL     1      -5.730  -4.553  -3.819  1.00  0.00     0.338 C 
ATOM     21  O   UNL     1      -4.574  -4.614  -4.222  1.00  0.00    -0.246 OA
BRANCH  20  22
ATOM     22  C   UNL     1      -6.284  -5.501  -2.845  1.00  0.00     0.060 A 
ATOM     23  C   UNL     1      -6.080  -5.228  -1.495  1.00  0.00     0.016 A 
ATOM     24  C   UNL     1      -6.854  -6.710  -3.240  1.00  0.00     0.016 A 
ATOM     25  C   UNL     1      -6.402  -6.174  -0.526  1.00  0.00     0.010 A 
ATOM     26  C   UNL     1      -7.207  -7.653  -2.263  1.00  0.00     0.010 A 
ATOM     27  C   UNL     1      -6.947  -7.409  -0.899  1.00  0.00    -0.014 A 
BRANCH  27  28
ATOM     28  C   UNL     1      -7.096  -8.480   0.128  1.00  0.00     0.031 A 
ATOM     29  C   UNL     1      -6.211  -9.700   0.057  1.00  0.00     0.074 A 
ATOM     30  C   UNL     1      -7.943  -8.334   1.166  1.00  0.00     0.049 A 
ATOM     31  N   UNL     1      -6.222 -10.782   0.794  1.00  0.00    -0.248 NA
ATOM     32  C   UNL     1      -5.179  -9.700  -0.991  1.00  0.00     0.031 C 
ATOM     33  C   UNL     1      -8.805  -7.174   1.398  1.00  0.00     0.029 A 
ATOM     34  N   UNL     1      -8.204  -9.158   2.234  1.00  0.00    -0.354 N 
ATOM     35  C   UNL     1      -5.227 -11.606   0.278  1.00  0.00     0.074 A 
ATOM     36  C   UNL     1      -4.651 -10.906  -0.852  1.00  0.00     0.031 C 
ATOM     37  C   UNL     1      -9.471  -7.345   2.552  1.00  0.00     0.029 A 
ATOM     38  C   UNL     1      -9.137  -8.653   3.110  1.00  0.00     0.049 A 
ATOM     39  H   UNL     1      -7.764 -10.030   2.361  1.00  0.00     0.167 HD
ATOM     40  C   UNL     1      -4.823 -12.828   0.707  1.00  0.00     0.034 A 
ATOM     41  C   UNL     1      -9.681  -9.192   4.221  1.00  0.00     0.034 A 
ATOM     42  C   UNL     1      -5.378 -13.505   1.855  1.00  0.00     0.049 A 
ATOM     43  C   UNL     1      -9.255 -10.576   4.647  1.00  0.00     0.074 A 
ATOM     44  C   UNL     1      -5.056 -14.752   2.364  1.00  0.00     0.029 A 
ATOM     45  N   UNL     1      -6.364 -12.984   2.683  1.00  0.00    -0.354 N 
ATOM     46  N   UNL     1      -8.366 -11.373   4.102  1.00  0.00    -0.248 NA
ATOM     47  C   UNL     1      -9.915 -11.134   5.835  1.00  0.00     0.031 C 
ATOM     48  C   UNL     1      -5.878 -15.004   3.469  1.00  0.00     0.029 A 
ATOM     49  C   UNL     1      -6.670 -13.889   3.689  1.00  0.00     0.049 A 
ATOM     50  H   UNL     1      -6.784 -12.101   2.573  1.00  0.00     0.167 HD
ATOM     51  C   UNL     1      -8.351 -12.520   4.893  1.00  0.00     0.074 A 
ATOM     52  C   UNL     1      -9.298 -12.298   5.966  1.00  0.00     0.031 C 
ATOM     53  C   UNL     1      -7.627 -13.659   4.744  1.00  0.00     0.034 A 
BRANCH  40  54
ATOM     54  C   UNL     1      -3.765 -13.531  -0.110  1.00  0.00     0.023 A 
ATOM     55  C   UNL     1      -2.454 -13.035  -0.213  1.00  0.00     0.031 A 
ATOM     56  C   UNL     1      -4.089 -14.693  -0.833  1.00  0.00     0.131 A 
ATOM     57  C   UNL     1      -1.539 -13.655  -1.078  1.00  0.00     0.055 A 
ATOM     58  C   UNL     1      -3.151 -15.351  -1.630  1.00  0.00     0.041 A 
ATOM     59  F   UNL     1      -5.331 -15.201  -0.789  1.00  0.00    -0.206 F 
ATOM     60  C   UNL     1      -1.871 -14.823  -1.768  1.00  0.00     0.022 A 
BRANCH  57  61
ATOM     61  S   UNL     1       0.047 -12.833  -1.397  1.00  0.00     0.124 S 
ATOM     62  O   UNL     1      -0.390 -11.559  -1.963  1.00  0.00    -0.237 OA
ATOM     63  O   UNL     1       0.643 -12.769  -0.067  1.00  0.00    -0.237 OA
ATOM     64  O   UNL     1       0.715 -13.729  -2.338  1.00  0.00    -0.744 OA
ENDBRANCH  57  61
ENDBRANCH  40  54
BRANCH  41  65
ATOM     65  C   UNL     1     -10.733  -8.461   4.988  1.00  0.00     0.023 A 
ATOM     66  C   UNL     1     -10.528  -8.089   6.327  1.00  0.00     0.031 A 
ATOM     67  C   UNL     1     -11.989  -8.194   4.415  1.00  0.00     0.131 A 
ATOM     68  C   UNL     1     -11.578  -7.515   7.062  1.00  0.00     0.055 A 
ATOM     69  C   UNL     1     -13.011  -7.572   5.133  1.00  0.00     0.041 A 
ATOM     70  F   UNL     1     -12.241  -8.536   3.141  1.00  0.00    -0.206 F 
ATOM     71  C   UNL     1     -12.813  -7.242   6.470  1.00  0.00     0.022 A 
BRANCH  68  72
ATOM     72  S   UNL     1     -11.339  -7.222   8.836  1.00  0.00     0.124 S 
ATOM     73  O   UNL     1     -10.999  -8.557   9.316  1.00  0.00    -0.237 OA
ATOM     74  O   UNL     1     -10.256  -6.244   8.838  1.00  0.00    -0.237 OA
ATOM     75  O   UNL     1     -12.637  -6.713   9.275  1.00  0.00    -0.744 OA
ENDBRANCH  68  72
ENDBRANCH  41  65
BRANCH  53  76
ATOM     76  C   UNL     1      -7.817 -14.726   5.793  1.00  0.00     0.023 A 
ATOM     77  C   UNL     1      -9.029 -15.428   5.919  1.00  0.00     0.031 A 
ATOM     78  C   UNL     1      -6.785 -15.019   6.701  1.00  0.00     0.131 A 
ATOM     79  C   UNL     1      -9.202 -16.342   6.969  1.00  0.00     0.055 A 
ATOM     80  C   UNL     1      -6.943 -15.971   7.710  1.00  0.00     0.041 A 
ATOM     81  F   UNL     1      -5.607 -14.379   6.626  1.00  0.00    -0.206 F 
ATOM     82  C   UNL     1      -8.162 -16.627   7.857  1.00  0.00     0.022 A 
BRANCH  79  83
ATOM     83  S   UNL     1     -10.839 -17.081   7.220  1.00  0.00     0.124 S 
ATOM     84  O   UNL     1     -11.684 -15.903   7.383  1.00  0.00    -0.237 OA
ATOM     85  O   UNL     1     -11.032 -17.837   5.986  1.00  0.00    -0.237 OA
ATOM     86  O   UNL     1     -10.669 -17.894   8.423  1.00  0.00    -0.744 OA
ENDBRANCH  79  83
ENDBRANCH  53  76
ENDBRANCH  27  28
ENDBRANCH  20  22
ENDBRANCH  19  20
ENDBRANCH   1  19
TORSDOF 15
