REMARK SMILES O=C(/C=C/c1ccc(O)c(O)c1)OCCOC(=O)c1ccc(-c2c3nc(c(-c4cc(S(=O)(=O)[O-])ccc4F)c4ccc([nH]4)c(-c4cc(S(=O)(=O)[O-])ccc4F)c4nc(c(-c5cc(S(=O)(=O)[O-])ccc5F)c5ccc2[nH]5)C=C4)C=C3)cc1
REMARK SMILES IDX 15 1 14 2 13 3 2 4 1 5 3 6 4 7 5 8 6 9 12 10 7 11 10 12 8 13
REMARK SMILES IDX 11 14 9 16 16 18 17 19 18 20 19 21 20 22 81 23 21 24 80 25
REMARK SMILES IDX 22 26 23 27 24 28 74 29 25 30 79 31 73 32 75 33 26 34 78 35
REMARK SMILES IDX 72 36 71 37 27 39 59 40 39 41 58 42 40 43 43 44 57 45 76 46
REMARK SMILES IDX 41 47 42 48 56 50 77 51 44 52 28 53 29 54 37 55 30 56 36 57
REMARK SMILES IDX 38 58 35 59 31 60 32 61 33 62 34 63 60 64 61 65 69 66 62 67
REMARK SMILES IDX 68 68 70 69 67 70 63 71 64 72 65 73 66 74 45 75 46 76 54 77
REMARK SMILES IDX 47 78 53 79 55 80 52 81 48 82 49 83 50 84 51 85
REMARK H PARENT 11 15 9 17 75 38 43 49
REMARK Flexibility Score: inf
ROOT
ATOM      1  C   UNL     1       4.269   0.373  -1.839  1.00  0.00     0.275 C 
ENDROOT
BRANCH   1   2
ATOM      2  C   UNL     1       4.277  -0.835  -0.898  1.00  0.00     0.275 C 
BRANCH   2   3
ATOM      3  O   UNL     1       3.057  -1.067  -0.165  1.00  0.00    -0.459 OA
BRANCH   3   4
ATOM      4  C   UNL     1       2.732  -0.595   1.063  1.00  0.00     0.330 C 
ATOM      5  O   UNL     1       1.775  -1.052   1.681  1.00  0.00    -0.247 OA
BRANCH   4   6
ATOM      6  C   UNL     1       3.405   0.605   1.584  1.00  0.00     0.094 C 
ATOM      7  C   UNL     1       4.721   0.768   1.771  1.00  0.00     0.016 C 
BRANCH   7   8
ATOM      8  C   UNL     1       5.293   2.078   2.095  1.00  0.00    -0.021 A 
ATOM      9  C   UNL     1       4.891   2.816   3.217  1.00  0.00     0.012 A 
ATOM     10  C   UNL     1       6.265   2.605   1.234  1.00  0.00     0.058 A 
ATOM     11  C   UNL     1       5.455   4.070   3.482  1.00  0.00     0.051 A 
ATOM     12  C   UNL     1       6.816   3.849   1.503  1.00  0.00     0.157 A 
ATOM     13  C   UNL     1       6.419   4.577   2.620  1.00  0.00     0.157 A 
BRANCH  12  14
ATOM     14  O   UNL     1       7.752   4.362   0.650  1.00  0.00    -0.504 OA
ATOM     15  H   UNL     1       8.132   5.202   0.821  1.00  0.00     0.293 HD
ENDBRANCH  12  14
BRANCH  13  16
ATOM     16  O   UNL     1       7.011   5.792   2.827  1.00  0.00    -0.504 OA
ATOM     17  H   UNL     1       6.769   6.311   3.569  1.00  0.00     0.293 HD
ENDBRANCH  13  16
ENDBRANCH   7   8
ENDBRANCH   4   6
ENDBRANCH   3   4
ENDBRANCH   2   3
ENDBRANCH   1   2
BRANCH   1  18
ATOM     18  O   UNL     1       3.833   1.583  -1.203  1.00  0.00    -0.458 OA
BRANCH  18  19
ATOM     19  C   UNL     1       2.522   1.876  -1.397  1.00  0.00     0.338 C 
ATOM     20  O   UNL     1       1.741   1.244  -2.092  1.00  0.00    -0.246 OA
BRANCH  19  21
ATOM     21  C   UNL     1       2.101   2.995  -0.522  1.00  0.00     0.060 A 
ATOM     22  C   UNL     1       0.817   2.925   0.030  1.00  0.00     0.016 A 
ATOM     23  C   UNL     1       2.925   4.089  -0.234  1.00  0.00     0.016 A 
ATOM     24  C   UNL     1       0.344   3.957   0.840  1.00  0.00     0.010 A 
ATOM     25  C   UNL     1       2.448   5.124   0.584  1.00  0.00     0.010 A 
ATOM     26  C   UNL     1       1.145   5.076   1.108  1.00  0.00    -0.014 A 
BRANCH  26  27
ATOM     27  C   UNL     1       0.564   6.212   1.873  1.00  0.00     0.031 A 
ATOM     28  C   UNL     1       0.079   7.436   1.143  1.00  0.00     0.074 A 
ATOM     29  C   UNL     1       0.398   6.121   3.207  1.00  0.00     0.049 A 
ATOM     30  N   UNL     1      -0.544   8.489   1.611  1.00  0.00    -0.248 NA
ATOM     31  C   UNL     1       0.328   7.479  -0.305  1.00  0.00     0.031 C 
ATOM     32  C   UNL     1       0.809   4.984   4.032  1.00  0.00     0.029 A 
ATOM     33  N   UNL     1      -0.174   6.993   4.101  1.00  0.00    -0.354 N 
ATOM     34  C   UNL     1      -0.787   9.307   0.513  1.00  0.00     0.074 A 
ATOM     35  C   UNL     1      -0.188   8.655  -0.633  1.00  0.00     0.031 C 
ATOM     36  C   UNL     1       0.469   5.227   5.309  1.00  0.00     0.029 A 
ATOM     37  C   UNL     1      -0.165   6.541   5.401  1.00  0.00     0.049 A 
ATOM     38  H   UNL     1      -0.556   7.861   3.836  1.00  0.00     0.167 HD
ATOM     39  C   UNL     1      -1.466  10.480   0.459  1.00  0.00     0.034 A 
ATOM     40  C   UNL     1      -0.612   7.120   6.535  1.00  0.00     0.034 A 
ATOM     41  C   UNL     1      -2.042  11.140   1.606  1.00  0.00     0.049 A 
ATOM     42  C   UNL     1      -1.301   8.463   6.457  1.00  0.00     0.074 A 
ATOM     43  C   UNL     1      -2.750  12.330   1.651  1.00  0.00     0.029 A 
ATOM     44  N   UNL     1      -1.970  10.678   2.913  1.00  0.00    -0.354 N 
ATOM     45  N   UNL     1      -1.554   9.205   5.403  1.00  0.00    -0.248 NA
ATOM     46  C   UNL     1      -1.783   9.034   7.722  1.00  0.00     0.031 C 
ATOM     47  C   UNL     1      -3.044  12.620   2.989  1.00  0.00     0.029 A 
ATOM     48  C   UNL     1      -2.590  11.573   3.773  1.00  0.00     0.049 A 
ATOM     49  H   UNL     1      -1.541   9.836   3.190  1.00  0.00     0.167 HD
ATOM     50  C   UNL     1      -2.250  10.315   5.880  1.00  0.00     0.074 A 
ATOM     51  C   UNL     1      -2.402  10.128   7.307  1.00  0.00     0.031 C 
ATOM     52  C   UNL     1      -2.721  11.393   5.200  1.00  0.00     0.034 A 
BRANCH  39  53
ATOM     53  C   UNL     1      -1.598  11.142  -0.892  1.00  0.00     0.023 A 
ATOM     54  C   UNL     1      -2.340  10.551  -1.930  1.00  0.00     0.031 A 
ATOM     55  C   UNL     1      -0.977  12.377  -1.146  1.00  0.00     0.131 A 
ATOM     56  C   UNL     1      -2.397  11.169  -3.189  1.00  0.00     0.055 A 
ATOM     57  C   UNL     1      -1.097  13.022  -2.378  1.00  0.00     0.041 A 
ATOM     58  F   UNL     1      -0.239  12.978  -0.199  1.00  0.00    -0.206 F 
ATOM     59  C   UNL     1      -1.801  12.412  -3.412  1.00  0.00     0.022 A 
BRANCH  56  60
ATOM     60  S   UNL     1      -3.164  10.270  -4.565  1.00  0.00     0.124 S 
ATOM     61  O   UNL     1      -2.332   9.071  -4.634  1.00  0.00    -0.237 OA
ATOM     62  O   UNL     1      -4.529  10.074  -4.092  1.00  0.00    -0.237 OA
ATOM     63  O   UNL     1      -3.020  11.185  -5.695  1.00  0.00    -0.744 OA
ENDBRANCH  56  60
ENDBRANCH  39  53
BRANCH  40  64
ATOM     64  C   UNL     1      -0.399   6.463   7.858  1.00  0.00     0.023 A 
ATOM     65  C   UNL     1      -1.480   6.088   8.672  1.00  0.00     0.031 A 
ATOM     66  C   UNL     1       0.900   6.287   8.367  1.00  0.00     0.131 A 
ATOM     67  C   UNL     1      -1.245   5.623   9.976  1.00  0.00     0.055 A 
ATOM     68  C   UNL     1       1.130   5.764   9.641  1.00  0.00     0.041 A 
ATOM     69  F   UNL     1       1.971   6.627   7.631  1.00  0.00    -0.206 F 
ATOM     70  C   UNL     1       0.053   5.447  10.461  1.00  0.00     0.022 A 
BRANCH  67  71
ATOM     71  S   UNL     1      -2.665   5.365  11.076  1.00  0.00     0.124 S 
ATOM     72  O   UNL     1      -3.305   6.676  11.046  1.00  0.00    -0.237 OA
ATOM     73  O   UNL     1      -3.378   4.287  10.400  1.00  0.00    -0.237 OA
ATOM     74  O   UNL     1      -2.046   5.000  12.349  1.00  0.00    -0.744 OA
ENDBRANCH  67  71
ENDBRANCH  40  64
BRANCH  52  75
ATOM     75  C   UNL     1      -3.470  12.435   6.000  1.00  0.00     0.023 A 
ATOM     76  C   UNL     1      -2.841  13.186   7.010  1.00  0.00     0.031 A 
ATOM     77  C   UNL     1      -4.842  12.654   5.779  1.00  0.00     0.131 A 
ATOM     78  C   UNL     1      -3.594  14.060   7.809  1.00  0.00     0.055 A 
ATOM     79  C   UNL     1      -5.573  13.576   6.532  1.00  0.00     0.041 A 
ATOM     80  F   UNL     1      -5.500  11.968   4.830  1.00  0.00    -0.206 F 
ATOM     81  C   UNL     1      -4.953  14.271   7.566  1.00  0.00     0.022 A 
BRANCH  78  82
ATOM     82  S   UNL     1      -2.799  14.827   9.248  1.00  0.00     0.124 S 
ATOM     83  O   UNL     1      -2.311  13.664   9.982  1.00  0.00    -0.237 OA
ATOM     84  O   UNL     1      -1.776  15.664   8.629  1.00  0.00    -0.237 OA
ATOM     85  O   UNL     1      -3.889  15.556   9.895  1.00  0.00    -0.744 OA
ENDBRANCH  78  82
ENDBRANCH  52  75
ENDBRANCH  26  27
ENDBRANCH  19  21
ENDBRANCH  18  19
ENDBRANCH   1  18
TORSDOF 17
