REMARK SMILES C[C@@H]1C(C(=O)OCCOC(=O)c2ccc(-c3c4nc(c(-c5cc(S(=O)(=O)[O-])ccc5F)c5ccc([nH]5)c(-c5cc(S(=O)(=O)[O-])ccc5F)c5nc(c(-c6cc(S(=O)(=O)[O-])ccc6F)c6ccc3[nH]6)C=C5)C=C4)cc2)=NC2=C1C(=O)C[C@H](c1ccccc1)C2
REMARK SMILES IDX 8 1 7 2 6 3 4 4 5 5 3 6 1 7 2 8 77 9 75 10 76 11 78 12 88 13
REMARK SMILES IDX 79 14 80 15 81 16 82 17 83 18 87 19 84 20 86 21 85 22 9 23
REMARK SMILES IDX 10 24 11 25 12 26 13 27 74 28 14 29 73 30 15 31 16 32 17 33
REMARK SMILES IDX 67 34 18 35 72 36 66 37 68 38 19 39 71 40 65 41 64 42 20 44
REMARK SMILES IDX 52 45 32 46 51 47 33 48 36 49 50 50 69 51 34 52 35 53 49 55
REMARK SMILES IDX 70 56 37 57 21 58 22 59 30 60 23 61 29 62 31 63 28 64 24 65
REMARK SMILES IDX 25 66 26 67 27 68 53 69 54 70 62 71 55 72 61 73 63 74 60 75
REMARK SMILES IDX 56 76 57 77 58 78 59 79 38 80 39 81 47 82 40 83 46 84 48 85
REMARK SMILES IDX 45 86 41 87 42 88 43 89 44 90
REMARK H PARENT 68 43 36 54
REMARK Flexibility Score: inf
ROOT
ATOM      1  C   UNL     1      -2.553  -0.467  -1.410  1.00  0.00     0.275 C 
ENDROOT
BRANCH   1   2
ATOM      2  C   UNL     1      -1.411   0.478  -1.732  1.00  0.00     0.275 C 
BRANCH   2   3
ATOM      3  O   UNL     1      -0.352   0.312  -0.771  1.00  0.00    -0.458 OA
BRANCH   3   4
ATOM      4  C   UNL     1      -0.446   1.035   0.376  1.00  0.00     0.353 C 
ATOM      5  O   UNL     1      -1.013   2.099   0.532  1.00  0.00    -0.245 OA
BRANCH   4   6
ATOM      6  C   UNL     1       0.159   0.208   1.507  1.00  0.00     0.133 C 
ATOM      7  C   UNL     1       2.599  -0.015   1.470  1.00  0.00     0.020 C 
ATOM      8  C   UNL     1       1.288  -0.744   1.201  1.00  0.00     0.078 C 
ATOM      9  C   UNL     1       0.900  -1.667   2.295  1.00  0.00     0.026 C 
ATOM     10  N   UNL     1      -0.282   0.192   2.743  1.00  0.00    -0.249 NA
ATOM     11  C   UNL     1       0.127  -1.049   3.193  1.00  0.00     0.049 C 
ATOM     12  C   UNL     1       0.789  -3.124   2.148  1.00  0.00     0.161 C 
ATOM     13  C   UNL     1      -0.676  -1.849   4.181  1.00  0.00     0.065 C 
ATOM     14  O   UNL     1       1.718  -3.745   1.637  1.00  0.00    -0.294 OA
ATOM     15  C   UNL     1      -0.511  -3.803   2.591  1.00  0.00     0.089 C 
ATOM     16  C   UNL     1      -1.487  -2.912   3.409  1.00  0.00     0.033 C 
BRANCH  16  17
ATOM     17  C   UNL     1      -2.618  -2.271   2.587  1.00  0.00    -0.044 A 
ATOM     18  C   UNL     1      -3.124  -0.539   2.894  1.00  0.00     0.004 A 
ATOM     19  C   UNL     1      -3.400  -3.169   1.184  1.00  0.00     0.004 A 
ATOM     20  C   UNL     1      -4.314   0.298   1.816  1.00  0.00     0.000 A 
ATOM     21  C   UNL     1      -4.576  -2.323   0.087  1.00  0.00     0.000 A 
ATOM     22  C   UNL     1      -5.045  -0.587   0.380  1.00  0.00     0.000 A 
ENDBRANCH  16  17
ENDBRANCH   4   6
ENDBRANCH   3   4
ENDBRANCH   2   3
ENDBRANCH   1   2
BRANCH   1  23
ATOM     23  O   UNL     1      -3.126  -0.073  -0.143  1.00  0.00    -0.458 OA
BRANCH  23  24
ATOM     24  C   UNL     1      -3.107  -1.133   0.918  1.00  0.00     0.338 C 
ATOM     25  O   UNL     1      -1.908  -1.508   0.765  1.00  0.00    -0.246 OA
BRANCH  24  26
ATOM     26  C   UNL     1      -4.735  -1.772   2.171  1.00  0.00     0.060 A 
ATOM     27  C   UNL     1      -4.788  -2.728   3.290  1.00  0.00     0.016 A 
ATOM     28  C   UNL     1      -6.178  -1.538   2.067  1.00  0.00     0.016 A 
ATOM     29  C   UNL     1      -5.681  -3.800   3.328  1.00  0.00     0.010 A 
ATOM     30  C   UNL     1      -7.041  -2.596   1.845  1.00  0.00     0.010 A 
ATOM     31  C   UNL     1      -6.726  -3.801   2.424  1.00  0.00    -0.014 A 
BRANCH  31  32
ATOM     32  C   UNL     1      -7.830  -4.715   2.614  1.00  0.00     0.031 A 
ATOM     33  C   UNL     1      -8.524  -4.325   3.873  1.00  0.00     0.074 A 
ATOM     34  C   UNL     1      -8.284  -5.618   1.730  1.00  0.00     0.049 A 
ATOM     35  N   UNL     1      -8.289  -4.828   5.041  1.00  0.00    -0.248 NA
ATOM     36  C   UNL     1      -9.210  -3.014   3.930  1.00  0.00     0.031 C 
ATOM     37  C   UNL     1      -7.858  -5.914   0.365  1.00  0.00     0.029 A 
ATOM     38  N   UNL     1      -9.334  -6.462   1.902  1.00  0.00    -0.354 N 
ATOM     39  C   UNL     1      -9.050  -4.065   5.910  1.00  0.00     0.074 A 
ATOM     40  C   UNL     1      -9.269  -2.817   5.247  1.00  0.00     0.031 C 
ATOM     41  C   UNL     1      -8.785  -6.712  -0.231  1.00  0.00     0.029 A 
ATOM     42  C   UNL     1      -9.797  -7.086   0.747  1.00  0.00     0.049 A 
ATOM     43  H   UNL     1      -9.740  -6.621   2.784  1.00  0.00     0.167 HD
ATOM     44  C   UNL     1      -9.753  -4.664   6.905  1.00  0.00     0.034 A 
ATOM     45  C   UNL     1     -10.959  -7.798   0.642  1.00  0.00     0.034 A 
ATOM     46  C   UNL     1      -9.246  -6.002   7.143  1.00  0.00     0.049 A 
ATOM     47  C   UNL     1     -11.306  -8.222   2.032  1.00  0.00     0.074 A 
ATOM     48  C   UNL     1      -7.996  -6.506   7.455  1.00  0.00     0.029 A 
ATOM     49  N   UNL     1      -9.944  -7.058   6.593  1.00  0.00    -0.354 N 
ATOM     50  N   UNL     1     -10.559  -9.047   2.720  1.00  0.00    -0.248 NA
ATOM     51  C   UNL     1     -12.123  -7.319   2.836  1.00  0.00     0.031 C 
ATOM     52  C   UNL     1      -7.844  -7.651   6.617  1.00  0.00     0.029 A 
ATOM     53  C   UNL     1      -9.043  -7.864   5.933  1.00  0.00     0.049 A 
ATOM     54  H   UNL     1     -10.915  -7.208   6.659  1.00  0.00     0.167 HD
ATOM     55  C   UNL     1     -10.476  -8.492   3.990  1.00  0.00     0.074 A 
ATOM     56  C   UNL     1     -11.515  -7.459   4.020  1.00  0.00     0.031 C 
ATOM     57  C   UNL     1      -9.379  -8.690   4.784  1.00  0.00     0.034 A 
BRANCH  44  58
ATOM     58  C   UNL     1     -11.141  -4.226   7.315  1.00  0.00     0.023 A 
ATOM     59  C   UNL     1     -11.736  -4.954   8.355  1.00  0.00     0.031 A 
ATOM     60  C   UNL     1     -12.009  -3.369   6.591  1.00  0.00     0.131 A 
ATOM     61  C   UNL     1     -13.124  -4.914   8.555  1.00  0.00     0.055 A 
ATOM     62  C   UNL     1     -13.379  -3.284   6.838  1.00  0.00     0.041 A 
ATOM     63  F   UNL     1     -11.622  -2.628   5.548  1.00  0.00    -0.206 F 
ATOM     64  C   UNL     1     -13.952  -4.087   7.802  1.00  0.00     0.022 A 
BRANCH  61  65
ATOM     65  S   UNL     1     -13.846  -6.112   9.698  1.00  0.00     0.124 S 
ATOM     66  O   UNL     1     -13.354  -7.370   9.148  1.00  0.00    -0.237 OA
ATOM     67  O   UNL     1     -13.267  -5.693  10.971  1.00  0.00    -0.237 OA
ATOM     68  O   UNL     1     -15.282  -5.885   9.560  1.00  0.00    -0.744 OA
ENDBRANCH  61  65
ENDBRANCH  44  58
BRANCH  45  69
ATOM     69  C   UNL     1     -11.962  -7.755  -0.472  1.00  0.00     0.023 A 
ATOM     70  C   UNL     1     -12.989  -8.717  -0.647  1.00  0.00     0.031 A 
ATOM     71  C   UNL     1     -12.070  -6.582  -1.252  1.00  0.00     0.131 A 
ATOM     72  C   UNL     1     -14.050  -8.481  -1.564  1.00  0.00     0.055 A 
ATOM     73  C   UNL     1     -13.123  -6.350  -2.143  1.00  0.00     0.041 A 
ATOM     74  F   UNL     1     -11.197  -5.572  -1.113  1.00  0.00    -0.206 F 
ATOM     75  C   UNL     1     -14.123  -7.295  -2.296  1.00  0.00     0.022 A 
BRANCH  72  76
ATOM     76  S   UNL     1     -15.409  -9.687  -1.782  1.00  0.00     0.124 S 
ATOM     77  O   UNL     1     -14.728 -10.812  -2.413  1.00  0.00    -0.237 OA
ATOM     78  O   UNL     1     -15.873  -9.893  -0.415  1.00  0.00    -0.237 OA
ATOM     79  O   UNL     1     -16.357  -8.983  -2.648  1.00  0.00    -0.744 OA
ENDBRANCH  72  76
ENDBRANCH  45  69
BRANCH  57  80
ATOM     80  C   UNL     1      -8.354  -9.731   4.361  1.00  0.00     0.023 A 
ATOM     81  C   UNL     1      -7.630  -9.737   3.142  1.00  0.00     0.031 A 
ATOM     82  C   UNL     1      -8.019 -10.706   5.316  1.00  0.00     0.131 A 
ATOM     83  C   UNL     1      -6.626 -10.706   2.921  1.00  0.00     0.055 A 
ATOM     84  C   UNL     1      -7.011 -11.645   5.103  1.00  0.00     0.041 A 
ATOM     85  F   UNL     1      -8.650 -10.741   6.501  1.00  0.00    -0.206 F 
ATOM     86  C   UNL     1      -6.315 -11.653   3.902  1.00  0.00     0.022 A 
BRANCH  83  87
ATOM     87  S   UNL     1      -5.715 -10.781   1.340  1.00  0.00     0.124 S 
ATOM     88  O   UNL     1      -6.768 -10.700   0.335  1.00  0.00    -0.237 OA
ATOM     89  O   UNL     1      -4.828  -9.624   1.431  1.00  0.00    -0.237 OA
ATOM     90  O   UNL     1      -5.031 -12.075   1.402  1.00  0.00    -0.744 OA
ENDBRANCH  83  87
ENDBRANCH  57  80
ENDBRANCH  31  32
ENDBRANCH  24  26
ENDBRANCH  23  24
ENDBRANCH   1  23
TORSDOF 15
