REMARK SMILES O=C(OCCOC(=O)c1cc(N2C(=O)[C@H]3[C@@H]4C=C[C@@H]([C@@H]5C[C@H]45)[C@@H]3C2=O)ccc1Cl)c1ccc(-c2c3nc(c(-c4cc(S(=O)(=O)[O-])ccc4F)c4ccc([nH]4)c(-c4cc(S(=O)(=O)[O-])ccc4F)c4nc(c(-c5cc(S(=O)(=O)[O-])ccc5F)c5ccc2[nH]5)C=C4)C=C3)cc1
REMARK SMILES IDX 4 1 3 2 2 3 1 4 30 5 31 6 92 7 32 8 91 9 33 10 34 11 35 12
REMARK SMILES IDX 85 13 36 14 90 15 84 16 86 17 37 18 89 19 83 20 82 21 38 23
REMARK SMILES IDX 70 24 50 25 69 26 51 27 54 28 68 29 87 30 52 31 53 32 67 34
REMARK SMILES IDX 88 35 55 36 39 37 40 38 48 39 41 40 47 41 49 42 46 43 42 44
REMARK SMILES IDX 43 45 44 46 45 47 71 48 72 49 80 50 73 51 79 52 81 53 78 54
REMARK SMILES IDX 74 55 75 56 76 57 77 58 56 59 57 60 65 61 58 62 64 63 66 64
REMARK SMILES IDX 63 65 59 66 60 67 61 68 62 69 5 70 6 71 7 72 8 73 9 74 10 75
REMARK SMILES IDX 28 76 11 77 27 78 29 79 26 80 12 81 13 82 24 83 14 84 15 85
REMARK SMILES IDX 23 86 25 87 16 88 19 89 17 90 22 91 18 92 20 93 21 94
REMARK H PARENT 86 22 54 33
REMARK Flexibility Score: inf
ROOT
ATOM      1  C   UNL     1       4.314  -1.758  -0.435  1.00  0.00     0.275 C 
ENDROOT
BRANCH   1   2
ATOM      2  O   UNL     1       3.409  -1.311   0.584  1.00  0.00    -0.458 OA
BRANCH   2   3
ATOM      3  C   UNL     1       3.281  -0.089   1.148  1.00  0.00     0.338 C 
ATOM      4  O   UNL     1       2.446   0.041   2.044  1.00  0.00    -0.246 OA
BRANCH   3   5
ATOM      5  C   UNL     1       3.993   1.143   0.666  1.00  0.00     0.060 A 
ATOM      6  C   UNL     1       5.228   1.224   0.020  1.00  0.00     0.016 A 
ATOM      7  C   UNL     1       3.325   2.349   0.913  1.00  0.00     0.016 A 
ATOM      8  C   UNL     1       5.742   2.458  -0.416  1.00  0.00     0.010 A 
ATOM      9  C   UNL     1       3.811   3.578   0.459  1.00  0.00     0.010 A 
ATOM     10  C   UNL     1       5.039   3.644  -0.197  1.00  0.00    -0.014 A 
BRANCH  10  11
ATOM     11  C   UNL     1       5.649   4.961  -0.501  1.00  0.00     0.031 A 
ATOM     12  C   UNL     1       6.160   5.796   0.640  1.00  0.00     0.074 A 
ATOM     13  C   UNL     1       5.741   5.405  -1.768  1.00  0.00     0.049 A 
ATOM     14  N   UNL     1       6.766   6.954   0.615  1.00  0.00    -0.248 NA
ATOM     15  C   UNL     1       5.963   5.247   1.991  1.00  0.00     0.031 C 
ATOM     16  C   UNL     1       5.288   4.673  -2.950  1.00  0.00     0.029 A 
ATOM     17  N   UNL     1       6.236   6.579  -2.277  1.00  0.00    -0.354 N 
ATOM     18  C   UNL     1       7.059   7.251   1.941  1.00  0.00     0.074 A 
ATOM     19  C   UNL     1       6.475   6.203   2.748  1.00  0.00     0.031 C 
ATOM     20  C   UNL     1       5.495   5.426  -4.043  1.00  0.00     0.029 A 
ATOM     21  C   UNL     1       6.099   6.694  -3.641  1.00  0.00     0.049 A 
ATOM     22  H   UNL     1       6.651   7.275  -1.717  1.00  0.00     0.167 HD
ATOM     23  C   UNL     1       7.789   8.280   2.439  1.00  0.00     0.034 A 
ATOM     24  C   UNL     1       6.426   7.708  -4.467  1.00  0.00     0.034 A 
ATOM     25  C   UNL     1       8.321   9.339   1.621  1.00  0.00     0.049 A 
ATOM     26  C   UNL     1       7.134   8.906  -3.884  1.00  0.00     0.074 A 
ATOM     27  C   UNL     1       9.068  10.438   2.002  1.00  0.00     0.029 A 
ATOM     28  N   UNL     1       8.137   9.439   0.246  1.00  0.00    -0.354 N 
ATOM     29  N   UNL     1       7.468   9.139  -2.635  1.00  0.00    -0.248 NA
ATOM     30  C   UNL     1       7.541   9.959  -4.823  1.00  0.00     0.031 C 
ATOM     31  C   UNL     1       9.284  11.232   0.868  1.00  0.00     0.029 A 
ATOM     32  C   UNL     1       8.729  10.596  -0.233  1.00  0.00     0.049 A 
ATOM     33  H   UNL     1       7.655   8.782  -0.307  1.00  0.00     0.167 HD
ATOM     34  C   UNL     1       8.170  10.341  -2.646  1.00  0.00     0.074 A 
ATOM     35  C   UNL     1       8.206  10.784  -4.027  1.00  0.00     0.031 C 
ATOM     36  C   UNL     1       8.748  11.012  -1.616  1.00  0.00     0.034 A 
BRANCH  23  37
ATOM     37  C   UNL     1       8.008   8.290   3.932  1.00  0.00     0.023 A 
ATOM     38  C   UNL     1       8.705   7.246   4.570  1.00  0.00     0.031 A 
ATOM     39  C   UNL     1       7.437   9.288   4.738  1.00  0.00     0.131 A 
ATOM     40  C   UNL     1       8.726   7.169   5.971  1.00  0.00     0.055 A 
ATOM     41  C   UNL     1       7.535   9.251   6.131  1.00  0.00     0.041 A 
ATOM     42  F   UNL     1       6.742  10.296   4.189  1.00  0.00    -0.206 F 
ATOM     43  C   UNL     1       8.164   8.177   6.756  1.00  0.00     0.022 A 
BRANCH  40  44
ATOM     44  S   UNL     1       9.347   5.649   6.745  1.00  0.00     0.124 S 
ATOM     45  O   UNL     1       8.440   4.645   6.192  1.00  0.00    -0.237 OA
ATOM     46  O   UNL     1      10.725   5.593   6.272  1.00  0.00    -0.237 OA
ATOM     47  O   UNL     1       9.186   5.903   8.175  1.00  0.00    -0.744 OA
ENDBRANCH  40  44
ENDBRANCH  23  37
BRANCH  24  48
ATOM     48  C   UNL     1       6.094   7.640  -5.920  1.00  0.00     0.023 A 
ATOM     49  C   UNL     1       7.096   7.595  -6.902  1.00  0.00     0.031 A 
ATOM     50  C   UNL     1       4.754   7.661  -6.350  1.00  0.00     0.131 A 
ATOM     51  C   UNL     1       6.747   7.615  -8.263  1.00  0.00     0.055 A 
ATOM     52  C   UNL     1       4.410   7.641  -7.703  1.00  0.00     0.041 A 
ATOM     53  F   UNL     1       3.754   7.694  -5.453  1.00  0.00    -0.206 F 
ATOM     54  C   UNL     1       5.410   7.630  -8.670  1.00  0.00     0.022 A 
BRANCH  51  55
ATOM     55  S   UNL     1       8.070   7.696  -9.503  1.00  0.00     0.124 S 
ATOM     56  O   UNL     1       8.793   8.893  -9.091  1.00  0.00    -0.237 OA
ATOM     57  O   UNL     1       8.757   6.426  -9.291  1.00  0.00    -0.237 OA
ATOM     58  O   UNL     1       7.346   7.807 -10.767  1.00  0.00    -0.744 OA
ENDBRANCH  51  55
ENDBRANCH  24  48
BRANCH  36  59
ATOM     59  C   UNL     1       9.514  12.263  -1.963  1.00  0.00     0.023 A 
ATOM     60  C   UNL     1       8.869  13.421  -2.427  1.00  0.00     0.031 A 
ATOM     61  C   UNL     1      10.914  12.290  -1.830  1.00  0.00     0.131 A 
ATOM     62  C   UNL     1       9.628  14.541  -2.794  1.00  0.00     0.055 A 
ATOM     63  C   UNL     1      11.659  13.427  -2.139  1.00  0.00     0.041 A 
ATOM     64  F   UNL     1      11.579  11.209  -1.391  1.00  0.00    -0.206 F 
ATOM     65  C   UNL     1      11.017  14.558  -2.636  1.00  0.00     0.022 A 
BRANCH  62  66
ATOM     66  S   UNL     1       8.783  15.950  -3.560  1.00  0.00     0.124 S 
ATOM     67  O   UNL     1       8.200  15.341  -4.752  1.00  0.00    -0.237 OA
ATOM     68  O   UNL     1       7.838  16.351  -2.522  1.00  0.00    -0.237 OA
ATOM     69  O   UNL     1       9.863  16.901  -3.815  1.00  0.00    -0.744 OA
ENDBRANCH  62  66
ENDBRANCH  36  59
ENDBRANCH  10  11
ENDBRANCH   3   5
ENDBRANCH   2   3
ENDBRANCH   1   2
BRANCH   1  70
ATOM     70  C   UNL     1       3.862  -1.442  -1.859  1.00  0.00     0.275 C 
BRANCH  70  71
ATOM     71  O   UNL     1       3.396  -0.095  -2.016  1.00  0.00    -0.458 OA
BRANCH  71  72
ATOM     72  C   UNL     1       2.051   0.067  -2.071  1.00  0.00     0.339 C 
ATOM     73  O   UNL     1       1.202  -0.802  -1.957  1.00  0.00    -0.246 OA
BRANCH  72  74
ATOM     74  C   UNL     1       1.714   1.496  -2.206  1.00  0.00     0.080 A 
ATOM     75  C   UNL     1       0.830   2.055  -1.258  1.00  0.00     0.044 A 
ATOM     76  C   UNL     1       2.188   2.269  -3.272  1.00  0.00     0.055 A 
ATOM     77  C   UNL     1       0.406   3.380  -1.395  1.00  0.00     0.053 A 
ATOM     78  C   UNL     1       1.788   3.601  -3.384  1.00  0.00     0.023 A 
ATOM     79  Cl  UNL     1       3.211   1.638  -4.513  1.00  0.00    -0.083 Cl
ATOM     80  C   UNL     1       0.889   4.146  -2.464  1.00  0.00     0.028 A 
BRANCH  77  81
ATOM     81  N   UNL     1      -0.469   3.981  -0.467  1.00  0.00    -0.250 N 
ATOM     82  C   UNL     1      -0.146   4.191   0.882  1.00  0.00     0.238 C 
ATOM     83  C   UNL     1      -1.581   4.755  -0.851  1.00  0.00     0.238 C 
ATOM     84  O   UNL     1       0.859   3.945   1.513  1.00  0.00    -0.274 OA
ATOM     85  C   UNL     1      -1.350   4.863   1.435  1.00  0.00     0.100 C 
ATOM     86  C   UNL     1      -1.667   5.764   0.243  1.00  0.00     0.100 C 
ATOM     87  O   UNL     1      -2.231   4.732  -1.880  1.00  0.00    -0.274 OA
ATOM     88  C   UNL     1      -1.532   5.639   2.747  1.00  0.00     0.028 C 
ATOM     89  C   UNL     1      -2.667   6.820   0.696  1.00  0.00     0.028 C 
ATOM     90  C   UNL     1      -3.079   5.666   2.805  1.00  0.00    -0.026 C 
ATOM     91  C   UNL     1      -1.131   7.122   2.710  1.00  0.00     0.001 C 
ATOM     92  C   UNL     1      -3.658   6.218   1.712  1.00  0.00    -0.026 C 
ATOM     93  C   UNL     1      -1.799   7.837   1.525  1.00  0.00     0.001 C 
ATOM     94  C   UNL     1      -0.280   7.830   1.698  1.00  0.00     0.009 C 
ENDBRANCH  77  81
ENDBRANCH  72  74
ENDBRANCH  71  72
ENDBRANCH  70  71
ENDBRANCH   1  70
TORSDOF 15
