REMARK SMILES O=C(OCCOC(=O)c1ccc(-c2c3nc(c(-c4cc(S(=O)(=O)[O-])ccc4F)c4ccc([nH]4)c(-c4cc(S(=O)(=O)[O-])ccc4F)c4nc(c(-c5cc(S(=O)(=O)[O-])ccc5F)c5ccc2[nH]5)C=C4)C=C3)cc1)c1ccc(-c2ccc(/C=C3/SC(=S)N(c4ccccc4)C3=O)o2)cc1
REMARK SMILES IDX 4 1 3 2 2 3 1 4 72 5 73 6 96 7 74 8 95 9 75 10 76 11 77 12
REMARK SMILES IDX 94 13 78 14 79 15 80 16 81 17 82 18 92 19 83 20 85 21 93 22
REMARK SMILES IDX 84 23 86 24 87 25 91 26 88 27 90 28 89 29 5 30 6 31 7 32
REMARK SMILES IDX 8 33 9 34 10 35 71 36 11 37 70 38 12 39 13 40 14 41 64 42
REMARK SMILES IDX 15 43 69 44 63 45 65 46 16 47 68 48 62 49 61 50 17 52 49 53
REMARK SMILES IDX 29 54 48 55 30 56 33 57 47 58 66 59 31 60 32 61 46 63 67 64
REMARK SMILES IDX 34 65 18 66 19 67 27 68 20 69 26 70 28 71 25 72 21 73 22 74
REMARK SMILES IDX 23 75 24 76 50 77 51 78 59 79 52 80 58 81 60 82 57 83 53 84
REMARK SMILES IDX 54 85 55 86 56 87 35 88 36 89 44 90 37 91 43 92 45 93 42 94
REMARK SMILES IDX 38 95 39 96 40 97 41 98
REMARK H PARENT 65 51 33 62
REMARK Flexibility Score: inf
ROOT
ATOM      1  C   UNL     1       4.183  -1.136  -0.633  1.00  0.00     0.275 C 
ENDROOT
BRANCH   1   2
ATOM      2  O   UNL     1       3.104  -0.774   0.244  1.00  0.00    -0.458 OA
BRANCH   2   3
ATOM      3  C   UNL     1       2.921   0.327   1.011  1.00  0.00     0.338 C 
ATOM      4  O   UNL     1       1.992   0.305   1.819  1.00  0.00    -0.246 OA
BRANCH   3   5
ATOM      5  C   UNL     1       3.740   1.589   0.931  1.00  0.00     0.060 A 
ATOM      6  C   UNL     1       4.905   1.788   0.189  1.00  0.00     0.016 A 
ATOM      7  C   UNL     1       3.262   2.688   1.671  1.00  0.00     0.016 A 
ATOM      8  C   UNL     1       5.559   3.026   0.166  1.00  0.00     0.013 A 
ATOM      9  C   UNL     1       3.931   3.921   1.675  1.00  0.00     0.013 A 
ATOM     10  C   UNL     1       5.088   4.101   0.916  1.00  0.00     0.017 A 
BRANCH  10  11
ATOM     11  C   UNL     1       5.811   5.359   0.923  1.00  0.00     0.134 A 
ATOM     12  C   UNL     1       6.030   6.332   1.869  1.00  0.00     0.051 A 
ATOM     13  O   UNL     1       6.443   5.694  -0.238  1.00  0.00    -0.457 OA
ATOM     14  C   UNL     1       6.828   7.316   1.245  1.00  0.00     0.051 A 
ATOM     15  C   UNL     1       7.023   6.926  -0.072  1.00  0.00     0.128 A 
BRANCH  15  16
ATOM     16  C   UNL     1       7.681   7.632  -1.105  1.00  0.00     0.068 C 
ATOM     17  C   UNL     1       7.005   8.273  -2.066  1.00  0.00     0.084 C 
ATOM     18  S   UNL     1       7.797   9.282  -3.219  1.00  0.00    -0.054 SA
ATOM     19  C   UNL     1       5.527   8.318  -2.274  1.00  0.00     0.270 C 
ATOM     20  C   UNL     1       6.282   9.993  -3.770  1.00  0.00     0.152 C 
ATOM     21  N   UNL     1       5.222   9.311  -3.194  1.00  0.00    -0.261 N 
ATOM     22  O   UNL     1       4.745   7.531  -1.760  1.00  0.00    -0.268 OA
ATOM     23  S   UNL     1       6.294  11.341  -4.762  1.00  0.00    -0.051 S 
BRANCH  21  24
ATOM     24  C   UNL     1       3.868   9.589  -3.489  1.00  0.00     0.051 A 
ATOM     25  C   UNL     1       2.988   9.929  -2.455  1.00  0.00     0.027 A 
ATOM     26  C   UNL     1       3.422   9.571  -4.816  1.00  0.00     0.027 A 
ATOM     27  C   UNL     1       1.715  10.380  -2.769  1.00  0.00     0.002 A 
ATOM     28  C   UNL     1       2.135   9.982  -5.118  1.00  0.00     0.002 A 
ATOM     29  C   UNL     1       1.312  10.437  -4.098  1.00  0.00     0.000 A 
ENDBRANCH  21  24
ENDBRANCH  15  16
ENDBRANCH  10  11
ENDBRANCH   3   5
ENDBRANCH   2   3
ENDBRANCH   1   2
BRANCH   1  30
ATOM     30  C   UNL     1       3.967  -0.680  -2.081  1.00  0.00     0.275 C 
BRANCH  30  31
ATOM     31  O   UNL     1       3.546   0.693  -2.177  1.00  0.00    -0.458 OA
BRANCH  31  32
ATOM     32  C   UNL     1       2.199   0.874  -2.238  1.00  0.00     0.338 C 
ATOM     33  O   UNL     1       1.370  -0.019  -2.333  1.00  0.00    -0.246 OA
BRANCH  32  34
ATOM     34  C   UNL     1       1.831   2.301  -2.044  1.00  0.00     0.060 A 
ATOM     35  C   UNL     1       0.610   2.569  -1.411  1.00  0.00     0.016 A 
ATOM     36  C   UNL     1       2.628   3.366  -2.478  1.00  0.00     0.016 A 
ATOM     37  C   UNL     1       0.164   3.885  -1.252  1.00  0.00     0.010 A 
ATOM     38  C   UNL     1       2.183   4.688  -2.308  1.00  0.00     0.010 A 
ATOM     39  C   UNL     1       0.933   4.957  -1.722  1.00  0.00    -0.014 A 
BRANCH  39  40
ATOM     40  C   UNL     1       0.393   6.345  -1.647  1.00  0.00     0.031 A 
ATOM     41  C   UNL     1      -0.287   6.952  -2.847  1.00  0.00     0.074 A 
ATOM     42  C   UNL     1       0.521   7.061  -0.514  1.00  0.00     0.049 A 
ATOM     43  N   UNL     1      -0.963   8.071  -2.958  1.00  0.00    -0.248 NA
ATOM     44  C   UNL     1      -0.201   6.176  -4.090  1.00  0.00     0.031 C 
ATOM     45  C   UNL     1       1.145   6.578   0.715  1.00  0.00     0.029 A 
ATOM     46  N   UNL     1       0.142   8.347  -0.214  1.00  0.00    -0.354 N 
ATOM     47  C   UNL     1      -1.324   8.168  -4.302  1.00  0.00     0.074 A 
ATOM     48  C   UNL     1      -0.844   6.958  -4.943  1.00  0.00     0.031 C 
ATOM     49  C   UNL     1       1.108   7.554   1.639  1.00  0.00     0.029 A 
ATOM     50  C   UNL     1       0.492   8.744   1.056  1.00  0.00     0.049 A 
ATOM     51  H   UNL     1      -0.335   8.929  -0.848  1.00  0.00     0.167 HD
ATOM     52  C   UNL     1      -1.907   9.206  -4.961  1.00  0.00     0.034 A 
ATOM     53  C   UNL     1       0.354   9.939   1.668  1.00  0.00     0.034 A 
ATOM     54  C   UNL     1      -2.231  10.477  -4.339  1.00  0.00     0.049 A 
ATOM     55  C   UNL     1      -0.254  11.088   0.896  1.00  0.00     0.074 A 
ATOM     56  C   UNL     1      -2.719  11.623  -4.946  1.00  0.00     0.029 A 
ATOM     57  N   UNL     1      -1.952  10.827  -3.017  1.00  0.00    -0.354 N 
ATOM     58  N   UNL     1      -0.801  11.091  -0.297  1.00  0.00    -0.248 NA
ATOM     59  C   UNL     1      -0.235  12.402   1.551  1.00  0.00     0.031 C 
ATOM     60  C   UNL     1      -2.504  12.698  -4.075  1.00  0.00     0.029 A 
ATOM     61  C   UNL     1      -2.049  12.207  -2.861  1.00  0.00     0.049 A 
ATOM     62  H   UNL     1      -1.721  10.192  -2.301  1.00  0.00     0.167 HD
ATOM     63  C   UNL     1      -1.187  12.409  -0.538  1.00  0.00     0.074 A 
ATOM     64  C   UNL     1      -0.864  13.156   0.661  1.00  0.00     0.031 C 
ATOM     65  C   UNL     1      -1.731  12.952  -1.658  1.00  0.00     0.034 A 
BRANCH  52  66
ATOM     66  C   UNL     1      -1.955   9.101  -6.478  1.00  0.00     0.023 A 
ATOM     67  C   UNL     1      -2.695   8.117  -7.155  1.00  0.00     0.031 A 
ATOM     68  C   UNL     1      -1.140   9.949  -7.258  1.00  0.00     0.131 A 
ATOM     69  C   UNL     1      -2.521   7.942  -8.541  1.00  0.00     0.055 A 
ATOM     70  C   UNL     1      -1.026   9.816  -8.641  1.00  0.00     0.041 A 
ATOM     71  F   UNL     1      -0.410  10.918  -6.686  1.00  0.00    -0.206 F 
ATOM     72  C   UNL     1      -1.703   8.794  -9.289  1.00  0.00     0.022 A 
BRANCH  69  73
ATOM     73  S   UNL     1      -3.265   6.497  -9.346  1.00  0.00     0.124 S 
ATOM     74  O   UNL     1      -2.499   5.406  -8.751  1.00  0.00    -0.237 OA
ATOM     75  O   UNL     1      -4.663   6.592  -8.942  1.00  0.00    -0.237 OA
ATOM     76  O   UNL     1      -3.012   6.728 -10.767  1.00  0.00    -0.744 OA
ENDBRANCH  69  73
ENDBRANCH  52  66
BRANCH  53  77
ATOM     77  C   UNL     1       0.840  10.155   3.063  1.00  0.00     0.023 A 
ATOM     78  C   UNL     1      -0.054  10.528   4.080  1.00  0.00     0.031 A 
ATOM     79  C   UNL     1       2.208  10.083   3.383  1.00  0.00     0.131 A 
ATOM     80  C   UNL     1       0.433  10.861   5.354  1.00  0.00     0.055 A 
ATOM     81  C   UNL     1       2.681  10.363   4.667  1.00  0.00     0.041 A 
ATOM     82  F   UNL     1       3.110   9.747   2.447  1.00  0.00    -0.206 F 
ATOM     83  C   UNL     1       1.792  10.768   5.659  1.00  0.00     0.022 A 
BRANCH  80  84
ATOM     84  S   UNL     1      -0.731  11.501   6.590  1.00  0.00     0.124 S 
ATOM     85  O   UNL     1      -1.201  12.723   5.948  1.00  0.00    -0.237 OA
ATOM     86  O   UNL     1      -1.699  10.414   6.688  1.00  0.00    -0.237 OA
ATOM     87  O   UNL     1       0.104  11.697   7.774  1.00  0.00    -0.744 OA
ENDBRANCH  80  84
ENDBRANCH  53  77
BRANCH  65  88
ATOM     88  C   UNL     1      -2.050  14.437  -1.630  1.00  0.00     0.023 A 
ATOM     89  C   UNL     1      -1.064  15.426  -1.433  1.00  0.00     0.031 A 
ATOM     90  C   UNL     1      -3.377  14.869  -1.806  1.00  0.00     0.131 A 
ATOM     91  C   UNL     1      -1.431  16.780  -1.348  1.00  0.00     0.055 A 
ATOM     92  C   UNL     1      -3.725  16.221  -1.795  1.00  0.00     0.041 A 
ATOM     93  F   UNL     1      -4.365  13.980  -1.997  1.00  0.00    -0.206 F 
ATOM     94  C   UNL     1      -2.753  17.184  -1.548  1.00  0.00     0.022 A 
BRANCH  91  95
ATOM     95  S   UNL     1      -0.184  18.005  -0.852  1.00  0.00     0.124 S 
ATOM     96  O   UNL     1       0.327  17.436   0.390  1.00  0.00    -0.237 OA
ATOM     97  O   UNL     1       0.734  17.991  -1.986  1.00  0.00    -0.237 OA
ATOM     98  O   UNL     1      -0.957  19.237  -0.696  1.00  0.00    -0.744 OA
ENDBRANCH  91  95
ENDBRANCH  65  88
ENDBRANCH  39  40
ENDBRANCH  32  34
ENDBRANCH  31  32
ENDBRANCH  30  31
ENDBRANCH   1  30
TORSDOF 17
