REMARK SMILES N#C/C(=C/c1cccc(OCC(=O)OCCOC(=O)c2ccc(-c3c4nc(c(-c5cc(S(=O)(=O)[O-])ccc5F)c5ccc([nH]5)c(-c5cc(S(=O)(=O)[O-])ccc5F)c5nc(c(-c6cc(S(=O)(=O)[O-])ccc6F)c6ccc3[nH]6)C=C5)C=C4)cc2)c1)c1nc2ccccc2[nH]1
REMARK SMILES IDX 15 1 14 2 12 3 13 4 11 5 10 6 9 7 5 8 6 9 83 10 7 11 8 12
REMARK SMILES IDX 4 13 3 14 2 15 1 16 84 17 85 18 92 19 86 20 91 21 87 23
REMARK SMILES IDX 90 24 88 25 89 26 16 27 17 28 18 29 19 30 20 31 21 32 82 33
REMARK SMILES IDX 22 34 81 35 23 36 24 37 25 38 75 39 26 40 80 41 74 42 76 43
REMARK SMILES IDX 27 44 79 45 73 46 72 47 28 49 60 50 40 51 59 52 41 53 44 54
REMARK SMILES IDX 58 55 77 56 42 57 43 58 57 60 78 61 45 62 29 63 30 64 38 65
REMARK SMILES IDX 31 66 37 67 39 68 36 69 32 70 33 71 34 72 35 73 61 74 62 75
REMARK SMILES IDX 70 76 63 77 69 78 71 79 68 80 64 81 65 82 66 83 67 84 46 85
REMARK SMILES IDX 47 86 55 87 48 88 54 89 56 90 53 91 49 92 50 93 51 94 52 95
REMARK H PARENT 92 22 76 48 44 59
REMARK Flexibility Score: inf
ROOT
ATOM      1  C   UNL     1       7.311   0.315  -4.623  1.00  0.00     0.274 C 
ENDROOT
BRANCH   1   2
ATOM      2  O   UNL     1       7.960   1.782  -3.404  1.00  0.00    -0.460 OA
BRANCH   2   3
ATOM      3  C   UNL     1       8.397   2.880  -2.628  1.00  0.00     0.344 C 
ATOM      4  O   UNL     1       8.444   4.033  -3.070  1.00  0.00    -0.248 OA
BRANCH   3   5
ATOM      5  C   UNL     1       8.921   2.564  -1.019  1.00  0.00     0.351 C 
BRANCH   5   6
ATOM      6  O   UNL     1       9.176   1.411  -0.187  1.00  0.00    -0.482 OA
BRANCH   6   7
ATOM      7  C   UNL     1       8.317   0.704   0.638  1.00  0.00     0.120 A 
ATOM      8  C   UNL     1       6.037  -0.071   1.319  1.00  0.00    -0.021 A 
ATOM      9  C   UNL     1       6.601  -1.263   1.768  1.00  0.00     0.008 A 
ATOM     10  C   UNL     1       6.975   0.953   0.979  1.00  0.00     0.054 A 
ATOM     11  C   UNL     1       7.997  -1.436   1.745  1.00  0.00     0.004 A 
ATOM     12  C   UNL     1       8.835  -0.487   1.132  1.00  0.00     0.046 A 
BRANCH   8  13
ATOM     13  C   UNL     1       4.511  -0.008   1.071  1.00  0.00     0.031 C 
ATOM     14  C   UNL     1       3.764   0.029  -0.094  1.00  0.00     0.095 C 
BRANCH  14  15
ATOM     15  C   UNL     1       2.244   0.029  -0.094  1.00  0.00     0.103 C 
ATOM     16  N   UNL     1       0.983   0.029  -0.094  1.00  0.00    -0.192 NA
ENDBRANCH  14  15
BRANCH  14  17
ATOM     17  C   UNL     1       4.424  -0.030  -1.385  1.00  0.00     0.149 A 
ATOM     18  N   UNL     1       6.037  -0.468  -1.280  1.00  0.00    -0.228 NA
ATOM     19  N   UNL     1       4.221   1.221  -2.833  1.00  0.00    -0.337 N 
ATOM     20  C   UNL     1       7.130   0.398  -2.460  1.00  0.00     0.089 A 
ATOM     21  C   UNL     1       5.978   1.596  -3.480  1.00  0.00     0.066 A 
ATOM     22  H   UNL     1       3.377   1.595  -3.173  1.00  0.00     0.168 HD
ATOM     23  C   UNL     1       8.825   0.113  -2.981  1.00  0.00     0.030 A 
ATOM     24  C   UNL     1       6.715   2.468  -4.834  1.00  0.00     0.028 A 
ATOM     25  C   UNL     1       9.465   1.024  -4.383  1.00  0.00     0.002 A 
ATOM     26  C   UNL     1       8.430   2.158  -5.277  1.00  0.00     0.002 A 
ENDBRANCH  14  17
ENDBRANCH   8  13
ENDBRANCH   6   7
ENDBRANCH   5   6
ENDBRANCH   3   5
ENDBRANCH   2   3
ENDBRANCH   1   2
BRANCH   1  27
ATOM     27  C   UNL     1       6.170  -0.681  -4.099  1.00  0.00     0.275 C 
BRANCH  27  28
ATOM     28  O   UNL     1       5.413   0.003  -2.875  1.00  0.00    -0.458 OA
BRANCH  28  29
ATOM     29  C   UNL     1       5.645   1.508  -1.578  1.00  0.00     0.338 C 
ATOM     30  O   UNL     1       6.686   2.115  -1.292  1.00  0.00    -0.246 OA
BRANCH  29  31
ATOM     31  C   UNL     1       4.503   2.603  -0.852  1.00  0.00     0.060 A 
ATOM     32  C   UNL     1       5.073   3.449   0.122  1.00  0.00     0.016 A 
ATOM     33  C   UNL     1       3.100   2.640  -0.896  1.00  0.00     0.016 A 
ATOM     34  C   UNL     1       4.388   3.800   1.280  1.00  0.00     0.010 A 
ATOM     35  C   UNL     1       2.383   3.020   0.248  1.00  0.00     0.010 A 
ATOM     36  C   UNL     1       3.041   3.490   1.390  1.00  0.00    -0.014 A 
BRANCH  36  37
ATOM     37  C   UNL     1       2.245   4.042   2.495  1.00  0.00     0.031 A 
ATOM     38  C   UNL     1       1.851   3.284   3.727  1.00  0.00     0.074 A 
ATOM     39  C   UNL     1       1.803   5.282   2.240  1.00  0.00     0.049 A 
ATOM     40  N   UNL     1       1.105   3.679   4.727  1.00  0.00    -0.248 NA
ATOM     41  C   UNL     1       2.338   1.908   3.862  1.00  0.00     0.031 C 
ATOM     42  C   UNL     1       2.144   6.053   1.035  1.00  0.00     0.029 A 
ATOM     43  N   UNL     1       0.945   6.081   2.922  1.00  0.00    -0.354 N 
ATOM     44  C   UNL     1       1.034   2.606   5.614  1.00  0.00     0.074 A 
ATOM     45  C   UNL     1       1.790   1.526   5.011  1.00  0.00     0.031 C 
ATOM     46  C   UNL     1       1.453   7.193   1.037  1.00  0.00     0.029 A 
ATOM     47  C   UNL     1       0.634   7.224   2.235  1.00  0.00     0.049 A 
ATOM     48  H   UNL     1       0.585   5.864   3.813  1.00  0.00     0.167 HD
ATOM     49  C   UNL     1       0.394   2.551   6.811  1.00  0.00     0.034 A 
ATOM     50  C   UNL     1      -0.232   8.196   2.539  1.00  0.00     0.034 A 
ATOM     51  C   UNL     1      -0.378   3.663   7.333  1.00  0.00     0.049 A 
ATOM     52  C   UNL     1      -0.926   8.111   3.857  1.00  0.00     0.074 A 
ATOM     53  C   UNL     1      -1.005   3.786   8.561  1.00  0.00     0.029 A 
ATOM     54  N   UNL     1      -0.654   4.836   6.634  1.00  0.00    -0.354 N 
ATOM     55  N   UNL     1      -0.893   7.142   4.745  1.00  0.00    -0.248 NA
ATOM     56  C   UNL     1      -1.724   9.272   4.237  1.00  0.00     0.031 C 
ATOM     57  C   UNL     1      -1.736   4.981   8.564  1.00  0.00     0.029 A 
ATOM     58  C   UNL     1      -1.484   5.660   7.382  1.00  0.00     0.049 A 
ATOM     59  H   UNL     1      -0.310   5.050   5.737  1.00  0.00     0.167 HD
ATOM     60  C   UNL     1      -1.649   7.595   5.816  1.00  0.00     0.074 A 
ATOM     61  C   UNL     1      -2.088   8.935   5.464  1.00  0.00     0.031 C 
ATOM     62  C   UNL     1      -1.952   6.969   6.983  1.00  0.00     0.034 A 
BRANCH  49  63
ATOM     63  C   UNL     1       0.455   1.267   7.620  1.00  0.00     0.023 A 
ATOM     64  C   UNL     1       1.670   0.726   8.082  1.00  0.00     0.031 A 
ATOM     65  C   UNL     1      -0.728   0.587   7.973  1.00  0.00     0.131 A 
ATOM     66  C   UNL     1       1.679  -0.475   8.815  1.00  0.00     0.055 A 
ATOM     67  C   UNL     1      -0.718  -0.565   8.767  1.00  0.00     0.041 A 
ATOM     68  F   UNL     1      -1.923   1.031   7.553  1.00  0.00    -0.206 F 
ATOM     69  C   UNL     1       0.491  -1.109   9.184  1.00  0.00     0.022 A 
BRANCH  66  70
ATOM     70  S   UNL     1       3.272  -1.270   9.173  1.00  0.00     0.124 S 
ATOM     71  O   UNL     1       3.838  -1.414   7.833  1.00  0.00    -0.237 OA
ATOM     72  O   UNL     1       3.923  -0.296  10.041  1.00  0.00    -0.237 OA
ATOM     73  O   UNL     1       2.893  -2.526   9.818  1.00  0.00    -0.744 OA
ENDBRANCH  66  70
ENDBRANCH  49  63
BRANCH  50  74
ATOM     74  C   UNL     1      -0.377   9.340   1.613  1.00  0.00     0.023 A 
ATOM     75  C   UNL     1       0.103  10.599   1.984  1.00  0.00     0.031 A 
ATOM     76  C   UNL     1      -0.919   9.180   0.325  1.00  0.00     0.131 A 
ATOM     77  C   UNL     1      -0.020  11.674   1.099  1.00  0.00     0.055 A 
ATOM     78  C   UNL     1      -0.981  10.240  -0.578  1.00  0.00     0.041 A 
ATOM     79  F   UNL     1      -1.347   7.976  -0.089  1.00  0.00    -0.206 F 
ATOM     80  C   UNL     1      -0.544  11.502  -0.185  1.00  0.00     0.022 A 
BRANCH  77  81
ATOM     81  S   UNL     1       0.438  13.319   1.696  1.00  0.00     0.124 S 
ATOM     82  O   UNL     1      -0.373  13.432   2.904  1.00  0.00    -0.237 OA
ATOM     83  O   UNL     1       1.875  13.178   1.901  1.00  0.00    -0.237 OA
ATOM     84  O   UNL     1       0.047  14.197   0.596  1.00  0.00    -0.744 OA
ENDBRANCH  77  81
ENDBRANCH  50  74
BRANCH  62  85
ATOM     85  C   UNL     1      -2.802   7.760   7.944  1.00  0.00     0.023 A 
ATOM     86  C   UNL     1      -4.099   8.177   7.594  1.00  0.00     0.031 A 
ATOM     87  C   UNL     1      -2.282   8.179   9.180  1.00  0.00     0.131 A 
ATOM     88  C   UNL     1      -4.784   9.080   8.416  1.00  0.00     0.055 A 
ATOM     89  C   UNL     1      -3.011   9.000  10.040  1.00  0.00     0.041 A 
ATOM     90  F   UNL     1      -1.047   7.818   9.562  1.00  0.00    -0.206 F 
ATOM     91  C   UNL     1      -4.260   9.476   9.648  1.00  0.00     0.022 A 
BRANCH  88  92
ATOM     92  S   UNL     1      -6.283   9.866   7.764  1.00  0.00     0.124 S 
ATOM     93  O   UNL     1      -5.787  10.488   6.540  1.00  0.00    -0.237 OA
ATOM     94  O   UNL     1      -7.178   8.729   7.584  1.00  0.00    -0.237 OA
ATOM     95  O   UNL     1      -6.667  10.799   8.822  1.00  0.00    -0.744 OA
ENDBRANCH  88  92
ENDBRANCH  62  85
ENDBRANCH  36  37
ENDBRANCH  29  31
ENDBRANCH  28  29
ENDBRANCH  27  28
ENDBRANCH   1  27
TORSDOF 19
