REMARK SMILES CC1(C)[C@H](C(=O)Nc2cccc3[nH]ccc23)[C@H]1C(=O)OCCOC(=O)c1ccc(-c2c3nc(c(-c4cc(S(=O)(=O)[O-])ccc4F)c4ccc([nH]4)c(-c4cc(S(=O)(=O)[O-])ccc4F)c4nc(c(-c5cc(S(=O)(=O)[O-])ccc5F)c5ccc2[nH]5)C=C4)C=C3)cc1
REMARK SMILES IDX 22 1 21 2 20 3 18 4 19 5 17 6 1 7 2 8 3 9 4 10 5 11 6 12
REMARK SMILES IDX 7 13 8 15 9 16 16 17 10 18 12 19 15 20 11 21 13 22 14 23
REMARK SMILES IDX 23 25 24 26 25 27 26 28 27 29 88 30 28 31 87 32 29 33 30 34
REMARK SMILES IDX 31 35 81 36 32 37 86 38 80 39 82 40 33 41 85 42 79 43 78 44
REMARK SMILES IDX 34 46 66 47 46 48 65 49 47 50 50 51 64 52 83 53 48 54 49 55
REMARK SMILES IDX 63 57 84 58 51 59 35 60 36 61 44 62 37 63 43 64 45 65 42 66
REMARK SMILES IDX 38 67 39 68 40 69 41 70 67 71 68 72 76 73 69 74 75 75 77 76
REMARK SMILES IDX 74 77 70 78 71 79 72 80 73 81 52 82 53 83 61 84 54 85 60 86
REMARK SMILES IDX 62 87 59 88 55 89 56 90 57 91 58 92
REMARK H PARENT 7 14 13 24 82 45 50 56
REMARK Flexibility Score: inf
ROOT
ATOM      1  C   UNL     1      -1.520  -3.074   3.829  1.00  0.00     0.275 C 
ENDROOT
BRANCH   1   2
ATOM      2  C   UNL     1      -2.062  -3.147   2.401  1.00  0.00     0.274 C 
BRANCH   2   3
ATOM      3  O   UNL     1      -1.290  -2.274   1.561  1.00  0.00    -0.462 OA
BRANCH   3   4
ATOM      4  C   UNL     1      -1.947  -1.255   0.957  1.00  0.00     0.310 C 
ATOM      5  O   UNL     1      -3.156  -1.080   0.949  1.00  0.00    -0.252 OA
BRANCH   4   6
ATOM      6  C   UNL     1      -1.025  -0.259   0.368  1.00  0.00     0.118 C 
ATOM      7  C   UNL     1       0.709  -2.031  -0.561  1.00  0.00     0.013 C 
ATOM      8  C   UNL     1       0.290  -0.601  -0.319  1.00  0.00    -0.009 C 
ATOM      9  C   UNL     1       1.458   0.263   0.081  1.00  0.00     0.013 C 
ATOM     10  C   UNL     1      -0.924  -0.116  -1.121  1.00  0.00     0.100 C 
BRANCH  10  11
ATOM     11  C   UNL     1      -1.064   1.178  -1.861  1.00  0.00     0.228 C 
ATOM     12  O   UNL     1      -0.887   1.163  -3.076  1.00  0.00    -0.274 OA
ATOM     13  N   UNL     1      -1.716   2.219  -1.240  1.00  0.00    -0.325 N 
ATOM     14  H   UNL     1      -2.683   2.303  -1.405  1.00  0.00     0.169 HD
BRANCH  13  15
ATOM     15  C   UNL     1      -1.127   3.179  -0.387  1.00  0.00     0.050 A 
ATOM     16  C   UNL     1       0.259   3.253  -0.212  1.00  0.00     0.027 A 
ATOM     17  C   UNL     1      -1.931   4.134   0.282  1.00  0.00     0.023 A 
ATOM     18  C   UNL     1       0.835   4.113   0.721  1.00  0.00     0.004 A 
ATOM     19  C   UNL     1      -1.324   5.003   1.198  1.00  0.00     0.047 A 
ATOM     20  C   UNL     1      -3.320   4.460   0.279  1.00  0.00     0.030 A 
ATOM     21  C   UNL     1       0.047   4.982   1.471  1.00  0.00     0.027 A 
ATOM     22  N   UNL     1      -2.312   5.800   1.736  1.00  0.00    -0.361 N 
ATOM     23  C   UNL     1      -3.516   5.499   1.159  1.00  0.00     0.083 A 
ATOM     24  H   UNL     1      -2.172   6.483   2.431  1.00  0.00     0.166 HD
ENDBRANCH  13  15
ENDBRANCH  10  11
ENDBRANCH   4   6
ENDBRANCH   3   4
ENDBRANCH   2   3
ENDBRANCH   1   2
BRANCH   1  25
ATOM     25  O   UNL     1      -1.774  -1.772   4.391  1.00  0.00    -0.458 OA
BRANCH  25  26
ATOM     26  C   UNL     1      -0.748  -0.896   4.279  1.00  0.00     0.338 C 
ATOM     27  O   UNL     1       0.363  -1.108   3.824  1.00  0.00    -0.246 OA
BRANCH  26  28
ATOM     28  C   UNL     1      -1.193   0.437   4.704  1.00  0.00     0.060 A 
ATOM     29  C   UNL     1      -1.686   1.302   3.735  1.00  0.00     0.016 A 
ATOM     30  C   UNL     1      -0.989   0.884   6.008  1.00  0.00     0.016 A 
ATOM     31  C   UNL     1      -1.874   2.645   4.036  1.00  0.00     0.010 A 
ATOM     32  C   UNL     1      -1.262   2.223   6.327  1.00  0.00     0.010 A 
ATOM     33  C   UNL     1      -1.661   3.134   5.331  1.00  0.00    -0.014 A 
BRANCH  33  34
ATOM     34  C   UNL     1      -1.790   4.599   5.596  1.00  0.00     0.031 A 
ATOM     35  C   UNL     1      -0.607   5.389   6.101  1.00  0.00     0.074 A 
ATOM     36  C   UNL     1      -2.941   5.246   5.319  1.00  0.00     0.049 A 
ATOM     37  N   UNL     1      -0.546   6.645   6.469  1.00  0.00    -0.248 NA
ATOM     38  C   UNL     1       0.669   4.670   6.217  1.00  0.00     0.031 C 
ATOM     39  C   UNL     1      -4.151   4.622   4.781  1.00  0.00     0.029 A 
ATOM     40  N   UNL     1      -3.279   6.575   5.429  1.00  0.00    -0.354 N 
ATOM     41  C   UNL     1       0.757   6.850   6.917  1.00  0.00     0.074 A 
ATOM     42  C   UNL     1       1.446   5.584   6.780  1.00  0.00     0.031 C 
ATOM     43  C   UNL     1      -5.076   5.568   4.561  1.00  0.00     0.029 A 
ATOM     44  C   UNL     1      -4.568   6.853   5.029  1.00  0.00     0.049 A 
ATOM     45  H   UNL     1      -2.659   7.263   5.762  1.00  0.00     0.167 HD
ATOM     46  C   UNL     1       1.325   7.985   7.398  1.00  0.00     0.034 A 
ATOM     47  C   UNL     1      -5.279   7.998   5.065  1.00  0.00     0.034 A 
ATOM     48  C   UNL     1       0.641   9.254   7.496  1.00  0.00     0.049 A 
ATOM     49  C   UNL     1      -4.638   9.238   5.633  1.00  0.00     0.074 A 
ATOM     50  C   UNL     1       1.132  10.464   7.957  1.00  0.00     0.029 A 
ATOM     51  N   UNL     1      -0.677   9.482   7.123  1.00  0.00    -0.354 N 
ATOM     52  N   UNL     1      -3.420   9.398   6.098  1.00  0.00    -0.248 NA
ATOM     53  C   UNL     1      -5.469  10.447   5.689  1.00  0.00     0.031 C 
ATOM     54  C   UNL     1       0.096  11.405   7.921  1.00  0.00     0.029 A 
ATOM     55  C   UNL     1      -1.020  10.805   7.362  1.00  0.00     0.049 A 
ATOM     56  H   UNL     1      -1.280   8.803   6.743  1.00  0.00     0.167 HD
ATOM     57  C   UNL     1      -3.339  10.732   6.489  1.00  0.00     0.074 A 
ATOM     58  C   UNL     1      -4.617  11.336   6.177  1.00  0.00     0.031 C 
ATOM     59  C   UNL     1      -2.302  11.397   7.059  1.00  0.00     0.034 A 
BRANCH  46  60
ATOM     60  C   UNL     1       2.743   7.891   7.915  1.00  0.00     0.023 A 
ATOM     61  C   UNL     1       3.828   7.588   7.076  1.00  0.00     0.031 A 
ATOM     62  C   UNL     1       3.006   8.086   9.284  1.00  0.00     0.131 A 
ATOM     63  C   UNL     1       5.110   7.419   7.622  1.00  0.00     0.055 A 
ATOM     64  C   UNL     1       4.297   7.997   9.808  1.00  0.00     0.041 A 
ATOM     65  F   UNL     1       2.008   8.357  10.140  1.00  0.00    -0.206 F 
ATOM     66  C   UNL     1       5.357   7.647   8.978  1.00  0.00     0.022 A 
BRANCH  63  67
ATOM     67  S   UNL     1       6.423   6.753   6.562  1.00  0.00     0.124 S 
ATOM     68  O   UNL     1       5.838   5.486   6.131  1.00  0.00    -0.237 OA
ATOM     69  O   UNL     1       6.549   7.781   5.535  1.00  0.00    -0.237 OA
ATOM     70  O   UNL     1       7.564   6.629   7.466  1.00  0.00    -0.744 OA
ENDBRANCH  63  67
ENDBRANCH  46  60
BRANCH  47  71
ATOM     71  C   UNL     1      -6.697   8.023   4.601  1.00  0.00     0.023 A 
ATOM     72  C   UNL     1      -7.093   8.828   3.522  1.00  0.00     0.031 A 
ATOM     73  C   UNL     1      -7.688   7.274   5.262  1.00  0.00     0.131 A 
ATOM     74  C   UNL     1      -8.449   8.896   3.161  1.00  0.00     0.055 A 
ATOM     75  C   UNL     1      -9.024   7.296   4.859  1.00  0.00     0.041 A 
ATOM     76  F   UNL     1      -7.366   6.492   6.305  1.00  0.00    -0.206 F 
ATOM     77  C   UNL     1      -9.413   8.122   3.810  1.00  0.00     0.022 A 
BRANCH  74  78
ATOM     78  S   UNL     1      -8.948  10.085   1.886  1.00  0.00     0.124 S 
ATOM     79  O   UNL     1      -8.492  11.345   2.462  1.00  0.00    -0.237 OA
ATOM     80  O   UNL     1      -8.209   9.606   0.723  1.00  0.00    -0.237 OA
ATOM     81  O   UNL     1     -10.398   9.917   1.814  1.00  0.00    -0.744 OA
ENDBRANCH  74  78
ENDBRANCH  47  71
BRANCH  59  82
ATOM     82  C   UNL     1      -2.500  12.868   7.336  1.00  0.00     0.023 A 
ATOM     83  C   UNL     1      -3.425  13.324   8.292  1.00  0.00     0.031 A 
ATOM     84  C   UNL     1      -1.769  13.827   6.613  1.00  0.00     0.131 A 
ATOM     85  C   UNL     1      -3.639  14.702   8.455  1.00  0.00     0.055 A 
ATOM     86  C   UNL     1      -1.942  15.196   6.823  1.00  0.00     0.041 A 
ATOM     87  F   UNL     1      -0.874  13.448   5.686  1.00  0.00    -0.206 F 
ATOM     88  C   UNL     1      -2.893  15.640   7.738  1.00  0.00     0.022 A 
BRANCH  85  89
ATOM     89  S   UNL     1      -4.981  15.252   9.545  1.00  0.00     0.124 S 
ATOM     90  O   UNL     1      -6.141  14.590   8.957  1.00  0.00    -0.237 OA
ATOM     91  O   UNL     1      -4.551  14.749  10.846  1.00  0.00    -0.237 OA
ATOM     92  O   UNL     1      -4.961  16.707   9.406  1.00  0.00    -0.744 OA
ENDBRANCH  85  89
ENDBRANCH  59  82
ENDBRANCH  33  34
ENDBRANCH  26  28
ENDBRANCH  25  26
ENDBRANCH   1  25
TORSDOF 16
