REMARK SMILES C[C@]1(C(=O)NCc2ccc(C(=O)OCCOC(=O)c3ccc(-c4c5nc(c(-c6cc(S(=O)(=O)[O-])ccc6F)c6ccc([nH]6)c(-c6cc(S(=O)(=O)[O-])ccc6F)c6nc(c(-c7cc(S(=O)(=O)[O-])ccc7F)c7ccc4[nH]7)C=C6)C=C5)cc3)o2)CCC[NH2+]C1
REMARK SMILES IDX 14 1 13 2 11 3 12 4 10 5 7 6 8 7 82 8 9 9 6 10 5 11 3 12
REMARK SMILES IDX 4 13 2 15 1 16 83 17 87 18 84 19 86 20 85 21 15 24 16 25
REMARK SMILES IDX 17 26 18 27 19 28 20 29 81 30 21 31 80 32 22 33 23 34 24 35
REMARK SMILES IDX 74 36 25 37 79 38 73 39 75 40 26 41 78 42 72 43 71 44 27 46
REMARK SMILES IDX 59 47 39 48 58 49 40 50 43 51 57 52 76 53 41 54 42 55 56 57
REMARK SMILES IDX 77 58 44 59 28 60 29 61 37 62 30 63 36 64 38 65 35 66 31 67
REMARK SMILES IDX 32 68 33 69 34 70 60 71 61 72 69 73 62 74 68 75 70 76 67 77
REMARK SMILES IDX 63 78 64 79 65 80 66 81 45 82 46 83 54 84 47 85 53 86 55 87
REMARK SMILES IDX 52 88 48 89 49 90 50 91 51 92
REMARK H PARENT 5 14 86 22 86 23 75 45 43 56
REMARK Flexibility Score: inf
ROOT
ATOM      1  C   UNL     1       4.760   0.802  -7.603  1.00  0.00     0.275 C 
ENDROOT
BRANCH   1   2
ATOM      2  O   UNL     1       4.871  -0.198  -6.574  1.00  0.00    -0.456 OA
BRANCH   2   3
ATOM      3  C   UNL     1       4.874   0.262  -5.287  1.00  0.00     0.374 C 
ATOM      4  O   UNL     1       4.956   1.445  -4.979  1.00  0.00    -0.242 OA
BRANCH   3   5
ATOM      5  C   UNL     1       4.697  -0.842  -4.372  1.00  0.00     0.211 A 
ATOM      6  C   UNL     1       4.170  -1.737  -2.421  1.00  0.00     0.124 A 
ATOM      7  C   UNL     1       4.328  -2.786  -3.303  1.00  0.00     0.048 A 
ATOM      8  O   UNL     1       4.448  -0.559  -3.052  1.00  0.00    -0.452 OA
ATOM      9  C   UNL     1       4.663  -2.213  -4.553  1.00  0.00     0.058 A 
BRANCH   6  10
ATOM     10  C   UNL     1       3.814  -1.683  -0.982  1.00  0.00     0.191 C 
BRANCH  10  11
ATOM     11  N   UNL     1       2.862  -0.633  -0.712  1.00  0.00    -0.348 N 
ATOM     12  C   UNL     1       1.624  -0.601  -0.165  1.00  0.00     0.232 C 
ATOM     13  O   UNL     1       1.333   0.502   0.322  1.00  0.00    -0.274 OA
ATOM     14  H   UNL     1       3.183   0.256  -0.987  1.00  0.00     0.163 HD
BRANCH  12  15
ATOM     15  C   UNL     1       0.531  -1.688  -0.310  1.00  0.00     0.095 C 
ATOM     16  C   UNL     1      -0.335  -1.214  -1.502  1.00  0.00     0.028 C 
ATOM     17  C   UNL     1       0.937  -3.145  -0.588  1.00  0.00     0.028 C 
ATOM     18  C   UNL     1      -0.364  -1.658   0.961  1.00  0.00     0.277 C 
ATOM     19  C   UNL     1       1.466  -3.868   0.651  1.00  0.00     0.063 C 
ATOM     20  N   UNL     1       0.262  -2.330   2.112  1.00  0.00    -0.345 N 
ATOM     21  C   UNL     1       0.509  -3.737   1.829  1.00  0.00     0.260 C 
ATOM     22  H   UNL     1       1.149  -1.873   2.323  1.00  0.00     0.346 HD
ATOM     23  H   UNL     1      -0.373  -2.267   2.908  1.00  0.00     0.346 HD
ENDBRANCH  12  15
ENDBRANCH  10  11
ENDBRANCH   6  10
ENDBRANCH   3   5
ENDBRANCH   2   3
ENDBRANCH   1   2
BRANCH   1  24
ATOM     24  C   UNL     1       3.315   0.929  -8.099  1.00  0.00     0.275 C 
BRANCH  24  25
ATOM     25  O   UNL     1       2.457   1.548  -7.123  1.00  0.00    -0.458 OA
BRANCH  25  26
ATOM     26  C   UNL     1       1.824   0.691  -6.284  1.00  0.00     0.338 C 
ATOM     27  O   UNL     1       1.908  -0.526  -6.291  1.00  0.00    -0.246 OA
BRANCH  26  28
ATOM     28  C   UNL     1       1.093   1.447  -5.253  1.00  0.00     0.060 A 
ATOM     29  C   UNL     1       1.428   1.224  -3.918  1.00  0.00     0.016 A 
ATOM     30  C   UNL     1       0.043   2.309  -5.581  1.00  0.00     0.016 A 
ATOM     31  C   UNL     1       0.705   1.850  -2.906  1.00  0.00     0.010 A 
ATOM     32  C   UNL     1      -0.682   2.936  -4.558  1.00  0.00     0.010 A 
ATOM     33  C   UNL     1      -0.369   2.696  -3.208  1.00  0.00    -0.014 A 
BRANCH  33  34
ATOM     34  C   UNL     1      -1.181   3.274  -2.102  1.00  0.00     0.031 A 
ATOM     35  C   UNL     1      -2.598   2.815  -1.883  1.00  0.00     0.074 A 
ATOM     36  C   UNL     1      -0.634   4.178  -1.265  1.00  0.00     0.049 A 
ATOM     37  N   UNL     1      -3.489   3.243  -1.024  1.00  0.00    -0.248 NA
ATOM     38  C   UNL     1      -3.079   1.734  -2.756  1.00  0.00     0.031 C 
ATOM     39  C   UNL     1       0.747   4.655  -1.330  1.00  0.00     0.029 A 
ATOM     40  N   UNL     1      -1.168   4.848  -0.192  1.00  0.00    -0.354 N 
ATOM     41  C   UNL     1      -4.641   2.501  -1.264  1.00  0.00     0.074 A 
ATOM     42  C   UNL     1      -4.342   1.617  -2.372  1.00  0.00     0.031 C 
ATOM     43  C   UNL     1       0.958   5.525  -0.330  1.00  0.00     0.029 A 
ATOM     44  C   UNL     1      -0.287   5.717   0.409  1.00  0.00     0.049 A 
ATOM     45  H   UNL     1      -2.093   4.718   0.119  1.00  0.00     0.167 HD
ATOM     46  C   UNL     1      -5.833   2.551  -0.616  1.00  0.00     0.034 A 
ATOM     47  C   UNL     1      -0.466   6.593   1.419  1.00  0.00     0.034 A 
ATOM     48  C   UNL     1      -6.109   3.430   0.497  1.00  0.00     0.049 A 
ATOM     49  C   UNL     1      -1.823   6.687   2.070  1.00  0.00     0.074 A 
ATOM     50  C   UNL     1      -7.276   3.549   1.234  1.00  0.00     0.029 A 
ATOM     51  N   UNL     1      -5.211   4.345   1.035  1.00  0.00    -0.354 N 
ATOM     52  N   UNL     1      -2.914   6.001   1.814  1.00  0.00    -0.248 NA
ATOM     53  C   UNL     1      -1.974   7.676   3.144  1.00  0.00     0.031 C 
ATOM     54  C   UNL     1      -7.110   4.583   2.162  1.00  0.00     0.029 A 
ATOM     55  C   UNL     1      -5.812   5.056   2.065  1.00  0.00     0.049 A 
ATOM     56  H   UNL     1      -4.284   4.471   0.730  1.00  0.00     0.167 HD
ATOM     57  C   UNL     1      -3.871   6.458   2.716  1.00  0.00     0.074 A 
ATOM     58  C   UNL     1      -3.224   7.467   3.530  1.00  0.00     0.031 C 
ATOM     59  C   UNL     1      -5.165   6.075   2.861  1.00  0.00     0.034 A 
BRANCH  46  60
ATOM     60  C   UNL     1      -6.947   1.673  -1.138  1.00  0.00     0.023 A 
ATOM     61  C   UNL     1      -6.868   0.269  -1.114  1.00  0.00     0.031 A 
ATOM     62  C   UNL     1      -8.102   2.254  -1.694  1.00  0.00     0.131 A 
ATOM     63  C   UNL     1      -7.886  -0.501  -1.698  1.00  0.00     0.055 A 
ATOM     64  C   UNL     1      -9.149   1.481  -2.200  1.00  0.00     0.041 A 
ATOM     65  F   UNL     1      -8.229   3.589  -1.765  1.00  0.00    -0.206 F 
ATOM     66  C   UNL     1      -9.038   0.095  -2.218  1.00  0.00     0.022 A 
BRANCH  63  67
ATOM     67  S   UNL     1      -7.620  -2.285  -1.901  1.00  0.00     0.124 S 
ATOM     68  O   UNL     1      -6.388  -2.314  -2.686  1.00  0.00    -0.237 OA
ATOM     69  O   UNL     1      -7.508  -2.747  -0.523  1.00  0.00    -0.237 OA
ATOM     70  O   UNL     1      -8.814  -2.732  -2.615  1.00  0.00    -0.744 OA
ENDBRANCH  63  67
ENDBRANCH  46  60
BRANCH  47  71
ATOM     71  C   UNL     1       0.646   7.494   1.841  1.00  0.00     0.023 A 
ATOM     72  C   UNL     1       1.180   7.438   3.139  1.00  0.00     0.031 A 
ATOM     73  C   UNL     1       1.159   8.463   0.960  1.00  0.00     0.131 A 
ATOM     74  C   UNL     1       2.163   8.361   3.530  1.00  0.00     0.055 A 
ATOM     75  C   UNL     1       2.179   9.339   1.335  1.00  0.00     0.041 A 
ATOM     76  F   UNL     1       0.679   8.568  -0.290  1.00  0.00    -0.206 F 
ATOM     77  C   UNL     1       2.678   9.299   2.632  1.00  0.00     0.022 A 
BRANCH  74  78
ATOM     78  S   UNL     1       2.698   8.385   5.264  1.00  0.00     0.124 S 
ATOM     79  O   UNL     1       1.439   8.624   5.961  1.00  0.00    -0.237 OA
ATOM     80  O   UNL     1       3.279   7.056   5.424  1.00  0.00    -0.237 OA
ATOM     81  O   UNL     1       3.655   9.489   5.311  1.00  0.00    -0.744 OA
ENDBRANCH  74  78
ENDBRANCH  47  71
BRANCH  59  82
ATOM     82  C   UNL     1      -5.952   6.727   3.974  1.00  0.00     0.023 A 
ATOM     83  C   UNL     1      -6.275   8.095   3.953  1.00  0.00     0.031 A 
ATOM     84  C   UNL     1      -6.369   5.967   5.082  1.00  0.00     0.131 A 
ATOM     85  C   UNL     1      -6.942   8.674   5.044  1.00  0.00     0.055 A 
ATOM     86  C   UNL     1      -7.085   6.535   6.136  1.00  0.00     0.041 A 
ATOM     87  F   UNL     1      -6.087   4.657   5.158  1.00  0.00    -0.206 F 
ATOM     88  C   UNL     1      -7.364   7.899   6.128  1.00  0.00     0.022 A 
BRANCH  85  89
ATOM     89  S   UNL     1      -7.172  10.473   5.074  1.00  0.00     0.124 S 
ATOM     90  O   UNL     1      -5.798  10.958   4.994  1.00  0.00    -0.237 OA
ATOM     91  O   UNL     1      -8.000  10.703   3.894  1.00  0.00    -0.237 OA
ATOM     92  O   UNL     1      -7.840  10.713   6.353  1.00  0.00    -0.744 OA
ENDBRANCH  85  89
ENDBRANCH  59  82
ENDBRANCH  33  34
ENDBRANCH  26  28
ENDBRANCH  25  26
ENDBRANCH  24  25
ENDBRANCH   1  24
TORSDOF 17
