REMARK SMILES Cc1ccccc1OCCN1C(=O)CC[C@H](C(=O)OCCOC(=O)c2ccc(-c3c4nc(c(-c5cc(S(=O)(=O)[O-])ccc5F)c5ccc([nH]5)c(-c5cc(S(=O)(=O)[O-])ccc5F)c5nc(c(-c6cc(S(=O)(=O)[O-])ccc6F)c6ccc3[nH]6)C=C5)C=C4)cc2)[C@@H]1c1ccco1
REMARK SMILES IDX 20 1 19 2 17 3 18 4 16 5 11 6 12 7 88 8 13 9 14 10 15 11
REMARK SMILES IDX 10 12 9 13 8 14 7 15 1 16 2 17 3 18 4 19 6 20 5 21 89 22
REMARK SMILES IDX 90 23 93 24 91 25 92 26 21 27 22 28 23 29 24 30 25 31 26 32
REMARK SMILES IDX 87 33 27 34 86 35 28 36 29 37 30 38 80 39 31 40 85 41 79 42
REMARK SMILES IDX 81 43 32 44 84 45 78 46 77 47 33 49 65 50 45 51 64 52 46 53
REMARK SMILES IDX 49 54 63 55 82 56 47 57 48 58 62 60 83 61 50 62 34 63 35 64
REMARK SMILES IDX 43 65 36 66 42 67 44 68 41 69 37 70 38 71 39 72 40 73 66 74
REMARK SMILES IDX 67 75 75 76 68 77 74 78 76 79 73 80 69 81 70 82 71 83 72 84
REMARK SMILES IDX 51 85 52 86 60 87 53 88 59 89 61 90 58 91 54 92 55 93 56 94
REMARK SMILES IDX 57 95
REMARK H PARENT 81 48 49 59
REMARK Flexibility Score: inf
ROOT
ATOM      1  C   UNL     1       3.264  -5.463   2.968  1.00  0.00     0.274 C 
ENDROOT
BRANCH   1   2
ATOM      2  O   UNL     1       2.326  -4.400   2.734  1.00  0.00    -0.462 OA
BRANCH   2   3
ATOM      3  C   UNL     1       2.908  -3.174   2.600  1.00  0.00     0.311 C 
ATOM      4  O   UNL     1       4.104  -2.997   2.608  1.00  0.00    -0.252 OA
BRANCH   3   5
ATOM      5  C   UNL     1       1.922  -2.047   2.385  1.00  0.00     0.130 C 
ATOM      6  N   UNL     1       1.639   0.428   2.500  1.00  0.00    -0.328 N 
ATOM      7  C   UNL     1       0.305   0.333   2.870  1.00  0.00     0.223 C 
ATOM      8  C   UNL     1       2.571  -0.692   2.738  1.00  0.00     0.166 C 
ATOM      9  O   UNL     1      -0.417   1.314   3.059  1.00  0.00    -0.275 OA
ATOM     10  C   UNL     1      -0.305  -1.058   2.900  1.00  0.00     0.101 C 
ATOM     11  C   UNL     1       0.637  -2.212   3.177  1.00  0.00     0.028 C 
BRANCH   6  12
ATOM     12  C   UNL     1       2.200   1.763   2.235  1.00  0.00     0.162 C 
BRANCH  12  13
ATOM     13  C   UNL     1       2.249   2.197   0.758  1.00  0.00     0.251 C 
BRANCH  13  14
ATOM     14  O   UNL     1       0.990   2.332   0.097  1.00  0.00    -0.491 OA
BRANCH  14  15
ATOM     15  C   UNL     1       0.323   1.215  -0.324  1.00  0.00     0.122 A 
ATOM     16  C   UNL     1       2.277  -0.011  -1.452  1.00  0.00     0.048 C 
ATOM     17  C   UNL     1       0.853   0.104  -0.995  1.00  0.00    -0.009 A 
ATOM     18  C   UNL     1      -0.005  -0.974  -1.296  1.00  0.00     0.007 A 
ATOM     19  C   UNL     1      -1.371  -0.915  -1.018  1.00  0.00     0.001 A 
ATOM     20  C   UNL     1      -1.060   1.281  -0.093  1.00  0.00     0.047 A 
ATOM     21  C   UNL     1      -1.905   0.225  -0.434  1.00  0.00     0.004 A 
ENDBRANCH  14  15
ENDBRANCH  13  14
ENDBRANCH  12  13
ENDBRANCH   6  12
BRANCH   8  22
ATOM     22  C   UNL     1       3.098  -0.609   4.174  1.00  0.00     0.127 A 
ATOM     23  C   UNL     1       4.089  -1.270   4.885  1.00  0.00     0.048 A 
ATOM     24  O   UNL     1       2.557   0.351   4.992  1.00  0.00    -0.467 OA
ATOM     25  C   UNL     1       4.188  -0.660   6.154  1.00  0.00     0.042 A 
ATOM     26  C   UNL     1       3.233   0.322   6.168  1.00  0.00     0.195 A 
ENDBRANCH   8  22
ENDBRANCH   3   5
ENDBRANCH   2   3
ENDBRANCH   1   2
BRANCH   1  27
ATOM     27  C   UNL     1       3.026  -6.681   2.073  1.00  0.00     0.275 C 
BRANCH  27  28
ATOM     28  O   UNL     1       2.616  -6.490   0.691  1.00  0.00    -0.458 OA
BRANCH  28  29
ATOM     29  C   UNL     1       2.813  -5.408  -0.106  1.00  0.00     0.338 C 
ATOM     30  O   UNL     1       1.888  -4.948  -0.769  1.00  0.00    -0.246 OA
BRANCH  29  31
ATOM     31  C   UNL     1       4.131  -4.730  -0.071  1.00  0.00     0.060 A 
ATOM     32  C   UNL     1       4.214  -3.374  -0.444  1.00  0.00     0.016 A 
ATOM     33  C   UNL     1       5.244  -5.367   0.456  1.00  0.00     0.016 A 
ATOM     34  C   UNL     1       5.347  -2.614  -0.118  1.00  0.00     0.010 A 
ATOM     35  C   UNL     1       6.312  -4.597   0.875  1.00  0.00     0.010 A 
ATOM     36  C   UNL     1       6.372  -3.212   0.618  1.00  0.00    -0.014 A 
BRANCH  36  37
ATOM     37  C   UNL     1       7.594  -2.536   1.088  1.00  0.00     0.031 A 
ATOM     38  C   UNL     1       7.635  -1.369   2.004  1.00  0.00     0.074 A 
ATOM     39  C   UNL     1       8.743  -3.064   0.613  1.00  0.00     0.049 A 
ATOM     40  N   UNL     1       8.707  -0.728   2.323  1.00  0.00    -0.248 NA
ATOM     41  C   UNL     1       6.467  -0.793   2.648  1.00  0.00     0.031 C 
ATOM     42  C   UNL     1      10.132  -2.760   0.918  1.00  0.00     0.029 A 
ATOM     43  N   UNL     1       8.812  -3.811  -0.556  1.00  0.00    -0.354 N 
ATOM     44  C   UNL     1       8.421   0.193   3.311  1.00  0.00     0.074 A 
ATOM     45  C   UNL     1       6.998   0.103   3.493  1.00  0.00     0.031 C 
ATOM     46  C   UNL     1      10.868  -3.024  -0.178  1.00  0.00     0.029 A 
ATOM     47  C   UNL     1       9.934  -3.370  -1.245  1.00  0.00     0.049 A 
ATOM     48  H   UNL     1       8.186  -4.515  -0.841  1.00  0.00     0.167 HD
ATOM     49  C   UNL     1       9.461   0.872   3.874  1.00  0.00     0.034 A 
ATOM     50  C   UNL     1       9.734  -2.656  -2.392  1.00  0.00     0.034 A 
ATOM     51  C   UNL     1      10.617   0.797   2.989  1.00  0.00     0.049 A 
ATOM     52  C   UNL     1      10.334  -1.276  -2.293  1.00  0.00     0.074 A 
ATOM     53  C   UNL     1      11.750   0.007   2.946  1.00  0.00     0.029 A 
ATOM     54  N   UNL     1      10.512   1.417   1.749  1.00  0.00    -0.354 N 
ATOM     55  N   UNL     1      10.425  -0.567  -1.198  1.00  0.00    -0.248 NA
ATOM     56  C   UNL     1      10.969  -0.647  -3.439  1.00  0.00     0.031 C 
ATOM     57  C   UNL     1      12.267   0.079   1.621  1.00  0.00     0.029 A 
ATOM     58  C   UNL     1      11.475   0.946   0.885  1.00  0.00     0.049 A 
ATOM     59  H   UNL     1       9.841   2.099   1.521  1.00  0.00     0.167 HD
ATOM     60  C   UNL     1      11.185   0.552  -1.453  1.00  0.00     0.074 A 
ATOM     61  C   UNL     1      11.489   0.452  -2.873  1.00  0.00     0.031 C 
ATOM     62  C   UNL     1      11.549   1.449  -0.480  1.00  0.00     0.034 A 
BRANCH  49  63
ATOM     63  C   UNL     1       9.534   1.476   5.261  1.00  0.00     0.023 A 
ATOM     64  C   UNL     1      10.812   1.595   5.865  1.00  0.00     0.031 A 
ATOM     65  C   UNL     1       8.453   1.854   6.076  1.00  0.00     0.131 A 
ATOM     66  C   UNL     1      10.973   2.000   7.205  1.00  0.00     0.055 A 
ATOM     67  C   UNL     1       8.612   2.262   7.413  1.00  0.00     0.041 A 
ATOM     68  F   UNL     1       7.194   1.861   5.625  1.00  0.00    -0.206 F 
ATOM     69  C   UNL     1       9.873   2.327   7.989  1.00  0.00     0.022 A 
BRANCH  66  70
ATOM     70  S   UNL     1      12.640   2.034   7.926  1.00  0.00     0.124 S 
ATOM     71  O   UNL     1      13.076   0.650   7.766  1.00  0.00    -0.237 OA
ATOM     72  O   UNL     1      13.319   3.025   7.098  1.00  0.00    -0.237 OA
ATOM     73  O   UNL     1      12.404   2.446   9.310  1.00  0.00    -0.744 OA
ENDBRANCH  66  70
ENDBRANCH  49  63
BRANCH  50  74
ATOM     74  C   UNL     1       8.478  -3.018  -3.145  1.00  0.00     0.023 A 
ATOM     75  C   UNL     1       8.183  -4.394  -3.316  1.00  0.00     0.031 A 
ATOM     76  C   UNL     1       7.444  -2.112  -3.412  1.00  0.00     0.131 A 
ATOM     77  C   UNL     1       6.870  -4.829  -3.547  1.00  0.00     0.055 A 
ATOM     78  C   UNL     1       6.150  -2.550  -3.746  1.00  0.00     0.041 A 
ATOM     79  F   UNL     1       7.633  -0.792  -3.272  1.00  0.00    -0.206 F 
ATOM     80  C   UNL     1       5.846  -3.913  -3.773  1.00  0.00     0.022 A 
BRANCH  77  81
ATOM     81  S   UNL     1       6.482  -6.583  -3.250  1.00  0.00     0.124 S 
ATOM     82  O   UNL     1       6.881  -7.202  -4.509  1.00  0.00    -0.237 OA
ATOM     83  O   UNL     1       7.315  -6.904  -2.091  1.00  0.00    -0.237 OA
ATOM     84  O   UNL     1       5.047  -6.577  -2.977  1.00  0.00    -0.744 OA
ENDBRANCH  77  81
ENDBRANCH  50  74
BRANCH  62  85
ATOM     85  C   UNL     1      12.123   2.840  -0.709  1.00  0.00     0.023 A 
ATOM     86  C   UNL     1      12.315   3.395  -1.978  1.00  0.00     0.031 A 
ATOM     87  C   UNL     1      12.452   3.701   0.371  1.00  0.00     0.131 A 
ATOM     88  C   UNL     1      12.903   4.659  -2.156  1.00  0.00     0.055 A 
ATOM     89  C   UNL     1      12.964   4.993   0.197  1.00  0.00     0.041 A 
ATOM     90  F   UNL     1      12.267   3.346   1.650  1.00  0.00    -0.206 F 
ATOM     91  C   UNL     1      13.217   5.473  -1.077  1.00  0.00     0.022 A 
BRANCH  88  92
ATOM     92  S   UNL     1      13.305   5.161  -3.848  1.00  0.00     0.124 S 
ATOM     93  O   UNL     1      14.228   4.107  -4.262  1.00  0.00    -0.237 OA
ATOM     94  O   UNL     1      11.998   5.144  -4.496  1.00  0.00    -0.237 OA
ATOM     95  O   UNL     1      13.904   6.483  -3.682  1.00  0.00    -0.744 OA
ENDBRANCH  88  92
ENDBRANCH  62  85
ENDBRANCH  36  37
ENDBRANCH  29  31
ENDBRANCH  28  29
ENDBRANCH  27  28
ENDBRANCH   1  27
TORSDOF 19
