REMARK SMILES O=C(OCCOC(=O)[C@H]1[C@H](C(=O)NC2CC[NH+](Cc3ccccc3)CC2)[C@H]2C=C[C@@H]1C2)c1ccc(-c2c3nc(c(-c4cc(S(=O)(=O)[O-])ccc4F)c4ccc([nH]4)c(-c4cc(S(=O)(=O)[O-])ccc4F)c4nc(c(-c5cc(S(=O)(=O)[O-])ccc5F)c5ccc2[nH]5)C=C4)C=C3)cc1
REMARK SMILES IDX 5 1 4 2 3 3 2 4 1 5 32 6 33 7 94 8 34 9 93 10 35 11 36 12
REMARK SMILES IDX 37 13 87 14 38 15 92 16 86 17 88 18 39 19 91 20 85 21 84 22
REMARK SMILES IDX 40 24 72 25 52 26 71 27 53 28 56 29 70 30 89 31 54 32 55 33
REMARK SMILES IDX 69 35 90 36 57 37 41 38 42 39 50 40 43 41 49 42 51 43 48 44
REMARK SMILES IDX 44 45 45 46 46 47 47 48 73 49 74 50 82 51 75 52 81 53 83 54
REMARK SMILES IDX 80 55 76 56 77 57 78 58 79 59 58 60 59 61 67 62 60 63 66 64
REMARK SMILES IDX 68 65 65 66 61 67 62 68 63 69 64 70 6 71 7 72 8 73 9 74
REMARK SMILES IDX 10 75 30 76 27 77 29 78 31 79 28 80 11 81 12 82 13 83 14 85
REMARK SMILES IDX 15 86 26 87 16 88 25 89 17 90 18 92 19 93 20 94 24 95 21 96
REMARK SMILES IDX 23 97 22 98
REMARK H PARENT 88 23 56 34 13 84 17 91
REMARK Flexibility Score: inf
ROOT
ATOM      1  C   UNL     1       6.861  -3.212  -4.077  1.00  0.00     0.274 C 
ENDROOT
BRANCH   1   2
ATOM      2  C   UNL     1       6.971  -1.997  -5.106  1.00  0.00     0.275 C 
BRANCH   2   3
ATOM      3  O   UNL     1       6.979  -0.744  -4.415  1.00  0.00    -0.458 OA
BRANCH   3   4
ATOM      4  C   UNL     1       5.810  -0.222  -3.956  1.00  0.00     0.338 C 
ATOM      5  O   UNL     1       5.778   0.734  -3.194  1.00  0.00    -0.246 OA
BRANCH   4   6
ATOM      6  C   UNL     1       4.573  -0.860  -4.466  1.00  0.00     0.060 A 
ATOM      7  C   UNL     1       4.443  -2.219  -4.729  1.00  0.00     0.016 A 
ATOM      8  C   UNL     1       3.417  -0.219  -4.529  1.00  0.00     0.016 A 
ATOM      9  C   UNL     1       3.390  -3.036  -4.906  1.00  0.00     0.010 A 
ATOM     10  C   UNL     1       2.355  -1.133  -4.350  1.00  0.00     0.010 A 
ATOM     11  C   UNL     1       2.261  -2.818  -4.058  1.00  0.00    -0.014 A 
BRANCH  11  12
ATOM     12  C   UNL     1       0.341  -3.910  -3.816  1.00  0.00     0.031 A 
ATOM     13  C   UNL     1      -1.154  -3.472  -5.001  1.00  0.00     0.074 A 
ATOM     14  C   UNL     1      -0.280  -5.112  -3.335  1.00  0.00     0.049 A 
ATOM     15  N   UNL     1      -2.512  -3.652  -4.928  1.00  0.00    -0.248 NA
ATOM     16  C   UNL     1      -1.004  -2.800  -6.377  1.00  0.00     0.031 C 
ATOM     17  C   UNL     1       0.382  -6.169  -2.566  1.00  0.00     0.029 A 
ATOM     18  N   UNL     1      -1.635  -5.394  -3.082  1.00  0.00    -0.354 N 
ATOM     19  C   UNL     1      -3.173  -2.978  -6.070  1.00  0.00     0.074 A 
ATOM     20  C   UNL     1      -2.152  -2.258  -6.723  1.00  0.00     0.031 C 
ATOM     21  C   UNL     1      -0.452  -6.608  -1.624  1.00  0.00     0.029 A 
ATOM     22  C   UNL     1      -1.805  -6.198  -1.965  1.00  0.00     0.049 A 
ATOM     23  H   UNL     1      -2.377  -5.059  -3.634  1.00  0.00     0.167 HD
ATOM     24  C   UNL     1      -4.401  -2.985  -6.713  1.00  0.00     0.034 A 
ATOM     25  C   UNL     1      -2.851  -6.700  -1.274  1.00  0.00     0.034 A 
ATOM     26  C   UNL     1      -5.464  -3.876  -6.352  1.00  0.00     0.049 A 
ATOM     27  C   UNL     1      -4.217  -6.752  -1.876  1.00  0.00     0.074 A 
ATOM     28  C   UNL     1      -6.681  -4.112  -6.978  1.00  0.00     0.029 A 
ATOM     29  N   UNL     1      -5.399  -4.708  -5.263  1.00  0.00    -0.354 N 
ATOM     30  N   UNL     1      -4.677  -6.128  -2.928  1.00  0.00    -0.248 NA
ATOM     31  C   UNL     1      -5.158  -7.712  -1.276  1.00  0.00     0.031 C 
ATOM     32  C   UNL     1      -7.402  -5.008  -6.189  1.00  0.00     0.029 A 
ATOM     33  C   UNL     1      -6.579  -5.408  -5.154  1.00  0.00     0.049 A 
ATOM     34  H   UNL     1      -4.629  -4.792  -4.656  1.00  0.00     0.167 HD
ATOM     35  C   UNL     1      -5.938  -6.671  -3.152  1.00  0.00     0.074 A 
ATOM     36  C   UNL     1      -6.162  -7.672  -2.136  1.00  0.00     0.031 C 
ATOM     37  C   UNL     1      -6.819  -6.377  -4.135  1.00  0.00     0.034 A 
BRANCH  24  38
ATOM     38  C   UNL     1      -4.743  -2.048  -7.952  1.00  0.00     0.023 A 
ATOM     39  C   UNL     1      -4.037  -2.049  -9.179  1.00  0.00     0.031 A 
ATOM     40  C   UNL     1      -5.876  -1.192  -7.913  1.00  0.00     0.131 A 
ATOM     41  C   UNL     1      -4.384  -1.157 -10.228  1.00  0.00     0.055 A 
ATOM     42  C   UNL     1      -6.282  -0.393  -9.000  1.00  0.00     0.041 A 
ATOM     43  F   UNL     1      -6.642  -1.125  -6.812  1.00  0.00    -0.206 F 
ATOM     44  C   UNL     1      -5.520  -0.353 -10.159  1.00  0.00     0.022 A 
BRANCH  41  45
ATOM     45  S   UNL     1      -3.222  -0.915 -11.613  1.00  0.00     0.124 S 
ATOM     46  O   UNL     1      -2.000  -0.535 -10.908  1.00  0.00    -0.237 OA
ATOM     47  O   UNL     1      -3.207  -2.225 -12.252  1.00  0.00    -0.237 OA
ATOM     48  O   UNL     1      -3.833   0.155 -12.401  1.00  0.00    -0.744 OA
ENDBRANCH  41  45
ENDBRANCH  24  38
BRANCH  25  49
ATOM     49  C   UNL     1      -2.549  -7.454  -0.022  1.00  0.00     0.023 A 
ATOM     50  C   UNL     1      -2.523  -8.855  -0.027  1.00  0.00     0.031 A 
ATOM     51  C   UNL     1      -2.168  -6.782   1.153  1.00  0.00     0.131 A 
ATOM     52  C   UNL     1      -2.193  -9.548   1.142  1.00  0.00     0.055 A 
ATOM     53  C   UNL     1      -1.767  -7.479   2.294  1.00  0.00     0.041 A 
ATOM     54  F   UNL     1      -2.130  -5.440   1.187  1.00  0.00    -0.206 F 
ATOM     55  C   UNL     1      -1.792  -8.872   2.296  1.00  0.00     0.022 A 
BRANCH  52  56
ATOM     56  S   UNL     1      -2.427 -11.343   1.159  1.00  0.00     0.124 S 
ATOM     57  O   UNL     1      -3.809 -11.461   0.708  1.00  0.00    -0.237 OA
ATOM     58  O   UNL     1      -1.404 -11.791   0.220  1.00  0.00    -0.237 OA
ATOM     59  O   UNL     1      -2.192 -11.699   2.556  1.00  0.00    -0.744 OA
ENDBRANCH  52  56
ENDBRANCH  25  49
BRANCH  37  60
ATOM     60  C   UNL     1      -8.106  -7.127  -4.170  1.00  0.00     0.023 A 
ATOM     61  C   UNL     1      -9.017  -7.018  -3.114  1.00  0.00     0.031 A 
ATOM     62  C   UNL     1      -8.428  -7.948  -5.263  1.00  0.00     0.131 A 
ATOM     63  C   UNL     1     -10.172  -7.797  -3.126  1.00  0.00     0.055 A 
ATOM     64  C   UNL     1      -9.635  -8.637  -5.319  1.00  0.00     0.041 A 
ATOM     65  F   UNL     1      -7.577  -8.086  -6.294  1.00  0.00    -0.206 F 
ATOM     66  C   UNL     1     -10.508  -8.579  -4.235  1.00  0.00     0.022 A 
BRANCH  63  67
ATOM     67  S   UNL     1     -11.128  -7.899  -1.595  1.00  0.00     0.124 S 
ATOM     68  O   UNL     1     -10.128  -8.397  -0.656  1.00  0.00    -0.237 OA
ATOM     69  O   UNL     1     -11.554  -6.517  -1.398  1.00  0.00    -0.237 OA
ATOM     70  O   UNL     1     -12.196  -8.840  -1.925  1.00  0.00    -0.744 OA
ENDBRANCH  63  67
ENDBRANCH  37  60
ENDBRANCH  11  12
ENDBRANCH   4   6
ENDBRANCH   3   4
ENDBRANCH   2   3
ENDBRANCH   1   2
BRANCH   1  71
ATOM     71  O   UNL     1       6.114  -2.894  -2.644  1.00  0.00    -0.462 OA
BRANCH  71  72
ATOM     72  C   UNL     1       5.023  -2.601  -1.843  1.00  0.00     0.310 C 
ATOM     73  O   UNL     1       5.327  -1.988  -0.804  1.00  0.00    -0.252 OA
BRANCH  72  74
ATOM     74  C   UNL     1       3.393  -2.949  -1.959  1.00  0.00     0.119 C 
ATOM     75  C   UNL     1       2.117  -1.582  -2.085  1.00  0.00     0.100 C 
ATOM     76  C   UNL     1       2.525  -4.367  -2.664  1.00  0.00     0.027 C 
ATOM     77  C   UNL     1       0.777  -2.238  -3.435  1.00  0.00     0.025 C 
ATOM     78  C   UNL     1       2.017  -4.769  -4.532  1.00  0.00    -0.027 C 
ATOM     79  C   UNL     1       1.190  -3.510  -1.987  1.00  0.00     0.017 C 
ATOM     80  C   UNL     1       1.181  -3.435  -5.253  1.00  0.00    -0.027 C 
BRANCH  75  81
ATOM     81  C   UNL     1       1.860  -0.175  -1.066  1.00  0.00     0.224 C 
ATOM     82  O   UNL     1       2.476   0.862  -1.404  1.00  0.00    -0.275 OA
ATOM     83  N   UNL     1       1.044   0.116   0.009  1.00  0.00    -0.353 N 
ATOM     84  H   UNL     1       1.387   0.887   0.516  1.00  0.00     0.163 HD
BRANCH  83  85
ATOM     85  C   UNL     1      -0.210  -0.413   0.615  1.00  0.00     0.093 C 
ATOM     86  C   UNL     1      -0.425  -1.794   0.124  1.00  0.00     0.086 C 
ATOM     87  C   UNL     1      -1.560   0.284   0.280  1.00  0.00     0.086 C 
ATOM     88  C   UNL     1      -0.831  -1.604  -1.390  1.00  0.00     0.264 C 
ATOM     89  C   UNL     1      -1.814   0.561  -1.237  1.00  0.00     0.264 C 
ATOM     90  N   UNL     1      -1.684  -0.608  -2.078  1.00  0.00    -0.331 N 
ATOM     91  H   UNL     1      -2.568  -1.105  -2.182  1.00  0.00     0.348 HD
BRANCH  90  92
ATOM     92  C   UNL     1      -1.730  -0.407  -3.702  1.00  0.00     0.299 C 
BRANCH  92  93
ATOM     93  C   UNL     1      -0.696   0.279  -4.837  1.00  0.00     0.006 A 
ATOM     94  C   UNL     1      -0.834   1.573  -5.302  1.00  0.00     0.009 A 
ATOM     95  C   UNL     1       0.236  -0.348  -5.722  1.00  0.00     0.009 A 
ATOM     96  C   UNL     1       0.124   2.211  -6.186  1.00  0.00     0.001 A 
ATOM     97  C   UNL     1       1.214   0.227  -6.607  1.00  0.00     0.001 A 
ATOM     98  C   UNL     1       1.244   1.575  -6.709  1.00  0.00     0.000 A 
ENDBRANCH  92  93
ENDBRANCH  90  92
ENDBRANCH  83  85
ENDBRANCH  75  81
ENDBRANCH  72  74
ENDBRANCH  71  72
ENDBRANCH   1  71
TORSDOF 18
