REMARK SMILES O=C(CCn1c(SCc2ccccn2)nc2ccccc2c1=O)OCCOC(=O)c1ccc(-c2c3nc(c(-c4cc(S(=O)(=O)[O-])ccc4F)c4ccc([nH]4)c(-c4cc(S(=O)(=O)[O-])ccc4F)c4nc(c(-c5cc(S(=O)(=O)[O-])ccc5F)c5ccc2[nH]5)C=C4)C=C3)cc1
REMARK SMILES IDX 25 1 24 2 2 3 1 4 3 5 4 6 5 7 6 8 22 9 15 10 21 11 23 12
REMARK SMILES IDX 16 13 20 14 17 15 19 16 18 17 7 18 8 19 9 20 10 21 14 22
REMARK SMILES IDX 11 23 13 24 12 25 26 26 27 27 28 28 29 29 30 30 31 31 92 32
REMARK SMILES IDX 32 33 91 34 33 35 34 36 35 37 85 38 36 39 90 40 84 41 86 42
REMARK SMILES IDX 37 43 89 44 83 45 82 46 38 48 70 49 50 50 69 51 51 52 54 53
REMARK SMILES IDX 68 54 87 55 52 56 53 57 67 59 88 60 55 61 39 62 40 63 48 64
REMARK SMILES IDX 41 65 47 66 49 67 46 68 42 69 43 70 44 71 45 72 71 73 72 74
REMARK SMILES IDX 80 75 73 76 79 77 81 78 78 79 74 80 75 81 76 82 77 83 56 84
REMARK SMILES IDX 57 85 65 86 58 87 64 88 66 89 63 90 59 91 60 92 61 93 62 94
REMARK H PARENT 86 47 54 58
REMARK Flexibility Score: inf
ROOT
ATOM      1  C   UNL     1       3.558  -1.550   0.647  1.00  0.00     0.274 C 
ENDROOT
BRANCH   1   2
ATOM      2  O   UNL     1       3.934  -0.249   1.200  1.00  0.00    -0.462 OA
BRANCH   2   3
ATOM      3  C   UNL     1       3.203   0.209   2.249  1.00  0.00     0.307 C 
ATOM      4  O   UNL     1       2.361  -0.490   2.811  1.00  0.00    -0.252 OA
BRANCH   3   5
ATOM      5  C   UNL     1       3.507   1.629   2.763  1.00  0.00     0.144 C 
BRANCH   5   6
ATOM      6  C   UNL     1       4.094   2.800   1.950  1.00  0.00     0.140 C 
BRANCH   6   7
ATOM      7  N   UNL     1       5.315   2.469   1.268  1.00  0.00    -0.286 N 
ATOM      8  C   UNL     1       5.342   1.707   0.128  1.00  0.00     0.171 A 
ATOM      9  C   UNL     1       6.506   2.771   1.887  1.00  0.00     0.262 A 
ATOM     10  N   UNL     1       6.231   0.768  -0.030  1.00  0.00    -0.224 NA
ATOM     11  C   UNL     1       7.434   1.641   1.912  1.00  0.00     0.066 A 
ATOM     12  O   UNL     1       6.748   3.803   2.502  1.00  0.00    -0.269 OA
ATOM     13  C   UNL     1       7.119   0.576   1.065  1.00  0.00     0.079 A 
ATOM     14  C   UNL     1       8.344   1.542   2.968  1.00  0.00     0.016 A 
ATOM     15  C   UNL     1       7.662  -0.668   1.386  1.00  0.00     0.029 A 
ATOM     16  C   UNL     1       8.882   0.300   3.266  1.00  0.00     0.001 A 
ATOM     17  C   UNL     1       8.514  -0.809   2.499  1.00  0.00     0.002 A 
BRANCH   8  18
ATOM     18  S   UNL     1       4.270   2.231  -1.146  1.00  0.00    -0.081 SA
BRANCH  18  19
ATOM     19  C   UNL     1       2.605   1.586  -0.817  1.00  0.00     0.134 C 
BRANCH  19  20
ATOM     20  C   UNL     1       1.593   2.427  -0.081  1.00  0.00     0.051 A 
ATOM     21  C   UNL     1       0.625   1.823   0.725  1.00  0.00     0.025 A 
ATOM     22  N   UNL     1       1.632   3.765  -0.273  1.00  0.00    -0.260 NA
ATOM     23  C   UNL     1      -0.272   2.630   1.418  1.00  0.00     0.003 A 
ATOM     24  C   UNL     1       0.740   4.525   0.393  1.00  0.00     0.111 A 
ATOM     25  C   UNL     1      -0.207   4.008   1.258  1.00  0.00     0.020 A 
ENDBRANCH  19  20
ENDBRANCH  18  19
ENDBRANCH   8  18
ENDBRANCH   6   7
ENDBRANCH   5   6
ENDBRANCH   3   5
ENDBRANCH   2   3
ENDBRANCH   1   2
BRANCH   1  26
ATOM     26  C   UNL     1       4.191  -1.879  -0.737  1.00  0.00     0.275 C 
BRANCH  26  27
ATOM     27  O   UNL     1       3.889  -0.923  -1.787  1.00  0.00    -0.458 OA
BRANCH  27  28
ATOM     28  C   UNL     1       3.063  -1.259  -2.816  1.00  0.00     0.338 C 
ATOM     29  O   UNL     1       2.448  -2.305  -2.927  1.00  0.00    -0.246 OA
BRANCH  28  30
ATOM     30  C   UNL     1       2.870  -0.054  -3.688  1.00  0.00     0.060 A 
ATOM     31  C   UNL     1       3.954   0.699  -4.162  1.00  0.00     0.016 A 
ATOM     32  C   UNL     1       1.572   0.444  -3.866  1.00  0.00     0.016 A 
ATOM     33  C   UNL     1       3.750   1.985  -4.712  1.00  0.00     0.010 A 
ATOM     34  C   UNL     1       1.380   1.748  -4.364  1.00  0.00     0.010 A 
ATOM     35  C   UNL     1       2.466   2.550  -4.772  1.00  0.00    -0.014 A 
BRANCH  35  36
ATOM     36  C   UNL     1       2.215   3.866  -5.444  1.00  0.00     0.031 A 
ATOM     37  C   UNL     1       2.376   5.220  -4.790  1.00  0.00     0.074 A 
ATOM     38  C   UNL     1       1.744   3.828  -6.706  1.00  0.00     0.049 A 
ATOM     39  N   UNL     1       2.251   6.412  -5.331  1.00  0.00    -0.248 NA
ATOM     40  C   UNL     1       2.697   5.255  -3.360  1.00  0.00     0.031 C 
ATOM     41  C   UNL     1       1.501   2.597  -7.454  1.00  0.00     0.029 A 
ATOM     42  N   UNL     1       1.351   4.829  -7.560  1.00  0.00    -0.354 N 
ATOM     43  C   UNL     1       2.500   7.338  -4.320  1.00  0.00     0.074 A 
ATOM     44  C   UNL     1       2.747   6.564  -3.119  1.00  0.00     0.031 C 
ATOM     45  C   UNL     1       0.948   2.909  -8.632  1.00  0.00     0.029 A 
ATOM     46  C   UNL     1       0.815   4.362  -8.735  1.00  0.00     0.049 A 
ATOM     47  H   UNL     1       1.443   5.787  -7.350  1.00  0.00     0.167 HD
ATOM     48  C   UNL     1       2.530   8.697  -4.395  1.00  0.00     0.034 A 
ATOM     49  C   UNL     1       0.278   5.006  -9.792  1.00  0.00     0.034 A 
ATOM     50  C   UNL     1       2.271   9.456  -5.601  1.00  0.00     0.049 A 
ATOM     51  C   UNL     1       0.316   6.505  -9.860  1.00  0.00     0.074 A 
ATOM     52  C   UNL     1       2.447  10.817  -5.807  1.00  0.00     0.029 A 
ATOM     53  N   UNL     1       1.746   8.950  -6.781  1.00  0.00    -0.354 N 
ATOM     54  N   UNL     1       0.761   7.355  -8.968  1.00  0.00    -0.248 NA
ATOM     55  C   UNL     1      -0.178   7.135 -11.092  1.00  0.00     0.031 C 
ATOM     56  C   UNL     1       1.940  11.146  -7.065  1.00  0.00     0.029 A 
ATOM     57  C   UNL     1       1.532   9.980  -7.689  1.00  0.00     0.049 A 
ATOM     58  H   UNL     1       1.554   8.000  -6.950  1.00  0.00     0.167 HD
ATOM     59  C   UNL     1       0.633   8.617  -9.541  1.00  0.00     0.074 A 
ATOM     60  C   UNL     1       0.074   8.419 -10.861  1.00  0.00     0.031 C 
ATOM     61  C   UNL     1       0.965   9.821  -9.009  1.00  0.00     0.034 A 
BRANCH  48  62
ATOM     62  C   UNL     1       2.904   9.511  -3.169  1.00  0.00     0.023 A 
ATOM     63  C   UNL     1       2.019  10.491  -2.665  1.00  0.00     0.031 A 
ATOM     64  C   UNL     1       4.209   9.477  -2.648  1.00  0.00     0.131 A 
ATOM     65  C   UNL     1       2.463  11.412  -1.703  1.00  0.00     0.055 A 
ATOM     66  C   UNL     1       4.635  10.375  -1.665  1.00  0.00     0.041 A 
ATOM     67  F   UNL     1       5.105   8.591  -3.112  1.00  0.00    -0.206 F 
ATOM     68  C   UNL     1       3.766  11.357  -1.200  1.00  0.00     0.022 A 
BRANCH  65  69
ATOM     69  S   UNL     1       1.407  12.779  -1.139  1.00  0.00     0.124 S 
ATOM     70  O   UNL     1       1.232  12.455   0.275  1.00  0.00    -0.237 OA
ATOM     71  O   UNL     1       2.240  13.948  -1.410  1.00  0.00    -0.237 OA
ATOM     72  O   UNL     1       0.206  12.659  -1.958  1.00  0.00    -0.744 OA
ENDBRANCH  65  69
ENDBRANCH  48  62
BRANCH  49  73
ATOM     73  C   UNL     1      -0.230   4.167 -10.911  1.00  0.00     0.023 A 
ATOM     74  C   UNL     1      -1.336   3.319 -10.718  1.00  0.00     0.031 A 
ATOM     75  C   UNL     1       0.516   4.040 -12.093  1.00  0.00     0.131 A 
ATOM     76  C   UNL     1      -1.603   2.313 -11.654  1.00  0.00     0.055 A 
ATOM     77  C   UNL     1       0.201   3.083 -13.055  1.00  0.00     0.041 A 
ATOM     78  F   UNL     1       1.592   4.816 -12.299  1.00  0.00    -0.206 F 
ATOM     79  C   UNL     1      -0.849   2.198 -12.827  1.00  0.00     0.022 A 
BRANCH  76  80
ATOM     80  S   UNL     1      -2.824   1.018 -11.300  1.00  0.00     0.124 S 
ATOM     81  O   UNL     1      -3.701   1.097 -12.464  1.00  0.00    -0.237 OA
ATOM     82  O   UNL     1      -1.979  -0.172 -11.227  1.00  0.00    -0.237 OA
ATOM     83  O   UNL     1      -3.418   1.438 -10.035  1.00  0.00    -0.744 OA
ENDBRANCH  76  80
ENDBRANCH  49  73
BRANCH  61  84
ATOM     84  C   UNL     1       0.735  11.075  -9.825  1.00  0.00     0.023 A 
ATOM     85  C   UNL     1       1.822  11.900 -10.181  1.00  0.00     0.031 A 
ATOM     86  C   UNL     1      -0.562  11.533 -10.115  1.00  0.00     0.131 A 
ATOM     87  C   UNL     1       1.589  13.157 -10.758  1.00  0.00     0.055 A 
ATOM     88  C   UNL     1      -0.786  12.765 -10.734  1.00  0.00     0.041 A 
ATOM     89  F   UNL     1      -1.634  10.791  -9.795  1.00  0.00    -0.206 F 
ATOM     90  C   UNL     1       0.291  13.590 -11.043  1.00  0.00     0.022 A 
BRANCH  87  91
ATOM     91  S   UNL     1       2.953  14.308 -11.089  1.00  0.00     0.124 S 
ATOM     92  O   UNL     1       2.801  14.558 -12.521  1.00  0.00    -0.237 OA
ATOM     93  O   UNL     1       2.621  15.435 -10.222  1.00  0.00    -0.237 OA
ATOM     94  O   UNL     1       4.147  13.557 -10.715  1.00  0.00    -0.744 OA
ENDBRANCH  87  91
ENDBRANCH  61  84
ENDBRANCH  35  36
ENDBRANCH  28  30
ENDBRANCH  27  28
ENDBRANCH  26  27
ENDBRANCH   1  26
TORSDOF 19
