REMARK SMILES CC(C)Cn1c([C@@H](O)[C@@H](O)C(=O)OCCOC(=O)c2ccc(-c3c4nc(c(-c5cc(S(=O)(=O)[O-])ccc5F)c5ccc([nH]5)c(-c5cc(S(=O)(=O)[O-])ccc5F)c5nc(c(-c6cc(S(=O)(=O)[O-])ccc6F)c6ccc3[nH]6)C=C5)C=C4)cc2)nc2cc(Cl)ccc21
REMARK SMILES IDX 14 1 13 2 11 3 12 4 9 5 7 6 6 7 5 8 89 9 82 10 83 11 88 12
REMARK SMILES IDX 84 13 87 14 85 15 86 16 4 17 2 18 1 19 3 20 8 21 10 23 15 25
REMARK SMILES IDX 16 26 17 27 18 28 19 29 20 30 81 31 21 32 80 33 22 34 23 35
REMARK SMILES IDX 24 36 74 37 25 38 79 39 73 40 75 41 26 42 78 43 72 44 71 45
REMARK SMILES IDX 27 47 59 48 39 49 58 50 40 51 43 52 57 53 76 54 41 55 42 56
REMARK SMILES IDX 56 58 77 59 44 60 28 61 29 62 37 63 30 64 36 65 38 66 35 67
REMARK SMILES IDX 31 68 32 69 33 70 34 71 60 72 61 73 69 74 62 75 68 76 70 77
REMARK SMILES IDX 67 78 63 79 64 80 65 81 66 82 45 83 46 84 54 85 47 86 53 87
REMARK SMILES IDX 55 88 52 89 48 90 49 91 50 92 51 93
REMARK H PARENT 8 22 10 24 75 46 43 57
REMARK Flexibility Score: inf
ROOT
ATOM      1  C   UNL     1       1.069  -2.288  -4.074  1.00  0.00     0.274 C 
ENDROOT
BRANCH   1   2
ATOM      2  O   UNL     1       0.341  -1.741  -2.956  1.00  0.00    -0.460 OA
BRANCH   2   3
ATOM      3  C   UNL     1      -0.895  -2.252  -2.698  1.00  0.00     0.338 C 
ATOM      4  O   UNL     1      -1.487  -3.031  -3.437  1.00  0.00    -0.249 OA
BRANCH   3   5
ATOM      5  C   UNL     1      -1.509  -1.685  -1.412  1.00  0.00     0.260 C 
BRANCH   5   6
ATOM      6  C   UNL     1      -0.494  -1.050  -0.468  1.00  0.00     0.220 C 
BRANCH   6   7
ATOM      7  C   UNL     1      -1.115  -0.774   0.875  1.00  0.00     0.142 A 
ATOM      8  N   UNL     1      -1.269   0.483   1.409  1.00  0.00    -0.325 N 
ATOM      9  C   UNL     1      -2.012   0.359   2.563  1.00  0.00     0.068 A 
ATOM     10  N   UNL     1      -1.510  -1.699   1.729  1.00  0.00    -0.230 NA
ATOM     11  C   UNL     1      -2.127  -1.019   2.752  1.00  0.00     0.090 A 
ATOM     12  C   UNL     1      -2.601   1.284   3.434  1.00  0.00     0.030 A 
ATOM     13  C   UNL     1      -2.813  -1.518   3.871  1.00  0.00     0.051 A 
ATOM     14  C   UNL     1      -3.307   0.772   4.530  1.00  0.00     0.023 A 
ATOM     15  C   UNL     1      -3.394  -0.603   4.753  1.00  0.00     0.043 A 
ATOM     16  Cl  UNL     1      -4.198  -1.175   6.166  1.00  0.00    -0.084 Cl
BRANCH   8  17
ATOM     17  C   UNL     1      -0.829   1.714   0.787  1.00  0.00     0.127 C 
BRANCH  17  18
ATOM     18  C   UNL     1       0.662   2.087   0.982  1.00  0.00     0.003 C 
ATOM     19  C   UNL     1       1.698   1.014   0.625  1.00  0.00     0.009 C 
ATOM     20  C   UNL     1       0.959   3.329   0.137  1.00  0.00     0.009 C 
ENDBRANCH  17  18
ENDBRANCH   8  17
ENDBRANCH   6   7
BRANCH   6  21
ATOM     21  O   UNL     1       0.650  -1.855  -0.198  1.00  0.00    -0.382 OA
ATOM     22  H   UNL     1       0.376  -2.661   0.267  1.00  0.00     0.211 HD
ENDBRANCH   6  21
ENDBRANCH   5   6
BRANCH   5  23
ATOM     23  O   UNL     1      -2.521  -0.713  -1.729  1.00  0.00    -0.379 OA
ATOM     24  H   UNL     1      -2.115   0.038  -2.190  1.00  0.00     0.211 HD
ENDBRANCH   5  23
ENDBRANCH   3   5
ENDBRANCH   2   3
ENDBRANCH   1   2
BRANCH   1  25
ATOM     25  C   UNL     1       2.205  -3.185  -3.571  1.00  0.00     0.275 C 
BRANCH  25  26
ATOM     26  O   UNL     1       1.637  -4.423  -3.129  1.00  0.00    -0.458 OA
BRANCH  26  27
ATOM     27  C   UNL     1       1.873  -4.776  -1.842  1.00  0.00     0.338 C 
ATOM     28  O   UNL     1       2.841  -4.479  -1.161  1.00  0.00    -0.246 OA
BRANCH  27  29
ATOM     29  C   UNL     1       0.581  -5.284  -1.338  1.00  0.00     0.060 A 
ATOM     30  C   UNL     1      -0.265  -6.037  -2.157  1.00  0.00     0.016 A 
ATOM     31  C   UNL     1       0.118  -4.756  -0.133  1.00  0.00     0.016 A 
ATOM     32  C   UNL     1      -1.614  -6.124  -1.839  1.00  0.00     0.010 A 
ATOM     33  C   UNL     1      -1.239  -4.798   0.156  1.00  0.00     0.010 A 
ATOM     34  C   UNL     1      -2.115  -5.439  -0.723  1.00  0.00    -0.014 A 
BRANCH  34  35
ATOM     35  C   UNL     1      -3.510  -5.653  -0.348  1.00  0.00     0.031 A 
ATOM     36  C   UNL     1      -3.673  -6.845   0.504  1.00  0.00     0.074 A 
ATOM     37  C   UNL     1      -4.596  -4.896  -0.598  1.00  0.00     0.049 A 
ATOM     38  N   UNL     1      -4.037  -8.019   0.113  1.00  0.00    -0.248 NA
ATOM     39  C   UNL     1      -3.221  -6.772   1.898  1.00  0.00     0.031 C 
ATOM     40  C   UNL     1      -4.664  -3.542  -1.134  1.00  0.00     0.029 A 
ATOM     41  N   UNL     1      -5.908  -5.182  -0.334  1.00  0.00    -0.354 N 
ATOM     42  C   UNL     1      -4.067  -8.790   1.265  1.00  0.00     0.074 A 
ATOM     43  C   UNL     1      -3.341  -8.048   2.265  1.00  0.00     0.031 C 
ATOM     44  C   UNL     1      -5.898  -3.026  -0.915  1.00  0.00     0.029 A 
ATOM     45  C   UNL     1      -6.761  -4.098  -0.446  1.00  0.00     0.049 A 
ATOM     46  H   UNL     1      -6.218  -6.083  -0.086  1.00  0.00     0.167 HD
ATOM     47  C   UNL     1      -4.925  -9.840   1.381  1.00  0.00     0.034 A 
ATOM     48  C   UNL     1      -8.096  -4.080  -0.227  1.00  0.00     0.034 A 
ATOM     49  C   UNL     1      -5.590 -10.118   0.135  1.00  0.00     0.049 A 
ATOM     50  C   UNL     1      -8.634  -5.446  -0.414  1.00  0.00     0.074 A 
ATOM     51  C   UNL     1      -5.330 -10.827  -1.014  1.00  0.00     0.029 A 
ATOM     52  N   UNL     1      -6.655  -9.296  -0.123  1.00  0.00    -0.354 N 
ATOM     53  N   UNL     1      -8.671  -6.060  -1.564  1.00  0.00    -0.248 NA
ATOM     54  C   UNL     1      -8.906  -6.282   0.751  1.00  0.00     0.031 C 
ATOM     55  C   UNL     1      -6.214 -10.319  -2.012  1.00  0.00     0.029 A 
ATOM     56  C   UNL     1      -6.998  -9.314  -1.451  1.00  0.00     0.049 A 
ATOM     57  H   UNL     1      -7.116  -8.758   0.560  1.00  0.00     0.167 HD
ATOM     58  C   UNL     1      -8.522  -7.390  -1.235  1.00  0.00     0.074 A 
ATOM     59  C   UNL     1      -8.871  -7.485   0.175  1.00  0.00     0.031 C 
ATOM     60  C   UNL     1      -7.797  -8.241  -2.015  1.00  0.00     0.034 A 
BRANCH  47  61
ATOM     61  C   UNL     1      -5.488 -10.339   2.688  1.00  0.00     0.023 A 
ATOM     62  C   UNL     1      -5.420  -9.602   3.884  1.00  0.00     0.031 A 
ATOM     63  C   UNL     1      -6.310 -11.482   2.716  1.00  0.00     0.131 A 
ATOM     64  C   UNL     1      -6.093 -10.011   5.041  1.00  0.00     0.055 A 
ATOM     65  C   UNL     1      -7.045 -11.851   3.850  1.00  0.00     0.041 A 
ATOM     66  F   UNL     1      -6.459 -12.254   1.628  1.00  0.00    -0.206 F 
ATOM     67  C   UNL     1      -6.934 -11.117   5.024  1.00  0.00     0.022 A 
BRANCH  64  68
ATOM     68  S   UNL     1      -5.873  -9.096   6.591  1.00  0.00     0.124 S 
ATOM     69  O   UNL     1      -7.230  -8.634   6.861  1.00  0.00    -0.237 OA
ATOM     70  O   UNL     1      -5.369 -10.139   7.481  1.00  0.00    -0.237 OA
ATOM     71  O   UNL     1      -4.903  -8.062   6.241  1.00  0.00    -0.744 OA
ENDBRANCH  64  68
ENDBRANCH  47  61
BRANCH  48  72
ATOM     72  C   UNL     1      -8.901  -3.022   0.414  1.00  0.00     0.023 A 
ATOM     73  C   UNL     1      -8.359  -2.313   1.502  1.00  0.00     0.031 A 
ATOM     74  C   UNL     1     -10.287  -2.932   0.200  1.00  0.00     0.131 A 
ATOM     75  C   UNL     1      -9.202  -1.603   2.369  1.00  0.00     0.055 A 
ATOM     76  C   UNL     1     -11.122  -2.208   1.056  1.00  0.00     0.041 A 
ATOM     77  F   UNL     1     -10.865  -3.605  -0.807  1.00  0.00    -0.206 F 
ATOM     78  C   UNL     1     -10.582  -1.554   2.159  1.00  0.00     0.022 A 
BRANCH  75  79
ATOM     79  S   UNL     1      -8.534  -0.793   3.849  1.00  0.00     0.124 S 
ATOM     80  O   UNL     1      -9.120   0.543   3.758  1.00  0.00    -0.237 OA
ATOM     81  O   UNL     1      -9.064  -1.639   4.912  1.00  0.00    -0.237 OA
ATOM     82  O   UNL     1      -7.091  -0.847   3.642  1.00  0.00    -0.744 OA
ENDBRANCH  75  79
ENDBRANCH  48  72
BRANCH  60  83
ATOM     83  C   UNL     1      -7.659  -7.950  -3.483  1.00  0.00     0.023 A 
ATOM     84  C   UNL     1      -8.053  -8.970  -4.369  1.00  0.00     0.031 A 
ATOM     85  C   UNL     1      -7.049  -6.809  -4.031  1.00  0.00     0.131 A 
ATOM     86  C   UNL     1      -7.794  -8.861  -5.739  1.00  0.00     0.055 A 
ATOM     87  C   UNL     1      -6.856  -6.672  -5.411  1.00  0.00     0.041 A 
ATOM     88  F   UNL     1      -6.568  -5.829  -3.252  1.00  0.00    -0.206 F 
ATOM     89  C   UNL     1      -7.213  -7.709  -6.270  1.00  0.00     0.022 A 
BRANCH  86  90
ATOM     90  S   UNL     1      -8.076 -10.277  -6.834  1.00  0.00     0.124 S 
ATOM     91  O   UNL     1      -9.126  -9.780  -7.719  1.00  0.00    -0.237 OA
ATOM     92  O   UNL     1      -6.765 -10.455  -7.455  1.00  0.00    -0.237 OA
ATOM     93  O   UNL     1      -8.478 -11.349  -5.929  1.00  0.00    -0.744 OA
ENDBRANCH  86  90
ENDBRANCH  60  83
ENDBRANCH  34  35
ENDBRANCH  27  29
ENDBRANCH  26  27
ENDBRANCH  25  26
ENDBRANCH   1  25
TORSDOF 20
