REMARK SMILES Cc1cc(C)c2c(CCCC(=O)OCCOC(=O)c3ccc(-c4c5nc(c(-c6cc(S(=O)(=O)[O-])ccc6F)c6ccc([nH]6)c(-c6cc(S(=O)(=O)[O-])ccc6F)c6nc(c(-c7cc(S(=O)(=O)[O-])ccc7F)c7ccc4[nH]7)C=C6)C=C5)cc3)c(-c3ccccn3)[nH]c2c1
REMARK SMILES IDX 14 1 13 2 11 3 12 4 10 5 9 6 8 7 7 8 1 9 2 10 3 11 91 12
REMARK SMILES IDX 4 13 90 14 5 15 6 16 89 17 82 18 83 20 84 21 88 22 85 23
REMARK SMILES IDX 87 24 86 25 15 26 16 27 17 28 18 29 19 30 20 31 81 32 21 33
REMARK SMILES IDX 80 34 22 35 23 36 24 37 74 38 25 39 79 40 73 41 75 42 26 43
REMARK SMILES IDX 78 44 72 45 71 46 27 48 59 49 39 50 58 51 40 52 43 53 57 54
REMARK SMILES IDX 76 55 41 56 42 57 56 59 77 60 44 61 28 62 29 63 37 64 30 65
REMARK SMILES IDX 36 66 38 67 35 68 31 69 32 70 33 71 34 72 60 73 61 74 69 75
REMARK SMILES IDX 62 76 68 77 70 78 67 79 63 80 64 81 65 82 66 83 45 84 46 85
REMARK SMILES IDX 54 86 47 87 53 88 55 89 52 90 48 91 49 92 50 93 51 94
REMARK H PARENT 89 19 75 47 43 58
REMARK Flexibility Score: inf
ROOT
ATOM      1  C   UNL     1       1.268   5.814  -7.751  1.00  0.00     0.274 C 
ENDROOT
BRANCH   1   2
ATOM      2  O   UNL     1       0.159   5.377  -6.945  1.00  0.00    -0.462 OA
BRANCH   2   3
ATOM      3  C   UNL     1      -0.970   6.122  -6.859  1.00  0.00     0.305 C 
ATOM      4  O   UNL     1      -1.078   7.255  -7.317  1.00  0.00    -0.252 OA
BRANCH   3   5
ATOM      5  C   UNL     1      -2.105   5.412  -6.134  1.00  0.00     0.123 C 
BRANCH   5   6
ATOM      6  C   UNL     1      -2.079   3.892  -5.978  1.00  0.00     0.017 C 
BRANCH   6   7
ATOM      7  C   UNL     1      -0.774   3.192  -5.609  1.00  0.00     0.039 C 
BRANCH   7   8
ATOM      8  C   UNL     1      -0.259   3.361  -4.203  1.00  0.00    -0.013 A 
ATOM      9  C   UNL     1       1.002  -0.182   0.139  1.00  0.00     0.044 C 
ATOM     10  C   UNL     1       0.598   0.667  -1.027  1.00  0.00    -0.049 A 
ATOM     11  C   UNL     1       0.027   0.091  -2.161  1.00  0.00     0.007 A 
ATOM     12  C   UNL     1       0.827   2.043  -0.991  1.00  0.00     0.030 A 
ATOM     13  C   UNL     1      -0.342   0.852  -3.293  1.00  0.00    -0.041 A 
ATOM     14  C   UNL     1       0.473   2.798  -2.112  1.00  0.00     0.047 A 
ATOM     15  C   UNL     1      -0.955   0.099  -4.450  1.00  0.00     0.045 C 
ATOM     16  C   UNL     1      -0.093   2.258  -3.266  1.00  0.00     0.006 A 
ATOM     17  N   UNL     1       0.597   4.146  -2.305  1.00  0.00    -0.353 N 
ATOM     18  C   UNL     1       0.245   4.509  -3.576  1.00  0.00     0.068 A 
ATOM     19  H   UNL     1       0.902   4.778  -1.614  1.00  0.00     0.167 HD
BRANCH  18  20
ATOM     20  C   UNL     1       0.451   5.900  -3.968  1.00  0.00     0.087 A 
ATOM     21  C   UNL     1       1.650   6.351  -4.506  1.00  0.00     0.030 A 
ATOM     22  N   UNL     1      -0.593   6.720  -3.722  1.00  0.00    -0.255 NA
ATOM     23  C   UNL     1       1.733   7.679  -4.930  1.00  0.00     0.004 A 
ATOM     24  C   UNL     1      -0.500   7.992  -4.178  1.00  0.00     0.112 A 
ATOM     25  C   UNL     1       0.626   8.508  -4.795  1.00  0.00     0.020 A 
ENDBRANCH  18  20
ENDBRANCH   7   8
ENDBRANCH   6   7
ENDBRANCH   5   6
ENDBRANCH   3   5
ENDBRANCH   2   3
ENDBRANCH   1   2
BRANCH   1  26
ATOM     26  C   UNL     1       1.187   5.221  -9.147  1.00  0.00     0.275 C 
BRANCH  26  27
ATOM     27  O   UNL     1       0.076   5.797  -9.813  1.00  0.00    -0.458 OA
BRANCH  27  28
ATOM     28  C   UNL     1      -1.093   5.156  -9.579  1.00  0.00     0.338 C 
ATOM     29  O   UNL     1      -1.255   4.130  -8.949  1.00  0.00    -0.246 OA
BRANCH  28  30
ATOM     30  C   UNL     1      -2.167   5.878 -10.251  1.00  0.00     0.060 A 
ATOM     31  C   UNL     1      -3.475   5.469  -9.978  1.00  0.00     0.016 A 
ATOM     32  C   UNL     1      -1.825   6.656 -11.361  1.00  0.00     0.016 A 
ATOM     33  C   UNL     1      -4.398   5.590 -10.986  1.00  0.00     0.010 A 
ATOM     34  C   UNL     1      -2.733   6.744 -12.374  1.00  0.00     0.010 A 
ATOM     35  C   UNL     1      -3.960   6.109 -12.206  1.00  0.00    -0.014 A 
BRANCH  35  36
ATOM     36  C   UNL     1      -4.838   6.044 -13.344  1.00  0.00     0.031 A 
ATOM     37  C   UNL     1      -5.864   7.099 -13.295  1.00  0.00     0.074 A 
ATOM     38  C   UNL     1      -4.610   5.197 -14.364  1.00  0.00     0.049 A 
ATOM     39  N   UNL     1      -7.114   6.958 -13.015  1.00  0.00    -0.248 NA
ATOM     40  C   UNL     1      -5.403   8.498 -13.303  1.00  0.00     0.031 C 
ATOM     41  C   UNL     1      -3.471   4.301 -14.582  1.00  0.00     0.029 A 
ATOM     42  N   UNL     1      -5.339   5.032 -15.493  1.00  0.00    -0.354 N 
ATOM     43  C   UNL     1      -7.641   8.238 -13.091  1.00  0.00     0.074 A 
ATOM     44  C   UNL     1      -6.527   9.135 -12.980  1.00  0.00     0.031 C 
ATOM     45  C   UNL     1      -3.483   3.867 -15.866  1.00  0.00     0.029 A 
ATOM     46  C   UNL     1      -4.694   4.345 -16.516  1.00  0.00     0.049 A 
ATOM     47  H   UNL     1      -6.258   5.374 -15.583  1.00  0.00     0.167 HD
ATOM     48  C   UNL     1      -8.895   8.437 -13.575  1.00  0.00     0.034 A 
ATOM     49  C   UNL     1      -5.121   4.242 -17.805  1.00  0.00     0.034 A 
ATOM     50  C   UNL     1      -9.666   7.212 -13.522  1.00  0.00     0.049 A 
ATOM     51  C   UNL     1      -6.587   4.508 -17.771  1.00  0.00     0.074 A 
ATOM     52  C   UNL     1     -10.028   6.349 -12.504  1.00  0.00     0.029 A 
ATOM     53  N   UNL     1      -9.812   6.488 -14.686  1.00  0.00    -0.354 N 
ATOM     54  N   UNL     1      -7.434   3.731 -17.149  1.00  0.00    -0.248 NA
ATOM     55  C   UNL     1      -7.033   5.882 -17.960  1.00  0.00     0.031 C 
ATOM     56  C   UNL     1      -9.883   5.042 -13.057  1.00  0.00     0.029 A 
ATOM     57  C   UNL     1      -9.528   5.172 -14.401  1.00  0.00     0.049 A 
ATOM     58  H   UNL     1     -10.072   6.848 -15.565  1.00  0.00     0.167 HD
ATOM     59  C   UNL     1      -8.309   4.593 -16.503  1.00  0.00     0.074 A 
ATOM     60  C   UNL     1      -8.065   5.904 -17.109  1.00  0.00     0.031 C 
ATOM     61  C   UNL     1      -8.931   4.237 -15.339  1.00  0.00     0.034 A 
BRANCH  48  62
ATOM     62  C   UNL     1      -9.270   9.609 -14.454  1.00  0.00     0.023 A 
ATOM     63  C   UNL     1     -10.609   9.686 -14.870  1.00  0.00     0.031 A 
ATOM     64  C   UNL     1      -8.370  10.481 -15.118  1.00  0.00     0.131 A 
ATOM     65  C   UNL     1     -10.982  10.511 -15.944  1.00  0.00     0.055 A 
ATOM     66  C   UNL     1      -8.759  11.342 -16.144  1.00  0.00     0.041 A 
ATOM     67  F   UNL     1      -7.054  10.498 -14.887  1.00  0.00    -0.206 F 
ATOM     68  C   UNL     1     -10.066  11.338 -16.587  1.00  0.00     0.022 A 
BRANCH  65  69
ATOM     69  S   UNL     1     -12.666  10.368 -16.584  1.00  0.00     0.124 S 
ATOM     70  O   UNL     1     -12.745   8.944 -16.890  1.00  0.00    -0.237 OA
ATOM     71  O   UNL     1     -13.457  10.828 -15.447  1.00  0.00    -0.237 OA
ATOM     72  O   UNL     1     -12.664  11.258 -17.742  1.00  0.00    -0.744 OA
ENDBRANCH  65  69
ENDBRANCH  48  62
BRANCH  49  73
ATOM     73  C   UNL     1      -4.302   4.294 -19.054  1.00  0.00     0.023 A 
ATOM     74  C   UNL     1      -4.814   3.932 -20.322  1.00  0.00     0.031 A 
ATOM     75  C   UNL     1      -3.052   4.955 -19.051  1.00  0.00     0.131 A 
ATOM     76  C   UNL     1      -4.088   4.232 -21.503  1.00  0.00     0.055 A 
ATOM     77  C   UNL     1      -2.341   5.248 -20.219  1.00  0.00     0.041 A 
ATOM     78  F   UNL     1      -2.514   5.423 -17.914  1.00  0.00    -0.206 F 
ATOM     79  C   UNL     1      -2.862   4.896 -21.452  1.00  0.00     0.022 A 
BRANCH  76  80
ATOM     80  S   UNL     1      -4.782   3.853 -23.148  1.00  0.00     0.124 S 
ATOM     81  O   UNL     1      -4.644   2.402 -23.214  1.00  0.00    -0.237 OA
ATOM     82  O   UNL     1      -6.141   4.372 -23.047  1.00  0.00    -0.237 OA
ATOM     83  O   UNL     1      -3.913   4.594 -24.064  1.00  0.00    -0.744 OA
ENDBRANCH  76  80
ENDBRANCH  49  73
BRANCH  61  84
ATOM     84  C   UNL     1      -8.834   2.792 -14.883  1.00  0.00     0.023 A 
ATOM     85  C   UNL     1      -7.641   2.147 -14.474  1.00  0.00     0.031 A 
ATOM     86  C   UNL     1     -10.044   2.100 -14.701  1.00  0.00     0.131 A 
ATOM     87  C   UNL     1      -7.697   0.855 -13.905  1.00  0.00     0.055 A 
ATOM     88  C   UNL     1     -10.095   0.834 -14.120  1.00  0.00     0.041 A 
ATOM     89  F   UNL     1     -11.210   2.675 -15.038  1.00  0.00    -0.206 F 
ATOM     90  C   UNL     1      -8.922   0.206 -13.720  1.00  0.00     0.022 A 
BRANCH  87  91
ATOM     91  S   UNL     1      -6.176   0.008 -13.355  1.00  0.00     0.124 S 
ATOM     92  O   UNL     1      -5.383  -0.080 -14.575  1.00  0.00    -0.237 OA
ATOM     93  O   UNL     1      -5.665   0.902 -12.319  1.00  0.00    -0.237 OA
ATOM     94  O   UNL     1      -6.662  -1.280 -12.853  1.00  0.00    -0.744 OA
ENDBRANCH  87  91
ENDBRANCH  61  84
ENDBRANCH  35  36
ENDBRANCH  28  30
ENDBRANCH  27  28
ENDBRANCH  26  27
ENDBRANCH   1  26
TORSDOF 18
