REMARK SMILES O=C(N[C@@H](CS)C(=O)N[C@@H](CO)C(=O)OCCOC(=O)c1ccc(-c2c3nc(c(-c4cc(S(=O)(=O)[O-])ccc4F)c4ccc([nH]4)c(-c4cc(S(=O)(=O)[O-])ccc4F)c4nc(c(-c5cc(S(=O)(=O)[O-])ccc5F)c5ccc2[nH]5)C=C4)C=C3)cc1)c1ccc(F)cc1
REMARK SMILES IDX 16 1 15 2 13 3 14 4 10 5 9 6 7 7 8 8 4 10 3 11 1 12 2 13
REMARK SMILES IDX 84 15 85 16 90 17 86 18 89 19 87 20 88 21 5 22 6 23 11 25
REMARK SMILES IDX 12 26 17 28 18 29 19 30 20 31 21 32 22 33 83 34 23 35 82 36
REMARK SMILES IDX 24 37 25 38 26 39 76 40 27 41 81 42 75 43 77 44 28 45 80 46
REMARK SMILES IDX 74 47 73 48 29 50 61 51 41 52 60 53 42 54 45 55 59 56 78 57
REMARK SMILES IDX 43 58 44 59 58 61 79 62 46 63 30 64 31 65 39 66 32 67 38 68
REMARK SMILES IDX 40 69 37 70 33 71 34 72 35 73 36 74 62 75 63 76 71 77 64 78
REMARK SMILES IDX 70 79 72 80 69 81 65 82 66 83 67 84 68 85 47 86 48 87 56 88
REMARK SMILES IDX 49 89 55 90 57 91 54 92 50 93 51 94 52 95 53 96
REMARK H PARENT 9 9 3 14 6 24 12 27 77 49 45 60
REMARK Flexibility Score: inf
ROOT
ATOM      1  C   UNL     1       5.627  -4.118   5.965  1.00  0.00     0.274 C 
ENDROOT
BRANCH   1   2
ATOM      2  O   UNL     1       5.159  -3.853   4.625  1.00  0.00    -0.460 OA
BRANCH   2   3
ATOM      3  C   UNL     1       3.969  -3.188   4.515  1.00  0.00     0.331 C 
ATOM      4  O   UNL     1       3.310  -2.773   5.460  1.00  0.00    -0.250 OA
BRANCH   3   5
ATOM      5  C   UNL     1       3.477  -3.140   3.057  1.00  0.00     0.218 C 
BRANCH   5   6
ATOM      6  N   UNL     1       4.540  -3.478   2.097  1.00  0.00    -0.339 N 
ATOM      7  C   UNL     1       5.047  -2.879   0.994  1.00  0.00     0.244 C 
ATOM      8  O   UNL     1       6.070  -3.403   0.534  1.00  0.00    -0.273 OA
ATOM      9  H   UNL     1       4.982  -4.333   2.303  1.00  0.00     0.164 HD
BRANCH   7  10
ATOM     10  C   UNL     1       4.522  -1.567   0.364  1.00  0.00     0.181 C 
BRANCH  10  11
ATOM     11  N   UNL     1       3.071  -1.498   0.159  1.00  0.00    -0.339 N 
ATOM     12  O   UNL     1       1.126  -0.571  -0.472  1.00  0.00    -0.269 OA
ATOM     13  C   UNL     1       2.347  -0.598  -0.590  1.00  0.00     0.251 C 
ATOM     14  H   UNL     1       2.543  -2.189   0.620  1.00  0.00     0.164 HD
BRANCH  13  15
ATOM     15  C   UNL     1       3.021   0.362  -1.497  1.00  0.00     0.040 A 
ATOM     16  C   UNL     1       3.910  -0.085  -2.483  1.00  0.00     0.017 A 
ATOM     17  C   UNL     1       2.706   1.726  -1.404  1.00  0.00     0.017 A 
ATOM     18  C   UNL     1       4.519   0.835  -3.338  1.00  0.00     0.040 A 
ATOM     19  C   UNL     1       3.309   2.641  -2.271  1.00  0.00     0.040 A 
ATOM     20  C   UNL     1       4.210   2.187  -3.229  1.00  0.00     0.123 A 
ATOM     21  F   UNL     1       4.762   3.054  -4.085  1.00  0.00    -0.207 F 
ENDBRANCH  13  15
ENDBRANCH  10  11
BRANCH  10  22
ATOM     22  C   UNL     1       5.136  -0.339   1.058  1.00  0.00     0.101 C 
BRANCH  22  23
ATOM     23  S   UNL     1       4.083   0.399   2.335  1.00  0.00    -0.177 SA
ATOM     24  H   UNL     1       2.932   0.850   1.768  1.00  0.00     0.102 HD
ENDBRANCH  22  23
ENDBRANCH  10  22
ENDBRANCH   7  10
ENDBRANCH   5   6
BRANCH   5  25
ATOM     25  C   UNL     1       2.322  -4.147   2.946  1.00  0.00     0.193 C 
BRANCH  25  26
ATOM     26  O   UNL     1       2.806  -5.496   2.948  1.00  0.00    -0.394 OA
ATOM     27  H   UNL     1       3.392  -5.630   2.187  1.00  0.00     0.210 HD
ENDBRANCH  25  26
ENDBRANCH   5  25
ENDBRANCH   3   5
ENDBRANCH   2   3
ENDBRANCH   1   2
BRANCH   1  28
ATOM     28  C   UNL     1       6.850  -3.264   6.278  1.00  0.00     0.275 C 
BRANCH  28  29
ATOM     29  O   UNL     1       6.455  -1.882   6.284  1.00  0.00    -0.458 OA
BRANCH  29  30
ATOM     30  C   UNL     1       7.254  -1.024   5.619  1.00  0.00     0.338 C 
ATOM     31  O   UNL     1       8.341  -1.287   5.109  1.00  0.00    -0.246 OA
BRANCH  30  32
ATOM     32  C   UNL     1       6.624   0.313   5.550  1.00  0.00     0.060 A 
ATOM     33  C   UNL     1       5.237   0.448   5.562  1.00  0.00     0.016 A 
ATOM     34  C   UNL     1       7.418   1.447   5.350  1.00  0.00     0.016 A 
ATOM     35  C   UNL     1       4.660   1.684   5.254  1.00  0.00     0.010 A 
ATOM     36  C   UNL     1       6.823   2.701   5.138  1.00  0.00     0.010 A 
ATOM     37  C   UNL     1       5.429   2.837   5.022  1.00  0.00    -0.014 A 
BRANCH  37  38
ATOM     38  C   UNL     1       4.798   4.135   4.585  1.00  0.00     0.031 A 
ATOM     39  C   UNL     1       5.384   4.931   3.431  1.00  0.00     0.074 A 
ATOM     40  C   UNL     1       3.677   4.618   5.166  1.00  0.00     0.049 A 
ATOM     41  N   UNL     1       5.200   6.189   3.110  1.00  0.00    -0.248 NA
ATOM     42  C   UNL     1       6.312   4.224   2.536  1.00  0.00     0.031 C 
ATOM     43  C   UNL     1       2.914   3.965   6.230  1.00  0.00     0.029 A 
ATOM     44  N   UNL     1       2.969   5.777   4.929  1.00  0.00    -0.354 N 
ATOM     45  C   UNL     1       6.065   6.451   2.048  1.00  0.00     0.074 A 
ATOM     46  C   UNL     1       6.756   5.209   1.766  1.00  0.00     0.031 C 
ATOM     47  C   UNL     1       1.813   4.679   6.492  1.00  0.00     0.029 A 
ATOM     48  C   UNL     1       1.874   5.931   5.750  1.00  0.00     0.049 A 
ATOM     49  H   UNL     1       3.222   6.432   4.239  1.00  0.00     0.167 HD
ATOM     50  C   UNL     1       6.270   7.619   1.385  1.00  0.00     0.034 A 
ATOM     51  C   UNL     1       1.057   6.981   5.970  1.00  0.00     0.034 A 
ATOM     52  C   UNL     1       5.496   8.822   1.603  1.00  0.00     0.049 A 
ATOM     53  C   UNL     1       1.320   8.278   5.260  1.00  0.00     0.074 A 
ATOM     54  C   UNL     1       5.606  10.046   0.963  1.00  0.00     0.029 A 
ATOM     55  N   UNL     1       4.450   8.947   2.507  1.00  0.00    -0.354 N 
ATOM     56  N   UNL     1       2.251   8.563   4.381  1.00  0.00    -0.248 NA
ATOM     57  C   UNL     1       0.445   9.406   5.603  1.00  0.00     0.031 C 
ATOM     58  C   UNL     1       4.668  10.925   1.517  1.00  0.00     0.029 A 
ATOM     59  C   UNL     1       3.922  10.230   2.454  1.00  0.00     0.049 A 
ATOM     60  H   UNL     1       4.130   8.230   3.100  1.00  0.00     0.167 HD
ATOM     61  C   UNL     1       2.076   9.908   4.072  1.00  0.00     0.074 A 
ATOM     62  C   UNL     1       0.932  10.367   4.832  1.00  0.00     0.031 C 
ATOM     63  C   UNL     1       2.804  10.694   3.238  1.00  0.00     0.034 A 
BRANCH  50  64
ATOM     64  C   UNL     1       7.425   7.691   0.409  1.00  0.00     0.023 A 
ATOM     65  C   UNL     1       7.457   6.967  -0.793  1.00  0.00     0.031 A 
ATOM     66  C   UNL     1       8.516   8.537   0.695  1.00  0.00     0.131 A 
ATOM     67  C   UNL     1       8.577   7.063  -1.638  1.00  0.00     0.055 A 
ATOM     68  C   UNL     1       9.591   8.684  -0.183  1.00  0.00     0.041 A 
ATOM     69  F   UNL     1       8.552   9.242   1.837  1.00  0.00    -0.206 F 
ATOM     70  C   UNL     1       9.631   7.935  -1.354  1.00  0.00     0.022 A 
BRANCH  67  71
ATOM     71  S   UNL     1       8.696   5.942  -3.060  1.00  0.00     0.124 S 
ATOM     72  O   UNL     1       8.558   4.636  -2.420  1.00  0.00    -0.237 OA
ATOM     73  O   UNL     1       7.577   6.372  -3.890  1.00  0.00    -0.237 OA
ATOM     74  O   UNL     1      10.023   6.222  -3.607  1.00  0.00    -0.744 OA
ENDBRANCH  67  71
ENDBRANCH  50  64
BRANCH  51  75
ATOM     75  C   UNL     1      -0.005   6.888   7.015  1.00  0.00     0.023 A 
ATOM     76  C   UNL     1      -1.366   6.985   6.688  1.00  0.00     0.031 A 
ATOM     77  C   UNL     1       0.337   6.708   8.370  1.00  0.00     0.131 A 
ATOM     78  C   UNL     1      -2.333   6.914   7.704  1.00  0.00     0.055 A 
ATOM     79  C   UNL     1      -0.629   6.574   9.365  1.00  0.00     0.041 A 
ATOM     80  F   UNL     1       1.625   6.624   8.739  1.00  0.00    -0.206 F 
ATOM     81  C   UNL     1      -1.974   6.684   9.035  1.00  0.00     0.022 A 
BRANCH  78  82
ATOM     82  S   UNL     1      -4.072   7.192   7.273  1.00  0.00     0.124 S 
ATOM     83  O   UNL     1      -4.030   8.541   6.720  1.00  0.00    -0.237 OA
ATOM     84  O   UNL     1      -4.327   6.116   6.322  1.00  0.00    -0.237 OA
ATOM     85  O   UNL     1      -4.764   7.064   8.554  1.00  0.00    -0.744 OA
ENDBRANCH  78  82
ENDBRANCH  51  75
BRANCH  63  86
ATOM     86  C   UNL     1       2.350  12.124   3.093  1.00  0.00     0.023 A 
ATOM     87  C   UNL     1       2.462  13.042   4.153  1.00  0.00     0.031 A 
ATOM     88  C   UNL     1       1.749  12.560   1.900  1.00  0.00     0.131 A 
ATOM     89  C   UNL     1       1.921  14.330   4.021  1.00  0.00     0.055 A 
ATOM     90  C   UNL     1       1.262  13.860   1.755  1.00  0.00     0.041 A 
ATOM     91  F   UNL     1       1.613  11.723   0.858  1.00  0.00    -0.206 F 
ATOM     92  C   UNL     1       1.333  14.748   2.825  1.00  0.00     0.022 A 
BRANCH  89  93
ATOM     93  S   UNL     1       1.902  15.420   5.471  1.00  0.00     0.124 S 
ATOM     94  O   UNL     1       1.139  14.632   6.434  1.00  0.00    -0.237 OA
ATOM     95  O   UNL     1       3.324  15.579   5.761  1.00  0.00    -0.237 OA
ATOM     96  O   UNL     1       1.232  16.625   4.986  1.00  0.00    -0.744 OA
ENDBRANCH  89  93
ENDBRANCH  63  86
ENDBRANCH  37  38
ENDBRANCH  30  32
ENDBRANCH  29  30
ENDBRANCH  28  29
ENDBRANCH   1  28
TORSDOF 22
