REMARK SMILES CC[C@H](C)[C@@H](Nc1ccc(Cl)c(Br)c1)C(=O)OCCOC(=O)c1ccc(-c2c3nc(c(-c4cc(S(=O)(=O)[O-])ccc4F)c4ccc([nH]4)c(-c4cc(S(=O)(=O)[O-])ccc4F)c4nc(c(-c5cc(S(=O)(=O)[O-])ccc5F)c5ccc2[nH]5)C=C4)C=C3)cc1
REMARK SMILES IDX 19 1 18 2 17 3 15 4 16 5 5 6 3 7 4 8 2 9 1 10 6 11 7 13 8 14
REMARK SMILES IDX 14 15 9 16 12 17 10 18 13 19 11 20 20 21 21 22 22 23 23 24
REMARK SMILES IDX 24 25 85 26 25 27 84 28 26 29 27 30 28 31 78 32 29 33 83 34
REMARK SMILES IDX 77 35 79 36 30 37 82 38 76 39 75 40 31 42 63 43 43 44 62 45
REMARK SMILES IDX 44 46 47 47 61 48 80 49 45 50 46 51 60 53 81 54 48 55 32 56
REMARK SMILES IDX 33 57 41 58 34 59 40 60 42 61 39 62 35 63 36 64 37 65 38 66
REMARK SMILES IDX 64 67 65 68 73 69 66 70 72 71 74 72 71 73 67 74 68 75 69 76
REMARK SMILES IDX 70 77 49 78 50 79 58 80 51 81 57 82 59 83 56 84 52 85 53 86
REMARK SMILES IDX 54 87 55 88
REMARK H PARENT 6 12 79 41 47 52
REMARK Flexibility Score: inf
ROOT
ATOM      1  C   UNL     1       2.229   2.894  -6.025  1.00  0.00     0.275 C 
ENDROOT
BRANCH   1   2
ATOM      2  C   UNL     1       2.759   3.712  -4.843  1.00  0.00     0.274 C 
BRANCH   2   3
ATOM      3  O   UNL     1       2.337   3.202  -3.562  1.00  0.00    -0.461 OA
BRANCH   3   4
ATOM      4  C   UNL     1       1.163   3.715  -3.094  1.00  0.00     0.328 C 
ATOM      5  O   UNL     1       0.428   4.451  -3.747  1.00  0.00    -0.250 OA
BRANCH   4   6
ATOM      6  C   UNL     1       0.890   3.369  -1.608  1.00  0.00     0.192 C 
BRANCH   6   7
ATOM      7  C   UNL     1       1.292   1.903  -1.223  1.00  0.00     0.019 C 
ATOM      8  C   UNL     1       0.949   1.576   0.240  1.00  0.00     0.010 C 
BRANCH   7   9
ATOM      9  C   UNL     1       0.714   0.844  -2.202  1.00  0.00     0.002 C 
ATOM     10  C   UNL     1      -0.368  -0.097  -1.686  1.00  0.00     0.004 C 
ENDBRANCH   7   9
ENDBRANCH   6   7
BRANCH   6  11
ATOM     11  N   UNL     1       1.535   4.335  -0.678  1.00  0.00    -0.372 N 
ATOM     12  H   UNL     1       1.445   4.167   0.288  1.00  0.00     0.161 HD
BRANCH  11  13
ATOM     13  C   UNL     1       2.251   5.449  -1.069  1.00  0.00     0.036 A 
ATOM     14  C   UNL     1       1.730   6.417  -1.930  1.00  0.00     0.027 A 
ATOM     15  C   UNL     1       3.584   5.573  -0.666  1.00  0.00     0.043 A 
ATOM     16  C   UNL     1       2.533   7.444  -2.435  1.00  0.00     0.024 A 
ATOM     17  C   UNL     1       4.395   6.603  -1.158  1.00  0.00     0.038 A 
ATOM     18  C   UNL     1       3.873   7.532  -2.062  1.00  0.00     0.055 A 
ATOM     19  Br  UNL     1       6.202   6.643  -0.574  1.00  0.00    -0.049 Br
ATOM     20  Cl  UNL     1       4.822   8.791  -2.764  1.00  0.00    -0.083 Cl
ENDBRANCH  11  13
ENDBRANCH   6  11
ENDBRANCH   4   6
ENDBRANCH   3   4
ENDBRANCH   2   3
ENDBRANCH   1   2
BRANCH   1  21
ATOM     21  O   UNL     1       0.804   3.030  -6.156  1.00  0.00    -0.458 OA
BRANCH  21  22
ATOM     22  C   UNL     1       0.073   1.942  -5.819  1.00  0.00     0.338 C 
ATOM     23  O   UNL     1       0.489   0.835  -5.525  1.00  0.00    -0.246 OA
BRANCH  22  24
ATOM     24  C   UNL     1      -1.348   2.320  -5.761  1.00  0.00     0.060 A 
ATOM     25  C   UNL     1      -2.118   2.322  -6.921  1.00  0.00     0.016 A 
ATOM     26  C   UNL     1      -1.929   2.611  -4.523  1.00  0.00     0.016 A 
ATOM     27  C   UNL     1      -3.475   2.643  -6.834  1.00  0.00     0.010 A 
ATOM     28  C   UNL     1      -3.281   2.921  -4.434  1.00  0.00     0.010 A 
ATOM     29  C   UNL     1      -4.062   2.946  -5.591  1.00  0.00    -0.014 A 
BRANCH  29  30
ATOM     30  C   UNL     1      -5.516   3.196  -5.488  1.00  0.00     0.031 A 
ATOM     31  C   UNL     1      -6.049   4.577  -5.262  1.00  0.00     0.074 A 
ATOM     32  C   UNL     1      -6.351   2.144  -5.566  1.00  0.00     0.049 A 
ATOM     33  N   UNL     1      -7.287   4.992  -5.314  1.00  0.00    -0.248 NA
ATOM     34  C   UNL     1      -5.075   5.625  -4.917  1.00  0.00     0.031 C 
ATOM     35  C   UNL     1      -5.921   0.750  -5.674  1.00  0.00     0.029 A 
ATOM     36  N   UNL     1      -7.719   2.078  -5.573  1.00  0.00    -0.354 N 
ATOM     37  C   UNL     1      -7.243   6.353  -5.043  1.00  0.00     0.074 A 
ATOM     38  C   UNL     1      -5.864   6.680  -4.753  1.00  0.00     0.031 C 
ATOM     39  C   UNL     1      -7.005  -0.033  -5.777  1.00  0.00     0.029 A 
ATOM     40  C   UNL     1      -8.204   0.802  -5.735  1.00  0.00     0.049 A 
ATOM     41  H   UNL     1      -8.299   2.867  -5.471  1.00  0.00     0.167 HD
ATOM     42  C   UNL     1      -8.261   7.245  -5.070  1.00  0.00     0.034 A 
ATOM     43  C   UNL     1      -9.470   0.358  -5.870  1.00  0.00     0.034 A 
ATOM     44  C   UNL     1      -9.628   6.881  -5.349  1.00  0.00     0.049 A 
ATOM     45  C   UNL     1     -10.586   1.370  -5.928  1.00  0.00     0.074 A 
ATOM     46  C   UNL     1     -10.725   7.713  -5.476  1.00  0.00     0.029 A 
ATOM     47  N   UNL     1     -10.087   5.584  -5.530  1.00  0.00    -0.354 N 
ATOM     48  N   UNL     1     -10.515   2.678  -5.838  1.00  0.00    -0.248 NA
ATOM     49  C   UNL     1     -11.947   0.857  -6.133  1.00  0.00     0.031 C 
ATOM     50  C   UNL     1     -11.855   6.917  -5.672  1.00  0.00     0.029 A 
ATOM     51  C   UNL     1     -11.456   5.590  -5.738  1.00  0.00     0.049 A 
ATOM     52  H   UNL     1      -9.522   4.777  -5.514  1.00  0.00     0.167 HD
ATOM     53  C   UNL     1     -11.816   3.146  -5.997  1.00  0.00     0.074 A 
ATOM     54  C   UNL     1     -12.649   1.981  -6.216  1.00  0.00     0.031 C 
ATOM     55  C   UNL     1     -12.277   4.422  -5.962  1.00  0.00     0.034 A 
BRANCH  42  56
ATOM     56  C   UNL     1      -7.952   8.705  -4.847  1.00  0.00     0.023 A 
ATOM     57  C   UNL     1      -8.535   9.402  -3.773  1.00  0.00     0.031 A 
ATOM     58  C   UNL     1      -7.196   9.436  -5.782  1.00  0.00     0.131 A 
ATOM     59  C   UNL     1      -8.379  10.792  -3.679  1.00  0.00     0.055 A 
ATOM     60  C   UNL     1      -7.011  10.814  -5.662  1.00  0.00     0.041 A 
ATOM     61  F   UNL     1      -6.625   8.819  -6.829  1.00  0.00    -0.206 F 
ATOM     62  C   UNL     1      -7.615  11.500  -4.613  1.00  0.00     0.022 A 
BRANCH  59  63
ATOM     63  S   UNL     1      -9.211  11.747  -2.380  1.00  0.00     0.124 S 
ATOM     64  O   UNL     1      -8.081  12.387  -1.709  1.00  0.00    -0.237 OA
ATOM     65  O   UNL     1     -10.062  12.643  -3.158  1.00  0.00    -0.237 OA
ATOM     66  O   UNL     1      -9.908  10.737  -1.593  1.00  0.00    -0.744 OA
ENDBRANCH  59  63
ENDBRANCH  42  56
BRANCH  43  67
ATOM     67  C   UNL     1      -9.700  -1.099  -6.083  1.00  0.00     0.023 A 
ATOM     68  C   UNL     1      -9.349  -2.038  -5.095  1.00  0.00     0.031 A 
ATOM     69  C   UNL     1     -10.139  -1.581  -7.327  1.00  0.00     0.131 A 
ATOM     70  C   UNL     1      -9.379  -3.407  -5.394  1.00  0.00     0.055 A 
ATOM     71  C   UNL     1     -10.232  -2.947  -7.598  1.00  0.00     0.041 A 
ATOM     72  F   UNL     1     -10.464  -0.723  -8.307  1.00  0.00    -0.206 F 
ATOM     73  C   UNL     1      -9.833  -3.868  -6.634  1.00  0.00     0.022 A 
BRANCH  70  74
ATOM     74  S   UNL     1      -8.696  -4.627  -4.237  1.00  0.00     0.124 S 
ATOM     75  O   UNL     1      -9.861  -5.458  -3.949  1.00  0.00    -0.237 OA
ATOM     76  O   UNL     1      -7.657  -5.258  -5.047  1.00  0.00    -0.237 OA
ATOM     77  O   UNL     1      -8.209  -3.815  -3.127  1.00  0.00    -0.744 OA
ENDBRANCH  70  74
ENDBRANCH  43  67
BRANCH  55  78
ATOM     78  C   UNL     1     -13.756   4.661  -6.151  1.00  0.00     0.023 A 
ATOM     79  C   UNL     1     -14.213   5.423  -7.243  1.00  0.00     0.031 A 
ATOM     80  C   UNL     1     -14.686   4.279  -5.169  1.00  0.00     0.131 A 
ATOM     81  C   UNL     1     -15.555   5.818  -7.303  1.00  0.00     0.055 A 
ATOM     82  C   UNL     1     -16.033   4.634  -5.259  1.00  0.00     0.041 A 
ATOM     83  F   UNL     1     -14.297   3.562  -4.103  1.00  0.00    -0.206 F 
ATOM     84  C   UNL     1     -16.469   5.421  -6.322  1.00  0.00     0.022 A 
BRANCH  81  85
ATOM     85  S   UNL     1     -16.145   6.939  -8.603  1.00  0.00     0.124 S 
ATOM     86  O   UNL     1     -17.158   6.122  -9.268  1.00  0.00    -0.237 OA
ATOM     87  O   UNL     1     -16.662   8.064  -7.828  1.00  0.00    -0.237 OA
ATOM     88  O   UNL     1     -14.953   7.218  -9.396  1.00  0.00    -0.744 OA
ENDBRANCH  81  85
ENDBRANCH  55  78
ENDBRANCH  29  30
ENDBRANCH  22  24
ENDBRANCH  21  22
ENDBRANCH   1  21
TORSDOF 18
