REMARK SMILES CC(=O)c1c[nH]c(C(=O)N[C@H]2C=C[C@H](C(=O)OCCOC(=O)c3ccc(-c4c5nc(c(-c6cc(S(=O)(=O)[O-])ccc6F)c6ccc([nH]6)c(-c6cc(S(=O)(=O)[O-])ccc6F)c6nc(c(-c7cc(S(=O)(=O)[O-])ccc7F)c7ccc4[nH]7)C=C6)C=C5)cc3)C2)c1
REMARK SMILES IDX 18 1 17 2 15 3 16 4 14 5 11 6 12 7 86 8 13 9 10 10 8 11 9 12
REMARK SMILES IDX 7 14 4 15 5 16 87 17 6 18 2 20 1 21 3 22 19 23 20 24 21 25
REMARK SMILES IDX 22 26 23 27 24 28 85 29 25 30 84 31 26 32 27 33 28 34 78 35
REMARK SMILES IDX 29 36 83 37 77 38 79 39 30 40 82 41 76 42 75 43 31 45 63 46
REMARK SMILES IDX 43 47 62 48 44 49 47 50 61 51 80 52 45 53 46 54 60 56 81 57
REMARK SMILES IDX 48 58 32 59 33 60 41 61 34 62 40 63 42 64 39 65 35 66 36 67
REMARK SMILES IDX 37 68 38 69 64 70 65 71 73 72 66 73 72 74 74 75 71 76 67 77
REMARK SMILES IDX 68 78 69 79 70 80 49 81 50 82 58 83 51 84 57 85 59 86 56 87
REMARK SMILES IDX 52 88 53 89 54 90 55 91
REMARK H PARENT 10 13 6 19 79 44 47 55
REMARK Flexibility Score: inf
ROOT
ATOM      1  C   UNL     1      -4.598  -0.785   0.787  1.00  0.00     0.274 C 
ENDROOT
BRANCH   1   2
ATOM      2  O   UNL     1      -3.355  -1.491   0.582  1.00  0.00    -0.462 OA
BRANCH   2   3
ATOM      3  C   UNL     1      -3.373  -2.848   0.753  1.00  0.00     0.312 C 
ATOM      4  O   UNL     1      -4.383  -3.505   0.981  1.00  0.00    -0.252 OA
BRANCH   3   5
ATOM      5  C   UNL     1      -1.959  -3.425   0.666  1.00  0.00     0.124 C 
ATOM      6  C   UNL     1      -1.368  -5.555  -0.445  1.00  0.00     0.106 C 
ATOM      7  C   UNL     1      -1.471  -5.714   1.031  1.00  0.00    -0.006 C 
ATOM      8  C   UNL     1      -1.582  -4.051  -0.692  1.00  0.00     0.048 C 
ATOM      9  C   UNL     1      -1.809  -4.570   1.634  1.00  0.00    -0.014 C 
BRANCH   6  10
ATOM     10  N   UNL     1      -0.171  -6.216  -0.933  1.00  0.00    -0.345 N 
ATOM     11  C   UNL     1       1.160  -5.901  -1.045  1.00  0.00     0.268 C 
ATOM     12  O   UNL     1       1.897  -6.725  -1.558  1.00  0.00    -0.268 OA
ATOM     13  H   UNL     1      -0.363  -7.121  -1.270  1.00  0.00     0.164 HD
BRANCH  11  14
ATOM     14  C   UNL     1       1.632  -4.590  -0.678  1.00  0.00     0.105 A 
ATOM     15  C   UNL     1       1.804  -2.458   0.064  1.00  0.00     0.035 A 
ATOM     16  C   UNL     1       2.547  -2.582  -1.096  1.00  0.00     0.094 A 
ATOM     17  C   UNL     1       1.402  -3.779   0.415  1.00  0.00     0.045 A 
ATOM     18  N   UNL     1       2.508  -3.897  -1.486  1.00  0.00    -0.356 N 
ATOM     19  H   UNL     1       3.025  -4.285  -2.229  1.00  0.00     0.166 HD
BRANCH  15  20
ATOM     20  C   UNL     1       1.434  -1.224   0.752  1.00  0.00     0.161 C 
ATOM     21  C   UNL     1       1.554   0.073  -0.009  1.00  0.00     0.093 C 
ATOM     22  O   UNL     1       0.974  -1.242   1.894  1.00  0.00    -0.294 OA
ENDBRANCH  15  20
ENDBRANCH  11  14
ENDBRANCH   6  10
ENDBRANCH   3   5
ENDBRANCH   2   3
ENDBRANCH   1   2
BRANCH   1  23
ATOM     23  C   UNL     1      -5.430  -0.562  -0.481  1.00  0.00     0.275 C 
BRANCH  23  24
ATOM     24  O   UNL     1      -5.948  -1.781  -1.024  1.00  0.00    -0.458 OA
BRANCH  24  25
ATOM     25  C   UNL     1      -5.037  -2.384  -1.810  1.00  0.00     0.338 C 
ATOM     26  O   UNL     1      -3.889  -2.018  -2.021  1.00  0.00    -0.246 OA
BRANCH  25  27
ATOM     27  C   UNL     1      -5.577  -3.538  -2.519  1.00  0.00     0.060 A 
ATOM     28  C   UNL     1      -4.716  -4.635  -2.571  1.00  0.00     0.016 A 
ATOM     29  C   UNL     1      -6.479  -3.251  -3.543  1.00  0.00     0.016 A 
ATOM     30  C   UNL     1      -4.532  -5.269  -3.777  1.00  0.00     0.010 A 
ATOM     31  C   UNL     1      -6.346  -3.938  -4.737  1.00  0.00     0.010 A 
ATOM     32  C   UNL     1      -5.314  -4.878  -4.870  1.00  0.00    -0.014 A 
BRANCH  32  33
ATOM     33  C   UNL     1      -5.157  -5.653  -6.109  1.00  0.00     0.031 A 
ATOM     34  C   UNL     1      -5.758  -7.054  -5.916  1.00  0.00     0.074 A 
ATOM     35  C   UNL     1      -4.497  -5.053  -7.147  1.00  0.00     0.049 A 
ATOM     36  N   UNL     1      -5.424  -8.185  -6.452  1.00  0.00    -0.248 NA
ATOM     37  C   UNL     1      -6.793  -7.256  -4.853  1.00  0.00     0.031 C 
ATOM     38  C   UNL     1      -3.893  -3.695  -7.120  1.00  0.00     0.029 A 
ATOM     39  N   UNL     1      -4.193  -5.449  -8.432  1.00  0.00    -0.354 N 
ATOM     40  C   UNL     1      -6.362  -9.145  -6.006  1.00  0.00     0.074 A 
ATOM     41  C   UNL     1      -7.026  -8.568  -4.881  1.00  0.00     0.031 C 
ATOM     42  C   UNL     1      -3.272  -3.411  -8.291  1.00  0.00     0.029 A 
ATOM     43  C   UNL     1      -3.441  -4.522  -9.209  1.00  0.00     0.049 A 
ATOM     44  H   UNL     1      -4.479  -6.320  -8.791  1.00  0.00     0.167 HD
ATOM     45  C   UNL     1      -6.686 -10.261  -6.721  1.00  0.00     0.034 A 
ATOM     46  C   UNL     1      -2.988  -4.652 -10.498  1.00  0.00     0.034 A 
ATOM     47  C   UNL     1      -5.949 -10.274  -7.941  1.00  0.00     0.049 A 
ATOM     48  C   UNL     1      -3.624  -5.884 -10.990  1.00  0.00     0.074 A 
ATOM     49  C   UNL     1      -4.621 -10.441  -8.227  1.00  0.00     0.029 A 
ATOM     50  N   UNL     1      -6.584  -9.736  -9.040  1.00  0.00    -0.354 N 
ATOM     51  N   UNL     1      -4.890  -6.004 -11.247  1.00  0.00    -0.248 NA
ATOM     52  C   UNL     1      -2.801  -7.082 -11.185  1.00  0.00     0.031 C 
ATOM     53  C   UNL     1      -4.411  -9.546  -9.294  1.00  0.00     0.029 A 
ATOM     54  C   UNL     1      -5.639  -9.038  -9.743  1.00  0.00     0.049 A 
ATOM     55  H   UNL     1      -7.535  -9.835  -9.274  1.00  0.00     0.167 HD
ATOM     56  C   UNL     1      -5.061  -7.362 -11.303  1.00  0.00     0.074 A 
ATOM     57  C   UNL     1      -3.753  -7.932 -11.565  1.00  0.00     0.031 C 
ATOM     58  C   UNL     1      -6.057  -7.918 -10.566  1.00  0.00     0.034 A 
BRANCH  45  59
ATOM     59  C   UNL     1      -7.819 -11.248  -6.617  1.00  0.00     0.023 A 
ATOM     60  C   UNL     1      -7.695 -12.411  -7.417  1.00  0.00     0.031 A 
ATOM     61  C   UNL     1      -9.087 -10.998  -6.077  1.00  0.00     0.131 A 
ATOM     62  C   UNL     1      -8.808 -13.182  -7.769  1.00  0.00     0.055 A 
ATOM     63  C   UNL     1     -10.188 -11.818  -6.368  1.00  0.00     0.041 A 
ATOM     64  F   UNL     1      -9.339  -9.915  -5.331  1.00  0.00    -0.206 F 
ATOM     65  C   UNL     1     -10.062 -12.891  -7.247  1.00  0.00     0.022 A 
BRANCH  62  66
ATOM     66  S   UNL     1      -8.603 -14.438  -9.064  1.00  0.00     0.124 S 
ATOM     67  O   UNL     1      -8.001 -13.670 -10.148  1.00  0.00    -0.237 OA
ATOM     68  O   UNL     1      -7.731 -15.409  -8.409  1.00  0.00    -0.237 OA
ATOM     69  O   UNL     1      -9.968 -14.895  -9.310  1.00  0.00    -0.744 OA
ENDBRANCH  62  66
ENDBRANCH  45  59
BRANCH  46  70
ATOM     70  C   UNL     1      -2.072  -3.978 -11.512  1.00  0.00     0.023 A 
ATOM     71  C   UNL     1      -1.195  -2.908 -11.274  1.00  0.00     0.031 A 
ATOM     72  C   UNL     1      -1.959  -4.562 -12.818  1.00  0.00     0.131 A 
ATOM     73  C   UNL     1      -0.232  -2.544 -12.262  1.00  0.00     0.055 A 
ATOM     74  C   UNL     1      -0.951  -4.271 -13.733  1.00  0.00     0.041 A 
ATOM     75  F   UNL     1      -2.827  -5.482 -13.264  1.00  0.00    -0.206 F 
ATOM     76  C   UNL     1      -0.064  -3.263 -13.450  1.00  0.00     0.022 A 
BRANCH  73  77
ATOM     77  S   UNL     1       0.875  -1.117 -12.046  1.00  0.00     0.124 S 
ATOM     78  O   UNL     1       0.159  -0.071 -12.769  1.00  0.00    -0.237 OA
ATOM     79  O   UNL     1       0.942  -0.961 -10.597  1.00  0.00    -0.237 OA
ATOM     80  O   UNL     1       2.117  -1.566 -12.674  1.00  0.00    -0.744 OA
ENDBRANCH  73  77
ENDBRANCH  46  70
BRANCH  58  81
ATOM     81  C   UNL     1      -7.273  -7.008 -10.355  1.00  0.00     0.023 A 
ATOM     82  C   UNL     1      -7.887  -6.366 -11.452  1.00  0.00     0.031 A 
ATOM     83  C   UNL     1      -7.788  -6.664  -9.094  1.00  0.00     0.131 A 
ATOM     84  C   UNL     1      -8.910  -5.411 -11.265  1.00  0.00     0.055 A 
ATOM     85  C   UNL     1      -8.799  -5.712  -8.900  1.00  0.00     0.041 A 
ATOM     86  F   UNL     1      -7.335  -7.248  -7.989  1.00  0.00    -0.206 F 
ATOM     87  C   UNL     1      -9.362  -5.072  -9.991  1.00  0.00     0.022 A 
BRANCH  84  88
ATOM     88  S   UNL     1      -9.690  -4.637 -12.710  1.00  0.00     0.124 S 
ATOM     89  O   UNL     1      -8.660  -3.717 -13.178  1.00  0.00    -0.237 OA
ATOM     90  O   UNL     1      -9.969  -5.781 -13.572  1.00  0.00    -0.237 OA
ATOM     91  O   UNL     1     -10.880  -3.994 -12.150  1.00  0.00    -0.744 OA
ENDBRANCH  84  88
ENDBRANCH  58  81
ENDBRANCH  32  33
ENDBRANCH  25  27
ENDBRANCH  24  25
ENDBRANCH  23  24
ENDBRANCH   1  23
TORSDOF 17
