REMARK SMILES O=C(OCCOC(=O)c1ccccc1-c1ccc(/C=C2\C(=O)N(c3cccc(Br)c3)C(=O)N=C2O)o1)c1ccc(-c2c3nc(c(-c4cc(S(=O)(=O)[O-])ccc4F)c4ccc([nH]4)c(-c4cc(S(=O)(=O)[O-])ccc4F)c4nc(c(-c5cc(S(=O)(=O)[O-])ccc5F)c5ccc2[nH]5)C=C4)C=C3)cc1
REMARK SMILES IDX 4 1 3 2 2 3 1 4 37 5 38 6 99 7 39 8 98 9 40 10 41 11 42 12
REMARK SMILES IDX 92 13 43 14 97 15 91 16 93 17 44 18 96 19 90 20 89 21 45 23
REMARK SMILES IDX 77 24 57 25 76 26 58 27 61 28 75 29 94 30 59 31 60 32 74 34
REMARK SMILES IDX 95 35 62 36 46 37 47 38 55 39 48 40 54 41 56 42 53 43 49 44
REMARK SMILES IDX 50 45 51 46 52 47 78 48 79 49 87 50 80 51 86 52 88 53 85 54
REMARK SMILES IDX 81 55 82 56 83 57 84 58 63 59 64 60 72 61 65 62 71 63 73 64
REMARK SMILES IDX 70 65 66 66 67 67 68 68 69 69 5 70 6 71 7 72 8 73 9 74 10 75
REMARK SMILES IDX 14 76 11 77 13 78 12 79 15 80 16 81 36 82 17 83 18 84 19 85
REMARK SMILES IDX 20 86 21 87 34 88 22 89 23 90 33 91 31 92 32 93 35 94 24 96
REMARK SMILES IDX 25 97 30 98 26 99 28 100 27 101 29 102
REMARK H PARENT 93 22 61 33 35 95
REMARK Flexibility Score: inf
ROOT
ATOM      1  C   UNL     1       4.278  -0.524   1.570  1.00  0.00     0.275 C 
ENDROOT
BRANCH   1   2
ATOM      2  O   UNL     1       3.046   0.188   1.347  1.00  0.00    -0.458 OA
BRANCH   2   3
ATOM      3  C   UNL     1       2.720   1.079   0.379  1.00  0.00     0.338 C 
ATOM      4  O   UNL     1       1.755   1.818   0.575  1.00  0.00    -0.246 OA
BRANCH   3   5
ATOM      5  C   UNL     1       3.351   1.109  -0.981  1.00  0.00     0.060 A 
ATOM      6  C   UNL     1       4.626   0.653  -1.306  1.00  0.00     0.016 A 
ATOM      7  C   UNL     1       2.566   1.640  -2.026  1.00  0.00     0.016 A 
ATOM      8  C   UNL     1       5.071   0.639  -2.628  1.00  0.00     0.010 A 
ATOM      9  C   UNL     1       3.010   1.630  -3.354  1.00  0.00     0.010 A 
ATOM     10  C   UNL     1       4.262   1.103  -3.662  1.00  0.00    -0.014 A 
BRANCH  10  11
ATOM     11  C   UNL     1       4.807   1.238  -5.033  1.00  0.00     0.031 A 
ATOM     12  C   UNL     1       6.010   2.606  -4.955  1.00  0.00     0.074 A 
ATOM     13  C   UNL     1       4.457   0.242  -6.069  1.00  0.00     0.049 A 
ATOM     14  N   UNL     1       7.247   2.685  -5.476  1.00  0.00    -0.248 NA
ATOM     15  C   UNL     1       5.690   3.901  -4.345  1.00  0.00     0.031 C 
ATOM     16  C   UNL     1       4.290  -1.159  -5.725  1.00  0.00     0.029 A 
ATOM     17  N   UNL     1       4.596   0.004  -7.525  1.00  0.00    -0.354 N 
ATOM     18  C   UNL     1       7.562   3.989  -5.809  1.00  0.00     0.074 A 
ATOM     19  C   UNL     1       6.665   4.692  -4.846  1.00  0.00     0.031 C 
ATOM     20  C   UNL     1       4.566  -2.015  -6.753  1.00  0.00     0.029 A 
ATOM     21  C   UNL     1       4.934  -1.290  -7.994  1.00  0.00     0.049 A 
ATOM     22  H   UNL     1       4.456   0.741  -8.163  1.00  0.00     0.167 HD
ATOM     23  C   UNL     1       8.283   4.555  -6.887  1.00  0.00     0.034 A 
ATOM     24  C   UNL     1       5.556  -1.873  -9.130  1.00  0.00     0.034 A 
ATOM     25  C   UNL     1       8.799   4.026  -8.311  1.00  0.00     0.049 A 
ATOM     26  C   UNL     1       6.510  -1.251 -10.392  1.00  0.00     0.074 A 
ATOM     27  C   UNL     1       8.969   4.773  -9.494  1.00  0.00     0.029 A 
ATOM     28  N   UNL     1       9.287   2.752  -8.814  1.00  0.00    -0.354 N 
ATOM     29  N   UNL     1       6.692  -0.010 -10.771  1.00  0.00    -0.248 NA
ATOM     30  C   UNL     1       7.445  -2.068 -11.221  1.00  0.00     0.031 C 
ATOM     31  C   UNL     1       9.133   3.942 -10.668  1.00  0.00     0.029 A 
ATOM     32  C   UNL     1       9.125   2.596 -10.313  1.00  0.00     0.049 A 
ATOM     33  H   UNL     1       9.684   2.059  -8.238  1.00  0.00     0.167 HD
ATOM     34  C   UNL     1       8.001   0.187 -11.365  1.00  0.00     0.074 A 
ATOM     35  C   UNL     1       8.275  -1.177 -11.810  1.00  0.00     0.031 C 
ATOM     36  C   UNL     1       8.986   1.253 -11.275  1.00  0.00     0.034 A 
BRANCH  23  37
ATOM     37  C   UNL     1       8.349   6.071  -6.676  1.00  0.00     0.023 A 
ATOM     38  C   UNL     1       9.024   6.591  -5.550  1.00  0.00     0.031 A 
ATOM     39  C   UNL     1       7.604   6.974  -7.456  1.00  0.00     0.131 A 
ATOM     40  C   UNL     1       8.876   7.943  -5.199  1.00  0.00     0.055 A 
ATOM     41  C   UNL     1       7.558   8.342  -7.165  1.00  0.00     0.041 A 
ATOM     42  F   UNL     1       6.853   6.542  -8.481  1.00  0.00    -0.206 F 
ATOM     43  C   UNL     1       8.181   8.832  -6.021  1.00  0.00     0.022 A 
BRANCH  40  44
ATOM     44  S   UNL     1       9.424   8.481  -3.553  1.00  0.00     0.124 S 
ATOM     45  O   UNL     1       8.501   7.752  -2.686  1.00  0.00    -0.237 OA
ATOM     46  O   UNL     1      10.814   8.042  -3.518  1.00  0.00    -0.237 OA
ATOM     47  O   UNL     1       9.229   9.929  -3.582  1.00  0.00    -0.744 OA
ENDBRANCH  40  44
ENDBRANCH  23  37
BRANCH  24  48
ATOM     48  C   UNL     1       5.414  -3.387  -9.236  1.00  0.00     0.023 A 
ATOM     49  C   UNL     1       6.506  -4.271  -9.321  1.00  0.00     0.031 A 
ATOM     50  C   UNL     1       4.128  -3.949  -9.378  1.00  0.00     0.131 A 
ATOM     51  C   UNL     1       6.299  -5.628  -9.648  1.00  0.00     0.055 A 
ATOM     52  C   UNL     1       3.925  -5.312  -9.621  1.00  0.00     0.041 A 
ATOM     53  F   UNL     1       3.037  -3.173  -9.293  1.00  0.00    -0.206 F 
ATOM     54  C   UNL     1       5.016  -6.155  -9.787  1.00  0.00     0.022 A 
BRANCH  51  55
ATOM     55  S   UNL     1       7.739  -6.668 -10.044  1.00  0.00     0.124 S 
ATOM     56  O   UNL     1       8.424  -5.857 -11.044  1.00  0.00    -0.237 OA
ATOM     57  O   UNL     1       8.393  -6.773  -8.744  1.00  0.00    -0.237 OA
ATOM     58  O   UNL     1       7.141  -7.904 -10.545  1.00  0.00    -0.744 OA
ENDBRANCH  51  55
ENDBRANCH  24  48
BRANCH  36  59
ATOM     59  C   UNL     1       9.781   1.332 -12.557  1.00  0.00     0.023 A 
ATOM     60  C   UNL     1       9.118   1.233 -13.802  1.00  0.00     0.031 A 
ATOM     61  C   UNL     1      11.141   1.649 -12.565  1.00  0.00     0.131 A 
ATOM     62  C   UNL     1       9.822   1.378 -15.000  1.00  0.00     0.055 A 
ATOM     63  C   UNL     1      11.836   1.831 -13.765  1.00  0.00     0.041 A 
ATOM     64  F   UNL     1      11.818   1.799 -11.416  1.00  0.00    -0.206 F 
ATOM     65  C   UNL     1      11.181   1.684 -14.989  1.00  0.00     0.022 A 
BRANCH  62  66
ATOM     66  S   UNL     1       8.937   1.120 -16.562  1.00  0.00     0.124 S 
ATOM     67  O   UNL     1       8.357  -0.207 -16.377  1.00  0.00    -0.237 OA
ATOM     68  O   UNL     1       7.992   2.232 -16.573  1.00  0.00    -0.237 OA
ATOM     69  O   UNL     1       9.994   1.196 -17.569  1.00  0.00    -0.744 OA
ENDBRANCH  62  66
ENDBRANCH  36  59
ENDBRANCH  10  11
ENDBRANCH   3   5
ENDBRANCH   2   3
ENDBRANCH   1   2
BRANCH   1  70
ATOM     70  C   UNL     1       4.271  -1.946   1.008  1.00  0.00     0.275 C 
BRANCH  70  71
ATOM     71  O   UNL     1       3.868  -1.993  -0.367  1.00  0.00    -0.458 OA
BRANCH  71  72
ATOM     72  C   UNL     1       2.580  -2.343  -0.578  1.00  0.00     0.338 C 
ATOM     73  O   UNL     1       1.757  -2.635   0.277  1.00  0.00    -0.246 OA
BRANCH  72  74
ATOM     74  C   UNL     1       2.214  -2.227  -2.000  1.00  0.00     0.071 A 
ATOM     75  C   UNL     1       1.084  -1.424  -2.263  1.00  0.00     0.016 A 
ATOM     76  C   UNL     1       2.875  -2.900  -3.038  1.00  0.00     0.032 A 
ATOM     77  C   UNL     1       0.601  -1.278  -3.560  1.00  0.00     0.001 A 
ATOM     78  C   UNL     1       2.254  -2.875  -4.302  1.00  0.00     0.013 A 
ATOM     79  C   UNL     1       1.167  -2.032  -4.577  1.00  0.00     0.001 A 
BRANCH  76  80
ATOM     80  C   UNL     1       4.198  -3.530  -2.911  1.00  0.00     0.135 A 
ATOM     81  C   UNL     1       4.736  -4.505  -2.110  1.00  0.00     0.051 A 
ATOM     82  O   UNL     1       5.185  -3.058  -3.751  1.00  0.00    -0.457 OA
ATOM     83  C   UNL     1       6.099  -4.621  -2.494  1.00  0.00     0.051 A 
ATOM     84  C   UNL     1       6.372  -3.714  -3.526  1.00  0.00     0.128 A 
BRANCH  84  85
ATOM     85  C   UNL     1       7.609  -3.611  -4.257  1.00  0.00     0.066 C 
ATOM     86  C   UNL     1       8.151  -2.669  -5.071  1.00  0.00     0.106 C 
ATOM     87  C   UNL     1       7.713  -1.289  -5.464  1.00  0.00     0.272 C 
ATOM     88  C   UNL     1       9.472  -2.969  -5.629  1.00  0.00     0.228 C 
ATOM     89  O   UNL     1       7.088  -0.663  -4.613  1.00  0.00    -0.268 OA
ATOM     90  N   UNL     1       8.231  -0.789  -6.689  1.00  0.00    -0.226 N 
ATOM     91  N   UNL     1      10.078  -2.340  -6.548  1.00  0.00    -0.156 NA
ATOM     92  C   UNL     1       9.473  -1.264  -7.163  1.00  0.00     0.358 C 
ATOM     93  O   UNL     1      10.107  -0.706  -8.045  1.00  0.00    -0.245 OA
BRANCH  88  94
ATOM     94  O   UNL     1      10.149  -3.976  -5.052  1.00  0.00    -0.493 OA
ATOM     95  H   UNL     1       9.752  -4.476  -4.367  1.00  0.00     0.295 HD
ENDBRANCH  88  94
BRANCH  90  96
ATOM     96  C   UNL     1       7.610   0.343  -7.413  1.00  0.00     0.055 A 
ATOM     97  C   UNL     1       7.717   0.719  -8.673  1.00  0.00     0.027 A 
ATOM     98  C   UNL     1       6.641   1.192  -7.024  1.00  0.00     0.042 A 
ATOM     99  C   UNL     1       6.868   1.830  -9.395  1.00  0.00     0.003 A 
ATOM    100  C   UNL     1       5.787   2.372  -7.679  1.00  0.00     0.020 A 
ATOM    101  C   UNL     1       5.963   2.688  -8.940  1.00  0.00     0.016 A 
ATOM    102  Br  UNL     1       4.150   3.310  -7.149  1.00  0.00    -0.051 Br
ENDBRANCH  90  96
ENDBRANCH  84  85
ENDBRANCH  76  80
ENDBRANCH  72  74
ENDBRANCH  71  72
ENDBRANCH  70  71
ENDBRANCH   1  70
TORSDOF 18
