REMARK SMILES O=C(OCCOC(=O)[C@@H]1CN(C(=O)C[NH+]2CCOCC2)C[C@H]1c1ccc2c(c1)OCO2)c1ccc(-c2c3nc(c(-c4cc(S(=O)(=O)[O-])ccc4F)c4ccc([nH]4)c(-c4cc(S(=O)(=O)[O-])ccc4F)c4nc(c(-c5cc(S(=O)(=O)[O-])ccc5F)c5ccc2[nH]5)C=C4)C=C3)cc1
REMARK SMILES IDX 4 1 3 2 2 3 1 4 32 5 33 6 94 7 34 8 93 9 35 10 36 11 37 12
REMARK SMILES IDX 87 13 38 14 92 15 86 16 88 17 39 18 91 19 85 20 84 21 40 23
REMARK SMILES IDX 72 24 52 25 71 26 53 27 56 28 70 29 89 30 54 31 55 32 69 34
REMARK SMILES IDX 90 35 57 36 41 37 42 38 50 39 43 40 49 41 51 42 48 43 44 44
REMARK SMILES IDX 45 45 46 46 47 47 73 48 74 49 82 50 75 51 81 52 83 53 80 54
REMARK SMILES IDX 76 55 77 56 78 57 79 58 58 59 59 60 67 61 60 62 66 63 68 64
REMARK SMILES IDX 65 65 61 66 62 67 63 68 64 69 5 70 6 71 7 72 8 73 9 74 10 75
REMARK SMILES IDX 22 76 11 77 21 78 23 79 24 80 28 81 25 82 27 83 26 84 29 85
REMARK SMILES IDX 31 86 30 87 12 88 13 89 14 90 15 91 16 92 20 93 17 95 19 96
REMARK SMILES IDX 18 97
REMARK H PARENT 88 22 56 33 15 94
REMARK Flexibility Score: inf
ROOT
ATOM      1  C   UNL     1       4.797  -1.625  -0.164  1.00  0.00     0.275 C 
ENDROOT
BRANCH   1   2
ATOM      2  O   UNL     1       4.674  -0.893   1.070  1.00  0.00    -0.458 OA
BRANCH   2   3
ATOM      3  C   UNL     1       3.898   0.207   1.157  1.00  0.00     0.338 C 
ATOM      4  O   UNL     1       2.845   0.198   1.795  1.00  0.00    -0.246 OA
BRANCH   3   5
ATOM      5  C   UNL     1       4.431   1.450   0.521  1.00  0.00     0.060 A 
ATOM      6  C   UNL     1       5.516   1.466  -0.363  1.00  0.00     0.016 A 
ATOM      7  C   UNL     1       3.739   2.645   0.753  1.00  0.00     0.016 A 
ATOM      8  C   UNL     1       5.852   2.625  -1.069  1.00  0.00     0.010 A 
ATOM      9  C   UNL     1       4.052   3.798   0.023  1.00  0.00     0.010 A 
ATOM     10  C   UNL     1       5.116   3.799  -0.894  1.00  0.00    -0.014 A 
BRANCH  10  11
ATOM     11  C   UNL     1       5.582   5.068  -1.514  1.00  0.00     0.031 A 
ATOM     12  C   UNL     1       6.096   6.141  -0.611  1.00  0.00     0.074 A 
ATOM     13  C   UNL     1       5.577   5.273  -2.844  1.00  0.00     0.049 A 
ATOM     14  N   UNL     1       6.479   7.353  -0.903  1.00  0.00    -0.248 NA
ATOM     15  C   UNL     1       6.138   5.810   0.819  1.00  0.00     0.031 C 
ATOM     16  C   UNL     1       5.094   4.310  -3.818  1.00  0.00     0.029 A 
ATOM     17  N   UNL     1       5.970   6.345  -3.610  1.00  0.00    -0.354 N 
ATOM     18  C   UNL     1       6.803   7.930   0.314  1.00  0.00     0.074 A 
ATOM     19  C   UNL     1       6.429   6.985   1.344  1.00  0.00     0.031 C 
ATOM     20  C   UNL     1       5.215   4.829  -5.050  1.00  0.00     0.029 A 
ATOM     21  C   UNL     1       5.747   6.172  -4.960  1.00  0.00     0.049 A 
ATOM     22  H   UNL     1       6.372   7.159  -3.231  1.00  0.00     0.167 HD
ATOM     23  C   UNL     1       7.427   9.108   0.550  1.00  0.00     0.034 A 
ATOM     24  C   UNL     1       5.924   6.995  -6.013  1.00  0.00     0.034 A 
ATOM     25  C   UNL     1       7.792  10.028  -0.493  1.00  0.00     0.049 A 
ATOM     26  C   UNL     1       6.520   8.343  -5.740  1.00  0.00     0.074 A 
ATOM     27  C   UNL     1       8.424  11.252  -0.387  1.00  0.00     0.029 A 
ATOM     28  N   UNL     1       7.545   9.822  -1.848  1.00  0.00    -0.354 N 
ATOM     29  N   UNL     1       6.852   8.868  -4.583  1.00  0.00    -0.248 NA
ATOM     30  C   UNL     1       6.795   9.196  -6.899  1.00  0.00     0.031 C 
ATOM     31  C   UNL     1       8.523  11.803  -1.671  1.00  0.00     0.029 A 
ATOM     32  C   UNL     1       8.006  10.899  -2.588  1.00  0.00     0.049 A 
ATOM     33  H   UNL     1       7.106   9.025  -2.226  1.00  0.00     0.167 HD
ATOM     34  C   UNL     1       7.422  10.098  -4.877  1.00  0.00     0.074 A 
ATOM     35  C   UNL     1       7.377  10.238  -6.322  1.00  0.00     0.031 C 
ATOM     36  C   UNL     1       7.952  11.014  -4.029  1.00  0.00     0.034 A 
BRANCH  23  37
ATOM     37  C   UNL     1       7.700   9.411   2.002  1.00  0.00     0.023 A 
ATOM     38  C   UNL     1       8.487   8.538   2.781  1.00  0.00     0.031 A 
ATOM     39  C   UNL     1       7.005  10.437   2.658  1.00  0.00     0.131 A 
ATOM     40  C   UNL     1       8.414   8.598   4.178  1.00  0.00     0.055 A 
ATOM     41  C   UNL     1       7.038  10.566   4.049  1.00  0.00     0.041 A 
ATOM     42  F   UNL     1       6.224  11.284   1.970  1.00  0.00    -0.206 F 
ATOM     43  C   UNL     1       7.715   9.623   4.819  1.00  0.00     0.022 A 
BRANCH  40  44
ATOM     44  S   UNL     1       9.008   7.168   5.130  1.00  0.00     0.124 S 
ATOM     45  O   UNL     1       8.129   6.107   4.643  1.00  0.00    -0.237 OA
ATOM     46  O   UNL     1      10.406   7.074   4.725  1.00  0.00    -0.237 OA
ATOM     47  O   UNL     1       8.784   7.564   6.518  1.00  0.00    -0.744 OA
ENDBRANCH  40  44
ENDBRANCH  23  37
BRANCH  24  48
ATOM     48  C   UNL     1       5.520   6.583  -7.394  1.00  0.00     0.023 A 
ATOM     49  C   UNL     1       6.462   6.337  -8.409  1.00  0.00     0.031 A 
ATOM     50  C   UNL     1       4.158   6.445  -7.722  1.00  0.00     0.131 A 
ATOM     51  C   UNL     1       6.030   5.987  -9.702  1.00  0.00     0.055 A 
ATOM     52  C   UNL     1       3.735   6.054  -8.995  1.00  0.00     0.041 A 
ATOM     53  F   UNL     1       3.214   6.699  -6.804  1.00  0.00    -0.206 F 
ATOM     54  C   UNL     1       4.673   5.830  -9.997  1.00  0.00     0.022 A 
BRANCH  51  55
ATOM     55  S   UNL     1       7.261   5.792 -11.024  1.00  0.00     0.124 S 
ATOM     56  O   UNL     1       7.921   7.092 -11.018  1.00  0.00    -0.237 OA
ATOM     57  O   UNL     1       8.053   4.666 -10.538  1.00  0.00    -0.237 OA
ATOM     58  O   UNL     1       6.451   5.510 -12.208  1.00  0.00    -0.744 OA
ENDBRANCH  51  55
ENDBRANCH  24  48
BRANCH  36  59
ATOM     59  C   UNL     1       8.602  12.211  -4.663  1.00  0.00     0.023 A 
ATOM     60  C   UNL     1       7.854  13.198  -5.324  1.00  0.00     0.031 A 
ATOM     61  C   UNL     1      10.000  12.350  -4.612  1.00  0.00     0.131 A 
ATOM     62  C   UNL     1       8.516  14.260  -5.955  1.00  0.00     0.055 A 
ATOM     63  C   UNL     1      10.647  13.441  -5.188  1.00  0.00     0.041 A 
ATOM     64  F   UNL     1      10.756  11.425  -3.999  1.00  0.00    -0.206 F 
ATOM     65  C   UNL     1       9.905  14.399  -5.873  1.00  0.00     0.022 A 
BRANCH  62  66
ATOM     66  S   UNL     1       7.545  15.421  -6.952  1.00  0.00     0.124 S 
ATOM     67  O   UNL     1       7.025  14.552  -8.003  1.00  0.00    -0.237 OA
ATOM     68  O   UNL     1       6.565  15.918  -5.992  1.00  0.00    -0.237 OA
ATOM     69  O   UNL     1       8.533  16.404  -7.392  1.00  0.00    -0.744 OA
ENDBRANCH  62  66
ENDBRANCH  36  59
ENDBRANCH  10  11
ENDBRANCH   3   5
ENDBRANCH   2   3
ENDBRANCH   1   2
BRANCH   1  70
ATOM     70  C   UNL     1       3.612  -1.649  -1.139  1.00  0.00     0.274 C 
BRANCH  70  71
ATOM     71  O   UNL     1       3.053  -0.362  -1.464  1.00  0.00    -0.462 OA
BRANCH  71  72
ATOM     72  C   UNL     1       1.727  -0.389  -1.798  1.00  0.00     0.311 C 
ATOM     73  O   UNL     1       1.024  -1.393  -1.734  1.00  0.00    -0.252 OA
BRANCH  72  74
ATOM     74  C   UNL     1       1.220   0.888  -2.432  1.00  0.00     0.128 C 
ATOM     75  C   UNL     1       1.967   1.049  -3.750  1.00  0.00     0.135 C 
ATOM     76  C   UNL     1       1.460   2.228  -1.722  1.00  0.00     0.055 C 
ATOM     77  N   UNL     1       1.914   2.456  -4.054  1.00  0.00    -0.336 N 
ATOM     78  C   UNL     1       1.466   3.221  -2.904  1.00  0.00     0.129 C 
BRANCH  76  79
ATOM     79  C   UNL     1       0.529   2.604  -0.575  1.00  0.00    -0.038 A 
ATOM     80  C   UNL     1       0.162   1.646   0.401  1.00  0.00     0.008 A 
ATOM     81  C   UNL     1       0.091   3.933  -0.388  1.00  0.00     0.054 A 
ATOM     82  C   UNL     1      -0.642   1.980   1.502  1.00  0.00     0.051 A 
ATOM     83  C   UNL     1      -0.718   4.230   0.694  1.00  0.00     0.166 A 
ATOM     84  C   UNL     1      -1.078   3.278   1.613  1.00  0.00     0.165 A 
ATOM     85  O   UNL     1      -1.240   5.452   0.985  1.00  0.00    -0.454 OA
ATOM     86  O   UNL     1      -1.872   3.776   2.598  1.00  0.00    -0.454 OA
ATOM     87  C   UNL     1      -2.018   5.143   2.159  1.00  0.00     0.468 C 
ENDBRANCH  76  79
BRANCH  77  88
ATOM     88  C   UNL     1       2.177   3.078  -5.258  1.00  0.00     0.277 C 
ATOM     89  O   UNL     1       1.964   4.284  -5.394  1.00  0.00    -0.268 OA
BRANCH  88  90
ATOM     90  C   UNL     1       2.659   2.221  -6.443  1.00  0.00     0.363 C 
BRANCH  90  91
ATOM     91  N   UNL     1       4.128   2.175  -6.587  1.00  0.00    -0.323 N 
ATOM     92  C   UNL     1       4.531   1.798  -7.959  1.00  0.00     0.291 C 
ATOM     93  C   UNL     1       4.851   1.285  -5.667  1.00  0.00     0.291 C 
ATOM     94  H   UNL     1       4.394   3.131  -6.351  1.00  0.00     0.348 HD
ATOM     95  C   UNL     1       4.305   0.303  -8.246  1.00  0.00     0.221 C 
ATOM     96  C   UNL     1       4.627  -0.204  -5.954  1.00  0.00     0.221 C 
ATOM     97  O   UNL     1       4.979  -0.542  -7.298  1.00  0.00    -0.370 OA
ENDBRANCH  90  91
ENDBRANCH  88  90
ENDBRANCH  77  88
ENDBRANCH  72  74
ENDBRANCH  71  72
ENDBRANCH  70  71
ENDBRANCH   1  70
TORSDOF 18
