REMARK SMILES Cc1ccc(CC(=O)OCCOC(=O)c2ccc(-c3c4nc(c(-c5cc(S(=O)(=O)[O-])ccc5F)c5ccc([nH]5)c(-c5cc(S(=O)(=O)[O-])ccc5F)c5nc(c(-c6cc(S(=O)(=O)[O-])ccc6F)c6ccc3[nH]6)C=C5)C=C4)cc2)n1-c1ccc(F)cc1
REMARK SMILES IDX 11 1 10 2 9 3 7 4 8 5 6 6 5 7 1 8 2 9 3 10 78 11 4 12 79 13
REMARK SMILES IDX 80 14 85 15 81 16 84 17 82 18 83 19 12 20 13 21 14 22 15 23
REMARK SMILES IDX 16 24 77 25 17 26 76 27 18 28 19 29 20 30 70 31 21 32 75 33
REMARK SMILES IDX 69 34 71 35 22 36 74 37 68 38 67 39 23 41 55 42 35 43 54 44
REMARK SMILES IDX 36 45 39 46 53 47 72 48 37 49 38 50 52 52 73 53 40 54 24 55
REMARK SMILES IDX 25 56 33 57 26 58 32 59 34 60 31 61 27 62 28 63 29 64 30 65
REMARK SMILES IDX 56 66 57 67 65 68 58 69 64 70 66 71 63 72 59 73 60 74 61 75
REMARK SMILES IDX 62 76 41 77 42 78 50 79 43 80 49 81 51 82 48 83 44 84 45 85
REMARK SMILES IDX 46 86 47 87
REMARK H PARENT 71 40 39 51
REMARK Flexibility Score: inf
ROOT
ATOM      1  C   UNL     1      -0.571  -1.579  -7.542  1.00  0.00     0.275 C 
ENDROOT
BRANCH   1   2
ATOM      2  C   UNL     1       0.077  -0.174  -7.414  1.00  0.00     0.274 C 
BRANCH   2   3
ATOM      3  O   UNL     1      -0.058   0.291  -6.062  1.00  0.00    -0.462 OA
BRANCH   3   4
ATOM      4  C   UNL     1      -0.554   1.529  -5.860  1.00  0.00     0.311 C 
ATOM      5  O   UNL     1      -0.739   2.356  -6.751  1.00  0.00    -0.252 OA
BRANCH   4   6
ATOM      6  C   UNL     1      -0.916   1.819  -4.416  1.00  0.00     0.177 C 
BRANCH   6   7
ATOM      7  C   UNL     1      -0.390   0.868  -3.362  1.00  0.00     0.034 A 
ATOM      8  C   UNL     1       1.111   0.109  -0.067  1.00  0.00     0.065 C 
ATOM      9  C   UNL     1       0.568   0.113  -1.456  1.00  0.00     0.020 A 
ATOM     10  C   UNL     1       0.191  -0.986  -2.200  1.00  0.00     0.023 A 
ATOM     11  N   UNL     1       0.236   1.259  -2.176  1.00  0.00    -0.318 N 
ATOM     12  C   UNL     1      -0.443  -0.517  -3.361  1.00  0.00     0.024 A 
BRANCH  11  13
ATOM     13  C   UNL     1       0.490   2.596  -1.761  1.00  0.00     0.046 A 
ATOM     14  C   UNL     1      -0.531   3.554  -1.815  1.00  0.00     0.029 A 
ATOM     15  C   UNL     1       1.777   2.960  -1.341  1.00  0.00     0.029 A 
ATOM     16  C   UNL     1      -0.253   4.884  -1.498  1.00  0.00     0.041 A 
ATOM     17  C   UNL     1       2.049   4.293  -1.028  1.00  0.00     0.041 A 
ATOM     18  C   UNL     1       1.035   5.243  -1.119  1.00  0.00     0.123 A 
ATOM     19  F   UNL     1       1.308   6.525  -0.843  1.00  0.00    -0.207 F 
ENDBRANCH  11  13
ENDBRANCH   6   7
ENDBRANCH   4   6
ENDBRANCH   3   4
ENDBRANCH   2   3
ENDBRANCH   1   2
BRANCH   1  20
ATOM     20  O   UNL     1      -2.000  -1.771  -7.938  1.00  0.00    -0.458 OA
BRANCH  20  21
ATOM     21  C   UNL     1      -3.073  -1.708  -7.052  1.00  0.00     0.338 C 
ATOM     22  O   UNL     1      -2.997  -1.063  -6.009  1.00  0.00    -0.246 OA
BRANCH  21  23
ATOM     23  C   UNL     1      -4.364  -2.527  -7.481  1.00  0.00     0.060 A 
ATOM     24  C   UNL     1      -5.750  -2.345  -7.167  1.00  0.00     0.016 A 
ATOM     25  C   UNL     1      -4.224  -3.624  -8.264  1.00  0.00     0.016 A 
ATOM     26  C   UNL     1      -6.980  -3.210  -7.689  1.00  0.00     0.010 A 
ATOM     27  C   UNL     1      -5.410  -4.384  -8.706  1.00  0.00     0.010 A 
ATOM     28  C   UNL     1      -6.895  -4.358  -8.517  1.00  0.00    -0.014 A 
BRANCH  28  29
ATOM     29  C   UNL     1      -8.081  -4.967  -9.822  1.00  0.00     0.031 A 
ATOM     30  C   UNL     1      -7.715  -3.920 -10.833  1.00  0.00     0.074 A 
ATOM     31  C   UNL     1      -8.931  -6.064 -10.493  1.00  0.00     0.049 A 
ATOM     32  N   UNL     1      -6.429  -3.664 -10.828  1.00  0.00    -0.248 NA
ATOM     33  C   UNL     1      -8.189  -3.826 -12.193  1.00  0.00     0.031 C 
ATOM     34  C   UNL     1      -9.367  -7.430 -10.040  1.00  0.00     0.029 A 
ATOM     35  N   UNL     1      -9.566  -6.239 -11.958  1.00  0.00    -0.354 N 
ATOM     36  C   UNL     1      -6.061  -4.645 -11.696  1.00  0.00     0.074 A 
ATOM     37  C   UNL     1      -7.046  -4.259 -12.764  1.00  0.00     0.031 C 
ATOM     38  C   UNL     1     -10.102  -8.163 -10.962  1.00  0.00     0.029 A 
ATOM     39  C   UNL     1     -10.335  -7.517 -12.306  1.00  0.00     0.049 A 
ATOM     40  H   UNL     1      -9.461  -5.527 -12.630  1.00  0.00     0.167 HD
ATOM     41  C   UNL     1      -5.516  -5.924 -11.441  1.00  0.00     0.034 A 
ATOM     42  C   UNL     1     -10.953  -8.258 -13.478  1.00  0.00     0.034 A 
ATOM     43  C   UNL     1      -5.079  -6.431 -12.687  1.00  0.00     0.049 A 
ATOM     44  C   UNL     1      -9.577  -8.281 -14.038  1.00  0.00     0.074 A 
ATOM     45  C   UNL     1      -4.850  -5.872 -13.921  1.00  0.00     0.029 A 
ATOM     46  N   UNL     1      -5.002  -7.779 -12.861  1.00  0.00    -0.354 N 
ATOM     47  N   UNL     1      -8.854  -9.358 -13.998  1.00  0.00    -0.248 NA
ATOM     48  C   UNL     1      -9.119  -7.177 -14.918  1.00  0.00     0.031 C 
ATOM     49  C   UNL     1      -5.545  -6.793 -14.730  1.00  0.00     0.029 A 
ATOM     50  C   UNL     1      -5.682  -7.994 -14.018  1.00  0.00     0.049 A 
ATOM     51  H   UNL     1      -4.559  -8.442 -12.284  1.00  0.00     0.167 HD
ATOM     52  C   UNL     1      -7.711  -8.947 -14.616  1.00  0.00     0.074 A 
ATOM     53  C   UNL     1      -8.046  -7.790 -15.414  1.00  0.00     0.031 C 
ATOM     54  C   UNL     1      -6.534  -9.146 -13.999  1.00  0.00     0.034 A 
BRANCH  41  55
ATOM     55  C   UNL     1      -5.109  -6.879 -10.089  1.00  0.00     0.023 A 
ATOM     56  C   UNL     1      -5.797  -7.069  -8.827  1.00  0.00     0.031 A 
ATOM     57  C   UNL     1      -3.830  -7.481 -10.088  1.00  0.00     0.131 A 
ATOM     58  C   UNL     1      -5.096  -7.465  -7.638  1.00  0.00     0.055 A 
ATOM     59  C   UNL     1      -3.244  -8.103  -8.970  1.00  0.00     0.041 A 
ATOM     60  F   UNL     1      -3.063  -7.458 -11.186  1.00  0.00    -0.206 F 
ATOM     61  C   UNL     1      -3.834  -8.027  -7.722  1.00  0.00     0.022 A 
BRANCH  58  62
ATOM     62  S   UNL     1      -5.655  -6.989  -5.926  1.00  0.00     0.124 S 
ATOM     63  O   UNL     1      -5.296  -5.600  -5.831  1.00  0.00    -0.237 OA
ATOM     64  O   UNL     1      -7.100  -7.287  -5.953  1.00  0.00    -0.237 OA
ATOM     65  O   UNL     1      -4.872  -7.874  -5.055  1.00  0.00    -0.744 OA
ENDBRANCH  58  62
ENDBRANCH  41  55
BRANCH  42  66
ATOM     66  C   UNL     1     -11.657  -8.841 -15.058  1.00  0.00     0.023 A 
ATOM     67  C   UNL     1     -12.936  -9.497 -15.293  1.00  0.00     0.031 A 
ATOM     68  C   UNL     1     -10.954  -8.928 -16.353  1.00  0.00     0.131 A 
ATOM     69  C   UNL     1     -13.387  -9.973 -16.654  1.00  0.00     0.055 A 
ATOM     70  C   UNL     1     -11.430  -9.236 -17.656  1.00  0.00     0.041 A 
ATOM     71  F   UNL     1      -9.635  -8.998 -16.468  1.00  0.00    -0.206 F 
ATOM     72  C   UNL     1     -12.663  -9.760 -17.821  1.00  0.00     0.022 A 
BRANCH  69  73
ATOM     73  S   UNL     1     -14.900 -10.982 -17.051  1.00  0.00     0.124 S 
ATOM     74  O   UNL     1     -14.372 -12.342 -17.097  1.00  0.00    -0.237 OA
ATOM     75  O   UNL     1     -15.810 -10.670 -15.958  1.00  0.00    -0.237 OA
ATOM     76  O   UNL     1     -15.315 -10.460 -18.358  1.00  0.00    -0.744 OA
ENDBRANCH  69  73
ENDBRANCH  42  66
BRANCH  54  77
ATOM     77  C   UNL     1      -6.602 -10.257 -12.970  1.00  0.00     0.023 A 
ATOM     78  C   UNL     1      -6.591 -11.579 -13.425  1.00  0.00     0.031 A 
ATOM     79  C   UNL     1      -6.880 -10.055 -11.601  1.00  0.00     0.131 A 
ATOM     80  C   UNL     1      -6.813 -12.642 -12.534  1.00  0.00     0.055 A 
ATOM     81  C   UNL     1      -7.110 -11.112 -10.711  1.00  0.00     0.041 A 
ATOM     82  F   UNL     1      -6.949  -8.814 -11.104  1.00  0.00    -0.206 F 
ATOM     83  C   UNL     1      -7.078 -12.421 -11.181  1.00  0.00     0.022 A 
BRANCH  80  84
ATOM     84  S   UNL     1      -6.685 -14.324 -13.187  1.00  0.00     0.124 S 
ATOM     85  O   UNL     1      -7.788 -14.385 -14.139  1.00  0.00    -0.237 OA
ATOM     86  O   UNL     1      -5.345 -14.316 -13.771  1.00  0.00    -0.237 OA
ATOM     87  O   UNL     1      -6.832 -15.169 -12.003  1.00  0.00    -0.744 OA
ENDBRANCH  80  84
ENDBRANCH  54  77
ENDBRANCH  28  29
ENDBRANCH  21  23
ENDBRANCH  20  21
ENDBRANCH   1  20
TORSDOF 16
