REMARK SMILES CCCCCCCCNC(=O)Oc1cccc(-c2ccc([C@@H](C)C(=O)OCCOC(=O)c3ccc(-c4c5nc(c(-c6cc(S(=O)(=O)[O-])ccc6F)c6ccc([nH]6)c(-c6cc(S(=O)(=O)[O-])ccc6F)c6nc(c(-c7cc(S(=O)(=O)[O-])ccc7F)c7ccc4[nH]7)C=C6)C=C5)cc3)cc2F)c1
REMARK SMILES IDX 18 1 19 2 20 3 21 4 95 5 96 6 97 7 17 8 13 9 14 10 98 11
REMARK SMILES IDX 15 12 16 13 12 14 10 15 9 16 11 18 8 19 7 20 6 21 5 22 4 23
REMARK SMILES IDX 3 24 2 25 1 26 22 27 23 28 24 29 25 30 26 31 27 32 28 33
REMARK SMILES IDX 29 34 30 35 31 36 32 37 33 38 94 39 34 40 93 41 35 42 36 43
REMARK SMILES IDX 37 44 87 45 38 46 92 47 86 48 88 49 39 50 91 51 85 52 84 53
REMARK SMILES IDX 40 55 72 56 52 57 71 58 53 59 56 60 70 61 89 62 54 63 55 64
REMARK SMILES IDX 69 66 90 67 57 68 41 69 42 70 50 71 43 72 49 73 51 74 48 75
REMARK SMILES IDX 44 76 45 77 46 78 47 79 73 80 74 81 82 82 75 83 81 84 83 85
REMARK SMILES IDX 80 86 76 87 77 88 78 89 79 90 58 91 59 92 67 93 60 94 66 95
REMARK SMILES IDX 68 96 65 97 61 98 62 99 63 100 64 101
REMARK H PARENT 9 17 88 54 56 65
REMARK Flexibility Score: inf
ROOT
ATOM      1  C   UNL     1      -6.397  -4.504  10.539  1.00  0.00     0.018 A 
ATOM      2  C   UNL     1      -7.570  -4.199  11.250  1.00  0.00     0.012 A 
ATOM      3  C   UNL     1      -8.608  -5.129  11.376  1.00  0.00     0.005 A 
ATOM      4  C   UNL     1      -8.516  -6.394  10.780  1.00  0.00    -0.031 A 
ATOM      5  C   UNL     1      -7.359  -6.697  10.048  1.00  0.00     0.044 A 
ATOM      6  C   UNL     1      -6.325  -5.765   9.933  1.00  0.00     0.131 A 
ATOM      7  F   UNL     1      -5.226  -6.126   9.252  1.00  0.00    -0.206 F 
ENDROOT
BRANCH   1   8
ATOM      8  C   UNL     1      -5.286  -3.540  10.475  1.00  0.00    -0.012 A 
ATOM      9  C   UNL     1      -3.631  -2.270   9.238  1.00  0.00     0.133 A 
ATOM     10  C   UNL     1      -3.132  -1.714  10.413  1.00  0.00     0.047 A 
ATOM     11  C   UNL     1      -4.687  -3.184   9.256  1.00  0.00     0.056 A 
ATOM     12  C   UNL     1      -3.715  -2.057  11.628  1.00  0.00     0.004 A 
ATOM     13  C   UNL     1      -4.780  -2.961  11.656  1.00  0.00     0.009 A 
BRANCH   9  14
ATOM     14  O   UNL     1      -2.936  -1.976   8.056  1.00  0.00    -0.410 OA
BRANCH  14  15
ATOM     15  C   UNL     1      -3.653  -1.438   6.999  1.00  0.00     0.412 C 
ATOM     16  N   UNL     1      -2.884  -1.232   5.885  1.00  0.00    -0.321 N 
ATOM     17  H   UNL     1      -3.342  -0.873   5.091  1.00  0.00     0.167 HD
ATOM     18  O   UNL     1      -4.838  -1.127   7.011  1.00  0.00    -0.224 OA
BRANCH  16  19
ATOM     19  C   UNL     1      -1.463  -1.489   5.755  1.00  0.00     0.119 C 
BRANCH  19  20
ATOM     20  C   UNL     1      -1.147  -2.468   4.625  1.00  0.00     0.021 C 
BRANCH  20  21
ATOM     21  C   UNL     1      -1.545  -1.991   3.223  1.00  0.00     0.002 C 
BRANCH  21  22
ATOM     22  C   UNL     1      -0.947  -0.648   2.787  1.00  0.00     0.000 C 
BRANCH  22  23
ATOM     23  C   UNL     1       0.584  -0.599   2.741  1.00  0.00    -0.000 C 
BRANCH  23  24
ATOM     24  C   UNL     1       1.238  -1.554   1.736  1.00  0.00    -0.000 C 
BRANCH  24  25
ATOM     25  C   UNL     1       0.816  -1.363   0.277  1.00  0.00    -0.003 C 
ATOM     26  C   UNL     1       1.142   0.018  -0.274  1.00  0.00     0.004 C 
ENDBRANCH  24  25
ENDBRANCH  23  24
ENDBRANCH  22  23
ENDBRANCH  21  22
ENDBRANCH  20  21
ENDBRANCH  19  20
ENDBRANCH  16  19
ENDBRANCH  14  15
ENDBRANCH   9  14
ENDBRANCH   1   8
BRANCH   4  27
ATOM     27  C   UNL     1      -9.621  -7.430  10.922  1.00  0.00     0.126 C 
ATOM     28  C   UNL     1      -9.909  -7.772  12.382  1.00  0.00     0.025 C 
BRANCH  27  29
ATOM     29  C   UNL     1     -10.926  -7.123  10.195  1.00  0.00     0.313 C 
ATOM     30  O   UNL     1     -11.738  -7.999   9.914  1.00  0.00    -0.252 OA
BRANCH  29  31
ATOM     31  O   UNL     1     -11.109  -5.802   9.934  1.00  0.00    -0.462 OA
BRANCH  31  32
ATOM     32  C   UNL     1     -12.270  -5.444   9.160  1.00  0.00     0.274 C 
BRANCH  32  33
ATOM     33  C   UNL     1     -11.874  -5.096   7.725  1.00  0.00     0.275 C 
BRANCH  33  34
ATOM     34  O   UNL     1     -11.399  -6.261   7.028  1.00  0.00    -0.458 OA
BRANCH  34  35
ATOM     35  C   UNL     1     -10.053  -6.378   6.943  1.00  0.00     0.338 C 
ATOM     36  O   UNL     1      -9.212  -5.595   7.343  1.00  0.00    -0.246 OA
BRANCH  35  37
ATOM     37  C   UNL     1      -9.733  -7.691   6.368  1.00  0.00     0.060 A 
ATOM     38  C   UNL     1      -9.355  -8.721   7.231  1.00  0.00     0.016 A 
ATOM     39  C   UNL     1      -9.764  -7.894   4.989  1.00  0.00     0.016 A 
ATOM     40  C   UNL     1      -9.009  -9.968   6.722  1.00  0.00     0.010 A 
ATOM     41  C   UNL     1      -9.438  -9.154   4.479  1.00  0.00     0.010 A 
ATOM     42  C   UNL     1      -9.062 -10.200   5.342  1.00  0.00    -0.014 A 
BRANCH  42  43
ATOM     43  C   UNL     1      -8.738 -11.542   4.802  1.00  0.00     0.031 A 
ATOM     44  C   UNL     1      -7.473 -11.754   4.024  1.00  0.00     0.074 A 
ATOM     45  C   UNL     1      -9.595 -12.561   5.007  1.00  0.00     0.049 A 
ATOM     46  N   UNL     1      -7.081 -12.806   3.355  1.00  0.00    -0.248 NA
ATOM     47  C   UNL     1      -6.526 -10.630   3.996  1.00  0.00     0.031 C 
ATOM     48  C   UNL     1     -10.828 -12.479   5.793  1.00  0.00     0.029 A 
ATOM     49  N   UNL     1      -9.569 -13.859   4.564  1.00  0.00    -0.354 N 
ATOM     50  C   UNL     1      -5.849 -12.469   2.805  1.00  0.00     0.074 A 
ATOM     51  C   UNL     1      -5.571 -11.105   3.208  1.00  0.00     0.031 C 
ATOM     52  C   UNL     1     -11.443 -13.672   5.770  1.00  0.00     0.029 A 
ATOM     53  C   UNL     1     -10.686 -14.580   4.915  1.00  0.00     0.049 A 
ATOM     54  H   UNL     1      -8.822 -14.237   4.045  1.00  0.00     0.167 HD
ATOM     55  C   UNL     1      -5.034 -13.230   2.034  1.00  0.00     0.034 A 
ATOM     56  C   UNL     1     -11.082 -15.814   4.545  1.00  0.00     0.034 A 
ATOM     57  C   UNL     1      -5.337 -14.588   1.646  1.00  0.00     0.049 A 
ATOM     58  C   UNL     1     -10.208 -16.603   3.606  1.00  0.00     0.074 A 
ATOM     59  C   UNL     1      -4.571 -15.462   0.893  1.00  0.00     0.029 A 
ATOM     60  N   UNL     1      -6.508 -15.265   1.967  1.00  0.00    -0.354 N 
ATOM     61  N   UNL     1      -9.052 -16.269   3.079  1.00  0.00    -0.248 NA
ATOM     62  C   UNL     1     -10.696 -17.927   3.202  1.00  0.00     0.031 C 
ATOM     63  C   UNL     1      -5.307 -16.638   0.702  1.00  0.00     0.029 A 
ATOM     64  C   UNL     1      -6.504 -16.527   1.392  1.00  0.00     0.049 A 
ATOM     65  H   UNL     1      -7.234 -14.901   2.522  1.00  0.00     0.167 HD
ATOM     66  C   UNL     1      -8.671 -17.348   2.287  1.00  0.00     0.074 A 
ATOM     67  C   UNL     1      -9.709 -18.350   2.425  1.00  0.00     0.031 C 
ATOM     68  C   UNL     1      -7.564 -17.499   1.516  1.00  0.00     0.034 A 
BRANCH  55  69
ATOM     69  C   UNL     1      -3.774 -12.587   1.509  1.00  0.00     0.023 A 
ATOM     70  C   UNL     1      -2.728 -12.190   2.360  1.00  0.00     0.031 A 
ATOM     71  C   UNL     1      -3.629 -12.348   0.130  1.00  0.00     0.131 A 
ATOM     72  C   UNL     1      -1.611 -11.522   1.831  1.00  0.00     0.055 A 
ATOM     73  C   UNL     1      -2.486 -11.746  -0.398  1.00  0.00     0.041 A 
ATOM     74  F   UNL     1      -4.604 -12.687  -0.728  1.00  0.00    -0.206 F 
ATOM     75  C   UNL     1      -1.474 -11.317   0.456  1.00  0.00     0.022 A 
BRANCH  72  76
ATOM     76  S   UNL     1      -0.396 -10.813   2.976  1.00  0.00     0.124 S 
ATOM     77  O   UNL     1      -1.225  -9.900   3.760  1.00  0.00    -0.237 OA
ATOM     78  O   UNL     1       0.099 -11.991   3.679  1.00  0.00    -0.237 OA
ATOM     79  O   UNL     1       0.570 -10.162   2.093  1.00  0.00    -0.744 OA
ENDBRANCH  72  76
ENDBRANCH  55  69
BRANCH  56  80
ATOM     80  C   UNL     1     -12.401 -16.347   4.992  1.00  0.00     0.023 A 
ATOM     81  C   UNL     1     -12.487 -17.483   5.811  1.00  0.00     0.031 A 
ATOM     82  C   UNL     1     -13.600 -15.745   4.569  1.00  0.00     0.131 A 
ATOM     83  C   UNL     1     -13.746 -18.002   6.154  1.00  0.00     0.055 A 
ATOM     84  C   UNL     1     -14.849 -16.234   4.956  1.00  0.00     0.041 A 
ATOM     85  F   UNL     1     -13.574 -14.658   3.781  1.00  0.00    -0.206 F 
ATOM     86  C   UNL     1     -14.926 -17.377   5.744  1.00  0.00     0.022 A 
BRANCH  83  87
ATOM     87  S   UNL     1     -13.821 -19.558   7.084  1.00  0.00     0.124 S 
ATOM     88  O   UNL     1     -13.095 -20.467   6.204  1.00  0.00    -0.237 OA
ATOM     89  O   UNL     1     -13.151 -19.199   8.329  1.00  0.00    -0.237 OA
ATOM     90  O   UNL     1     -15.255 -19.815   7.202  1.00  0.00    -0.744 OA
ENDBRANCH  83  87
ENDBRANCH  56  80
BRANCH  68  91
ATOM     91  C   UNL     1      -7.427 -18.808   0.780  1.00  0.00     0.023 A 
ATOM     92  C   UNL     1      -8.278 -19.141  -0.288  1.00  0.00     0.031 A 
ATOM     93  C   UNL     1      -6.447 -19.739   1.165  1.00  0.00     0.131 A 
ATOM     94  C   UNL     1      -8.165 -20.397  -0.904  1.00  0.00     0.055 A 
ATOM     95  C   UNL     1      -6.305 -20.965   0.513  1.00  0.00     0.041 A 
ATOM     96  F   UNL     1      -5.612 -19.472   2.182  1.00  0.00    -0.206 F 
ATOM     97  C   UNL     1      -7.174 -21.304  -0.520  1.00  0.00     0.022 A 
BRANCH  94  98
ATOM     98  S   UNL     1      -9.383 -20.862  -2.165  1.00  0.00     0.124 S 
ATOM     99  O   UNL     1     -10.631 -20.826  -1.410  1.00  0.00    -0.237 OA
ATOM    100  O   UNL     1      -9.213 -19.814  -3.167  1.00  0.00    -0.237 OA
ATOM    101  O   UNL     1      -8.950 -22.194  -2.585  1.00  0.00    -0.744 OA
ENDBRANCH  94  98
ENDBRANCH  68  91
ENDBRANCH  42  43
ENDBRANCH  35  37
ENDBRANCH  34  35
ENDBRANCH  33  34
ENDBRANCH  32  33
ENDBRANCH  31  32
ENDBRANCH  29  31
ENDBRANCH  27  29
ENDBRANCH   4  27
TORSDOF 25
