REMARK SMILES C[C@H](Oc1ccc(/C=C2/SC(=S)N(c3ccc(F)c(Cl)c3)C2=O)cc1)C(=O)OCCOC(=O)c1ccc(-c2c3nc(c(-c4cc(S(=O)(=O)[O-])ccc4F)c4ccc([nH]4)c(-c4cc(S(=O)(=O)[O-])ccc4F)c4nc(c(-c5cc(S(=O)(=O)[O-])ccc5F)c5ccc2[nH]5)C=C4)C=C3)cc1
REMARK SMILES IDX 29 1 28 2 26 3 27 4 2 5 1 6 3 7 4 8 5 9 25 10 6 11 24 12
REMARK SMILES IDX 7 13 8 14 9 15 10 16 22 17 11 18 13 19 23 20 12 21 14 22
REMARK SMILES IDX 15 23 21 24 16 25 19 26 17 27 20 28 18 29 30 30 31 31 32 32
REMARK SMILES IDX 33 33 34 34 35 35 96 36 36 37 95 38 37 39 38 40 39 41 89 42
REMARK SMILES IDX 40 43 94 44 88 45 90 46 41 47 93 48 87 49 86 50 42 52 74 53
REMARK SMILES IDX 54 54 73 55 55 56 58 57 72 58 91 59 56 60 57 61 71 63 92 64
REMARK SMILES IDX 59 65 43 66 44 67 52 68 45 69 51 70 53 71 50 72 46 73 47 74
REMARK SMILES IDX 48 75 49 76 75 77 76 78 84 79 77 80 83 81 85 82 82 83 78 84
REMARK SMILES IDX 79 85 80 86 81 87 60 88 61 89 69 90 62 91 68 92 70 93 67 94
REMARK SMILES IDX 63 95 64 96 65 97 66 98
REMARK H PARENT 90 51 58 62
REMARK Flexibility Score: inf
ROOT
ATOM      1  C   UNL     1      -3.012   1.105   0.640  1.00  0.00     0.274 C 
ENDROOT
BRANCH   1   2
ATOM      2  O   UNL     1      -1.581   1.218   0.543  1.00  0.00    -0.459 OA
BRANCH   2   3
ATOM      3  C   UNL     1      -0.882   1.077   1.706  1.00  0.00     0.347 C 
ATOM      4  O   UNL     1      -1.395   0.907   2.808  1.00  0.00    -0.248 OA
BRANCH   3   5
ATOM      5  C   UNL     1       0.627   1.246   1.507  1.00  0.00     0.279 C 
ATOM      6  C   UNL     1       0.924   2.744   1.554  1.00  0.00     0.066 C 
BRANCH   5   7
ATOM      7  O   UNL     1       1.011   0.639   0.275  1.00  0.00    -0.479 OA
BRANCH   7   8
ATOM      8  C   UNL     1       2.331   0.564  -0.062  1.00  0.00     0.120 A 
ATOM      9  C   UNL     1       3.416   0.810   0.777  1.00  0.00     0.047 A 
ATOM     10  C   UNL     1       2.566   0.224  -1.395  1.00  0.00     0.047 A 
ATOM     11  C   UNL     1       4.716   0.839   0.257  1.00  0.00     0.012 A 
ATOM     12  C   UNL     1       3.862   0.230  -1.912  1.00  0.00     0.012 A 
ATOM     13  C   UNL     1       4.940   0.600  -1.102  1.00  0.00    -0.024 A 
BRANCH  13  14
ATOM     14  C   UNL     1       6.285   0.760  -1.663  1.00  0.00     0.029 C 
ATOM     15  C   UNL     1       6.622   1.653  -2.608  1.00  0.00     0.081 C 
ATOM     16  S   UNL     1       8.196   1.727  -3.300  1.00  0.00    -0.054 SA
ATOM     17  C   UNL     1       5.739   2.671  -3.256  1.00  0.00     0.270 C 
ATOM     18  C   UNL     1       7.718   2.909  -4.518  1.00  0.00     0.152 C 
ATOM     19  N   UNL     1       6.374   3.224  -4.369  1.00  0.00    -0.261 N 
ATOM     20  O   UNL     1       4.619   2.952  -2.852  1.00  0.00    -0.268 OA
ATOM     21  S   UNL     1       8.854   3.557  -5.565  1.00  0.00    -0.051 S 
BRANCH  19  22
ATOM     22  C   UNL     1       5.626   4.054  -5.267  1.00  0.00     0.052 A 
ATOM     23  C   UNL     1       4.732   5.023  -4.778  1.00  0.00     0.030 A 
ATOM     24  C   UNL     1       5.697   3.855  -6.655  1.00  0.00     0.050 A 
ATOM     25  C   UNL     1       3.946   5.784  -5.648  1.00  0.00     0.043 A 
ATOM     26  C   UNL     1       4.902   4.610  -7.524  1.00  0.00     0.078 A 
ATOM     27  C   UNL     1       4.034   5.572  -7.017  1.00  0.00     0.141 A 
ATOM     28  Cl  UNL     1       4.989   4.316  -9.219  1.00  0.00    -0.081 Cl
ATOM     29  F   UNL     1       3.260   6.300  -7.835  1.00  0.00    -0.205 F 
ENDBRANCH  19  22
ENDBRANCH  13  14
ENDBRANCH   7   8
ENDBRANCH   5   7
ENDBRANCH   3   5
ENDBRANCH   2   3
ENDBRANCH   1   2
BRANCH   1  30
ATOM     30  C   UNL     1      -3.510  -0.275   0.206  1.00  0.00     0.275 C 
BRANCH  30  31
ATOM     31  O   UNL     1      -3.013  -1.312   1.070  1.00  0.00    -0.458 OA
BRANCH  31  32
ATOM     32  C   UNL     1      -1.886  -1.922   0.625  1.00  0.00     0.338 C 
ATOM     33  O   UNL     1      -1.323  -1.732  -0.439  1.00  0.00    -0.246 OA
BRANCH  32  34
ATOM     34  C   UNL     1      -1.332  -2.780   1.687  1.00  0.00     0.060 A 
ATOM     35  C   UNL     1      -0.009  -2.555   2.076  1.00  0.00     0.016 A 
ATOM     36  C   UNL     1      -2.068  -3.830   2.244  1.00  0.00     0.016 A 
ATOM     37  C   UNL     1       0.587  -3.384   3.023  1.00  0.00     0.010 A 
ATOM     38  C   UNL     1      -1.463  -4.668   3.189  1.00  0.00     0.010 A 
ATOM     39  C   UNL     1      -0.128  -4.457   3.574  1.00  0.00    -0.014 A 
BRANCH  39  40
ATOM     40  C   UNL     1       0.572  -5.381   4.501  1.00  0.00     0.031 A 
ATOM     41  C   UNL     1       1.080  -6.704   3.998  1.00  0.00     0.074 A 
ATOM     42  C   UNL     1       0.816  -4.998   5.769  1.00  0.00     0.049 A 
ATOM     43  N   UNL     1       1.761  -7.625   4.630  1.00  0.00    -0.248 NA
ATOM     44  C   UNL     1       0.780  -7.030   2.596  1.00  0.00     0.031 C 
ATOM     45  C   UNL     1       0.390  -3.729   6.359  1.00  0.00     0.029 A 
ATOM     46  N   UNL     1       1.491  -5.630   6.782  1.00  0.00    -0.354 N 
ATOM     47  C   UNL     1       1.984  -8.637   3.703  1.00  0.00     0.074 A 
ATOM     48  C   UNL     1       1.324  -8.233   2.478  1.00  0.00     0.031 C 
ATOM     49  C   UNL     1       0.822  -3.672   7.630  1.00  0.00     0.029 A 
ATOM     50  C   UNL     1       1.529  -4.909   7.953  1.00  0.00     0.049 A 
ATOM     51  H   UNL     1       1.909  -6.515   6.681  1.00  0.00     0.167 HD
ATOM     52  C   UNL     1       2.686  -9.788   3.854  1.00  0.00     0.034 A 
ATOM     53  C   UNL     1       2.063  -5.216   9.152  1.00  0.00     0.034 A 
ATOM     54  C   UNL     1       3.321 -10.190   5.088  1.00  0.00     0.049 A 
ATOM     55  C   UNL     1       2.797  -6.525   9.309  1.00  0.00     0.074 A 
ATOM     56  C   UNL     1       4.039 -11.343   5.357  1.00  0.00     0.029 A 
ATOM     57  N   UNL     1       3.309  -9.451   6.266  1.00  0.00    -0.354 N 
ATOM     58  N   UNL     1       3.000  -7.472   8.421  1.00  0.00    -0.248 NA
ATOM     59  C   UNL     1       3.386  -6.797  10.625  1.00  0.00     0.031 C 
ATOM     60  C   UNL     1       4.411 -11.328   6.707  1.00  0.00     0.029 A 
ATOM     61  C   UNL     1       3.987 -10.133   7.266  1.00  0.00     0.049 A 
ATOM     62  H   UNL     1       2.881  -8.572   6.375  1.00  0.00     0.167 HD
ATOM     63  C   UNL     1       3.752  -8.446   9.072  1.00  0.00     0.074 A 
ATOM     64  C   UNL     1       3.995  -7.954  10.412  1.00  0.00     0.031 C 
ATOM     65  C   UNL     1       4.197  -9.643   8.608  1.00  0.00     0.034 A 
BRANCH  52  66
ATOM     66  C   UNL     1       2.761 -10.711   2.662  1.00  0.00     0.023 A 
ATOM     67  C   UNL     1       3.436 -10.342   1.484  1.00  0.00     0.031 A 
ATOM     68  C   UNL     1       2.130 -11.967   2.693  1.00  0.00     0.131 A 
ATOM     69  C   UNL     1       3.410 -11.190   0.367  1.00  0.00     0.055 A 
ATOM     70  C   UNL     1       2.168 -12.838   1.601  1.00  0.00     0.041 A 
ATOM     71  F   UNL     1       1.453 -12.366   3.782  1.00  0.00    -0.206 F 
ATOM     72  C   UNL     1       2.801 -12.446   0.425  1.00  0.00     0.022 A 
BRANCH  69  73
ATOM     73  S   UNL     1       4.081 -10.580  -1.205  1.00  0.00     0.124 S 
ATOM     74  O   UNL     1       3.237  -9.414  -1.453  1.00  0.00    -0.237 OA
ATOM     75  O   UNL     1       5.472 -10.302  -0.869  1.00  0.00    -0.237 OA
ATOM     76  O   UNL     1       3.873 -11.698  -2.123  1.00  0.00    -0.744 OA
ENDBRANCH  69  73
ENDBRANCH  52  66
BRANCH  53  77
ATOM     77  C   UNL     1       1.896  -4.294  10.311  1.00  0.00     0.023 A 
ATOM     78  C   UNL     1       2.999  -3.677  10.923  1.00  0.00     0.031 A 
ATOM     79  C   UNL     1       0.622  -4.062  10.860  1.00  0.00     0.131 A 
ATOM     80  C   UNL     1       2.813  -2.897  12.075  1.00  0.00     0.055 A 
ATOM     81  C   UNL     1       0.436  -3.244  11.974  1.00  0.00     0.041 A 
ATOM     82  F   UNL     1      -0.466  -4.628  10.312  1.00  0.00    -0.206 F 
ATOM     83  C   UNL     1       1.538  -2.667  12.598  1.00  0.00     0.022 A 
BRANCH  80  84
ATOM     84  S   UNL     1       4.274  -2.258  12.939  1.00  0.00     0.124 S 
ATOM     85  O   UNL     1       5.022  -3.481  13.209  1.00  0.00    -0.237 OA
ATOM     86  O   UNL     1       4.848  -1.363  11.938  1.00  0.00    -0.237 OA
ATOM     87  O   UNL     1       3.713  -1.596  14.114  1.00  0.00    -0.744 OA
ENDBRANCH  80  84
ENDBRANCH  53  77
BRANCH  65  88
ATOM     88  C   UNL     1       5.007 -10.481   9.569  1.00  0.00     0.023 A 
ATOM     89  C   UNL     1       4.435 -11.020  10.736  1.00  0.00     0.031 A 
ATOM     90  C   UNL     1       6.376 -10.702   9.341  1.00  0.00     0.131 A 
ATOM     91  C   UNL     1       5.243 -11.689  11.667  1.00  0.00     0.055 A 
ATOM     92  C   UNL     1       7.163 -11.424  10.242  1.00  0.00     0.041 A 
ATOM     93  F   UNL     1       6.976 -10.211   8.245  1.00  0.00    -0.206 F 
ATOM     94  C   UNL     1       6.601 -11.906  11.421  1.00  0.00     0.022 A 
BRANCH  91  95
ATOM     95  S   UNL     1       4.521 -12.167  13.261  1.00  0.00     0.124 S 
ATOM     96  O   UNL     1       4.011 -10.894  13.759  1.00  0.00    -0.237 OA
ATOM     97  O   UNL     1       3.513 -13.146  12.864  1.00  0.00    -0.237 OA
ATOM     98  O   UNL     1       5.656 -12.713  14.002  1.00  0.00    -0.744 OA
ENDBRANCH  91  95
ENDBRANCH  65  88
ENDBRANCH  39  40
ENDBRANCH  32  34
ENDBRANCH  31  32
ENDBRANCH  30  31
ENDBRANCH   1  30
TORSDOF 18
