REMARK SMILES [NH3+][C@H]1C=C[C@@H](C(=O)NC2(CC(=O)OCCOC(=O)c3ccc(-c4c5nc(c(-c6cc(S(=O)(=O)[O-])ccc6F)c6ccc([nH]6)c(-c6cc(S(=O)(=O)[O-])ccc6F)c6nc(c(-c7cc(S(=O)(=O)[O-])ccc7F)c7ccc4[nH]7)C=C6)C=C5)cc3)CCC2)C1
REMARK SMILES IDX 14 1 13 2 11 3 12 4 10 5 9 6 82 7 84 8 83 9 8 10 6 11 7 12
REMARK SMILES IDX 5 14 2 15 3 16 85 17 4 18 1 19 15 23 16 24 17 25 18 26 19 27
REMARK SMILES IDX 20 28 81 29 21 30 80 31 22 32 23 33 24 34 74 35 25 36 79 37
REMARK SMILES IDX 73 38 75 39 26 40 78 41 72 42 71 43 27 45 59 46 39 47 58 48
REMARK SMILES IDX 40 49 43 50 57 51 76 52 41 53 42 54 56 56 77 57 44 58 28 59
REMARK SMILES IDX 29 60 37 61 30 62 36 63 38 64 35 65 31 66 32 67 33 68 34 69
REMARK SMILES IDX 60 70 61 71 69 72 62 73 68 74 70 75 67 76 63 77 64 78 65 79
REMARK SMILES IDX 66 80 45 81 46 82 54 83 47 84 53 85 55 86 52 87 48 88 49 89
REMARK SMILES IDX 50 90 51 91
REMARK H PARENT 8 13 1 20 1 21 1 22 75 44 43 55
REMARK Flexibility Score: inf
ROOT
ATOM      1  C   UNL     1       5.118   6.715   0.191  1.00  0.00     0.274 C 
ENDROOT
BRANCH   1   2
ATOM      2  O   UNL     1       4.714   5.331   0.187  1.00  0.00    -0.462 OA
BRANCH   2   3
ATOM      3  C   UNL     1       3.398   5.094   0.415  1.00  0.00     0.308 C 
ATOM      4  O   UNL     1       2.556   5.967   0.593  1.00  0.00    -0.252 OA
BRANCH   3   5
ATOM      5  C   UNL     1       3.081   3.633   0.576  1.00  0.00     0.151 C 
BRANCH   5   6
ATOM      6  C   UNL     1       3.731   2.617  -0.368  1.00  0.00     0.051 C 
ATOM      7  C   UNL     1       3.543   1.125   0.048  1.00  0.00     0.029 C 
ATOM      8  C   UNL     1       5.261   2.361  -0.083  1.00  0.00     0.029 C 
ATOM      9  C   UNL     1       4.844   1.222   0.861  1.00  0.00     0.005 C 
BRANCH   6  10
ATOM     10  N   UNL     1       3.510   2.898  -1.806  1.00  0.00    -0.350 N 
ATOM     11  C   UNL     1       2.556   2.584  -2.730  1.00  0.00     0.227 C 
ATOM     12  O   UNL     1       2.862   2.812  -3.909  1.00  0.00    -0.274 OA
ATOM     13  H   UNL     1       4.230   3.449  -2.190  1.00  0.00     0.164 HD
BRANCH  11  14
ATOM     14  C   UNL     1       1.173   1.988  -2.446  1.00  0.00     0.107 C 
ATOM     15  C   UNL     1       0.058   0.124  -1.317  1.00  0.00     0.205 C 
ATOM     16  C   UNL     1      -0.126   1.407  -0.583  1.00  0.00     0.033 C 
ATOM     17  C   UNL     1       1.135   0.458  -2.363  1.00  0.00     0.087 C 
ATOM     18  C   UNL     1       0.464   2.430  -1.210  1.00  0.00    -0.012 C 
BRANCH  15  19
ATOM     19  N   UNL     1       0.441  -0.951  -0.416  1.00  0.00    -0.352 N 
ATOM     20  H   UNL     1      -0.314  -1.121   0.249  1.00  0.00     0.345 HD
ATOM     21  H   UNL     1       1.286  -0.686   0.089  1.00  0.00     0.345 HD
ATOM     22  H   UNL     1       0.617  -1.799  -0.955  1.00  0.00     0.345 HD
ENDBRANCH  15  19
ENDBRANCH  11  14
ENDBRANCH   6  10
ENDBRANCH   5   6
ENDBRANCH   3   5
ENDBRANCH   2   3
ENDBRANCH   1   2
BRANCH   1  23
ATOM     23  C   UNL     1       5.346   7.244  -1.223  1.00  0.00     0.275 C 
BRANCH  23  24
ATOM     24  O   UNL     1       4.125   7.249  -1.982  1.00  0.00    -0.458 OA
BRANCH  24  25
ATOM     25  C   UNL     1       3.972   6.195  -2.818  1.00  0.00     0.338 C 
ATOM     26  O   UNL     1       4.759   5.280  -2.992  1.00  0.00    -0.246 OA
BRANCH  25  27
ATOM     27  C   UNL     1       2.641   6.264  -3.443  1.00  0.00     0.060 A 
ATOM     28  C   UNL     1       1.555   5.721  -2.759  1.00  0.00     0.016 A 
ATOM     29  C   UNL     1       2.485   6.749  -4.741  1.00  0.00     0.016 A 
ATOM     30  C   UNL     1       0.324   5.587  -3.399  1.00  0.00     0.010 A 
ATOM     31  C   UNL     1       1.226   6.681  -5.353  1.00  0.00     0.010 A 
ATOM     32  C   UNL     1       0.138   6.072  -4.701  1.00  0.00    -0.014 A 
BRANCH  32  33
ATOM     33  C   UNL     1      -1.175   5.901  -5.391  1.00  0.00     0.031 A 
ATOM     34  C   UNL     1      -1.260   5.106  -6.671  1.00  0.00     0.074 A 
ATOM     35  C   UNL     1      -2.300   6.433  -4.871  1.00  0.00     0.049 A 
ATOM     36  N   UNL     1      -2.251   5.008  -7.521  1.00  0.00    -0.248 NA
ATOM     37  C   UNL     1      -0.069   4.328  -7.044  1.00  0.00     0.031 C 
ATOM     38  C   UNL     1      -2.385   7.166  -3.606  1.00  0.00     0.029 A 
ATOM     39  N   UNL     1      -3.593   6.436  -5.338  1.00  0.00    -0.354 N 
ATOM     40  C   UNL     1      -1.791   4.196  -8.553  1.00  0.00     0.074 A 
ATOM     41  C   UNL     1      -0.427   3.836  -8.223  1.00  0.00     0.031 C 
ATOM     42  C   UNL     1      -3.661   7.519  -3.385  1.00  0.00     0.029 A 
ATOM     43  C   UNL     1      -4.472   7.123  -4.531  1.00  0.00     0.049 A 
ATOM     44  H   UNL     1      -3.864   5.990  -6.173  1.00  0.00     0.167 HD
ATOM     45  C   UNL     1      -2.445   3.791  -9.671  1.00  0.00     0.034 A 
ATOM     46  C   UNL     1      -5.769   7.443  -4.710  1.00  0.00     0.034 A 
ATOM     47  C   UNL     1      -3.818   4.122  -9.973  1.00  0.00     0.049 A 
ATOM     48  C   UNL     1      -6.456   7.032  -5.988  1.00  0.00     0.074 A 
ATOM     49  C   UNL     1      -4.564   3.779 -11.089  1.00  0.00     0.029 A 
ATOM     50  N   UNL     1      -4.660   4.854  -9.147  1.00  0.00    -0.354 N 
ATOM     51  N   UNL     1      -5.975   6.353  -7.003  1.00  0.00    -0.248 NA
ATOM     52  C   UNL     1      -7.857   7.445  -6.149  1.00  0.00     0.031 C 
ATOM     53  C   UNL     1      -5.841   4.339 -10.957  1.00  0.00     0.029 A 
ATOM     54  C   UNL     1      -5.911   4.981  -9.732  1.00  0.00     0.049 A 
ATOM     55  H   UNL     1      -4.406   5.229  -8.273  1.00  0.00     0.167 HD
ATOM     56  C   UNL     1      -7.022   6.244  -7.913  1.00  0.00     0.074 A 
ATOM     57  C   UNL     1      -8.164   6.908  -7.320  1.00  0.00     0.031 C 
ATOM     58  C   UNL     1      -7.039   5.652  -9.134  1.00  0.00     0.034 A 
BRANCH  45  59
ATOM     59  C   UNL     1      -1.664   2.990 -10.683  1.00  0.00     0.023 A 
ATOM     60  C   UNL     1      -1.235   1.677 -10.425  1.00  0.00     0.031 A 
ATOM     61  C   UNL     1      -1.347   3.557 -11.931  1.00  0.00     0.131 A 
ATOM     62  C   UNL     1      -0.471   0.992 -11.383  1.00  0.00     0.055 A 
ATOM     63  C   UNL     1      -0.642   2.847 -12.905  1.00  0.00     0.041 A 
ATOM     64  F   UNL     1      -1.717   4.814 -12.225  1.00  0.00    -0.206 F 
ATOM     65  C   UNL     1      -0.192   1.560 -12.630  1.00  0.00     0.022 A 
BRANCH  62  66
ATOM     66  S   UNL     1       0.233  -0.621 -10.947  1.00  0.00     0.124 S 
ATOM     67  O   UNL     1       1.112  -0.270  -9.835  1.00  0.00    -0.237 OA
ATOM     68  O   UNL     1      -0.949  -1.402 -10.604  1.00  0.00    -0.237 OA
ATOM     69  O   UNL     1       0.921  -1.038 -12.168  1.00  0.00    -0.744 OA
ENDBRANCH  62  66
ENDBRANCH  45  59
BRANCH  46  70
ATOM     70  C   UNL     1      -6.496   8.263  -3.698  1.00  0.00     0.023 A 
ATOM     71  C   UNL     1      -7.615   7.753  -3.021  1.00  0.00     0.031 A 
ATOM     72  C   UNL     1      -6.124   9.596  -3.446  1.00  0.00     0.131 A 
ATOM     73  C   UNL     1      -8.351   8.584  -2.162  1.00  0.00     0.055 A 
ATOM     74  C   UNL     1      -6.824  10.400  -2.546  1.00  0.00     0.041 A 
ATOM     75  F   UNL     1      -5.066  10.136  -4.071  1.00  0.00    -0.206 F 
ATOM     76  C   UNL     1      -7.954   9.899  -1.909  1.00  0.00     0.022 A 
BRANCH  73  77
ATOM     77  S   UNL     1      -9.901   7.954  -1.461  1.00  0.00     0.124 S 
ATOM     78  O   UNL     1     -10.636   7.569  -2.660  1.00  0.00    -0.237 OA
ATOM     79  O   UNL     1      -9.429   6.860  -0.619  1.00  0.00    -0.237 OA
ATOM     80  O   UNL     1     -10.441   9.105  -0.741  1.00  0.00    -0.744 OA
ENDBRANCH  73  77
ENDBRANCH  46  70
BRANCH  58  81
ATOM     81  C   UNL     1      -8.351   5.658  -9.874  1.00  0.00     0.023 A 
ATOM     82  C   UNL     1      -8.892   6.841 -10.407  1.00  0.00     0.031 A 
ATOM     83  C   UNL     1      -9.085   4.468 -10.019  1.00  0.00     0.131 A 
ATOM     84  C   UNL     1     -10.157   6.818 -11.015  1.00  0.00     0.055 A 
ATOM     85  C   UNL     1     -10.320   4.442 -10.667  1.00  0.00     0.041 A 
ATOM     86  F   UNL     1      -8.613   3.311  -9.527  1.00  0.00    -0.206 F 
ATOM     87  C   UNL     1     -10.868   5.624 -11.158  1.00  0.00     0.022 A 
BRANCH  84  88
ATOM     88  S   UNL     1     -10.899   8.386 -11.547  1.00  0.00     0.124 S 
ATOM     89  O   UNL     1     -10.955   9.137 -10.297  1.00  0.00    -0.237 OA
ATOM     90  O   UNL     1      -9.939   8.866 -12.536  1.00  0.00    -0.237 OA
ATOM     91  O   UNL     1     -12.197   7.986 -12.089  1.00  0.00    -0.744 OA
ENDBRANCH  84  88
ENDBRANCH  58  81
ENDBRANCH  32  33
ENDBRANCH  25  27
ENDBRANCH  24  25
ENDBRANCH  23  24
ENDBRANCH   1  23
TORSDOF 18
