REMARK SMILES O=C(OCCOC(=O)[C@@H]1CCCC[C@@H]1C(=O)Nc1cccc(Br)c1)c1ccc(-c2c3nc(c(-c4cc(S(=O)(=O)[O-])ccc4F)c4ccc([nH]4)c(-c4cc(S(=O)(=O)[O-])ccc4F)c4nc(c(-c5cc(S(=O)(=O)[O-])ccc5F)c5ccc2[nH]5)C=C4)C=C3)cc1
REMARK SMILES IDX 4 1 3 2 2 3 1 4 25 5 26 6 87 7 27 8 86 9 28 10 29 11 30 12
REMARK SMILES IDX 80 13 31 14 85 15 79 16 81 17 32 18 84 19 78 20 77 21 33 23
REMARK SMILES IDX 65 24 45 25 64 26 46 27 49 28 63 29 82 30 47 31 48 32 62 34
REMARK SMILES IDX 83 35 50 36 34 37 35 38 43 39 36 40 42 41 44 42 41 43 37 44
REMARK SMILES IDX 38 45 39 46 40 47 66 48 67 49 75 50 68 51 74 52 76 53 73 54
REMARK SMILES IDX 69 55 70 56 71 57 72 58 51 59 52 60 60 61 53 62 59 63 61 64
REMARK SMILES IDX 58 65 54 66 55 67 56 68 57 69 5 70 6 71 7 72 8 73 9 74 10 75
REMARK SMILES IDX 14 76 11 77 13 78 12 79 15 80 16 81 17 82 18 84 19 85 24 86
REMARK SMILES IDX 20 87 22 88 21 89 23 90
REMARK H PARENT 81 22 49 33 17 83
REMARK Flexibility Score: inf
ROOT
ATOM      1  C   UNL     1       4.322  -1.470   0.429  1.00  0.00     0.275 C 
ENDROOT
BRANCH   1   2
ATOM      2  O   UNL     1       3.463  -0.497   1.036  1.00  0.00    -0.458 OA
BRANCH   2   3
ATOM      3  C   UNL     1       3.789   0.811   1.207  1.00  0.00     0.338 C 
ATOM      4  O   UNL     1       3.399   1.414   2.203  1.00  0.00    -0.246 OA
BRANCH   3   5
ATOM      5  C   UNL     1       4.377   1.583   0.070  1.00  0.00     0.060 A 
ATOM      6  C   UNL     1       5.499   1.212  -0.685  1.00  0.00     0.016 A 
ATOM      7  C   UNL     1       3.741   2.789  -0.239  1.00  0.00     0.016 A 
ATOM      8  C   UNL     1       5.903   1.955  -1.806  1.00  0.00     0.010 A 
ATOM      9  C   UNL     1       4.135   3.527  -1.359  1.00  0.00     0.010 A 
ATOM     10  C   UNL     1       5.205   3.104  -2.174  1.00  0.00    -0.014 A 
BRANCH  10  11
ATOM     11  C   UNL     1       5.640   3.981  -3.296  1.00  0.00     0.031 A 
ATOM     12  C   UNL     1       6.094   5.362  -2.923  1.00  0.00     0.074 A 
ATOM     13  C   UNL     1       5.520   3.636  -4.595  1.00  0.00     0.049 A 
ATOM     14  N   UNL     1       6.281   6.415  -3.671  1.00  0.00    -0.248 NA
ATOM     15  C   UNL     1       6.291   5.590  -1.484  1.00  0.00     0.031 C 
ATOM     16  C   UNL     1       5.092   2.336  -5.110  1.00  0.00     0.029 A 
ATOM     17  N   UNL     1       5.689   4.393  -5.733  1.00  0.00    -0.354 N 
ATOM     18  C   UNL     1       6.595   7.434  -2.780  1.00  0.00     0.074 A 
ATOM     19  C   UNL     1       6.408   6.903  -1.449  1.00  0.00     0.031 C 
ATOM     20  C   UNL     1       4.935   2.413  -6.445  1.00  0.00     0.029 A 
ATOM     21  C   UNL     1       5.282   3.760  -6.888  1.00  0.00     0.049 A 
ATOM     22  H   UNL     1       6.067   5.302  -5.723  1.00  0.00     0.167 HD
ATOM     23  C   UNL     1       7.077   8.674  -3.038  1.00  0.00     0.034 A 
ATOM     24  C   UNL     1       5.190   4.220  -8.153  1.00  0.00     0.034 A 
ATOM     25  C   UNL     1       7.273   9.174  -4.370  1.00  0.00     0.049 A 
ATOM     26  C   UNL     1       5.672   5.620  -8.448  1.00  0.00     0.074 A 
ATOM     27  C   UNL     1       7.798  10.385  -4.779  1.00  0.00     0.029 A 
ATOM     28  N   UNL     1       6.937   8.471  -5.521  1.00  0.00    -0.354 N 
ATOM     29  N   UNL     1       6.066   6.549  -7.607  1.00  0.00    -0.248 NA
ATOM     30  C   UNL     1       5.746   6.018  -9.861  1.00  0.00     0.031 C 
ATOM     31  C   UNL     1       7.746  10.428  -6.178  1.00  0.00     0.029 A 
ATOM     32  C   UNL     1       7.239   9.222  -6.641  1.00  0.00     0.049 A 
ATOM     33  H   UNL     1       6.542   7.569  -5.536  1.00  0.00     0.167 HD
ATOM     34  C   UNL     1       6.501   7.613  -8.392  1.00  0.00     0.074 A 
ATOM     35  C   UNL     1       6.291   7.225  -9.772  1.00  0.00     0.031 C 
ATOM     36  C   UNL     1       7.051   8.792  -8.007  1.00  0.00     0.034 A 
BRANCH  23  37
ATOM     37  C   UNL     1       7.411   9.516  -1.829  1.00  0.00     0.023 A 
ATOM     38  C   UNL     1       8.324   9.046  -0.864  1.00  0.00     0.031 A 
ATOM     39  C   UNL     1       6.687  10.681  -1.537  1.00  0.00     0.131 A 
ATOM     40  C   UNL     1       8.344   9.620   0.413  1.00  0.00     0.055 A 
ATOM     41  C   UNL     1       6.811  11.327  -0.303  1.00  0.00     0.041 A 
ATOM     42  F   UNL     1       5.799  11.175  -2.413  1.00  0.00    -0.206 F 
ATOM     43  C   UNL     1       7.612  10.774   0.695  1.00  0.00     0.022 A 
BRANCH  40  44
ATOM     44  S   UNL     1       9.110   8.671   1.761  1.00  0.00     0.124 S 
ATOM     45  O   UNL     1       8.327   7.438   1.734  1.00  0.00    -0.237 OA
ATOM     46  O   UNL     1      10.496   8.554   1.317  1.00  0.00    -0.237 OA
ATOM     47  O   UNL     1       8.898   9.511   2.935  1.00  0.00    -0.744 OA
ENDBRANCH  40  44
ENDBRANCH  23  37
BRANCH  24  48
ATOM     48  C   UNL     1       4.641   3.361  -9.242  1.00  0.00     0.023 A 
ATOM     49  C   UNL     1       5.471   2.827 -10.242  1.00  0.00     0.031 A 
ATOM     50  C   UNL     1       3.262   3.098  -9.322  1.00  0.00     0.131 A 
ATOM     51  C   UNL     1       4.910   2.097 -11.304  1.00  0.00     0.055 A 
ATOM     52  C   UNL     1       2.712   2.345 -10.364  1.00  0.00     0.041 A 
ATOM     53  F   UNL     1       2.426   3.571  -8.385  1.00  0.00    -0.206 F 
ATOM     54  C   UNL     1       3.537   1.849 -11.369  1.00  0.00     0.022 A 
BRANCH  51  55
ATOM     55  S   UNL     1       5.999   1.514 -12.634  1.00  0.00     0.124 S 
ATOM     56  O   UNL     1       6.530   2.769 -13.155  1.00  0.00    -0.237 OA
ATOM     57  O   UNL     1       6.942   0.672 -11.904  1.00  0.00    -0.237 OA
ATOM     58  O   UNL     1       5.093   0.798 -13.529  1.00  0.00    -0.744 OA
ENDBRANCH  51  55
ENDBRANCH  24  48
BRANCH  36  59
ATOM     59  C   UNL     1       7.570   9.705  -9.084  1.00  0.00     0.023 A 
ATOM     60  C   UNL     1       6.714  10.457  -9.903  1.00  0.00     0.031 A 
ATOM     61  C   UNL     1       8.959   9.874  -9.232  1.00  0.00     0.131 A 
ATOM     62  C   UNL     1       7.260  11.340 -10.847  1.00  0.00     0.055 A 
ATOM     63  C   UNL     1       9.494  10.784 -10.141  1.00  0.00     0.041 A 
ATOM     64  F   UNL     1       9.816   9.175  -8.469  1.00  0.00    -0.206 F 
ATOM     65  C   UNL     1       8.642  11.523 -10.956  1.00  0.00     0.022 A 
BRANCH  62  66
ATOM     66  S   UNL     1       6.138  12.246 -11.947  1.00  0.00     0.124 S 
ATOM     67  O   UNL     1       5.537  11.165 -12.722  1.00  0.00    -0.237 OA
ATOM     68  O   UNL     1       5.254  12.925 -11.006  1.00  0.00    -0.237 OA
ATOM     69  O   UNL     1       7.032  13.125 -12.699  1.00  0.00    -0.744 OA
ENDBRANCH  62  66
ENDBRANCH  36  59
ENDBRANCH  10  11
ENDBRANCH   3   5
ENDBRANCH   2   3
ENDBRANCH   1   2
BRANCH   1  70
ATOM     70  C   UNL     1       3.856  -1.904  -0.959  1.00  0.00     0.274 C 
BRANCH  70  71
ATOM     71  O   UNL     1       3.348  -0.824  -1.763  1.00  0.00    -0.462 OA
BRANCH  71  72
ATOM     72  C   UNL     1       2.018  -0.880  -2.056  1.00  0.00     0.309 C 
ATOM     73  O   UNL     1       1.267  -1.770  -1.667  1.00  0.00    -0.252 OA
BRANCH  72  74
ATOM     74  C   UNL     1       1.579   0.183  -3.066  1.00  0.00     0.111 C 
ATOM     75  C   UNL     1       2.313   1.501  -2.942  1.00  0.00     0.016 C 
ATOM     76  C   UNL     1       0.062   0.398  -2.991  1.00  0.00     0.093 C 
ATOM     77  C   UNL     1       1.832   2.572  -3.914  1.00  0.00     0.001 C 
ATOM     78  C   UNL     1      -0.442   1.543  -3.891  1.00  0.00     0.014 C 
ATOM     79  C   UNL     1       0.348   2.835  -3.730  1.00  0.00     0.001 C 
BRANCH  76  80
ATOM     80  C   UNL     1      -0.447   0.609  -1.549  1.00  0.00     0.228 C 
ATOM     81  O   UNL     1       0.188   1.260  -0.718  1.00  0.00    -0.274 OA
ATOM     82  N   UNL     1      -1.721   0.207  -1.232  1.00  0.00    -0.326 N 
ATOM     83  H   UNL     1      -2.088   0.530  -0.377  1.00  0.00     0.169 HD
BRANCH  82  84
ATOM     84  C   UNL     1      -2.547  -0.615  -2.001  1.00  0.00     0.042 A 
ATOM     85  C   UNL     1      -2.081  -1.826  -2.523  1.00  0.00     0.026 A 
ATOM     86  C   UNL     1      -3.826  -0.166  -2.307  1.00  0.00     0.041 A 
ATOM     87  C   UNL     1      -2.828  -2.514  -3.474  1.00  0.00     0.003 A 
ATOM     88  C   UNL     1      -4.568  -0.857  -3.264  1.00  0.00     0.020 A 
ATOM     89  C   UNL     1      -4.065  -2.013  -3.866  1.00  0.00     0.016 A 
ATOM     90  Br  UNL     1      -6.247  -0.178  -3.806  1.00  0.00    -0.051 Br
ENDBRANCH  82  84
ENDBRANCH  76  80
ENDBRANCH  72  74
ENDBRANCH  71  72
ENDBRANCH  70  71
ENDBRANCH   1  70
TORSDOF 16
