REMARK SMILES COc1ccc(C(=O)N[C@H](C(=O)OCCOC(=O)c2ccc(-c3c4nc(c(-c5cc(S(=O)(=O)[O-])ccc5F)c5ccc([nH]5)c(-c5cc(S(=O)(=O)[O-])ccc5F)c5nc(c(-c6cc(S(=O)(=O)[O-])ccc6F)c6ccc3[nH]6)C=C5)C=C4)cc2)C2=C(C)N=N[C@H]2C)c(F)c1F
REMARK SMILES IDX 14 1 13 2 11 3 12 4 10 5 9 6 7 7 8 8 6 10 3 11 4 12 91 13
REMARK SMILES IDX 5 14 89 15 92 16 90 17 2 18 1 19 82 20 83 21 87 22 84 23
REMARK SMILES IDX 85 24 86 25 88 26 15 27 16 28 17 29 18 30 19 31 20 32 81 33
REMARK SMILES IDX 21 34 80 35 22 36 23 37 24 38 74 39 25 40 79 41 73 42 75 43
REMARK SMILES IDX 26 44 78 45 72 46 71 47 27 49 59 50 39 51 58 52 40 53 43 54
REMARK SMILES IDX 57 55 76 56 41 57 42 58 56 60 77 61 44 62 28 63 29 64 37 65
REMARK SMILES IDX 30 66 36 67 38 68 35 69 31 70 32 71 33 72 34 73 60 74 61 75
REMARK SMILES IDX 69 76 62 77 68 78 70 79 67 80 63 81 64 82 65 83 66 84 45 85
REMARK SMILES IDX 46 86 54 87 47 88 53 89 55 90 52 91 48 92 49 93 50 94 51 95
REMARK H PARENT 9 9 75 48 43 59
REMARK Flexibility Score: inf
ROOT
ATOM      1  C   UNL     1       3.060   3.155   7.453  1.00  0.00     0.274 C 
ENDROOT
BRANCH   1   2
ATOM      2  O   UNL     1       1.756   3.672   7.107  1.00  0.00    -0.460 OA
BRANCH   2   3
ATOM      3  C   UNL     1       0.921   2.858   6.415  1.00  0.00     0.333 C 
ATOM      4  O   UNL     1       1.224   1.721   6.062  1.00  0.00    -0.249 OA
BRANCH   3   5
ATOM      5  C   UNL     1      -0.453   3.507   6.061  1.00  0.00     0.223 C 
BRANCH   5   6
ATOM      6  N   UNL     1      -1.501   2.554   6.422  1.00  0.00    -0.335 N 
ATOM      7  C   UNL     1      -2.511   1.897   5.791  1.00  0.00     0.255 C 
ATOM      8  O   UNL     1      -3.150   1.101   6.482  1.00  0.00    -0.269 OA
ATOM      9  H   UNL     1      -1.466   2.325   7.379  1.00  0.00     0.165 HD
BRANCH   7  10
ATOM     10  C   UNL     1      -2.897   2.044   4.372  1.00  0.00     0.078 A 
ATOM     11  C   UNL     1      -3.838   2.144   1.724  1.00  0.00     0.157 A 
ATOM     12  C   UNL     1      -4.050   0.998   2.479  1.00  0.00     0.050 A 
ATOM     13  C   UNL     1      -3.158   3.225   2.280  1.00  0.00     0.201 A 
ATOM     14  C   UNL     1      -3.584   0.952   3.796  1.00  0.00     0.021 A 
ATOM     15  C   UNL     1      -2.723   3.191   3.603  1.00  0.00     0.175 A 
ATOM     16  F   UNL     1      -2.940   4.328   1.546  1.00  0.00    -0.200 F 
ATOM     17  F   UNL     1      -2.198   4.313   4.108  1.00  0.00    -0.203 F 
BRANCH  11  18
ATOM     18  O   UNL     1      -4.261   2.167   0.424  1.00  0.00    -0.494 OA
ATOM     19  C   UNL     1      -5.468   2.923   0.308  1.00  0.00     0.278 C 
ENDBRANCH  11  18
ENDBRANCH   7  10
ENDBRANCH   5   6
BRANCH   5  20
ATOM     20  C   UNL     1      -0.824   4.845   6.641  1.00  0.00     0.012 C 
ATOM     21  C   UNL     1      -1.824   5.247   7.449  1.00  0.00     0.064 C 
ATOM     22  C   UNL     1      -0.221   6.122   6.137  1.00  0.00     0.156 C 
ATOM     23  C   UNL     1      -2.853   4.467   8.204  1.00  0.00     0.069 C 
ATOM     24  N   UNL     1      -1.946   6.615   7.490  1.00  0.00    -0.160 NA
ATOM     25  N   UNL     1      -1.115   7.157   6.719  1.00  0.00    -0.181 NA
ATOM     26  C   UNL     1       1.184   6.447   6.628  1.00  0.00     0.040 C 
ENDBRANCH   5  20
ENDBRANCH   3   5
ENDBRANCH   2   3
ENDBRANCH   1   2
BRANCH   1  27
ATOM     27  C   UNL     1       3.189   2.948   8.964  1.00  0.00     0.275 C 
BRANCH  27  28
ATOM     28  O   UNL     1       2.462   1.783   9.392  1.00  0.00    -0.458 OA
BRANCH  28  29
ATOM     29  C   UNL     1       1.161   2.004   9.673  1.00  0.00     0.338 C 
ATOM     30  O   UNL     1       0.569   3.078   9.650  1.00  0.00    -0.246 OA
BRANCH  29  31
ATOM     31  C   UNL     1       0.465   0.729   9.842  1.00  0.00     0.060 A 
ATOM     32  C   UNL     1      -0.316   0.289   8.778  1.00  0.00     0.016 A 
ATOM     33  C   UNL     1       0.457   0.049  11.058  1.00  0.00     0.016 A 
ATOM     34  C   UNL     1      -1.200  -0.764   8.948  1.00  0.00     0.010 A 
ATOM     35  C   UNL     1      -0.361  -1.079  11.196  1.00  0.00     0.010 A 
ATOM     36  C   UNL     1      -1.218  -1.476  10.151  1.00  0.00    -0.014 A 
BRANCH  36  37
ATOM     37  C   UNL     1      -2.157  -2.618  10.300  1.00  0.00     0.031 A 
ATOM     38  C   UNL     1      -3.242  -2.569  11.338  1.00  0.00     0.074 A 
ATOM     39  C   UNL     1      -2.058  -3.674   9.469  1.00  0.00     0.049 A 
ATOM     40  N   UNL     1      -4.063  -3.512  11.722  1.00  0.00    -0.248 NA
ATOM     41  C   UNL     1      -3.415  -1.294  12.049  1.00  0.00     0.031 C 
ATOM     42  C   UNL     1      -1.083  -3.804   8.381  1.00  0.00     0.029 A 
ATOM     43  N   UNL     1      -2.792  -4.829   9.392  1.00  0.00    -0.354 N 
ATOM     44  C   UNL     1      -4.817  -2.962  12.754  1.00  0.00     0.074 A 
ATOM     45  C   UNL     1      -4.345  -1.605  12.940  1.00  0.00     0.031 C 
ATOM     46  C   UNL     1      -1.309  -4.949   7.721  1.00  0.00     0.029 A 
ATOM     47  C   UNL     1      -2.377  -5.679   8.392  1.00  0.00     0.049 A 
ATOM     48  H   UNL     1      -3.544  -5.031   9.994  1.00  0.00     0.167 HD
ATOM     49  C   UNL     1      -5.805  -3.544  13.478  1.00  0.00     0.034 A 
ATOM     50  C   UNL     1      -2.780  -6.925   8.078  1.00  0.00     0.034 A 
ATOM     51  C   UNL     1      -6.280  -4.888  13.244  1.00  0.00     0.049 A 
ATOM     52  C   UNL     1      -3.853  -7.562   8.917  1.00  0.00     0.074 A 
ATOM     53  C   UNL     1      -7.269  -5.586  13.916  1.00  0.00     0.029 A 
ATOM     54  N   UNL     1      -5.805  -5.736  12.250  1.00  0.00    -0.354 N 
ATOM     55  N   UNL     1      -4.500  -7.064   9.946  1.00  0.00    -0.248 NA
ATOM     56  C   UNL     1      -4.238  -8.933   8.565  1.00  0.00     0.031 C 
ATOM     57  C   UNL     1      -7.354  -6.870  13.364  1.00  0.00     0.029 A 
ATOM     58  C   UNL     1      -6.464  -6.955  12.305  1.00  0.00     0.049 A 
ATOM     59  H   UNL     1      -5.101  -5.504  11.601  1.00  0.00     0.167 HD
ATOM     60  C   UNL     1      -5.372  -8.062  10.364  1.00  0.00     0.074 A 
ATOM     61  C   UNL     1      -5.186  -9.179   9.457  1.00  0.00     0.031 C 
ATOM     62  C   UNL     1      -6.243  -8.062  11.404  1.00  0.00     0.034 A 
BRANCH  49  63
ATOM     63  C   UNL     1      -6.375  -2.754  14.633  1.00  0.00     0.023 A 
ATOM     64  C   UNL     1      -7.097  -1.563  14.444  1.00  0.00     0.031 A 
ATOM     65  C   UNL     1      -6.146  -3.182  15.953  1.00  0.00     0.131 A 
ATOM     66  C   UNL     1      -7.499  -0.805  15.557  1.00  0.00     0.055 A 
ATOM     67  C   UNL     1      -6.615  -2.464  17.055  1.00  0.00     0.041 A 
ATOM     68  F   UNL     1      -5.442  -4.300  16.197  1.00  0.00    -0.206 F 
ATOM     69  C   UNL     1      -7.283  -1.260  16.860  1.00  0.00     0.022 A 
BRANCH  66  70
ATOM     70  S   UNL     1      -8.183   0.852  15.280  1.00  0.00     0.124 S 
ATOM     71  O   UNL     1      -7.088   1.509  14.570  1.00  0.00    -0.237 OA
ATOM     72  O   UNL     1      -9.380   0.573  14.495  1.00  0.00    -0.237 OA
ATOM     73  O   UNL     1      -8.428   1.353  16.632  1.00  0.00    -0.744 OA
ENDBRANCH  66  70
ENDBRANCH  49  63
BRANCH  50  74
ATOM     74  C   UNL     1      -2.116  -7.672   6.973  1.00  0.00     0.023 A 
ATOM     75  C   UNL     1      -2.822  -8.046   5.819  1.00  0.00     0.031 A 
ATOM     76  C   UNL     1      -0.760  -8.038   7.065  1.00  0.00     0.131 A 
ATOM     77  C   UNL     1      -2.176  -8.784   4.815  1.00  0.00     0.055 A 
ATOM     78  C   UNL     1      -0.110  -8.728   6.043  1.00  0.00     0.041 A 
ATOM     79  F   UNL     1      -0.039  -7.705   8.148  1.00  0.00    -0.206 F 
ATOM     80  C   UNL     1      -0.822  -9.114   4.912  1.00  0.00     0.022 A 
BRANCH  77  81
ATOM     81  S   UNL     1      -3.149  -9.367   3.400  1.00  0.00     0.124 S 
ATOM     82  O   UNL     1      -4.176 -10.171   4.053  1.00  0.00    -0.237 OA
ATOM     83  O   UNL     1      -3.599  -8.114   2.803  1.00  0.00    -0.237 OA
ATOM     84  O   UNL     1      -2.179 -10.119   2.606  1.00  0.00    -0.744 OA
ENDBRANCH  77  81
ENDBRANCH  50  74
BRANCH  62  85
ATOM     85  C   UNL     1      -7.068  -9.309  11.586  1.00  0.00     0.023 A 
ATOM     86  C   UNL     1      -6.488 -10.516  12.013  1.00  0.00     0.031 A 
ATOM     87  C   UNL     1      -8.443  -9.295  11.298  1.00  0.00     0.131 A 
ATOM     88  C   UNL     1      -7.272 -11.677  12.087  1.00  0.00     0.055 A 
ATOM     89  C   UNL     1      -9.229 -10.441  11.423  1.00  0.00     0.041 A 
ATOM     90  F   UNL     1      -9.043  -8.167  10.884  1.00  0.00    -0.206 F 
ATOM     91  C   UNL     1      -8.641 -11.643  11.807  1.00  0.00     0.022 A 
BRANCH  88  92
ATOM     92  S   UNL     1      -6.460 -13.252  12.470  1.00  0.00     0.124 S 
ATOM     93  O   UNL     1      -5.494 -13.369  11.383  1.00  0.00    -0.237 OA
ATOM     94  O   UNL     1      -5.902 -13.003  13.795  1.00  0.00    -0.237 OA
ATOM     95  O   UNL     1      -7.555 -14.220  12.433  1.00  0.00    -0.744 OA
ENDBRANCH  88  92
ENDBRANCH  62  85
ENDBRANCH  36  37
ENDBRANCH  29  31
ENDBRANCH  28  29
ENDBRANCH  27  28
ENDBRANCH   1  27
TORSDOF 18
