REMARK SMILES CC1([C@@]2(C)C[C@@H]2C(=O)OCCOC(=O)c2ccc(-c3c4nc(c(-c5cc(S(=O)(=O)[O-])ccc5F)c5ccc([nH]5)c(-c5cc(S(=O)(=O)[O-])ccc5F)c5nc(c(-c6cc(S(=O)(=O)[O-])ccc6F)c6ccc3[nH]6)C=C5)C=C4)cc2)CC1
REMARK SMILES IDX 11 1 10 2 9 3 7 4 8 5 6 6 3 7 4 8 5 9 2 10 1 11 78 12 79 13
REMARK SMILES IDX 12 14 13 15 14 16 15 17 16 18 77 19 17 20 76 21 18 22 19 23
REMARK SMILES IDX 20 24 70 25 21 26 75 27 69 28 71 29 22 30 74 31 68 32 67 33
REMARK SMILES IDX 23 35 55 36 35 37 54 38 36 39 39 40 53 41 72 42 37 43 38 44
REMARK SMILES IDX 52 46 73 47 40 48 24 49 25 50 33 51 26 52 32 53 34 54 31 55
REMARK SMILES IDX 27 56 28 57 29 58 30 59 56 60 57 61 65 62 58 63 64 64 66 65
REMARK SMILES IDX 63 66 59 67 60 68 61 69 62 70 41 71 42 72 50 73 43 74 49 75
REMARK SMILES IDX 51 76 48 77 44 78 45 79 46 80 47 81
REMARK H PARENT 71 34 39 45
REMARK Flexibility Score: inf
ROOT
ATOM      1  C   UNL     1      -3.901   3.589   0.960  1.00  0.00     0.275 C 
ENDROOT
BRANCH   1   2
ATOM      2  C   UNL     1      -3.545   3.553  -0.530  1.00  0.00     0.274 C 
BRANCH   2   3
ATOM      3  O   UNL     1      -3.138   2.233  -0.938  1.00  0.00    -0.462 OA
BRANCH   3   4
ATOM      4  C   UNL     1      -1.794   2.036  -1.028  1.00  0.00     0.309 C 
ATOM      5  O   UNL     1      -0.940   2.898  -0.897  1.00  0.00    -0.252 OA
BRANCH   4   6
ATOM      6  C   UNL     1      -1.461   0.598  -1.197  1.00  0.00     0.106 C 
ATOM      7  C   UNL     1      -0.177   0.121  -1.901  1.00  0.00    -0.013 C 
ATOM      8  C   UNL     1       0.710   1.142  -2.589  1.00  0.00     0.013 C 
ATOM      9  C   UNL     1      -1.542  -0.070  -2.539  1.00  0.00     0.024 C 
BRANCH   7  10
ATOM     10  C   UNL     1       0.636  -1.070  -1.279  1.00  0.00    -0.026 C 
ATOM     11  C   UNL     1       1.358  -0.739   0.007  1.00  0.00     0.012 C 
ATOM     12  C   UNL     1       1.351  -2.040  -2.208  1.00  0.00     0.008 C 
ATOM     13  C   UNL     1       0.193  -2.519  -1.392  1.00  0.00     0.008 C 
ENDBRANCH   7  10
ENDBRANCH   4   6
ENDBRANCH   3   4
ENDBRANCH   2   3
ENDBRANCH   1   2
BRANCH   1  14
ATOM     14  O   UNL     1      -2.739   3.413   1.792  1.00  0.00    -0.458 OA
BRANCH  14  15
ATOM     15  C   UNL     1      -2.511   2.140   2.196  1.00  0.00     0.338 C 
ATOM     16  O   UNL     1      -3.192   1.158   1.952  1.00  0.00    -0.246 OA
BRANCH  15  17
ATOM     17  C   UNL     1      -1.216   2.062   2.887  1.00  0.00     0.060 A 
ATOM     18  C   UNL     1      -0.127   1.583   2.166  1.00  0.00     0.016 A 
ATOM     19  C   UNL     1      -1.091   2.331   4.249  1.00  0.00     0.016 A 
ATOM     20  C   UNL     1       1.078   1.323   2.809  1.00  0.00     0.010 A 
ATOM     21  C   UNL     1       0.143   2.116   4.883  1.00  0.00     0.010 A 
ATOM     22  C   UNL     1       1.236   1.589   4.172  1.00  0.00    -0.014 A 
BRANCH  22  23
ATOM     23  C   UNL     1       2.532   1.256   4.831  1.00  0.00     0.031 A 
ATOM     24  C   UNL     1       2.581   0.217   5.920  1.00  0.00     0.074 A 
ATOM     25  C   UNL     1       3.676   1.835   4.412  1.00  0.00     0.049 A 
ATOM     26  N   UNL     1       3.577  -0.126   6.695  1.00  0.00    -0.248 NA
ATOM     27  C   UNL     1       1.340  -0.531   6.169  1.00  0.00     0.031 C 
ATOM     28  C   UNL     1       3.785   2.792   3.308  1.00  0.00     0.029 A 
ATOM     29  N   UNL     1       4.970   1.700   4.857  1.00  0.00    -0.354 N 
ATOM     30  C   UNL     1       3.076  -1.101   7.552  1.00  0.00     0.074 A 
ATOM     31  C   UNL     1       1.680  -1.276   7.211  1.00  0.00     0.031 C 
ATOM     32  C   UNL     1       5.072   3.135   3.147  1.00  0.00     0.029 A 
ATOM     33  C   UNL     1       5.868   2.505   4.193  1.00  0.00     0.049 A 
ATOM     34  H   UNL     1       5.229   1.085   5.581  1.00  0.00     0.167 HD
ATOM     35  C   UNL     1       3.724  -1.784   8.530  1.00  0.00     0.034 A 
ATOM     36  C   UNL     1       7.173   2.753   4.430  1.00  0.00     0.034 A 
ATOM     37  C   UNL     1       5.124  -1.609   8.840  1.00  0.00     0.049 A 
ATOM     38  C   UNL     1       7.844   2.062   5.590  1.00  0.00     0.074 A 
ATOM     39  C   UNL     1       5.879  -2.253   9.806  1.00  0.00     0.029 A 
ATOM     40  N   UNL     1       5.982  -0.726   8.196  1.00  0.00    -0.354 N 
ATOM     41  N   UNL     1       7.346   1.181   6.428  1.00  0.00    -0.248 NA
ATOM     42  C   UNL     1       9.249   2.405   5.842  1.00  0.00     0.031 C 
ATOM     43  C   UNL     1       7.164  -1.702   9.803  1.00  0.00     0.029 A 
ATOM     44  C   UNL     1       7.244  -0.781   8.771  1.00  0.00     0.049 A 
ATOM     45  H   UNL     1       5.731  -0.146   7.441  1.00  0.00     0.167 HD
ATOM     46  C   UNL     1       8.389   0.846   7.288  1.00  0.00     0.074 A 
ATOM     47  C   UNL     1       9.544   1.603   6.854  1.00  0.00     0.031 C 
ATOM     48  C   UNL     1       8.390  -0.013   8.339  1.00  0.00     0.034 A 
BRANCH  35  49
ATOM     49  C   UNL     1       2.907  -2.729   9.381  1.00  0.00     0.023 A 
ATOM     50  C   UNL     1       2.277  -3.867   8.847  1.00  0.00     0.031 A 
ATOM     51  C   UNL     1       2.736  -2.469  10.754  1.00  0.00     0.131 A 
ATOM     52  C   UNL     1       1.450  -4.656   9.662  1.00  0.00     0.055 A 
ATOM     53  C   UNL     1       1.983  -3.308  11.577  1.00  0.00     0.041 A 
ATOM     54  F   UNL     1       3.292  -1.385  11.318  1.00  0.00    -0.206 F 
ATOM     55  C   UNL     1       1.321  -4.401  11.029  1.00  0.00     0.022 A 
BRANCH  52  56
ATOM     56  S   UNL     1       0.422  -5.929   8.879  1.00  0.00     0.124 S 
ATOM     57  O   UNL     1      -0.345  -5.139   7.918  1.00  0.00    -0.237 OA
ATOM     58  O   UNL     1       1.415  -6.834   8.313  1.00  0.00    -0.237 OA
ATOM     59  O   UNL     1      -0.358  -6.472   9.989  1.00  0.00    -0.744 OA
ENDBRANCH  52  56
ENDBRANCH  35  49
BRANCH  36  60
ATOM     60  C   UNL     1       7.915   3.756   3.608  1.00  0.00     0.023 A 
ATOM     61  C   UNL     1       9.048   3.394   2.864  1.00  0.00     0.031 A 
ATOM     62  C   UNL     1       7.532   5.111   3.603  1.00  0.00     0.131 A 
ATOM     63  C   UNL     1       9.784   4.379   2.186  1.00  0.00     0.055 A 
ATOM     64  C   UNL     1       8.227   6.075   2.872  1.00  0.00     0.041 A 
ATOM     65  F   UNL     1       6.463   5.519   4.307  1.00  0.00    -0.206 F 
ATOM     66  C   UNL     1       9.370   5.713   2.169  1.00  0.00     0.022 A 
BRANCH  63  67
ATOM     67  S   UNL     1      11.356   3.910   1.412  1.00  0.00     0.124 S 
ATOM     68  O   UNL     1      12.097   3.374   2.548  1.00  0.00    -0.237 OA
ATOM     69  O   UNL     1      10.925   2.939   0.412  1.00  0.00    -0.237 OA
ATOM     70  O   UNL     1      11.861   5.172   0.876  1.00  0.00    -0.744 OA
ENDBRANCH  63  67
ENDBRANCH  36  60
BRANCH  48  71
ATOM     71  C   UNL     1       9.701  -0.214   9.062  1.00  0.00     0.023 A 
ATOM     72  C   UNL     1      10.322   0.823   9.780  1.00  0.00     0.031 A 
ATOM     73  C   UNL     1      10.347  -1.463   9.017  1.00  0.00     0.131 A 
ATOM     74  C   UNL     1      11.577   0.611  10.372  1.00  0.00     0.055 A 
ATOM     75  C   UNL     1      11.561  -1.689   9.668  1.00  0.00     0.041 A 
ATOM     76  F   UNL     1       9.806  -2.490   8.341  1.00  0.00    -0.206 F 
ATOM     77  C   UNL     1      12.190  -0.644  10.338  1.00  0.00     0.022 A 
BRANCH  74  78
ATOM     78  S   UNL     1      12.449   2.026  11.098  1.00  0.00     0.124 S 
ATOM     79  O   UNL     1      12.551   2.934   9.960  1.00  0.00    -0.237 OA
ATOM     80  O   UNL     1      11.542   2.439  12.164  1.00  0.00    -0.237 OA
ATOM     81  O   UNL     1      13.716   1.453  11.550  1.00  0.00    -0.744 OA
ENDBRANCH  74  78
ENDBRANCH  48  71
ENDBRANCH  22  23
ENDBRANCH  15  17
ENDBRANCH  14  15
ENDBRANCH   1  14
TORSDOF 15
