REMARK SMILES O=C(OCCOC(=O)c1ccc(-c2c3nc(c(-c4cc(S(=O)(=O)[O-])ccc4F)c4ccc([nH]4)c(-c4cc(S(=O)(=O)[O-])ccc4F)c4nc(c(-c5cc(S(=O)(=O)[O-])ccc5F)c5ccc2[nH]5)C=C4)C=C3)cc1)c1ccc(NC(=S)NC(=O)C(Cl)(Cl)Cl)cc1
REMARK SMILES IDX 4 1 3 2 2 3 1 4 72 5 73 6 87 7 74 8 86 9 75 10 76 11 77 13
REMARK SMILES IDX 78 14 79 15 80 16 81 18 82 19 83 20 84 21 85 22 5 23 6 24
REMARK SMILES IDX 7 25 8 26 9 27 10 28 71 29 11 30 70 31 12 32 13 33 14 34
REMARK SMILES IDX 64 35 15 36 69 37 63 38 65 39 16 40 68 41 62 42 61 43 17 45
REMARK SMILES IDX 49 46 29 47 48 48 30 49 33 50 47 51 66 52 31 53 32 54 46 56
REMARK SMILES IDX 67 57 34 58 18 59 19 60 27 61 20 62 26 63 28 64 25 65 21 66
REMARK SMILES IDX 22 67 23 68 24 69 50 70 51 71 59 72 52 73 58 74 60 75 57 76
REMARK SMILES IDX 53 77 54 78 55 79 56 80 35 81 36 82 44 83 37 84 43 85 45 86
REMARK SMILES IDX 42 87 38 88 39 89 40 90 41 91
REMARK H PARENT 76 12 79 17 65 44 33 55
REMARK Flexibility Score: inf
ROOT
ATOM      1  C   UNL     1       3.510  -1.021   0.222  1.00  0.00     0.275 C 
ENDROOT
BRANCH   1   2
ATOM      2  O   UNL     1       2.357  -0.222   0.579  1.00  0.00    -0.458 OA
BRANCH   2   3
ATOM      3  C   UNL     1       2.355   1.106   0.866  1.00  0.00     0.338 C 
ATOM      4  O   UNL     1       1.598   1.542   1.728  1.00  0.00    -0.246 OA
BRANCH   3   5
ATOM      5  C   UNL     1       3.180   2.074   0.076  1.00  0.00     0.060 A 
ATOM      6  C   UNL     1       3.791   1.748  -1.128  1.00  0.00     0.018 A 
ATOM      7  C   UNL     1       3.264   3.409   0.483  1.00  0.00     0.018 A 
ATOM      8  C   UNL     1       4.483   2.670  -1.904  1.00  0.00     0.027 A 
ATOM      9  C   UNL     1       4.016   4.337  -0.262  1.00  0.00     0.027 A 
ATOM     10  C   UNL     1       4.674   3.946  -1.436  1.00  0.00     0.040 A 
BRANCH  10  11
ATOM     11  N   UNL     1       5.449   4.873  -2.135  1.00  0.00    -0.332 N 
ATOM     12  H   UNL     1       5.378   5.789  -1.782  1.00  0.00     0.169 HD
BRANCH  11  13
ATOM     13  C   UNL     1       6.270   4.768  -3.188  1.00  0.00     0.177 C 
ATOM     14  S   UNL     1       6.444   6.124  -4.160  1.00  0.00    -0.040 S 
BRANCH  13  15
ATOM     15  N   UNL     1       7.021   3.678  -3.572  1.00  0.00    -0.299 N 
ATOM     16  C   UNL     1       7.599   2.421  -3.335  1.00  0.00     0.278 C 
ATOM     17  H   UNL     1       7.296   3.894  -4.493  1.00  0.00     0.172 HD
ATOM     18  O   UNL     1       8.066   1.911  -4.373  1.00  0.00    -0.270 OA
BRANCH  16  19
ATOM     19  C   UNL     1       7.715   1.670  -1.998  1.00  0.00     0.269 C 
ATOM     20  Cl  UNL     1       7.471   2.627  -0.544  1.00  0.00    -0.073 Cl
ATOM     21  Cl  UNL     1       6.667   0.216  -2.067  1.00  0.00    -0.073 Cl
ATOM     22  Cl  UNL     1       9.414   1.025  -1.889  1.00  0.00    -0.073 Cl
ENDBRANCH  16  19
ENDBRANCH  13  15
ENDBRANCH  11  13
ENDBRANCH  10  11
ENDBRANCH   3   5
ENDBRANCH   2   3
ENDBRANCH   1   2
BRANCH   1  23
ATOM     23  C   UNL     1       3.218  -1.870  -1.034  1.00  0.00     0.275 C 
BRANCH  23  24
ATOM     24  O   UNL     1       2.857  -1.053  -2.171  1.00  0.00    -0.458 OA
BRANCH  24  25
ATOM     25  C   UNL     1       1.526  -0.765  -2.294  1.00  0.00     0.338 C 
ATOM     26  O   UNL     1       0.622  -1.368  -1.766  1.00  0.00    -0.246 OA
BRANCH  25  27
ATOM     27  C   UNL     1       1.363   0.560  -2.975  1.00  0.00     0.060 A 
ATOM     28  C   UNL     1       0.387   1.428  -2.466  1.00  0.00     0.016 A 
ATOM     29  C   UNL     1       2.197   1.007  -4.007  1.00  0.00     0.016 A 
ATOM     30  C   UNL     1       0.238   2.724  -2.984  1.00  0.00     0.010 A 
ATOM     31  C   UNL     1       2.059   2.317  -4.509  1.00  0.00     0.010 A 
ATOM     32  C   UNL     1       1.069   3.189  -4.013  1.00  0.00    -0.014 A 
BRANCH  32  33
ATOM     33  C   UNL     1       0.843   4.538  -4.627  1.00  0.00     0.031 A 
ATOM     34  C   UNL     1       0.278   4.633  -6.023  1.00  0.00     0.074 A 
ATOM     35  C   UNL     1       1.107   5.685  -3.964  1.00  0.00     0.049 A 
ATOM     36  N   UNL     1      -0.001   5.697  -6.735  1.00  0.00    -0.248 NA
ATOM     37  C   UNL     1      -0.018   3.363  -6.702  1.00  0.00     0.031 C 
ATOM     38  C   UNL     1       1.606   5.775  -2.594  1.00  0.00     0.029 A 
ATOM     39  N   UNL     1       0.998   7.002  -4.357  1.00  0.00    -0.354 N 
ATOM     40  C   UNL     1      -0.516   5.228  -7.938  1.00  0.00     0.074 A 
ATOM     41  C   UNL     1      -0.455   3.781  -7.880  1.00  0.00     0.031 C 
ATOM     42  C   UNL     1       1.794   7.068  -2.274  1.00  0.00     0.029 A 
ATOM     43  C   UNL     1       1.442   7.908  -3.418  1.00  0.00     0.049 A 
ATOM     44  H   UNL     1       0.635   7.271  -5.232  1.00  0.00     0.167 HD
ATOM     45  C   UNL     1      -1.024   5.926  -8.983  1.00  0.00     0.034 A 
ATOM     46  C   UNL     1       1.566   9.253  -3.469  1.00  0.00     0.034 A 
ATOM     47  C   UNL     1      -1.107   7.363  -9.050  1.00  0.00     0.049 A 
ATOM     48  C   UNL     1       1.109  10.005  -4.702  1.00  0.00     0.074 A 
ATOM     49  C   UNL     1      -1.685   8.143 -10.038  1.00  0.00     0.029 A 
ATOM     50  N   UNL     1      -0.583   8.239  -8.113  1.00  0.00    -0.354 N 
ATOM     51  N   UNL     1       0.543   9.540  -5.792  1.00  0.00    -0.248 NA
ATOM     52  C   UNL     1       1.288  11.467  -4.703  1.00  0.00     0.031 C 
ATOM     53  C   UNL     1      -1.440   9.487  -9.741  1.00  0.00     0.029 A 
ATOM     54  C   UNL     1      -0.772   9.550  -8.529  1.00  0.00     0.049 A 
ATOM     55  H   UNL     1      -0.140   7.972  -7.275  1.00  0.00     0.167 HD
ATOM     56  C   UNL     1       0.261  10.657  -6.580  1.00  0.00     0.074 A 
ATOM     57  C   UNL     1       0.709  11.816  -5.842  1.00  0.00     0.031 C 
ATOM     58  C   UNL     1      -0.326  10.713  -7.802  1.00  0.00     0.034 A 
BRANCH  45  59
ATOM     59  C   UNL     1      -1.517   5.137 -10.168  1.00  0.00     0.023 A 
ATOM     60  C   UNL     1      -2.655   4.318 -10.083  1.00  0.00     0.031 A 
ATOM     61  C   UNL     1      -0.845   5.218 -11.399  1.00  0.00     0.131 A 
ATOM     62  C   UNL     1      -3.056   3.567 -11.198  1.00  0.00     0.055 A 
ATOM     63  C   UNL     1      -1.290   4.522 -12.524  1.00  0.00     0.041 A 
ATOM     64  F   UNL     1       0.257   5.974 -11.527  1.00  0.00    -0.206 F 
ATOM     65  C   UNL     1      -2.396   3.683 -12.424  1.00  0.00     0.022 A 
BRANCH  62  66
ATOM     66  S   UNL     1      -4.389   2.357 -10.992  1.00  0.00     0.124 S 
ATOM     67  O   UNL     1      -3.823   1.463  -9.985  1.00  0.00    -0.237 OA
ATOM     68  O   UNL     1      -5.506   3.187 -10.556  1.00  0.00    -0.237 OA
ATOM     69  O   UNL     1      -4.529   1.773 -12.325  1.00  0.00    -0.744 OA
ENDBRANCH  62  66
ENDBRANCH  45  59
BRANCH  46  70
ATOM     70  C   UNL     1       2.200  10.010  -2.345  1.00  0.00     0.023 A 
ATOM     71  C   UNL     1       1.500  11.007  -1.647  1.00  0.00     0.031 A 
ATOM     72  C   UNL     1       3.563   9.832  -2.043  1.00  0.00     0.131 A 
ATOM     73  C   UNL     1       2.181  11.838  -0.741  1.00  0.00     0.055 A 
ATOM     74  C   UNL     1       4.223  10.626  -1.103  1.00  0.00     0.041 A 
ATOM     75  F   UNL     1       4.280   8.885  -2.669  1.00  0.00    -0.206 F 
ATOM     76  C   UNL     1       3.536  11.650  -0.461  1.00  0.00     0.022 A 
BRANCH  73  77
ATOM     77  S   UNL     1       1.299  13.257  -0.029  1.00  0.00     0.124 S 
ATOM     78  O   UNL     1       0.835  13.949  -1.226  1.00  0.00    -0.237 OA
ATOM     79  O   UNL     1       0.273  12.599   0.772  1.00  0.00    -0.237 OA
ATOM     80  O   UNL     1       2.334  13.951   0.734  1.00  0.00    -0.744 OA
ENDBRANCH  73  77
ENDBRANCH  46  70
BRANCH  58  81
ATOM     81  C   UNL     1      -0.566  12.078  -8.404  1.00  0.00     0.023 A 
ATOM     82  C   UNL     1       0.495  12.904  -8.816  1.00  0.00     0.031 A 
ATOM     83  C   UNL     1      -1.878  12.556  -8.577  1.00  0.00     0.131 A 
ATOM     84  C   UNL     1       0.229  14.180  -9.339  1.00  0.00     0.055 A 
ATOM     85  C   UNL     1      -2.139  13.803  -9.149  1.00  0.00     0.041 A 
ATOM     86  F   UNL     1      -2.931  11.813  -8.202  1.00  0.00    -0.206 F 
ATOM     87  C   UNL     1      -1.082  14.627  -9.525  1.00  0.00     0.022 A 
BRANCH  84  88
ATOM     88  S   UNL     1       1.621  15.279  -9.719  1.00  0.00     0.124 S 
ATOM     89  O   UNL     1       2.247  15.441  -8.411  1.00  0.00    -0.237 OA
ATOM     90  O   UNL     1       2.377  14.502 -10.696  1.00  0.00    -0.237 OA
ATOM     91  O   UNL     1       0.977  16.479 -10.251  1.00  0.00    -0.744 OA
ENDBRANCH  84  88
ENDBRANCH  58  81
ENDBRANCH  32  33
ENDBRANCH  25  27
ENDBRANCH  24  25
ENDBRANCH  23  24
ENDBRANCH   1  23
TORSDOF 18
