REMARK SMILES O=C(OCCOC(=O)[C@@H](Cc1c[nH]c2ccccc12)NC(=O)c1ccc(F)cc1F)c1ccc(-c2c3nc(c(-c4cc(S(=O)(=O)[O-])ccc4F)c4ccc([nH]4)c(-c4cc(S(=O)(=O)[O-])ccc4F)c4nc(c(-c5cc(S(=O)(=O)[O-])ccc5F)c5ccc2[nH]5)C=C4)C=C3)cc1
REMARK SMILES IDX 4 1 3 2 2 3 1 4 31 5 32 6 93 7 33 8 92 9 34 10 35 11 36 12
REMARK SMILES IDX 86 13 37 14 91 15 85 16 87 17 38 18 90 19 84 20 83 21 39 23
REMARK SMILES IDX 71 24 51 25 70 26 52 27 55 28 69 29 88 30 53 31 54 32 68 34
REMARK SMILES IDX 89 35 56 36 40 37 41 38 49 39 42 40 48 41 50 42 47 43 43 44
REMARK SMILES IDX 44 45 45 46 46 47 72 48 73 49 81 50 74 51 80 52 82 53 79 54
REMARK SMILES IDX 75 55 76 56 77 57 78 58 57 59 58 60 66 61 59 62 65 63 67 64
REMARK SMILES IDX 64 65 60 66 61 67 62 68 63 69 5 70 6 71 7 72 8 73 9 74 10 75
REMARK SMILES IDX 11 76 12 77 19 78 13 79 14 80 18 81 15 83 17 84 16 85 20 86
REMARK SMILES IDX 21 87 22 89 23 90 24 91 29 92 25 93 28 94 30 95 26 96 27 97
REMARK H PARENT 87 22 55 33 13 82 20 88
REMARK Flexibility Score: inf
ROOT
ATOM      1  C   UNL     1       3.751  -2.428   0.251  1.00  0.00     0.275 C 
ENDROOT
BRANCH   1   2
ATOM      2  O   UNL     1       2.933  -1.554   1.019  1.00  0.00    -0.458 OA
BRANCH   2   3
ATOM      3  C   UNL     1       2.634  -0.331   0.566  1.00  0.00     0.338 C 
ATOM      4  O   UNL     1       1.476   0.079   0.643  1.00  0.00    -0.246 OA
BRANCH   3   5
ATOM      5  C   UNL     1       3.655   0.653   0.065  1.00  0.00     0.060 A 
ATOM      6  C   UNL     1       4.481   0.733  -1.601  1.00  0.00     0.016 A 
ATOM      7  C   UNL     1       3.191   2.200   0.865  1.00  0.00     0.016 A 
ATOM      8  C   UNL     1       4.846   2.364  -2.366  1.00  0.00     0.010 A 
ATOM      9  C   UNL     1       3.420   3.762   0.010  1.00  0.00     0.010 A 
ATOM     10  C   UNL     1       4.335   3.898  -1.536  1.00  0.00    -0.014 A 
BRANCH  10  11
ATOM     11  C   UNL     1       4.795   5.249  -2.038  1.00  0.00     0.031 A 
ATOM     12  C   UNL     1       5.365   6.309  -1.103  1.00  0.00     0.074 A 
ATOM     13  C   UNL     1       4.854   5.481  -3.364  1.00  0.00     0.049 A 
ATOM     14  N   UNL     1       6.330   7.173  -1.323  1.00  0.00    -0.248 NA
ATOM     15  C   UNL     1       4.852   6.396   0.267  1.00  0.00     0.031 C 
ATOM     16  C   UNL     1       4.301   4.609  -4.396  1.00  0.00     0.029 A 
ATOM     17  N   UNL     1       5.427   6.506  -4.078  1.00  0.00    -0.354 N 
ATOM     18  C   UNL     1       6.619   7.754  -0.087  1.00  0.00     0.074 A 
ATOM     19  C   UNL     1       5.739   7.159   0.879  1.00  0.00     0.031 C 
ATOM     20  C   UNL     1       4.647   5.071  -5.604  1.00  0.00     0.029 A 
ATOM     21  C   UNL     1       5.362   6.330  -5.444  1.00  0.00     0.049 A 
ATOM     22  H   UNL     1       5.844   7.290  -3.654  1.00  0.00     0.167 HD
ATOM     23  C   UNL     1       7.448   8.775   0.237  1.00  0.00     0.034 A 
ATOM     24  C   UNL     1       5.803   7.109  -6.453  1.00  0.00     0.034 A 
ATOM     25  C   UNL     1       7.956   9.680  -0.754  1.00  0.00     0.049 A 
ATOM     26  C   UNL     1       6.532   8.377  -6.089  1.00  0.00     0.074 A 
ATOM     27  C   UNL     1       8.608  10.885  -0.574  1.00  0.00     0.029 A 
ATOM     28  N   UNL     1       7.729   9.543  -2.119  1.00  0.00    -0.354 N 
ATOM     29  N   UNL     1       6.899   8.805  -4.901  1.00  0.00    -0.248 NA
ATOM     30  C   UNL     1       6.890   9.275  -7.191  1.00  0.00     0.031 C 
ATOM     31  C   UNL     1       8.656  11.532  -1.814  1.00  0.00     0.029 A 
ATOM     32  C   UNL     1       8.152  10.677  -2.785  1.00  0.00     0.049 A 
ATOM     33  H   UNL     1       7.326   8.753  -2.548  1.00  0.00     0.167 HD
ATOM     34  C   UNL     1       7.536  10.023  -5.113  1.00  0.00     0.074 A 
ATOM     35  C   UNL     1       7.520  10.247  -6.547  1.00  0.00     0.031 C 
ATOM     36  C   UNL     1       8.085  10.880  -4.213  1.00  0.00     0.034 A 
BRANCH  23  37
ATOM     37  C   UNL     1       7.631   9.056   1.714  1.00  0.00     0.023 A 
ATOM     38  C   UNL     1       8.281   8.125   2.550  1.00  0.00     0.031 A 
ATOM     39  C   UNL     1       7.047  10.182   2.320  1.00  0.00     0.131 A 
ATOM     40  C   UNL     1       8.284   8.311   3.943  1.00  0.00     0.055 A 
ATOM     41  C   UNL     1       7.104  10.390   3.701  1.00  0.00     0.041 A 
ATOM     42  F   UNL     1       6.363  11.074   1.587  1.00  0.00    -0.206 F 
ATOM     43  C   UNL     1       7.714   9.446   4.523  1.00  0.00     0.022 A 
BRANCH  40  44
ATOM     44  S   UNL     1       8.912   6.975   5.002  1.00  0.00     0.124 S 
ATOM     45  O   UNL     1       8.043   5.864   4.620  1.00  0.00    -0.237 OA
ATOM     46  O   UNL     1      10.304   6.870   4.584  1.00  0.00    -0.237 OA
ATOM     47  O   UNL     1       8.703   7.484   6.357  1.00  0.00    -0.744 OA
ENDBRANCH  40  44
ENDBRANCH  23  37
BRANCH  24  48
ATOM     48  C   UNL     1       5.491   6.745  -7.872  1.00  0.00     0.023 A 
ATOM     49  C   UNL     1       6.491   6.516  -8.831  1.00  0.00     0.031 A 
ATOM     50  C   UNL     1       4.149   6.611  -8.286  1.00  0.00     0.131 A 
ATOM     51  C   UNL     1       6.134   6.163 -10.146  1.00  0.00     0.055 A 
ATOM     52  C   UNL     1       3.802   6.198  -9.572  1.00  0.00     0.041 A 
ATOM     53  F   UNL     1       3.146   6.848  -7.424  1.00  0.00    -0.206 F 
ATOM     54  C   UNL     1       4.798   5.976 -10.514  1.00  0.00     0.022 A 
BRANCH  51  55
ATOM     55  S   UNL     1       7.433   6.015 -11.406  1.00  0.00     0.124 S 
ATOM     56  O   UNL     1       8.063   7.329 -11.341  1.00  0.00    -0.237 OA
ATOM     57  O   UNL     1       8.224   4.898 -10.902  1.00  0.00    -0.237 OA
ATOM     58  O   UNL     1       6.689   5.744 -12.635  1.00  0.00    -0.744 OA
ENDBRANCH  51  55
ENDBRANCH  24  48
BRANCH  36  59
ATOM     59  C   UNL     1       8.728  12.126  -4.759  1.00  0.00     0.023 A 
ATOM     60  C   UNL     1       7.974  13.136  -5.378  1.00  0.00     0.031 A 
ATOM     61  C   UNL     1      10.116  12.308  -4.634  1.00  0.00     0.131 A 
ATOM     62  C   UNL     1       8.624  14.261  -5.902  1.00  0.00     0.055 A 
ATOM     63  C   UNL     1      10.747  13.461  -5.095  1.00  0.00     0.041 A 
ATOM     64  F   UNL     1      10.878  11.370  -4.047  1.00  0.00    -0.206 F 
ATOM     65  C   UNL     1      10.002  14.440  -5.746  1.00  0.00     0.022 A 
BRANCH  62  66
ATOM     66  S   UNL     1       7.658  15.443  -6.879  1.00  0.00     0.124 S 
ATOM     67  O   UNL     1       7.136  14.596  -7.946  1.00  0.00    -0.237 OA
ATOM     68  O   UNL     1       6.679  15.924  -5.909  1.00  0.00    -0.237 OA
ATOM     69  O   UNL     1       8.650  16.430  -7.299  1.00  0.00    -0.744 OA
ENDBRANCH  62  66
ENDBRANCH  36  59
ENDBRANCH  10  11
ENDBRANCH   3   5
ENDBRANCH   2   3
ENDBRANCH   1   2
BRANCH   1  70
ATOM     70  C   UNL     1       3.252  -2.636  -1.189  1.00  0.00     0.274 C 
BRANCH  70  71
ATOM     71  O   UNL     1       3.228  -1.385  -1.905  1.00  0.00    -0.461 OA
BRANCH  71  72
ATOM     72  C   UNL     1       2.074  -0.701  -2.149  1.00  0.00     0.329 C 
ATOM     73  O   UNL     1       0.990  -1.262  -2.257  1.00  0.00    -0.250 OA
BRANCH  72  74
ATOM     74  C   UNL     1       2.302   0.875  -2.387  1.00  0.00     0.197 C 
BRANCH  74  75
ATOM     75  C   UNL     1       3.089   2.115  -1.268  1.00  0.00     0.074 C 
BRANCH  75  76
ATOM     76  C   UNL     1       5.007   2.232  -0.297  1.00  0.00    -0.020 A 
ATOM     77  C   UNL     1       5.723   3.195   0.549  1.00  0.00     0.087 A 
ATOM     78  C   UNL     1       6.398   1.278  -0.326  1.00  0.00     0.003 A 
ATOM     79  N   UNL     1       7.044   3.309   0.131  1.00  0.00    -0.361 N 
ATOM     80  C   UNL     1       7.485   2.140  -0.406  1.00  0.00     0.046 A 
ATOM     81  C   UNL     1       6.727  -0.099  -0.549  1.00  0.00     0.010 A 
ATOM     82  H   UNL     1       7.588   4.126   0.213  1.00  0.00     0.166 HD
ATOM     83  C   UNL     1       8.735   1.775  -0.935  1.00  0.00     0.026 A 
ATOM     84  C   UNL     1       7.967  -0.506  -1.045  1.00  0.00     0.001 A 
ATOM     85  C   UNL     1       8.942   0.440  -1.294  1.00  0.00     0.002 A 
ENDBRANCH  75  76
ENDBRANCH  74  75
BRANCH  74  86
ATOM     86  N   UNL     1       2.587   1.155  -3.816  1.00  0.00    -0.338 N 
ATOM     87  C   UNL     1       1.766   1.591  -4.820  1.00  0.00     0.254 C 
ATOM     88  H   UNL     1       3.522   1.002  -4.086  1.00  0.00     0.164 HD
ATOM     89  O   UNL     1       2.216   1.791  -5.942  1.00  0.00    -0.269 OA
BRANCH  87  90
ATOM     90  C   UNL     1       0.338   1.801  -4.561  1.00  0.00     0.075 A 
ATOM     91  C   UNL     1      -0.108   2.779  -3.663  1.00  0.00     0.020 A 
ATOM     92  C   UNL     1      -0.576   0.990  -5.231  1.00  0.00     0.138 A 
ATOM     93  C   UNL     1      -1.473   2.877  -3.387  1.00  0.00     0.040 A 
ATOM     94  C   UNL     1      -1.936   1.100  -4.972  1.00  0.00     0.079 A 
ATOM     95  F   UNL     1      -0.164   0.066  -6.111  1.00  0.00    -0.206 F 
ATOM     96  C   UNL     1      -2.370   2.032  -4.038  1.00  0.00     0.126 A 
ATOM     97  F   UNL     1      -3.677   2.117  -3.755  1.00  0.00    -0.207 F 
ENDBRANCH  87  90
ENDBRANCH  74  86
ENDBRANCH  72  74
ENDBRANCH  71  72
ENDBRANCH  70  71
ENDBRANCH   1  70
TORSDOF 18
