REMARK SMILES O=C(OCCOC(=O)c1ccccc1/C=C1\SC(=S)N(Cc2ccccc2)C1=O)c1ccc(-c2c3nc(c(-c4cc(S(=O)(=O)[O-])ccc4F)c4ccc([nH]4)c(-c4cc(S(=O)(=O)[O-])ccc4F)c4nc(c(-c5cc(S(=O)(=O)[O-])ccc5F)c5ccc2[nH]5)C=C4)C=C3)cc1
REMARK SMILES IDX 4 1 3 2 2 3 1 4 30 5 31 6 92 7 32 8 91 9 33 10 34 11 35 12
REMARK SMILES IDX 85 13 36 14 90 15 84 16 86 17 37 18 89 19 83 20 82 21 38 23
REMARK SMILES IDX 70 24 50 25 69 26 51 27 54 28 68 29 87 30 52 31 53 32 67 34
REMARK SMILES IDX 88 35 55 36 39 37 40 38 48 39 41 40 47 41 49 42 46 43 42 44
REMARK SMILES IDX 43 45 44 46 45 47 71 48 72 49 80 50 73 51 79 52 81 53 78 54
REMARK SMILES IDX 74 55 75 56 76 57 77 58 56 59 57 60 65 61 58 62 64 63 66 64
REMARK SMILES IDX 63 65 59 66 60 67 61 68 62 69 5 70 6 71 7 72 8 73 9 74 10 75
REMARK SMILES IDX 14 76 11 77 13 78 12 79 15 80 16 81 17 82 28 83 18 84 20 85
REMARK SMILES IDX 29 86 19 87 21 88 22 89 23 90 27 91 24 92 26 93 25 94
REMARK H PARENT 86 22 54 33
REMARK Flexibility Score: inf
ROOT
ATOM      1  C   UNL     1       4.053  -0.905  -1.244  1.00  0.00     0.275 C 
ENDROOT
BRANCH   1   2
ATOM      2  O   UNL     1       2.976  -1.305  -0.375  1.00  0.00    -0.458 OA
BRANCH   2   3
ATOM      3  C   UNL     1       2.624  -0.887   0.863  1.00  0.00     0.338 C 
ATOM      4  O   UNL     1       1.596  -1.356   1.354  1.00  0.00    -0.246 OA
BRANCH   3   5
ATOM      5  C   UNL     1       3.357   0.149   1.668  1.00  0.00     0.060 A 
ATOM      6  C   UNL     1       4.690   0.529   1.504  1.00  0.00     0.016 A 
ATOM      7  C   UNL     1       2.632   0.758   2.716  1.00  0.00     0.016 A 
ATOM      8  C   UNL     1       5.278   1.484   2.339  1.00  0.00     0.010 A 
ATOM      9  C   UNL     1       3.217   1.710   3.562  1.00  0.00     0.010 A 
ATOM     10  C   UNL     1       4.558   2.057   3.391  1.00  0.00    -0.014 A 
BRANCH  10  11
ATOM     11  C   UNL     1       5.302   2.854   4.395  1.00  0.00     0.031 A 
ATOM     12  C   UNL     1       5.836   2.146   5.600  1.00  0.00     0.074 A 
ATOM     13  C   UNL     1       5.603   4.144   4.163  1.00  0.00     0.049 A 
ATOM     14  N   UNL     1       6.652   2.582   6.520  1.00  0.00    -0.248 NA
ATOM     15  C   UNL     1       5.391   0.757   5.788  1.00  0.00     0.031 C 
ATOM     16  C   UNL     1       5.132   4.896   3.011  1.00  0.00     0.029 A 
ATOM     17  N   UNL     1       6.389   5.039   4.838  1.00  0.00    -0.354 N 
ATOM     18  C   UNL     1       6.831   1.518   7.393  1.00  0.00     0.074 A 
ATOM     19  C   UNL     1       6.004   0.431   6.914  1.00  0.00     0.031 C 
ATOM     20  C   UNL     1       5.682   6.119   3.011  1.00  0.00     0.029 A 
ATOM     21  C   UNL     1       6.514   6.255   4.200  1.00  0.00     0.049 A 
ATOM     22  H   UNL     1       6.824   4.833   5.697  1.00  0.00     0.167 HD
ATOM     23  C   UNL     1       7.621   1.458   8.493  1.00  0.00     0.034 A 
ATOM     24  C   UNL     1       7.223   7.349   4.543  1.00  0.00     0.034 A 
ATOM     25  C   UNL     1       8.390   2.580   8.971  1.00  0.00     0.049 A 
ATOM     26  C   UNL     1       8.049   7.275   5.801  1.00  0.00     0.074 A 
ATOM     27  C   UNL     1       9.174   2.674  10.105  1.00  0.00     0.029 A 
ATOM     28  N   UNL     1       8.453   3.819   8.339  1.00  0.00    -0.354 N 
ATOM     29  N   UNL     1       8.212   6.260   6.621  1.00  0.00    -0.248 NA
ATOM     30  C   UNL     1       8.789   8.483   6.179  1.00  0.00     0.031 C 
ATOM     31  C   UNL     1       9.661   3.985  10.190  1.00  0.00     0.029 A 
ATOM     32  C   UNL     1       9.243   4.690   9.072  1.00  0.00     0.049 A 
ATOM     33  H   UNL     1       8.001   4.044   7.494  1.00  0.00     0.167 HD
ATOM     34  C   UNL     1       9.089   6.703   7.604  1.00  0.00     0.074 A 
ATOM     35  C   UNL     1       9.440   8.067   7.256  1.00  0.00     0.031 C 
ATOM     36  C   UNL     1       9.560   6.051   8.699  1.00  0.00     0.034 A 
BRANCH  23  37
ATOM     37  C   UNL     1       7.593   0.164   9.267  1.00  0.00     0.023 A 
ATOM     38  C   UNL     1       8.042  -1.043   8.699  1.00  0.00     0.031 A 
ATOM     39  C   UNL     1       6.998   0.113  10.539  1.00  0.00     0.131 A 
ATOM     40  C   UNL     1       7.800  -2.258   9.358  1.00  0.00     0.055 A 
ATOM     41  C   UNL     1       6.837  -1.091  11.227  1.00  0.00     0.041 A 
ATOM     42  F   UNL     1       6.523   1.227  11.116  1.00  0.00    -0.206 F 
ATOM     43  C   UNL     1       7.220  -2.289  10.629  1.00  0.00     0.022 A 
BRANCH  40  44
ATOM     44  S   UNL     1       8.088  -3.807   8.456  1.00  0.00     0.124 S 
ATOM     45  O   UNL     1       7.186  -3.656   7.316  1.00  0.00    -0.237 OA
ATOM     46  O   UNL     1       9.513  -3.738   8.156  1.00  0.00    -0.237 OA
ATOM     47  O   UNL     1       7.701  -4.840   9.415  1.00  0.00    -0.744 OA
ENDBRANCH  40  44
ENDBRANCH  23  37
BRANCH  24  48
ATOM     48  C   UNL     1       7.173   8.592   3.715  1.00  0.00     0.023 A 
ATOM     49  C   UNL     1       8.327   9.118   3.109  1.00  0.00     0.031 A 
ATOM     50  C   UNL     1       5.969   9.302   3.551  1.00  0.00     0.131 A 
ATOM     51  C   UNL     1       8.261  10.333   2.404  1.00  0.00     0.055 A 
ATOM     52  C   UNL     1       5.899  10.485   2.811  1.00  0.00     0.041 A 
ATOM     53  F   UNL     1       4.832   8.848   4.102  1.00  0.00    -0.206 F 
ATOM     54  C   UNL     1       7.052  11.014   2.244  1.00  0.00     0.022 A 
BRANCH  51  55
ATOM     55  S   UNL     1       9.796  11.056   1.761  1.00  0.00     0.124 S 
ATOM     56  O   UNL     1      10.621  11.126   2.961  1.00  0.00    -0.237 OA
ATOM     57  O   UNL     1      10.194  10.071   0.760  1.00  0.00    -0.237 OA
ATOM     58  O   UNL     1       9.365  12.346   1.224  1.00  0.00    -0.744 OA
ENDBRANCH  51  55
ENDBRANCH  24  48
BRANCH  36  59
ATOM     59  C   UNL     1      10.530   6.811   9.565  1.00  0.00     0.023 A 
ATOM     60  C   UNL     1      10.131   7.940  10.301  1.00  0.00     0.031 A 
ATOM     61  C   UNL     1      11.876   6.414   9.633  1.00  0.00     0.131 A 
ATOM     62  C   UNL     1      11.083   8.673  11.022  1.00  0.00     0.055 A 
ATOM     63  C   UNL     1      12.807   7.110  10.404  1.00  0.00     0.041 A 
ATOM     64  F   UNL     1      12.308   5.343   8.948  1.00  0.00    -0.206 F 
ATOM     65  C   UNL     1      12.415   8.256  11.092  1.00  0.00     0.022 A 
BRANCH  62  66
ATOM     66  S   UNL     1      10.578  10.240  11.782  1.00  0.00     0.124 S 
ATOM     67  O   UNL     1      10.082  10.989  10.632  1.00  0.00    -0.237 OA
ATOM     68  O   UNL     1       9.570   9.809  12.745  1.00  0.00    -0.237 OA
ATOM     69  O   UNL     1      11.816  10.751  12.367  1.00  0.00    -0.744 OA
ENDBRANCH  62  66
ENDBRANCH  36  59
ENDBRANCH  10  11
ENDBRANCH   3   5
ENDBRANCH   2   3
ENDBRANCH   1   2
BRANCH   1  70
ATOM     70  C   UNL     1       3.814   0.417  -1.965  1.00  0.00     0.275 C 
BRANCH  70  71
ATOM     71  O   UNL     1       3.344   1.438  -1.080  1.00  0.00    -0.458 OA
BRANCH  71  72
ATOM     72  C   UNL     1       2.021   1.731  -1.151  1.00  0.00     0.338 C 
ATOM     73  O   UNL     1       1.198   1.183  -1.869  1.00  0.00    -0.246 OA
BRANCH  72  74
ATOM     74  C   UNL     1       1.662   2.772  -0.157  1.00  0.00     0.067 A 
ATOM     75  C   UNL     1       0.485   2.542   0.576  1.00  0.00     0.016 A 
ATOM     76  C   UNL     1       2.439   3.917   0.097  1.00  0.00    -0.010 A 
ATOM     77  C   UNL     1       0.092   3.430   1.577  1.00  0.00     0.001 A 
ATOM     78  C   UNL     1       2.001   4.824   1.077  1.00  0.00     0.009 A 
ATOM     79  C   UNL     1       0.844   4.575   1.821  1.00  0.00     0.001 A 
BRANCH  76  80
ATOM     80  C   UNL     1       3.777   4.129  -0.469  1.00  0.00     0.030 C 
ATOM     81  C   UNL     1       4.155   4.259  -1.743  1.00  0.00     0.081 C 
ATOM     82  S   UNL     1       3.214   4.378  -3.163  1.00  0.00    -0.054 SA
ATOM     83  C   UNL     1       5.597   4.166  -2.076  1.00  0.00     0.266 C 
ATOM     84  C   UNL     1       4.637   4.311  -4.207  1.00  0.00     0.148 C 
ATOM     85  N   UNL     1       5.780   4.260  -3.440  1.00  0.00    -0.288 N 
ATOM     86  O   UNL     1       6.466   3.934  -1.246  1.00  0.00    -0.268 OA
ATOM     87  S   UNL     1       4.503   4.277  -5.870  1.00  0.00    -0.052 S 
BRANCH  85  88
ATOM     88  C   UNL     1       7.152   4.285  -3.940  1.00  0.00     0.163 C 
BRANCH  88  89
ATOM     89  C   UNL     1       7.714   5.688  -3.885  1.00  0.00    -0.028 A 
ATOM     90  C   UNL     1       7.641   6.533  -5.000  1.00  0.00     0.005 A 
ATOM     91  C   UNL     1       8.251   6.191  -2.688  1.00  0.00     0.005 A 
ATOM     92  C   UNL     1       8.085   7.854  -4.915  1.00  0.00     0.000 A 
ATOM     93  C   UNL     1       8.687   7.513  -2.603  1.00  0.00     0.000 A 
ATOM     94  C   UNL     1       8.601   8.344  -3.717  1.00  0.00     0.000 A 
ENDBRANCH  88  89
ENDBRANCH  85  88
ENDBRANCH  76  80
ENDBRANCH  72  74
ENDBRANCH  71  72
ENDBRANCH  70  71
ENDBRANCH   1  70
TORSDOF 17
