REMARK SMILES O=C(OCCOC(=O)[C@]1([NH2+]C2CC2)CCC[C@@H](n2cc(Br)cn2)C1)c1ccc(-c2c3nc(c(-c4cc(S(=O)(=O)[O-])ccc4F)c4ccc([nH]4)c(-c4cc(S(=O)(=O)[O-])ccc4F)c4nc(c(-c5cc(S(=O)(=O)[O-])ccc5F)c5ccc2[nH]5)C=C4)C=C3)cc1
REMARK SMILES IDX 4 1 3 2 2 3 1 4 25 5 26 6 87 7 27 8 86 9 28 10 29 11 30 12
REMARK SMILES IDX 80 13 31 14 85 15 79 16 81 17 32 18 84 19 78 20 77 21 33 23
REMARK SMILES IDX 65 24 45 25 64 26 46 27 49 28 63 29 82 30 47 31 48 32 62 34
REMARK SMILES IDX 83 35 50 36 34 37 35 38 43 39 36 40 42 41 44 42 41 43 37 44
REMARK SMILES IDX 38 45 39 46 40 47 66 48 67 49 75 50 68 51 74 52 76 53 73 54
REMARK SMILES IDX 69 55 70 56 71 57 72 58 51 59 52 60 60 61 53 62 59 63 61 64
REMARK SMILES IDX 58 65 54 66 55 67 56 68 57 69 5 70 6 71 7 72 8 73 9 74 14 75
REMARK SMILES IDX 24 76 15 77 17 78 16 79 10 80 11 83 12 84 13 85 18 86 19 87
REMARK SMILES IDX 23 88 20 89 22 90 21 91
REMARK H PARENT 81 22 49 33 10 81 10 82
REMARK Flexibility Score: inf
ROOT
ATOM      1  C   UNL     1       5.799   0.114  -5.687  1.00  0.00     0.275 C 
ENDROOT
BRANCH   1   2
ATOM      2  O   UNL     1       6.472   0.040  -4.407  1.00  0.00    -0.458 OA
BRANCH   2   3
ATOM      3  C   UNL     1       6.115   0.421  -3.157  1.00  0.00     0.338 C 
ATOM      4  O   UNL     1       6.516  -0.270  -2.219  1.00  0.00    -0.246 OA
BRANCH   3   5
ATOM      5  C   UNL     1       5.407   1.704  -2.814  1.00  0.00     0.060 A 
ATOM      6  C   UNL     1       4.819   2.590  -3.712  1.00  0.00     0.016 A 
ATOM      7  C   UNL     1       5.356   2.053  -1.443  1.00  0.00     0.016 A 
ATOM      8  C   UNL     1       4.177   3.751  -3.263  1.00  0.00     0.010 A 
ATOM      9  C   UNL     1       4.735   3.228  -0.991  1.00  0.00     0.010 A 
ATOM     10  C   UNL     1       4.134   4.083  -1.907  1.00  0.00    -0.014 A 
BRANCH  10  11
ATOM     11  C   UNL     1       3.400   5.303  -1.537  1.00  0.00     0.031 A 
ATOM     12  C   UNL     1       1.925   5.273  -1.784  1.00  0.00     0.074 A 
ATOM     13  C   UNL     1       3.983   6.410  -1.021  1.00  0.00     0.049 A 
ATOM     14  N   UNL     1       1.257   5.999  -2.619  1.00  0.00    -0.248 NA
ATOM     15  C   UNL     1       1.096   4.277  -1.087  1.00  0.00     0.031 C 
ATOM     16  C   UNL     1       5.352   6.529  -0.515  1.00  0.00     0.029 A 
ATOM     17  N   UNL     1       3.456   7.655  -0.774  1.00  0.00    -0.354 N 
ATOM     18  C   UNL     1      -0.096   5.706  -2.424  1.00  0.00     0.074 A 
ATOM     19  C   UNL     1      -0.126   4.564  -1.549  1.00  0.00     0.031 C 
ATOM     20  C   UNL     1       5.480   7.690   0.168  1.00  0.00     0.029 A 
ATOM     21  C   UNL     1       4.253   8.461   0.036  1.00  0.00     0.049 A 
ATOM     22  H   UNL     1       2.590   7.951  -1.138  1.00  0.00     0.167 HD
ATOM     23  C   UNL     1      -1.067   6.559  -2.866  1.00  0.00     0.034 A 
ATOM     24  C   UNL     1       3.940   9.662   0.596  1.00  0.00     0.034 A 
ATOM     25  C   UNL     1      -0.532   7.546  -3.767  1.00  0.00     0.049 A 
ATOM     26  C   UNL     1       2.923  10.309  -0.264  1.00  0.00     0.074 A 
ATOM     27  C   UNL     1      -0.447   7.795  -5.116  1.00  0.00     0.029 A 
ATOM     28  N   UNL     1       0.225   8.487  -3.135  1.00  0.00    -0.354 N 
ATOM     29  N   UNL     1       3.171  10.695  -1.485  1.00  0.00    -0.248 NA
ATOM     30  C   UNL     1       1.509  10.219   0.083  1.00  0.00     0.031 C 
ATOM     31  C   UNL     1       0.500   8.855  -5.267  1.00  0.00     0.029 A 
ATOM     32  C   UNL     1       0.914   9.277  -4.007  1.00  0.00     0.049 A 
ATOM     33  H   UNL     1       0.270   8.586  -2.157  1.00  0.00     0.167 HD
ATOM     34  C   UNL     1       1.988  10.495  -2.165  1.00  0.00     0.074 A 
ATOM     35  C   UNL     1       0.967  10.364  -1.129  1.00  0.00     0.031 C 
ATOM     36  C   UNL     1       1.968  10.122  -3.479  1.00  0.00     0.034 A 
BRANCH  23  37
ATOM     37  C   UNL     1      -2.398   6.852  -2.190  1.00  0.00     0.023 A 
ATOM     38  C   UNL     1      -3.230   7.835  -2.783  1.00  0.00     0.031 A 
ATOM     39  C   UNL     1      -2.710   6.513  -0.858  1.00  0.00     0.131 A 
ATOM     40  C   UNL     1      -4.222   8.502  -2.040  1.00  0.00     0.055 A 
ATOM     41  C   UNL     1      -3.733   7.144  -0.137  1.00  0.00     0.041 A 
ATOM     42  F   UNL     1      -1.985   5.635  -0.156  1.00  0.00    -0.206 F 
ATOM     43  C   UNL     1      -4.473   8.165  -0.715  1.00  0.00     0.022 A 
BRANCH  40  44
ATOM     44  S   UNL     1      -5.068   9.928  -2.783  1.00  0.00     0.124 S 
ATOM     45  O   UNL     1      -3.953  10.801  -3.131  1.00  0.00    -0.237 OA
ATOM     46  O   UNL     1      -5.777   9.312  -3.901  1.00  0.00    -0.237 OA
ATOM     47  O   UNL     1      -5.924  10.415  -1.702  1.00  0.00    -0.744 OA
ENDBRANCH  40  44
ENDBRANCH  23  37
BRANCH  24  48
ATOM     48  C   UNL     1       4.290  10.133   1.970  1.00  0.00     0.023 A 
ATOM     49  C   UNL     1       4.215  11.485   2.382  1.00  0.00     0.031 A 
ATOM     50  C   UNL     1       4.480   9.176   2.993  1.00  0.00     0.131 A 
ATOM     51  C   UNL     1       4.328  11.820   3.757  1.00  0.00     0.055 A 
ATOM     52  C   UNL     1       4.596   9.513   4.342  1.00  0.00     0.041 A 
ATOM     53  F   UNL     1       4.475   7.861   2.724  1.00  0.00    -0.206 F 
ATOM     54  C   UNL     1       4.510  10.837   4.732  1.00  0.00     0.022 A 
BRANCH  51  55
ATOM     55  S   UNL     1       4.149  13.547   4.323  1.00  0.00     0.124 S 
ATOM     56  O   UNL     1       5.348  14.179   3.785  1.00  0.00    -0.237 OA
ATOM     57  O   UNL     1       2.880  13.945   3.725  1.00  0.00    -0.237 OA
ATOM     58  O   UNL     1       4.123  13.428   5.782  1.00  0.00    -0.744 OA
ENDBRANCH  51  55
ENDBRANCH  24  48
BRANCH  36  59
ATOM     59  C   UNL     1       3.141  10.472  -4.355  1.00  0.00     0.023 A 
ATOM     60  C   UNL     1       4.482  10.125  -4.088  1.00  0.00     0.031 A 
ATOM     61  C   UNL     1       2.876  11.184  -5.539  1.00  0.00     0.131 A 
ATOM     62  C   UNL     1       5.498  10.505  -4.985  1.00  0.00     0.055 A 
ATOM     63  C   UNL     1       3.878  11.527  -6.443  1.00  0.00     0.041 A 
ATOM     64  F   UNL     1       1.623  11.563  -5.845  1.00  0.00    -0.206 F 
ATOM     65  C   UNL     1       5.197  11.197  -6.163  1.00  0.00     0.022 A 
BRANCH  62  66
ATOM     66  S   UNL     1       7.246  10.168  -4.606  1.00  0.00     0.124 S 
ATOM     67  O   UNL     1       7.362  10.497  -3.190  1.00  0.00    -0.237 OA
ATOM     68  O   UNL     1       7.371   8.753  -4.946  1.00  0.00    -0.237 OA
ATOM     69  O   UNL     1       7.966  11.074  -5.503  1.00  0.00    -0.744 OA
ENDBRANCH  62  66
ENDBRANCH  36  59
ENDBRANCH  10  11
ENDBRANCH   3   5
ENDBRANCH   2   3
ENDBRANCH   1   2
BRANCH   1  70
ATOM     70  C   UNL     1       4.785  -1.009  -5.845  1.00  0.00     0.274 C 
BRANCH  70  71
ATOM     71  O   UNL     1       3.709  -0.702  -4.953  1.00  0.00    -0.457 OA
BRANCH  71  72
ATOM     72  C   UNL     1       3.228  -1.688  -4.149  1.00  0.00     0.368 C 
ATOM     73  O   UNL     1       3.587  -2.854  -4.211  1.00  0.00    -0.245 OA
BRANCH  72  74
ATOM     74  C   UNL     1       2.108  -1.127  -3.208  1.00  0.00     0.196 C 
ATOM     75  C   UNL     1       0.813  -1.940  -3.433  1.00  0.00     0.081 C 
ATOM     76  C   UNL     1       1.799   0.380  -3.480  1.00  0.00     0.108 C 
ATOM     77  C   UNL     1       0.134  -1.650  -4.776  1.00  0.00     0.009 C 
ATOM     78  C   UNL     1       1.164   0.623  -4.865  1.00  0.00     0.114 C 
ATOM     79  C   UNL     1      -0.142  -0.163  -4.980  1.00  0.00     0.028 C 
BRANCH  74  80
ATOM     80  N   UNL     1       2.591  -1.215  -1.796  1.00  0.00    -0.330 N 
ATOM     81  H   UNL     1       1.899  -0.755  -1.203  1.00  0.00     0.347 HD
ATOM     82  H   UNL     1       3.510  -0.773  -1.798  1.00  0.00     0.347 HD
BRANCH  80  83
ATOM     83  C   UNL     1       2.812  -2.566  -1.256  1.00  0.00     0.183 C 
ATOM     84  C   UNL     1       4.189  -3.170  -1.246  1.00  0.00     0.071 C 
ATOM     85  C   UNL     1       3.575  -2.702   0.038  1.00  0.00     0.071 C 
ENDBRANCH  80  83
ENDBRANCH  74  80
BRANCH  78  86
ATOM     86  N   UNL     1       1.052   2.036  -5.199  1.00  0.00    -0.268 N 
ATOM     87  C   UNL     1       1.969   2.750  -5.922  1.00  0.00     0.124 A 
ATOM     88  N   UNL     1      -0.054   2.738  -4.895  1.00  0.00    -0.180 NA
ATOM     89  C   UNL     1       1.455   4.014  -6.017  1.00  0.00     0.055 A 
ATOM     90  C   UNL     1       0.207   3.959  -5.387  1.00  0.00     0.150 A 
ATOM     91  Br  UNL     1       2.228   5.508  -6.821  1.00  0.00    -0.047 Br
ENDBRANCH  78  86
ENDBRANCH  72  74
ENDBRANCH  71  72
ENDBRANCH  70  71
ENDBRANCH   1  70
TORSDOF 17
