REMARK SMILES CCC(CC)(NC(=O)N(C)CCS(C)(=O)=O)C(=O)OCCOC(=O)c1ccc(-c2c3nc(c(-c4cc(S(=O)(=O)[O-])ccc4F)c4ccc([nH]4)c(-c4cc(S(=O)(=O)[O-])ccc4F)c4nc(c(-c5cc(S(=O)(=O)[O-])ccc5F)c5ccc2[nH]5)C=C4)C=C3)cc1
REMARK SMILES IDX 20 1 19 2 17 3 18 4 3 5 2 6 1 7 4 8 5 9 6 10 7 11 8 13 9 14
REMARK SMILES IDX 10 15 11 16 12 17 13 18 14 19 15 20 16 21 21 22 22 23 23 24
REMARK SMILES IDX 24 25 25 26 26 27 87 28 27 29 86 30 28 31 29 32 30 33 80 34
REMARK SMILES IDX 31 35 85 36 79 37 81 38 32 39 84 40 78 41 77 42 33 44 65 45
REMARK SMILES IDX 45 46 64 47 46 48 49 49 63 50 82 51 47 52 48 53 62 55 83 56
REMARK SMILES IDX 50 57 34 58 35 59 43 60 36 61 42 62 44 63 41 64 37 65 38 66
REMARK SMILES IDX 39 67 40 68 66 69 67 70 75 71 68 72 74 73 76 74 73 75 69 76
REMARK SMILES IDX 70 77 71 78 72 79 51 80 52 81 60 82 53 83 59 84 61 85 58 86
REMARK SMILES IDX 54 87 55 88 56 89 57 90
REMARK H PARENT 6 12 81 43 49 54
REMARK Flexibility Score: inf
ROOT
ATOM      1  C   UNL     1       4.803  -2.281   1.114  1.00  0.00     0.274 C 
ENDROOT
BRANCH   1   2
ATOM      2  O   UNL     1       3.440  -2.743   0.972  1.00  0.00    -0.460 OA
BRANCH   2   3
ATOM      3  C   UNL     1       2.447  -1.826   0.993  1.00  0.00     0.332 C 
ATOM      4  O   UNL     1       2.649  -0.656   1.300  1.00  0.00    -0.249 OA
BRANCH   3   5
ATOM      5  C   UNL     1       1.018  -2.428   0.710  1.00  0.00     0.139 C 
BRANCH   5   6
ATOM      6  C   UNL     1       0.147  -1.430  -0.118  1.00  0.00     0.037 C 
ATOM      7  C   UNL     1       0.021  -0.005   0.438  1.00  0.00     0.007 C 
ENDBRANCH   5   6
BRANCH   5   8
ATOM      8  C   UNL     1       0.430  -2.620   2.146  1.00  0.00     0.037 C 
ATOM      9  C   UNL     1      -1.079  -2.848   2.212  1.00  0.00     0.007 C 
ENDBRANCH   5   8
BRANCH   5  10
ATOM     10  N   UNL     1       0.921  -3.811   0.109  1.00  0.00    -0.322 N 
ATOM     11  C   UNL     1       1.546  -4.357  -0.970  1.00  0.00     0.318 C 
ATOM     12  H   UNL     1       0.302  -4.418   0.576  1.00  0.00     0.166 HD
ATOM     13  O   UNL     1       1.035  -4.261  -2.083  1.00  0.00    -0.249 OA
BRANCH  11  14
ATOM     14  N   UNL     1       2.580  -5.241  -0.684  1.00  0.00    -0.327 N 
ATOM     15  C   UNL     1       3.161  -5.395   0.642  1.00  0.00     0.148 C 
BRANCH  14  16
ATOM     16  C   UNL     1       3.166  -6.043  -1.763  1.00  0.00     0.137 C 
BRANCH  16  17
ATOM     17  C   UNL     1       3.320  -7.532  -1.464  1.00  0.00     0.158 C 
BRANCH  17  18
ATOM     18  S   UNL     1       1.790  -8.430  -1.307  1.00  0.00     0.149 S 
ATOM     19  C   UNL     1       1.045  -8.304  -2.913  1.00  0.00     0.158 C 
ATOM     20  O   UNL     1       2.149  -9.826  -1.117  1.00  0.00    -0.229 OA
ATOM     21  O   UNL     1       0.929  -7.781  -0.339  1.00  0.00    -0.229 OA
ENDBRANCH  17  18
ENDBRANCH  16  17
ENDBRANCH  14  16
ENDBRANCH  11  14
ENDBRANCH   5  10
ENDBRANCH   3   5
ENDBRANCH   2   3
ENDBRANCH   1   2
BRANCH   1  22
ATOM     22  C   UNL     1       5.485  -2.387  -0.249  1.00  0.00     0.275 C 
BRANCH  22  23
ATOM     23  O   UNL     1       4.821  -1.476  -1.132  1.00  0.00    -0.458 OA
BRANCH  23  24
ATOM     24  C   UNL     1       4.610  -1.863  -2.411  1.00  0.00     0.338 C 
ATOM     25  O   UNL     1       5.058  -2.855  -2.967  1.00  0.00    -0.246 OA
BRANCH  24  26
ATOM     26  C   UNL     1       3.752  -0.827  -3.026  1.00  0.00     0.060 A 
ATOM     27  C   UNL     1       2.679  -0.331  -2.288  1.00  0.00     0.016 A 
ATOM     28  C   UNL     1       4.027  -0.291  -4.279  1.00  0.00     0.016 A 
ATOM     29  C   UNL     1       1.889   0.705  -2.764  1.00  0.00     0.010 A 
ATOM     30  C   UNL     1       3.294   0.823  -4.719  1.00  0.00     0.010 A 
ATOM     31  C   UNL     1       2.245   1.355  -3.942  1.00  0.00    -0.014 A 
BRANCH  31  32
ATOM     32  C   UNL     1       1.576   2.635  -4.295  1.00  0.00     0.031 A 
ATOM     33  C   UNL     1       0.802   2.749  -5.572  1.00  0.00     0.074 A 
ATOM     34  C   UNL     1       1.678   3.694  -3.462  1.00  0.00     0.049 A 
ATOM     35  N   UNL     1       0.367   3.820  -6.178  1.00  0.00    -0.248 NA
ATOM     36  C   UNL     1       0.477   1.489  -6.256  1.00  0.00     0.031 C 
ATOM     37  C   UNL     1       2.317   3.680  -2.140  1.00  0.00     0.029 A 
ATOM     38  N   UNL     1       1.257   4.995  -3.600  1.00  0.00    -0.354 N 
ATOM     39  C   UNL     1      -0.242   3.373  -7.344  1.00  0.00     0.074 A 
ATOM     40  C   UNL     1      -0.129   1.929  -7.352  1.00  0.00     0.031 C 
ATOM     41  C   UNL     1       2.243   4.903  -1.596  1.00  0.00     0.029 A 
ATOM     42  C   UNL     1       1.662   5.816  -2.569  1.00  0.00     0.049 A 
ATOM     43  H   UNL     1       0.718   5.311  -4.362  1.00  0.00     0.167 HD
ATOM     44  C   UNL     1      -0.822   4.113  -8.320  1.00  0.00     0.034 A 
ATOM     45  C   UNL     1       1.647   7.160  -2.453  1.00  0.00     0.034 A 
ATOM     46  C   UNL     1      -0.934   5.551  -8.269  1.00  0.00     0.049 A 
ATOM     47  C   UNL     1       1.101   7.965  -3.605  1.00  0.00     0.074 A 
ATOM     48  C   UNL     1      -1.507   6.403  -9.196  1.00  0.00     0.029 A 
ATOM     49  N   UNL     1      -0.457   6.351  -7.237  1.00  0.00    -0.354 N 
ATOM     50  N   UNL     1       0.576   7.540  -4.732  1.00  0.00    -0.248 NA
ATOM     51  C   UNL     1       1.160   9.427  -3.482  1.00  0.00     0.031 C 
ATOM     52  C   UNL     1      -1.308   7.718  -8.764  1.00  0.00     0.029 A 
ATOM     53  C   UNL     1      -0.683   7.687  -7.527  1.00  0.00     0.049 A 
ATOM     54  H   UNL     1      -0.023   6.017  -6.420  1.00  0.00     0.167 HD
ATOM     55  C   UNL     1       0.230   8.684  -5.443  1.00  0.00     0.074 A 
ATOM     56  C   UNL     1       0.576   9.814  -4.605  1.00  0.00     0.031 C 
ATOM     57  C   UNL     1      -0.318   8.797  -6.680  1.00  0.00     0.034 A 
BRANCH  44  58
ATOM     58  C   UNL     1      -1.296   3.396  -9.559  1.00  0.00     0.023 A 
ATOM     59  C   UNL     1      -2.379   2.502  -9.546  1.00  0.00     0.031 A 
ATOM     60  C   UNL     1      -0.642   3.624 -10.784  1.00  0.00     0.131 A 
ATOM     61  C   UNL     1      -2.748   1.837 -10.727  1.00  0.00     0.055 A 
ATOM     62  C   UNL     1      -1.056   3.013 -11.967  1.00  0.00     0.041 A 
ATOM     63  F   UNL     1       0.416   4.449 -10.849  1.00  0.00    -0.206 F 
ATOM     64  C   UNL     1      -2.111   2.106 -11.941  1.00  0.00     0.022 A 
BRANCH  61  65
ATOM     65  S   UNL     1      -4.009   0.536 -10.638  1.00  0.00     0.124 S 
ATOM     66  O   UNL     1      -3.385  -0.418  -9.725  1.00  0.00    -0.237 OA
ATOM     67  O   UNL     1      -5.168   1.253 -10.120  1.00  0.00    -0.237 OA
ATOM     68  O   UNL     1      -4.127   0.077 -12.021  1.00  0.00    -0.744 OA
ENDBRANCH  61  65
ENDBRANCH  44  58
BRANCH  45  69
ATOM     69  C   UNL     1       2.270   7.840  -1.275  1.00  0.00     0.023 A 
ATOM     70  C   UNL     1       1.529   8.711  -0.461  1.00  0.00     0.031 A 
ATOM     71  C   UNL     1       3.643   7.696  -0.996  1.00  0.00     0.131 A 
ATOM     72  C   UNL     1       2.172   9.446   0.548  1.00  0.00     0.055 A 
ATOM     73  C   UNL     1       4.263   8.372   0.056  1.00  0.00     0.041 A 
ATOM     74  F   UNL     1       4.411   6.890  -1.748  1.00  0.00    -0.206 F 
ATOM     75  C   UNL     1       3.530   9.268   0.824  1.00  0.00     0.022 A 
BRANCH  72  76
ATOM     76  S   UNL     1       1.237  10.739   1.411  1.00  0.00     0.124 S 
ATOM     77  O   UNL     1       0.764  11.555   0.298  1.00  0.00    -0.237 OA
ATOM     78  O   UNL     1       0.222   9.961   2.113  1.00  0.00    -0.237 OA
ATOM     79  O   UNL     1       2.239  11.371   2.266  1.00  0.00    -0.744 OA
ENDBRANCH  72  76
ENDBRANCH  45  69
BRANCH  57  80
ATOM     80  C   UNL     1      -0.601  10.193  -7.171  1.00  0.00     0.023 A 
ATOM     81  C   UNL     1       0.438  11.094  -7.463  1.00  0.00     0.031 A 
ATOM     82  C   UNL     1      -1.926  10.632  -7.334  1.00  0.00     0.131 A 
ATOM     83  C   UNL     1       0.134  12.407  -7.850  1.00  0.00     0.055 A 
ATOM     84  C   UNL     1      -2.222  11.919  -7.783  1.00  0.00     0.041 A 
ATOM     85  F   UNL     1      -2.956   9.813  -7.064  1.00  0.00    -0.206 F 
ATOM     86  C   UNL     1      -1.190  12.819  -8.031  1.00  0.00     0.022 A 
BRANCH  83  87
ATOM     87  S   UNL     1       1.490  13.597  -8.028  1.00  0.00     0.124 S 
ATOM     88  O   UNL     1       2.062  13.607  -6.686  1.00  0.00    -0.237 OA
ATOM     89  O   UNL     1       2.311  12.984  -9.067  1.00  0.00    -0.237 OA
ATOM     90  O   UNL     1       0.813  14.831  -8.423  1.00  0.00    -0.744 OA
ENDBRANCH  83  87
ENDBRANCH  57  80
ENDBRANCH  31  32
ENDBRANCH  24  26
ENDBRANCH  23  24
ENDBRANCH  22  23
ENDBRANCH   1  22
TORSDOF 21
