REMARK SMILES CC(C)(C)[NH2+]Cc1cc(C(=O)OCCOC(=O)c2ccc(-c3c4nc(c(-c5cc(S(=O)(=O)[O-])ccc5F)c5ccc([nH]5)c(-c5cc(S(=O)(=O)[O-])ccc5F)c5nc(c(-c6cc(S(=O)(=O)[O-])ccc6F)c6ccc3[nH]6)C=C5)C=C4)cc2)cs1
REMARK SMILES IDX 13 1 12 2 10 3 11 4 9 5 7 6 8 7 82 8 81 9 6 10 5 11 2 14
REMARK SMILES IDX 1 15 3 16 4 17 14 18 15 19 16 20 17 21 18 22 19 23 80 24
REMARK SMILES IDX 20 25 79 26 21 27 22 28 23 29 73 30 24 31 78 32 72 33 74 34
REMARK SMILES IDX 25 35 77 36 71 37 70 38 26 40 58 41 38 42 57 43 39 44 42 45
REMARK SMILES IDX 56 46 75 47 40 48 41 49 55 51 76 52 43 53 27 54 28 55 36 56
REMARK SMILES IDX 29 57 35 58 37 59 34 60 30 61 31 62 32 63 33 64 59 65 60 66
REMARK SMILES IDX 68 67 61 68 67 69 69 70 66 71 62 72 63 73 64 74 65 75 44 76
REMARK SMILES IDX 45 77 53 78 46 79 52 80 54 81 51 82 47 83 48 84 49 85 50 86
REMARK H PARENT 5 12 5 13 74 39 42 50
REMARK Flexibility Score: inf
ROOT
ATOM      1  C   UNL     1       1.054   5.964   1.741  1.00  0.00     0.275 C 
ENDROOT
BRANCH   1   2
ATOM      2  O   UNL     1       1.551   4.662   2.086  1.00  0.00    -0.458 OA
BRANCH   2   3
ATOM      3  C   UNL     1       2.902   4.473   1.982  1.00  0.00     0.339 C 
ATOM      4  O   UNL     1       3.693   5.311   1.587  1.00  0.00    -0.246 OA
BRANCH   3   5
ATOM      5  C   UNL     1       3.285   3.112   2.349  1.00  0.00     0.071 A 
ATOM      6  C   UNL     1       2.894   0.856   2.679  1.00  0.00     0.060 A 
ATOM      7  C   UNL     1       2.440   2.130   2.957  1.00  0.00     0.037 A 
ATOM      8  S   UNL     1       4.579   0.891   2.359  1.00  0.00    -0.142 S 
ATOM      9  C   UNL     1       4.553   2.592   2.161  1.00  0.00     0.081 A 
BRANCH   6  10
ATOM     10  C   UNL     1       2.139  -0.436   2.634  1.00  0.00     0.308 C 
BRANCH  10  11
ATOM     11  N   UNL     1       0.693  -0.280   2.432  1.00  0.00    -0.338 N 
ATOM     12  H   UNL     1       0.270  -1.184   2.641  1.00  0.00     0.347 HD
ATOM     13  H   UNL     1       0.462   0.507   3.038  1.00  0.00     0.347 HD
BRANCH  11  14
ATOM     14  C   UNL     1       0.158   0.143   1.125  1.00  0.00     0.088 C 
ATOM     15  C   UNL     1       0.794  -0.590  -0.066  1.00  0.00     0.078 C 
ATOM     16  C   UNL     1       0.233   1.658   0.857  1.00  0.00     0.078 C 
ATOM     17  C   UNL     1      -1.341  -0.214   1.185  1.00  0.00     0.078 C 
ENDBRANCH  11  14
ENDBRANCH  10  11
ENDBRANCH   6  10
ENDBRANCH   3   5
ENDBRANCH   2   3
ENDBRANCH   1   2
BRANCH   1  18
ATOM     18  C   UNL     1       0.693   6.757   2.997  1.00  0.00     0.275 C 
BRANCH  18  19
ATOM     19  O   UNL     1       1.856   6.990   3.811  1.00  0.00    -0.458 OA
BRANCH  19  20
ATOM     20  C   UNL     1       2.045   6.087   4.805  1.00  0.00     0.338 C 
ATOM     21  O   UNL     1       1.305   5.170   5.117  1.00  0.00    -0.246 OA
BRANCH  20  22
ATOM     22  C   UNL     1       3.394   6.262   5.362  1.00  0.00     0.060 A 
ATOM     23  C   UNL     1       4.367   5.330   5.003  1.00  0.00     0.016 A 
ATOM     24  C   UNL     1       3.685   7.267   6.283  1.00  0.00     0.016 A 
ATOM     25  C   UNL     1       5.639   5.390   5.549  1.00  0.00     0.010 A 
ATOM     26  C   UNL     1       4.971   7.333   6.832  1.00  0.00     0.010 A 
ATOM     27  C   UNL     1       5.954   6.389   6.474  1.00  0.00    -0.014 A 
BRANCH  27  28
ATOM     28  C   UNL     1       7.286   6.366   7.124  1.00  0.00     0.031 A 
ATOM     29  C   UNL     1       7.389   5.999   8.576  1.00  0.00     0.074 A 
ATOM     30  C   UNL     1       8.396   6.601   6.398  1.00  0.00     0.049 A 
ATOM     31  N   UNL     1       8.429   6.025   9.367  1.00  0.00    -0.248 NA
ATOM     32  C   UNL     1       6.148   5.551   9.223  1.00  0.00     0.031 C 
ATOM     33  C   UNL     1       8.419   6.877   4.960  1.00  0.00     0.029 A 
ATOM     34  N   UNL     1       9.717   6.634   6.765  1.00  0.00    -0.354 N 
ATOM     35  C   UNL     1       7.962   5.635  10.617  1.00  0.00     0.074 A 
ATOM     36  C   UNL     1       6.540   5.398  10.478  1.00  0.00     0.031 C 
ATOM     37  C   UNL     1       9.692   7.037   4.566  1.00  0.00     0.029 A 
ATOM     38  C   UNL     1      10.566   6.953   5.731  1.00  0.00     0.049 A 
ATOM     39  H   UNL     1      10.027   6.447   7.680  1.00  0.00     0.167 HD
ATOM     40  C   UNL     1       8.662   5.491  11.771  1.00  0.00     0.034 A 
ATOM     41  C   UNL     1      11.892   7.196   5.733  1.00  0.00     0.034 A 
ATOM     42  C   UNL     1      10.084   5.717  11.871  1.00  0.00     0.049 A 
ATOM     43  C   UNL     1      12.636   7.110   7.041  1.00  0.00     0.074 A 
ATOM     44  C   UNL     1      10.901   5.607  12.983  1.00  0.00     0.029 A 
ATOM     45  N   UNL     1      10.905   6.101  10.815  1.00  0.00    -0.354 N 
ATOM     46  N   UNL     1      12.177   6.801   8.233  1.00  0.00    -0.248 NA
ATOM     47  C   UNL     1      14.071   7.413   7.007  1.00  0.00     0.031 C 
ATOM     48  C   UNL     1      12.196   5.992  12.617  1.00  0.00     0.029 A 
ATOM     49  C   UNL     1      12.210   6.264  11.257  1.00  0.00     0.049 A 
ATOM     50  H   UNL     1      10.603   6.238   9.888  1.00  0.00     0.167 HD
ATOM     51  C   UNL     1      13.274   6.856   9.088  1.00  0.00     0.074 A 
ATOM     52  C   UNL     1      14.418   7.208   8.269  1.00  0.00     0.031 C 
ATOM     53  C   UNL     1      13.334   6.634  10.427  1.00  0.00     0.034 A 
BRANCH  40  54
ATOM     54  C   UNL     1       7.876   5.155  13.017  1.00  0.00     0.023 A 
ATOM     55  C   UNL     1       7.160   3.952  13.152  1.00  0.00     0.031 A 
ATOM     56  C   UNL     1       7.794   6.087  14.068  1.00  0.00     0.131 A 
ATOM     57  C   UNL     1       6.328   3.753  14.265  1.00  0.00     0.055 A 
ATOM     58  C   UNL     1       7.034   5.845  15.213  1.00  0.00     0.041 A 
ATOM     59  F   UNL     1       8.434   7.264  13.989  1.00  0.00    -0.206 F 
ATOM     60  C   UNL     1       6.279   4.680  15.309  1.00  0.00     0.022 A 
BRANCH  57  61
ATOM     61  S   UNL     1       5.179   2.348  14.250  1.00  0.00     0.124 S 
ATOM     62  O   UNL     1       4.419   2.600  13.029  1.00  0.00    -0.237 OA
ATOM     63  O   UNL     1       6.082   1.203  14.216  1.00  0.00    -0.237 OA
ATOM     64  O   UNL     1       4.423   2.510  15.490  1.00  0.00    -0.744 OA
ENDBRANCH  57  61
ENDBRANCH  40  54
BRANCH  41  65
ATOM     65  C   UNL     1      12.582   7.614   4.479  1.00  0.00     0.023 A 
ATOM     66  C   UNL     1      13.595   6.832   3.904  1.00  0.00     0.031 A 
ATOM     67  C   UNL     1      12.251   8.829   3.848  1.00  0.00     0.131 A 
ATOM     68  C   UNL     1      14.262   7.285   2.754  1.00  0.00     0.055 A 
ATOM     69  C   UNL     1      12.878   9.248   2.674  1.00  0.00     0.041 A 
ATOM     70  F   UNL     1      11.293   9.620   4.357  1.00  0.00    -0.206 F 
ATOM     71  C   UNL     1      13.898   8.479   2.126  1.00  0.00     0.022 A 
BRANCH  68  72
ATOM     72  S   UNL     1      15.666   6.325   2.125  1.00  0.00     0.124 S 
ATOM     73  O   UNL     1      16.568   6.332   3.271  1.00  0.00    -0.237 OA
ATOM     74  O   UNL     1      15.042   5.046   1.806  1.00  0.00    -0.237 OA
ATOM     75  O   UNL     1      16.118   7.100   0.970  1.00  0.00    -0.744 OA
ENDBRANCH  68  72
ENDBRANCH  41  65
BRANCH  53  76
ATOM     76  C   UNL     1      14.695   6.730  11.072  1.00  0.00     0.023 A 
ATOM     77  C   UNL     1      15.385   7.951  11.166  1.00  0.00     0.031 A 
ATOM     78  C   UNL     1      15.315   5.577  11.585  1.00  0.00     0.131 A 
ATOM     79  C   UNL     1      16.679   7.981  11.707  1.00  0.00     0.055 A 
ATOM     80  C   UNL     1      16.576   5.623  12.179  1.00  0.00     0.041 A 
ATOM     81  F   UNL     1      14.702   4.384  11.518  1.00  0.00    -0.206 F 
ATOM     82  C   UNL     1      17.272   6.828  12.230  1.00  0.00     0.022 A 
BRANCH  79  83
ATOM     83  S   UNL     1      17.620   9.529  11.631  1.00  0.00     0.124 S 
ATOM     84  O   UNL     1      17.653   9.794  10.197  1.00  0.00    -0.237 OA
ATOM     85  O   UNL     1      16.798  10.434  12.428  1.00  0.00    -0.237 OA
ATOM     86  O   UNL     1      18.909   9.178  12.226  1.00  0.00    -0.744 OA
ENDBRANCH  79  83
ENDBRANCH  53  76
ENDBRANCH  27  28
ENDBRANCH  20  22
ENDBRANCH  19  20
ENDBRANCH  18  19
ENDBRANCH   1  18
TORSDOF 17
