REMARK SMILES Cc1ccc(C(=O)N2C[C@@H](C(=O)OCCOC(=O)c3ccc(-c4c5nc(c(-c6cc(S(=O)(=O)[O-])ccc6F)c6ccc([nH]6)c(-c6cc(S(=O)(=O)[O-])ccc6F)c6nc(c(-c7cc(S(=O)(=O)[O-])ccc7F)c7ccc4[nH]7)C=C6)C=C5)cc3)C[C@H](C(=O)N3CCOCC3)C2)cc1F
REMARK SMILES IDX 15 1 14 2 13 3 11 4 12 5 10 6 8 7 9 8 92 9 83 10 82 11 6 12
REMARK SMILES IDX 7 13 5 14 1 15 2 16 3 17 94 18 4 19 93 20 95 21 84 22 85 23
REMARK SMILES IDX 86 24 87 25 91 26 88 27 90 28 89 29 16 30 17 31 18 32 19 33
REMARK SMILES IDX 20 34 81 35 21 36 80 37 22 38 23 39 24 40 74 41 25 42 79 43
REMARK SMILES IDX 73 44 75 45 26 46 78 47 72 48 71 49 27 51 59 52 39 53 58 54
REMARK SMILES IDX 40 55 43 56 57 57 76 58 41 59 42 60 56 62 77 63 44 64 28 65
REMARK SMILES IDX 29 66 37 67 30 68 36 69 38 70 35 71 31 72 32 73 33 74 34 75
REMARK SMILES IDX 60 76 61 77 69 78 62 79 68 80 70 81 67 82 63 83 64 84 65 85
REMARK SMILES IDX 66 86 45 87 46 88 54 89 47 90 53 91 55 92 52 93 48 94 49 95
REMARK SMILES IDX 50 96 51 97
REMARK H PARENT 75 50 43 61
REMARK Flexibility Score: inf
ROOT
ATOM      1  C   UNL     1     -10.408  -1.116   3.186  1.00  0.00     0.275 C 
ENDROOT
BRANCH   1   2
ATOM      2  C   UNL     1      -9.064  -0.482   3.563  1.00  0.00     0.274 C 
BRANCH   2   3
ATOM      3  O   UNL     1      -8.074  -0.517   2.512  1.00  0.00    -0.462 OA
BRANCH   3   4
ATOM      4  C   UNL     1      -7.266  -1.616   2.499  1.00  0.00     0.310 C 
ATOM      5  O   UNL     1      -7.324  -2.521   3.324  1.00  0.00    -0.252 OA
BRANCH   4   6
ATOM      6  C   UNL     1      -6.200  -1.565   1.423  1.00  0.00     0.119 C 
ATOM      7  N   UNL     1      -4.173  -0.354   0.819  1.00  0.00    -0.337 N 
ATOM      8  C   UNL     1      -5.242  -0.453   1.791  1.00  0.00     0.135 C 
ATOM      9  C   UNL     1      -4.601  -0.070  -0.552  1.00  0.00     0.133 C 
ATOM     10  C   UNL     1      -5.596  -1.133  -1.068  1.00  0.00     0.099 C 
ATOM     11  C   UNL     1      -6.695  -1.433  -0.030  1.00  0.00     0.032 C 
BRANCH   7  12
ATOM     12  C   UNL     1      -2.905  -0.797   1.172  1.00  0.00     0.254 C 
ATOM     13  O   UNL     1      -2.699  -1.556   2.117  1.00  0.00    -0.269 OA
BRANCH  12  14
ATOM     14  C   UNL     1      -1.725  -0.185   0.518  1.00  0.00     0.042 A 
ATOM     15  C   UNL     1       1.971   1.810  -0.373  1.00  0.00     0.047 C 
ATOM     16  C   UNL     1       0.663   1.115  -0.148  1.00  0.00    -0.015 A 
ATOM     17  C   UNL     1      -0.531   1.839  -0.080  1.00  0.00     0.007 A 
ATOM     18  C   UNL     1       0.633  -0.267   0.067  1.00  0.00     0.126 A 
ATOM     19  C   UNL     1      -1.719   1.193   0.259  1.00  0.00     0.014 A 
ATOM     20  C   UNL     1      -0.545  -0.922   0.406  1.00  0.00     0.053 A 
ATOM     21  F   UNL     1       1.774  -0.970   0.009  1.00  0.00    -0.207 F 
ENDBRANCH  12  14
ENDBRANCH   7  12
BRANCH  10  22
ATOM     22  C   UNL     1      -4.741  -2.161  -1.839  1.00  0.00     0.227 C 
ATOM     23  O   UNL     1      -4.204  -1.711  -2.869  1.00  0.00    -0.275 OA
ATOM     24  N   UNL     1      -4.352  -3.380  -1.345  1.00  0.00    -0.338 N 
ATOM     25  C   UNL     1      -5.033  -4.253  -0.394  1.00  0.00     0.148 C 
ATOM     26  C   UNL     1      -3.252  -4.094  -1.990  1.00  0.00     0.148 C 
ATOM     27  C   UNL     1      -4.049  -4.712   0.680  1.00  0.00     0.181 C 
ATOM     28  C   UNL     1      -2.281  -4.573  -0.903  1.00  0.00     0.181 C 
ATOM     29  O   UNL     1      -2.922  -5.391   0.093  1.00  0.00    -0.378 OA
ENDBRANCH  10  22
ENDBRANCH   4   6
ENDBRANCH   3   4
ENDBRANCH   2   3
ENDBRANCH   1   2
BRANCH   1  30
ATOM     30  O   UNL     1     -10.306  -2.516   2.909  1.00  0.00    -0.458 OA
BRANCH  30  31
ATOM     31  C   UNL     1      -9.929  -2.754   1.636  1.00  0.00     0.338 C 
ATOM     32  O   UNL     1      -9.645  -1.908   0.791  1.00  0.00    -0.246 OA
BRANCH  31  33
ATOM     33  C   UNL     1     -10.027  -4.162   1.284  1.00  0.00     0.060 A 
ATOM     34  C   UNL     1      -9.005  -4.710   0.499  1.00  0.00     0.016 A 
ATOM     35  C   UNL     1     -11.310  -4.697   1.307  1.00  0.00     0.016 A 
ATOM     36  C   UNL     1      -9.315  -5.675  -0.447  1.00  0.00     0.010 A 
ATOM     37  C   UNL     1     -11.615  -5.652   0.364  1.00  0.00     0.010 A 
ATOM     38  C   UNL     1     -10.643  -6.060  -0.569  1.00  0.00    -0.014 A 
BRANCH  38  39
ATOM     39  C   UNL     1     -11.148  -6.857  -1.670  1.00  0.00     0.031 A 
ATOM     40  C   UNL     1     -11.047  -8.325  -1.643  1.00  0.00     0.074 A 
ATOM     41  C   UNL     1     -11.948  -6.247  -2.573  1.00  0.00     0.049 A 
ATOM     42  N   UNL     1     -11.400  -9.074  -2.630  1.00  0.00    -0.248 NA
ATOM     43  C   UNL     1     -10.508  -9.066  -0.509  1.00  0.00     0.031 C 
ATOM     44  C   UNL     1     -13.055  -6.855  -3.296  1.00  0.00     0.029 A 
ATOM     45  N   UNL     1     -11.832  -4.968  -3.129  1.00  0.00    -0.354 N 
ATOM     46  C   UNL     1     -11.409 -10.370  -2.179  1.00  0.00     0.074 A 
ATOM     47  C   UNL     1     -10.758 -10.326  -0.886  1.00  0.00     0.031 C 
ATOM     48  C   UNL     1     -13.390  -6.067  -4.326  1.00  0.00     0.029 A 
ATOM     49  C   UNL     1     -12.380  -5.030  -4.428  1.00  0.00     0.049 A 
ATOM     50  H   UNL     1     -11.443  -4.175  -2.695  1.00  0.00     0.167 HD
ATOM     51  C   UNL     1     -12.095 -11.309  -2.889  1.00  0.00     0.034 A 
ATOM     52  C   UNL     1     -11.733  -4.681  -5.580  1.00  0.00     0.034 A 
ATOM     53  C   UNL     1     -12.666 -10.751  -4.117  1.00  0.00     0.049 A 
ATOM     54  C   UNL     1     -11.636  -5.813  -6.596  1.00  0.00     0.074 A 
ATOM     55  C   UNL     1     -13.924 -10.285  -4.467  1.00  0.00     0.029 A 
ATOM     56  N   UNL     1     -11.815 -10.337  -5.126  1.00  0.00    -0.354 N 
ATOM     57  N   UNL     1     -12.172  -6.990  -6.455  1.00  0.00    -0.248 NA
ATOM     58  C   UNL     1     -10.761  -5.739  -7.772  1.00  0.00     0.031 C 
ATOM     59  C   UNL     1     -13.825  -9.628  -5.724  1.00  0.00     0.029 A 
ATOM     60  C   UNL     1     -12.509  -9.695  -6.139  1.00  0.00     0.049 A 
ATOM     61  H   UNL     1     -10.841 -10.480  -5.125  1.00  0.00     0.167 HD
ATOM     62  C   UNL     1     -11.597  -7.853  -7.354  1.00  0.00     0.074 A 
ATOM     63  C   UNL     1     -10.754  -7.016  -8.184  1.00  0.00     0.031 C 
ATOM     64  C   UNL     1     -11.774  -9.205  -7.294  1.00  0.00     0.034 A 
BRANCH  51  65
ATOM     65  C   UNL     1     -12.446 -12.678  -2.351  1.00  0.00     0.023 A 
ATOM     66  C   UNL     1     -11.712 -13.340  -1.346  1.00  0.00     0.031 A 
ATOM     67  C   UNL     1     -13.595 -13.358  -2.810  1.00  0.00     0.131 A 
ATOM     68  C   UNL     1     -12.181 -14.528  -0.756  1.00  0.00     0.055 A 
ATOM     69  C   UNL     1     -14.026 -14.575  -2.270  1.00  0.00     0.041 A 
ATOM     70  F   UNL     1     -14.380 -12.854  -3.773  1.00  0.00    -0.206 F 
ATOM     71  C   UNL     1     -13.335 -15.154  -1.218  1.00  0.00     0.022 A 
BRANCH  68  72
ATOM     72  S   UNL     1     -11.369 -15.236   0.707  1.00  0.00     0.124 S 
ATOM     73  O   UNL     1     -12.471 -15.308   1.667  1.00  0.00    -0.237 OA
ATOM     74  O   UNL     1     -10.892 -16.524   0.214  1.00  0.00    -0.237 OA
ATOM     75  O   UNL     1     -10.334 -14.261   1.040  1.00  0.00    -0.744 OA
ENDBRANCH  68  72
ENDBRANCH  51  65
BRANCH  52  76
ATOM     76  C   UNL     1     -10.607  -3.740  -5.370  1.00  0.00     0.023 A 
ATOM     77  C   UNL     1      -9.345  -4.303  -5.162  1.00  0.00     0.031 A 
ATOM     78  C   UNL     1     -10.846  -2.418  -4.950  1.00  0.00     0.131 A 
ATOM     79  C   UNL     1      -8.418  -3.613  -4.392  1.00  0.00     0.055 A 
ATOM     80  C   UNL     1      -9.891  -1.709  -4.224  1.00  0.00     0.041 A 
ATOM     81  F   UNL     1     -12.055  -1.858  -5.123  1.00  0.00    -0.206 F 
ATOM     82  C   UNL     1      -8.684  -2.325  -3.908  1.00  0.00     0.022 A 
BRANCH  79  83
ATOM     83  S   UNL     1      -7.040  -4.538  -3.686  1.00  0.00     0.124 S 
ATOM     84  O   UNL     1      -5.927  -4.100  -4.503  1.00  0.00    -0.237 OA
ATOM     85  O   UNL     1      -7.085  -4.055  -2.307  1.00  0.00    -0.237 OA
ATOM     86  O   UNL     1      -7.441  -5.934  -3.838  1.00  0.00    -0.744 OA
ENDBRANCH  79  83
ENDBRANCH  52  76
BRANCH  64  87
ATOM     87  C   UNL     1     -11.230 -10.190  -8.300  1.00  0.00     0.023 A 
ATOM     88  C   UNL     1     -10.935 -11.514  -7.905  1.00  0.00     0.031 A 
ATOM     89  C   UNL     1     -11.141  -9.921  -9.677  1.00  0.00     0.131 A 
ATOM     90  C   UNL     1     -10.550 -12.488  -8.835  1.00  0.00     0.055 A 
ATOM     91  C   UNL     1     -10.709 -10.881 -10.601  1.00  0.00     0.041 A 
ATOM     92  F   UNL     1     -11.531  -8.741 -10.184  1.00  0.00    -0.206 F 
ATOM     93  C   UNL     1     -10.413 -12.172 -10.183  1.00  0.00     0.022 A 
BRANCH  90  94
ATOM     94  S   UNL     1     -10.309 -14.215  -8.335  1.00  0.00     0.124 S 
ATOM     95  O   UNL     1     -11.294 -14.906  -9.165  1.00  0.00    -0.237 OA
ATOM     96  O   UNL     1      -8.914 -14.441  -8.703  1.00  0.00    -0.237 OA
ATOM     97  O   UNL     1     -10.590 -14.207  -6.904  1.00  0.00    -0.744 OA
ENDBRANCH  90  94
ENDBRANCH  64  87
ENDBRANCH  38  39
ENDBRANCH  31  33
ENDBRANCH  30  31
ENDBRANCH   1  30
TORSDOF 17
