REMARK SMILES [NH3+][C@H](Cc1ccc(O)c(F)c1)C(=O)OCCOC(=O)c1ccc(-c2c3nc(c(-c4cc(S(=O)(=O)[O-])ccc4F)c4ccc([nH]4)c(-c4cc(S(=O)(=O)[O-])ccc4F)c4nc(c(-c5cc(S(=O)(=O)[O-])ccc5F)c5ccc2[nH]5)C=C4)C=C3)cc1
REMARK SMILES IDX 15 1 14 2 12 3 13 4 2 5 1 6 3 10 4 11 5 12 11 13 6 14 9 15
REMARK SMILES IDX 7 16 10 17 8 18 16 20 17 21 18 22 19 23 20 24 21 25 82 26
REMARK SMILES IDX 22 27 81 28 23 29 24 30 25 31 75 32 26 33 80 34 74 35 76 36
REMARK SMILES IDX 27 37 79 38 73 39 72 40 28 42 60 43 40 44 59 45 41 46 44 47
REMARK SMILES IDX 58 48 77 49 42 50 43 51 57 53 78 54 45 55 29 56 30 57 38 58
REMARK SMILES IDX 31 59 37 60 39 61 36 62 32 63 33 64 34 65 35 66 61 67 62 68
REMARK SMILES IDX 70 69 63 70 69 71 71 72 68 73 64 74 65 75 66 76 67 77 46 78
REMARK SMILES IDX 47 79 55 80 48 81 54 82 56 83 53 84 49 85 50 86 51 87 52 88
REMARK H PARENT 1 7 1 8 1 9 8 19 76 41 44 52
REMARK Flexibility Score: inf
ROOT
ATOM      1  C   UNL     1      -3.145   0.589   1.170  1.00  0.00     0.274 C 
ENDROOT
BRANCH   1   2
ATOM      2  O   UNL     1      -1.739   0.788   0.939  1.00  0.00    -0.458 OA
BRANCH   2   3
ATOM      3  C   UNL     1      -0.877   0.507   1.947  1.00  0.00     0.365 C 
ATOM      4  O   UNL     1      -1.225   0.105   3.052  1.00  0.00    -0.245 OA
BRANCH   3   5
ATOM      5  C   UNL     1       0.601   0.758   1.563  1.00  0.00     0.296 C 
BRANCH   5   6
ATOM      6  N   UNL     1       1.171   1.900   2.318  1.00  0.00    -0.346 N 
ATOM      7  H   UNL     1       0.906   1.824   3.301  1.00  0.00     0.345 HD
ATOM      8  H   UNL     1       0.810   2.774   1.937  1.00  0.00     0.345 HD
ATOM      9  H   UNL     1       2.187   1.888   2.238  1.00  0.00     0.345 HD
ENDBRANCH   5   6
BRANCH   5  10
ATOM     10  C   UNL     1       0.946   0.783   0.056  1.00  0.00     0.113 C 
BRANCH  10  11
ATOM     11  C   UNL     1       0.269   1.739  -0.907  1.00  0.00    -0.038 A 
ATOM     12  C   UNL     1       0.292   1.409  -2.277  1.00  0.00     0.008 A 
ATOM     13  C   UNL     1      -0.402   2.907  -0.524  1.00  0.00     0.047 A 
ATOM     14  C   UNL     1      -0.380   2.186  -3.225  1.00  0.00     0.049 A 
ATOM     15  C   UNL     1      -1.078   3.676  -1.470  1.00  0.00     0.165 A 
ATOM     16  C   UNL     1      -1.080   3.313  -2.812  1.00  0.00     0.151 A 
ATOM     17  F   UNL     1      -1.757   4.756  -1.057  1.00  0.00    -0.203 F 
BRANCH  16  18
ATOM     18  O   UNL     1      -1.785   4.066  -3.708  1.00  0.00    -0.505 OA
ATOM     19  H   UNL     1      -1.793   3.830  -4.614  1.00  0.00     0.293 HD
ENDBRANCH  16  18
ENDBRANCH  10  11
ENDBRANCH   5  10
ENDBRANCH   3   5
ENDBRANCH   2   3
ENDBRANCH   1   2
BRANCH   1  20
ATOM     20  C   UNL     1      -3.684  -0.501   0.242  1.00  0.00     0.275 C 
BRANCH  20  21
ATOM     21  O   UNL     1      -3.181  -1.792   0.632  1.00  0.00    -0.458 OA
BRANCH  21  22
ATOM     22  C   UNL     1      -2.015  -2.151   0.045  1.00  0.00     0.338 C 
ATOM     23  O   UNL     1      -1.423  -1.562  -0.843  1.00  0.00    -0.246 OA
BRANCH  22  24
ATOM     24  C   UNL     1      -1.440  -3.296   0.768  1.00  0.00     0.060 A 
ATOM     25  C   UNL     1      -0.155  -3.145   1.294  1.00  0.00     0.016 A 
ATOM     26  C   UNL     1      -2.123  -4.507   0.894  1.00  0.00     0.016 A 
ATOM     27  C   UNL     1       0.458  -4.207   1.949  1.00  0.00     0.010 A 
ATOM     28  C   UNL     1      -1.504  -5.576   1.552  1.00  0.00     0.010 A 
ATOM     29  C   UNL     1      -0.207  -5.433   2.077  1.00  0.00    -0.014 A 
BRANCH  29  30
ATOM     30  C   UNL     1       0.494  -6.569   2.721  1.00  0.00     0.031 A 
ATOM     31  C   UNL     1       1.056  -7.675   1.874  1.00  0.00     0.074 A 
ATOM     32  C   UNL     1       0.674  -6.568   4.055  1.00  0.00     0.049 A 
ATOM     33  N   UNL     1       1.683  -8.761   2.241  1.00  0.00    -0.248 NA
ATOM     34  C   UNL     1       0.889  -7.536   0.419  1.00  0.00     0.031 C 
ATOM     35  C   UNL     1       0.210  -5.520   4.966  1.00  0.00     0.029 A 
ATOM     36  N   UNL     1       1.301  -7.470   4.877  1.00  0.00    -0.354 N 
ATOM     37  C   UNL     1       1.989  -9.439   1.066  1.00  0.00     0.074 A 
ATOM     38  C   UNL     1       1.445  -8.654  -0.024  1.00  0.00     0.031 C 
ATOM     39  C   UNL     1       0.572  -5.838   6.220  1.00  0.00     0.029 A 
ATOM     40  C   UNL     1       1.251  -7.130   6.209  1.00  0.00     0.049 A 
ATOM     41  H   UNL     1       1.744  -8.284   4.544  1.00  0.00     0.167 HD
ATOM     42  C   UNL     1       2.667 -10.603   0.913  1.00  0.00     0.034 A 
ATOM     43  C   UNL     1       1.682  -7.799   7.297  1.00  0.00     0.034 A 
ATOM     44  C   UNL     1       3.190 -11.378   2.013  1.00  0.00     0.049 A 
ATOM     45  C   UNL     1       2.372  -9.127   7.101  1.00  0.00     0.074 A 
ATOM     46  C   UNL     1       3.872 -12.582   1.975  1.00  0.00     0.029 A 
ATOM     47  N   UNL     1       3.085 -11.026   3.354  1.00  0.00    -0.354 N 
ATOM     48  N   UNL     1       2.636  -9.765   5.984  1.00  0.00    -0.248 NA
ATOM     49  C   UNL     1       2.828  -9.818   8.313  1.00  0.00     0.031 C 
ATOM     50  C   UNL     1       4.128 -12.985   3.292  1.00  0.00     0.029 A 
ATOM     51  C   UNL     1       3.670 -11.999   4.151  1.00  0.00     0.049 A 
ATOM     52  H   UNL     1       2.658 -10.205   3.689  1.00  0.00     0.167 HD
ATOM     53  C   UNL     1       3.305 -10.926   6.361  1.00  0.00     0.074 A 
ATOM     54  C   UNL     1       3.433 -10.880   7.803  1.00  0.00     0.031 C 
ATOM     55  C   UNL     1       3.769 -11.944   5.590  1.00  0.00     0.034 A 
BRANCH  42  56
ATOM     56  C   UNL     1       2.834 -11.128  -0.492  1.00  0.00     0.023 A 
ATOM     57  C   UNL     1       3.614 -10.452  -1.447  1.00  0.00     0.031 A 
ATOM     58  C   UNL     1       2.187 -12.312  -0.889  1.00  0.00     0.131 A 
ATOM     59  C   UNL     1       3.682 -10.933  -2.764  1.00  0.00     0.055 A 
ATOM     60  C   UNL     1       2.316 -12.824  -2.181  1.00  0.00     0.041 A 
ATOM     61  F   UNL     1       1.410 -12.987  -0.027  1.00  0.00    -0.206 F 
ATOM     62  C   UNL     1       3.058 -12.128  -3.131  1.00  0.00     0.022 A 
BRANCH  59  63
ATOM     63  S   UNL     1       4.502  -9.916  -4.022  1.00  0.00     0.124 S 
ATOM     64  O   UNL     1       3.690  -8.702  -3.996  1.00  0.00    -0.237 OA
ATOM     65  O   UNL     1       5.856  -9.789  -3.494  1.00  0.00    -0.237 OA
ATOM     66  O   UNL     1       4.380 -10.713  -5.241  1.00  0.00    -0.744 OA
ENDBRANCH  59  63
ENDBRANCH  42  56
BRANCH  43  67
ATOM     67  C   UNL     1       1.433  -7.264   8.667  1.00  0.00     0.023 A 
ATOM     68  C   UNL     1       2.492  -6.947   9.532  1.00  0.00     0.031 A 
ATOM     69  C   UNL     1       0.121  -7.130   9.157  1.00  0.00     0.131 A 
ATOM     70  C   UNL     1       2.224  -6.566  10.857  1.00  0.00     0.055 A 
ATOM     71  C   UNL     1      -0.142  -6.693  10.456  1.00  0.00     0.041 A 
ATOM     72  F   UNL     1      -0.930  -7.423   8.374  1.00  0.00    -0.206 F 
ATOM     73  C   UNL     1       0.914  -6.424  11.320  1.00  0.00     0.022 A 
BRANCH  70  74
ATOM     74  S   UNL     1       3.616  -6.367  12.003  1.00  0.00     0.124 S 
ATOM     75  O   UNL     1       4.283  -7.659  11.890  1.00  0.00    -0.237 OA
ATOM     76  O   UNL     1       4.322  -5.229  11.424  1.00  0.00    -0.237 OA
ATOM     77  O   UNL     1       2.967  -6.109  13.286  1.00  0.00    -0.744 OA
ENDBRANCH  70  74
ENDBRANCH  43  67
BRANCH  55  78
ATOM     78  C   UNL     1       4.478 -13.066   6.309  1.00  0.00     0.023 A 
ATOM     79  C   UNL     1       3.799 -13.911   7.205  1.00  0.00     0.031 A 
ATOM     80  C   UNL     1       5.859 -13.263   6.132  1.00  0.00     0.131 A 
ATOM     81  C   UNL     1       4.513 -14.864   7.945  1.00  0.00     0.055 A 
ATOM     82  C   UNL     1       6.553 -14.256   6.824  1.00  0.00     0.041 A 
ATOM     83  F   UNL     1       6.558 -12.485   5.290  1.00  0.00    -0.206 F 
ATOM     84  C   UNL     1       5.884 -15.052   7.750  1.00  0.00     0.022 A 
BRANCH  81  85
ATOM     85  S   UNL     1       3.647 -15.776   9.253  1.00  0.00     0.124 S 
ATOM     86  O   UNL     1       3.134 -14.695  10.088  1.00  0.00    -0.237 OA
ATOM     87  O   UNL     1       2.649 -16.528   8.499  1.00  0.00    -0.237 OA
ATOM     88  O   UNL     1       4.702 -16.584   9.863  1.00  0.00    -0.744 OA
ENDBRANCH  81  85
ENDBRANCH  55  78
ENDBRANCH  29  30
ENDBRANCH  22  24
ENDBRANCH  21  22
ENDBRANCH  20  21
ENDBRANCH   1  20
TORSDOF 18
