REMARK SMILES C=CC[N@@H+](CC(=O)OCCOC(=O)c1ccc(-c2c3nc(c(-c4cc(S(=O)(=O)[O-])ccc4F)c4ccc([nH]4)c(-c4cc(S(=O)(=O)[O-])ccc4F)c4nc(c(-c5cc(S(=O)(=O)[O-])ccc5F)c5ccc2[nH]5)C=C4)C=C3)cc1)C[C@H]1CCC[C@H](C)C1
REMARK SMILES IDX 9 1 8 2 6 3 7 4 5 5 4 6 3 8 2 9 1 10 77 11 78 12 79 13 84 14
REMARK SMILES IDX 80 15 82 16 81 17 83 18 10 19 11 20 12 21 13 22 14 23 15 24
REMARK SMILES IDX 76 25 16 26 75 27 17 28 18 29 19 30 69 31 20 32 74 33 68 34
REMARK SMILES IDX 70 35 21 36 73 37 67 38 66 39 22 41 54 42 34 43 53 44 35 45
REMARK SMILES IDX 38 46 52 47 71 48 36 49 37 50 51 52 72 53 39 54 23 55 24 56
REMARK SMILES IDX 32 57 25 58 31 59 33 60 30 61 26 62 27 63 28 64 29 65 55 66
REMARK SMILES IDX 56 67 64 68 57 69 63 70 65 71 62 72 58 73 59 74 60 75 61 76
REMARK SMILES IDX 40 77 41 78 49 79 42 80 48 81 50 82 47 83 43 84 44 85 45 86
REMARK SMILES IDX 46 87
REMARK H PARENT 4 7 70 40 38 51
REMARK Flexibility Score: inf
ROOT
ATOM      1  C   UNL     1      -4.227   1.051   1.097  1.00  0.00     0.274 C 
ENDROOT
BRANCH   1   2
ATOM      2  O   UNL     1      -3.340   0.491   0.108  1.00  0.00    -0.458 OA
BRANCH   2   3
ATOM      3  C   UNL     1      -3.895  -0.155  -0.951  1.00  0.00     0.361 C 
ATOM      4  O   UNL     1      -5.106  -0.247  -1.133  1.00  0.00    -0.245 OA
BRANCH   3   5
ATOM      5  C   UNL     1      -2.879  -0.792  -1.919  1.00  0.00     0.386 C 
BRANCH   5   6
ATOM      6  N   UNL     1      -1.430  -0.711  -1.564  1.00  0.00    -0.322 N 
ATOM      7  H   UNL     1      -0.866  -1.351  -2.123  1.00  0.00     0.348 HD
BRANCH   6   8
ATOM      8  C   UNL     1      -1.199  -1.203  -0.203  1.00  0.00     0.290 C 
BRANCH   8   9
ATOM      9  C   UNL     1       0.065  -1.995  -0.066  1.00  0.00     0.025 C 
ATOM     10  C   UNL     1       0.914  -1.867   0.963  1.00  0.00     0.010 C 
ENDBRANCH   8   9
ENDBRANCH   6   8
BRANCH   6  11
ATOM     11  C   UNL     1      -0.887   0.617  -1.934  1.00  0.00     0.266 C 
BRANCH  11  12
ATOM     12  C   UNL     1       0.409   1.112  -1.265  1.00  0.00     0.044 C 
ATOM     13  C   UNL     1       1.693   0.396  -1.702  1.00  0.00     0.009 C 
ATOM     14  C   UNL     1       0.638   2.616  -1.513  1.00  0.00     0.012 C 
ATOM     15  C   UNL     1       2.841   0.827  -0.784  1.00  0.00     0.001 C 
ATOM     16  C   UNL     1       1.764   3.164  -0.620  1.00  0.00    -0.014 C 
ATOM     17  C   UNL     1       3.054   2.343  -0.793  1.00  0.00     0.003 C 
ATOM     18  C   UNL     1       1.323   3.239   0.847  1.00  0.00     0.007 C 
ENDBRANCH  11  12
ENDBRANCH   6  11
ENDBRANCH   5   6
ENDBRANCH   3   5
ENDBRANCH   2   3
ENDBRANCH   1   2
BRANCH   1  19
ATOM     19  C   UNL     1      -4.138   2.570   1.069  1.00  0.00     0.275 C 
BRANCH  19  20
ATOM     20  O   UNL     1      -4.525   3.016  -0.239  1.00  0.00    -0.458 OA
BRANCH  20  21
ATOM     21  C   UNL     1      -3.550   3.603  -0.963  1.00  0.00     0.338 C 
ATOM     22  O   UNL     1      -2.434   3.929  -0.582  1.00  0.00    -0.246 OA
BRANCH  21  23
ATOM     23  C   UNL     1      -4.049   3.841  -2.320  1.00  0.00     0.060 A 
ATOM     24  C   UNL     1      -4.385   2.771  -3.154  1.00  0.00     0.016 A 
ATOM     25  C   UNL     1      -4.162   5.157  -2.765  1.00  0.00     0.016 A 
ATOM     26  C   UNL     1      -4.846   3.018  -4.445  1.00  0.00     0.010 A 
ATOM     27  C   UNL     1      -4.679   5.402  -4.035  1.00  0.00     0.010 A 
ATOM     28  C   UNL     1      -5.032   4.336  -4.881  1.00  0.00    -0.014 A 
BRANCH  28  29
ATOM     29  C   UNL     1      -5.651   4.630  -6.196  1.00  0.00     0.031 A 
ATOM     30  C   UNL     1      -4.859   5.332  -7.259  1.00  0.00     0.074 A 
ATOM     31  C   UNL     1      -6.952   4.338  -6.389  1.00  0.00     0.049 A 
ATOM     32  N   UNL     1      -5.271   5.881  -8.371  1.00  0.00    -0.248 NA
ATOM     33  C   UNL     1      -3.410   5.441  -7.029  1.00  0.00     0.031 C 
ATOM     34  C   UNL     1      -7.809   3.629  -5.435  1.00  0.00     0.029 A 
ATOM     35  N   UNL     1      -7.790   4.628  -7.436  1.00  0.00    -0.354 N 
ATOM     36  C   UNL     1      -4.140   6.428  -8.965  1.00  0.00     0.074 A 
ATOM     37  C   UNL     1      -3.027   6.156  -8.078  1.00  0.00     0.031 C 
ATOM     38  C   UNL     1      -9.050   3.548  -5.936  1.00  0.00     0.029 A 
ATOM     39  C   UNL     1      -9.097   4.265  -7.205  1.00  0.00     0.049 A 
ATOM     40  H   UNL     1      -7.486   5.052  -8.271  1.00  0.00     0.167 HD
ATOM     41  C   UNL     1      -4.048   7.096 -10.142  1.00  0.00     0.034 A 
ATOM     42  C   UNL     1     -10.217   4.533  -7.904  1.00  0.00     0.034 A 
ATOM     43  C   UNL     1      -5.177   7.351 -11.005  1.00  0.00     0.049 A 
ATOM     44  C   UNL     1     -10.104   5.353  -9.161  1.00  0.00     0.074 A 
ATOM     45  C   UNL     1      -5.197   7.985 -12.236  1.00  0.00     0.029 A 
ATOM     46  N   UNL     1      -6.490   6.994 -10.724  1.00  0.00    -0.354 N 
ATOM     47  N   UNL     1      -9.031   5.875  -9.712  1.00  0.00    -0.248 NA
ATOM     48  C   UNL     1     -11.350   5.629  -9.886  1.00  0.00     0.031 C 
ATOM     49  C   UNL     1      -6.527   8.073 -12.663  1.00  0.00     0.029 A 
ATOM     50  C   UNL     1      -7.332   7.430 -11.736  1.00  0.00     0.049 A 
ATOM     51  H   UNL     1      -6.782   6.503  -9.921  1.00  0.00     0.167 HD
ATOM     52  C   UNL     1      -9.474   6.527 -10.858  1.00  0.00     0.074 A 
ATOM     53  C   UNL     1     -10.907   6.319 -10.927  1.00  0.00     0.031 C 
ATOM     54  C   UNL     1      -8.762   7.231 -11.773  1.00  0.00     0.034 A 
BRANCH  41  55
ATOM     55  C   UNL     1      -2.697   7.646 -10.528  1.00  0.00     0.023 A 
ATOM     56  C   UNL     1      -1.605   6.808 -10.812  1.00  0.00     0.031 A 
ATOM     57  C   UNL     1      -2.495   9.037 -10.593  1.00  0.00     0.131 A 
ATOM     58  C   UNL     1      -0.347   7.367 -11.088  1.00  0.00     0.055 A 
ATOM     59  C   UNL     1      -1.259   9.587 -10.938  1.00  0.00     0.041 A 
ATOM     60  F   UNL     1      -3.495   9.887 -10.310  1.00  0.00    -0.206 F 
ATOM     61  C   UNL     1      -0.172   8.751 -11.175  1.00  0.00     0.022 A 
BRANCH  58  62
ATOM     62  S   UNL     1       1.087   6.263 -11.204  1.00  0.00     0.124 S 
ATOM     63  O   UNL     1       1.074   5.620  -9.893  1.00  0.00    -0.237 OA
ATOM     64  O   UNL     1       0.740   5.413 -12.337  1.00  0.00    -0.237 OA
ATOM     65  O   UNL     1       2.206   7.177 -11.430  1.00  0.00    -0.744 OA
ENDBRANCH  58  62
ENDBRANCH  41  55
BRANCH  42  66
ATOM     66  C   UNL     1     -11.545   4.089  -7.394  1.00  0.00     0.023 A 
ATOM     67  C   UNL     1     -12.318   3.158  -8.104  1.00  0.00     0.031 A 
ATOM     68  C   UNL     1     -12.074   4.612  -6.199  1.00  0.00     0.131 A 
ATOM     69  C   UNL     1     -13.592   2.805  -7.634  1.00  0.00     0.055 A 
ATOM     70  C   UNL     1     -13.318   4.217  -5.708  1.00  0.00     0.041 A 
ATOM     71  F   UNL     1     -11.375   5.506  -5.481  1.00  0.00    -0.206 F 
ATOM     72  C   UNL     1     -14.091   3.316  -6.433  1.00  0.00     0.022 A 
BRANCH  69  73
ATOM     73  S   UNL     1     -14.625   1.722  -8.658  1.00  0.00     0.124 S 
ATOM     74  O   UNL     1     -14.705   2.478  -9.903  1.00  0.00    -0.237 OA
ATOM     75  O   UNL     1     -13.832   0.498  -8.700  1.00  0.00    -0.237 OA
ATOM     76  O   UNL     1     -15.872   1.629  -7.903  1.00  0.00    -0.744 OA
ENDBRANCH  69  73
ENDBRANCH  42  66
BRANCH  54  77
ATOM     77  C   UNL     1      -9.530   7.796 -12.941  1.00  0.00     0.023 A 
ATOM     78  C   UNL     1     -10.441   8.854 -12.781  1.00  0.00     0.031 A 
ATOM     79  C   UNL     1      -9.353   7.259 -14.228  1.00  0.00     0.131 A 
ATOM     80  C   UNL     1     -11.177   9.312 -13.883  1.00  0.00     0.055 A 
ATOM     81  C   UNL     1     -10.049   7.755 -15.331  1.00  0.00     0.041 A 
ATOM     82  F   UNL     1      -8.497   6.245 -14.434  1.00  0.00    -0.206 F 
ATOM     83  C   UNL     1     -10.975   8.780 -15.160  1.00  0.00     0.022 A 
BRANCH  80  84
ATOM     84  S   UNL     1     -12.458  10.568 -13.616  1.00  0.00     0.124 S 
ATOM     85  O   UNL     1     -13.373   9.880 -12.712  1.00  0.00    -0.237 OA
ATOM     86  O   UNL     1     -11.699  11.672 -13.036  1.00  0.00    -0.237 OA
ATOM     87  O   UNL     1     -12.981  10.816 -14.958  1.00  0.00    -0.744 OA
ENDBRANCH  80  84
ENDBRANCH  54  77
ENDBRANCH  28  29
ENDBRANCH  21  23
ENDBRANCH  20  21
ENDBRANCH  19  20
ENDBRANCH   1  19
TORSDOF 19
