REMARK SMILES Cc1cc(C)c2c(=O)n(CCCC(=O)OCCOC(=O)c3ccc(-c4c5nc(c(-c6cc(S(=O)(=O)[O-])ccc6F)c6ccc([nH]6)c(-c6cc(S(=O)(=O)[O-])ccc6F)c6nc(c(-c7cc(S(=O)(=O)[O-])ccc7F)c7ccc4[nH]7)C=C6)C=C5)cc3)sc2n1
REMARK SMILES IDX 16 1 15 2 13 3 14 4 12 5 11 6 10 7 9 8 1 9 2 10 3 11 86 12
REMARK SMILES IDX 4 13 85 14 5 15 6 16 84 17 7 18 8 19 17 20 18 21 19 22 20 23
REMARK SMILES IDX 21 24 22 25 83 26 23 27 82 28 24 29 25 30 26 31 76 32 27 33
REMARK SMILES IDX 81 34 75 35 77 36 28 37 80 38 74 39 73 40 29 42 61 43 41 44
REMARK SMILES IDX 60 45 42 46 45 47 59 48 78 49 43 50 44 51 58 53 79 54 46 55
REMARK SMILES IDX 30 56 31 57 39 58 32 59 38 60 40 61 37 62 33 63 34 64 35 65
REMARK SMILES IDX 36 66 62 67 63 68 71 69 64 70 70 71 72 72 69 73 65 74 66 75
REMARK SMILES IDX 67 76 68 77 47 78 48 79 56 80 49 81 55 82 57 83 54 84 50 85
REMARK SMILES IDX 51 86 52 87 53 88
REMARK H PARENT 77 41 45 52
REMARK Flexibility Score: inf
ROOT
ATOM      1  C   UNL     1       0.088   7.851  -1.387  1.00  0.00     0.274 C 
ENDROOT
BRANCH   1   2
ATOM      2  O   UNL     1       0.728   7.322  -0.214  1.00  0.00    -0.462 OA
BRANCH   2   3
ATOM      3  C   UNL     1       2.078   7.244  -0.170  1.00  0.00     0.305 C 
ATOM      4  O   UNL     1       2.814   7.485  -1.121  1.00  0.00    -0.252 OA
BRANCH   3   5
ATOM      5  C   UNL     1       2.605   6.748   1.169  1.00  0.00     0.124 C 
BRANCH   5   6
ATOM      6  C   UNL     1       1.782   6.914   2.458  1.00  0.00     0.035 C 
BRANCH   6   7
ATOM      7  C   UNL     1       0.289   6.545   2.469  1.00  0.00     0.139 C 
BRANCH   7   8
ATOM      8  N   UNL     1       0.003   5.160   2.127  1.00  0.00    -0.262 N 
ATOM      9  C   UNL     1       0.758  -0.498   0.106  1.00  0.00     0.067 C 
ATOM     10  C   UNL     1       0.251   0.658   0.909  1.00  0.00     0.039 A 
ATOM     11  C   UNL     1      -0.288   0.490   2.193  1.00  0.00     0.027 A 
ATOM     12  N   UNL     1       0.409   1.867   0.338  1.00  0.00    -0.241 NA
ATOM     13  C   UNL     1      -0.637   1.613   2.964  1.00  0.00    -0.033 A 
ATOM     14  C   UNL     1       0.089   2.916   1.109  1.00  0.00     0.146 A 
ATOM     15  C   UNL     1      -1.264   1.475   4.314  1.00  0.00     0.045 C 
ATOM     16  C   UNL     1      -0.369   2.855   2.409  1.00  0.00     0.081 A 
ATOM     17  S   UNL     1       0.227   4.564   0.539  1.00  0.00    -0.035 S 
ATOM     18  C   UNL     1      -0.418   4.198   3.042  1.00  0.00     0.270 A 
ATOM     19  O   UNL     1      -0.723   4.368   4.200  1.00  0.00    -0.268 OA
ENDBRANCH   7   8
ENDBRANCH   6   7
ENDBRANCH   5   6
ENDBRANCH   3   5
ENDBRANCH   2   3
ENDBRANCH   1   2
BRANCH   1  20
ATOM     20  C   UNL     1      -0.259   9.311  -1.160  1.00  0.00     0.275 C 
BRANCH  20  21
ATOM     21  O   UNL     1       0.940  10.063  -1.022  1.00  0.00    -0.458 OA
BRANCH  21  22
ATOM     22  C   UNL     1       1.404  10.138   0.245  1.00  0.00     0.338 C 
ATOM     23  O   UNL     1       0.984   9.550   1.227  1.00  0.00    -0.246 OA
BRANCH  22  24
ATOM     24  C   UNL     1       2.423  11.173   0.322  1.00  0.00     0.060 A 
ATOM     25  C   UNL     1       3.195  11.234   1.486  1.00  0.00     0.016 A 
ATOM     26  C   UNL     1       2.319  12.235  -0.583  1.00  0.00     0.016 A 
ATOM     27  C   UNL     1       3.702  12.457   1.855  1.00  0.00     0.010 A 
ATOM     28  C   UNL     1       2.798  13.454  -0.199  1.00  0.00     0.010 A 
ATOM     29  C   UNL     1       3.404  13.559   1.050  1.00  0.00    -0.014 A 
BRANCH  29  30
ATOM     30  C   UNL     1       3.806  14.869   1.492  1.00  0.00     0.031 A 
ATOM     31  C   UNL     1       5.246  15.117   1.285  1.00  0.00     0.074 A 
ATOM     32  C   UNL     1       2.902  15.788   1.873  1.00  0.00     0.049 A 
ATOM     33  N   UNL     1       6.154  15.245   2.190  1.00  0.00    -0.248 NA
ATOM     34  C   UNL     1       5.777  15.001  -0.085  1.00  0.00     0.031 C 
ATOM     35  C   UNL     1       1.441  15.707   1.825  1.00  0.00     0.029 A 
ATOM     36  N   UNL     1       3.119  17.065   2.266  1.00  0.00    -0.354 N 
ATOM     37  C   UNL     1       7.333  15.476   1.497  1.00  0.00     0.074 A 
ATOM     38  C   UNL     1       7.088  15.078   0.139  1.00  0.00     0.031 C 
ATOM     39  C   UNL     1       0.928  16.956   1.922  1.00  0.00     0.029 A 
ATOM     40  C   UNL     1       2.014  17.898   2.147  1.00  0.00     0.049 A 
ATOM     41  H   UNL     1       3.988  17.378   2.607  1.00  0.00     0.167 HD
ATOM     42  C   UNL     1       8.322  16.234   2.038  1.00  0.00     0.034 A 
ATOM     43  C   UNL     1       2.040  19.259   2.119  1.00  0.00     0.034 A 
ATOM     44  C   UNL     1       8.136  16.400   3.461  1.00  0.00     0.049 A 
ATOM     45  C   UNL     1       3.323  19.657   2.775  1.00  0.00     0.074 A 
ATOM     46  C   UNL     1       8.021  15.520   4.521  1.00  0.00     0.029 A 
ATOM     47  N   UNL     1       7.613  17.594   3.910  1.00  0.00    -0.354 N 
ATOM     48  N   UNL     1       3.597  19.393   4.028  1.00  0.00    -0.248 NA
ATOM     49  C   UNL     1       4.491  19.855   1.922  1.00  0.00     0.031 C 
ATOM     50  C   UNL     1       6.989  16.068   5.338  1.00  0.00     0.029 A 
ATOM     51  C   UNL     1       6.595  17.287   4.781  1.00  0.00     0.049 A 
ATOM     52  H   UNL     1       7.913  18.496   3.655  1.00  0.00     0.167 HD
ATOM     53  C   UNL     1       4.923  18.976   4.033  1.00  0.00     0.074 A 
ATOM     54  C   UNL     1       5.444  19.358   2.720  1.00  0.00     0.031 C 
ATOM     55  C   UNL     1       5.399  18.092   4.962  1.00  0.00     0.034 A 
BRANCH  42  56
ATOM     56  C   UNL     1       9.235  17.125   1.237  1.00  0.00     0.023 A 
ATOM     57  C   UNL     1      10.277  17.760   1.932  1.00  0.00     0.031 A 
ATOM     58  C   UNL     1       8.977  17.602  -0.070  1.00  0.00     0.131 A 
ATOM     59  C   UNL     1      10.945  18.861   1.373  1.00  0.00     0.055 A 
ATOM     60  C   UNL     1       9.694  18.650  -0.649  1.00  0.00     0.041 A 
ATOM     61  F   UNL     1       7.961  17.158  -0.819  1.00  0.00    -0.206 F 
ATOM     62  C   UNL     1      10.664  19.308   0.085  1.00  0.00     0.022 A 
BRANCH  59  63
ATOM     63  S   UNL     1      12.074  19.798   2.429  1.00  0.00     0.124 S 
ATOM     64  O   UNL     1      11.201  20.171   3.537  1.00  0.00    -0.237 OA
ATOM     65  O   UNL     1      13.102  18.806   2.725  1.00  0.00    -0.237 OA
ATOM     66  O   UNL     1      12.501  20.901   1.572  1.00  0.00    -0.744 OA
ENDBRANCH  59  63
ENDBRANCH  42  56
BRANCH  43  67
ATOM     67  C   UNL     1       1.224  20.138   1.220  1.00  0.00     0.023 A 
ATOM     68  C   UNL     1       1.124  21.537   1.392  1.00  0.00     0.031 A 
ATOM     69  C   UNL     1       0.677  19.622   0.019  1.00  0.00     0.131 A 
ATOM     70  C   UNL     1       0.486  22.338   0.408  1.00  0.00     0.055 A 
ATOM     71  C   UNL     1       0.036  20.414  -0.938  1.00  0.00     0.041 A 
ATOM     72  F   UNL     1       0.816  18.332  -0.320  1.00  0.00    -0.206 F 
ATOM     73  C   UNL     1      -0.057  21.780  -0.750  1.00  0.00     0.022 A 
BRANCH  70  74
ATOM     74  S   UNL     1       0.441  24.155   0.568  1.00  0.00     0.124 S 
ATOM     75  O   UNL     1      -0.549  24.347   1.621  1.00  0.00    -0.237 OA
ATOM     76  O   UNL     1       1.822  24.477   0.908  1.00  0.00    -0.237 OA
ATOM     77  O   UNL     1       0.021  24.604  -0.761  1.00  0.00    -0.744 OA
ENDBRANCH  70  74
ENDBRANCH  43  67
BRANCH  55  78
ATOM     78  C   UNL     1       4.547  17.738   6.165  1.00  0.00     0.023 A 
ATOM     79  C   UNL     1       3.306  17.062   6.104  1.00  0.00     0.031 A 
ATOM     80  C   UNL     1       5.136  17.910   7.430  1.00  0.00     0.131 A 
ATOM     81  C   UNL     1       2.710  16.581   7.289  1.00  0.00     0.055 A 
ATOM     82  C   UNL     1       4.553  17.414   8.595  1.00  0.00     0.041 A 
ATOM     83  F   UNL     1       6.333  18.510   7.545  1.00  0.00    -0.206 F 
ATOM     84  C   UNL     1       3.337  16.746   8.529  1.00  0.00     0.022 A 
BRANCH  81  85
ATOM     85  S   UNL     1       1.120  15.687   7.236  1.00  0.00     0.124 S 
ATOM     86  O   UNL     1       0.220  16.649   6.610  1.00  0.00    -0.237 OA
ATOM     87  O   UNL     1       1.444  14.501   6.447  1.00  0.00    -0.237 OA
ATOM     88  O   UNL     1       0.832  15.414   8.646  1.00  0.00    -0.744 OA
ENDBRANCH  81  85
ENDBRANCH  55  78
ENDBRANCH  29  30
ENDBRANCH  22  24
ENDBRANCH  21  22
ENDBRANCH  20  21
ENDBRANCH   1  20
TORSDOF 17
