REMARK SMILES CCc1cc(S(F)(F)(F)(F)F)cc2c1O[C@@H](C(F)(F)F)C(C(=O)OCCOC(=O)c1ccc(-c3c4nc(c(-c5cc(S(=O)(=O)[O-])ccc5F)c5ccc([nH]5)c(-c5cc(S(=O)(=O)[O-])ccc5F)c5nc(c(-c6cc(S(=O)(=O)[O-])ccc6F)c6ccc3[nH]6)C=C5)C=C4)cc1)=C2
REMARK SMILES IDX 26 1 25 2 24 3 22 4 23 5 21 6 3 7 4 8 14 9 5 10 13 11 15 12
REMARK SMILES IDX 12 13 93 14 16 15 2 16 1 17 6 18 7 19 8 20 9 21 10 22 11 23
REMARK SMILES IDX 17 24 18 25 19 26 20 27 27 28 28 29 29 30 30 31 31 32 92 33
REMARK SMILES IDX 32 34 91 35 33 36 34 37 35 38 85 39 36 40 90 41 84 42 86 43
REMARK SMILES IDX 37 44 89 45 83 46 82 47 38 49 70 50 50 51 69 52 51 53 54 54
REMARK SMILES IDX 68 55 87 56 52 57 53 58 67 60 88 61 55 62 39 63 40 64 48 65
REMARK SMILES IDX 41 66 47 67 49 68 46 69 42 70 43 71 44 72 45 73 71 74 72 75
REMARK SMILES IDX 80 76 73 77 79 78 81 79 78 80 74 81 75 82 76 83 77 84 56 85
REMARK SMILES IDX 57 86 65 87 58 88 64 89 66 90 63 91 59 92 60 93 61 94 62 95
REMARK H PARENT 86 48 54 59
REMARK Flexibility Score: inf
ROOT
ATOM      1  C   UNL     1       4.063   2.294  -9.982  1.00  0.00     0.275 C 
ENDROOT
BRANCH   1   2
ATOM      2  C   UNL     1       4.956   1.389  -9.150  1.00  0.00     0.275 C 
BRANCH   2   3
ATOM      3  O   UNL     1       4.212   0.857  -8.064  1.00  0.00    -0.459 OA
BRANCH   3   4
ATOM      4  C   UNL     1       3.625   1.730  -7.110  1.00  0.00     0.338 C 
ATOM      5  O   UNL     1       3.766   2.988  -7.229  1.00  0.00    -0.246 OA
BRANCH   4   6
ATOM      6  C   UNL     1       2.828   1.161  -5.948  1.00  0.00     0.087 C 
ATOM      7  C   UNL     1       1.060  -0.336  -2.472  1.00  0.00    -0.004 A 
ATOM      8  C   UNL     1       0.713  -1.672  -2.395  1.00  0.00     0.032 A 
ATOM      9  C   UNL     1       1.689   0.118  -3.606  1.00  0.00     0.131 A 
ATOM     10  C   UNL     1       0.991  -2.533  -3.424  1.00  0.00     0.108 A 
ATOM     11  C   UNL     1       1.969  -0.717  -4.672  1.00  0.00     0.019 A 
ATOM     12  O   UNL     1       2.128   1.419  -3.622  1.00  0.00    -0.475 OA
ATOM     13  C   UNL     1       1.611  -2.056  -4.560  1.00  0.00     0.036 A 
ATOM     14  C   UNL     1       2.671  -0.150  -5.810  1.00  0.00     0.027 C 
ATOM     15  C   UNL     1       2.192   2.083  -4.916  1.00  0.00     0.316 C 
BRANCH   7  16
ATOM     16  C   UNL     1       0.553   0.577  -1.367  1.00  0.00     0.036 C 
ATOM     17  C   UNL     1       1.060   0.076  -0.024  1.00  0.00     0.009 C 
ENDBRANCH   7  16
BRANCH  10  18
ATOM     18  S   UNL     1       0.550  -4.284  -3.293  1.00  0.00     0.310 S 
ATOM     19  F   UNL     1       0.807  -4.293  -1.728  1.00  0.00    -0.094 F 
ATOM     20  F   UNL     1       2.074  -4.640  -3.476  1.00  0.00    -0.094 F 
ATOM     21  F   UNL     1       0.183  -5.790  -3.180  1.00  0.00    -0.094 F 
ATOM     22  F   UNL     1      -0.949  -3.903  -2.971  1.00  0.00    -0.094 F 
ATOM     23  F   UNL     1       0.925  -2.748  -3.292  1.00  0.00    -0.094 F 
ENDBRANCH  10  18
BRANCH  15  24
ATOM     24  C   UNL     1       3.035   3.341  -4.787  1.00  0.00     0.430 C 
ATOM     25  F   UNL     1       3.095   3.956  -5.965  1.00  0.00    -0.167 F 
ATOM     26  F   UNL     1       2.484   4.154  -3.890  1.00  0.00    -0.167 F 
ATOM     27  F   UNL     1       4.263   3.014  -4.394  1.00  0.00    -0.167 F 
ENDBRANCH  15  24
ENDBRANCH   4   6
ENDBRANCH   3   4
ENDBRANCH   2   3
ENDBRANCH   1   2
BRANCH   1  28
ATOM     28  O   UNL     1       3.581   3.357  -9.173  1.00  0.00    -0.458 OA
BRANCH  28  29
ATOM     29  C   UNL     1       2.804   3.074  -8.019  1.00  0.00     0.338 C 
ATOM     30  O   UNL     1       2.539   1.870  -7.710  1.00  0.00    -0.246 OA
BRANCH  29  31
ATOM     31  C   UNL     1       2.288   4.212  -7.153  1.00  0.00     0.060 A 
ATOM     32  C   UNL     1       2.260   4.010  -5.783  1.00  0.00     0.016 A 
ATOM     33  C   UNL     1       1.737   5.288  -7.701  1.00  0.00     0.016 A 
ATOM     34  C   UNL     1       1.368   4.866  -5.095  1.00  0.00     0.010 A 
ATOM     35  C   UNL     1       0.990   6.156  -6.942  1.00  0.00     0.010 A 
ATOM     36  C   UNL     1       0.870   5.984  -5.591  1.00  0.00    -0.014 A 
BRANCH  36  37
ATOM     37  C   UNL     1       0.201   7.024  -4.707  1.00  0.00     0.031 A 
ATOM     38  C   UNL     1      -1.130   7.400  -4.897  1.00  0.00     0.074 A 
ATOM     39  C   UNL     1       0.980   7.442  -3.641  1.00  0.00     0.049 A 
ATOM     40  N   UNL     1      -1.878   8.170  -4.105  1.00  0.00    -0.248 NA
ATOM     41  C   UNL     1      -1.948   6.986  -6.046  1.00  0.00     0.031 C 
ATOM     42  C   UNL     1       2.320   7.060  -3.439  1.00  0.00     0.029 A 
ATOM     43  N   UNL     1       0.620   8.279  -2.609  1.00  0.00    -0.354 N 
ATOM     44  C   UNL     1      -3.109   8.290  -4.607  1.00  0.00     0.074 A 
ATOM     45  C   UNL     1      -3.169   7.535  -5.866  1.00  0.00     0.031 C 
ATOM     46  C   UNL     1       2.765   7.667  -2.307  1.00  0.00     0.029 A 
ATOM     47  C   UNL     1       1.710   8.438  -1.783  1.00  0.00     0.049 A 
ATOM     48  H   UNL     1      -0.265   8.693  -2.482  1.00  0.00     0.167 HD
ATOM     49  C   UNL     1      -4.182   8.997  -4.065  1.00  0.00     0.034 A 
ATOM     50  C   UNL     1       1.801   9.208  -0.635  1.00  0.00     0.034 A 
ATOM     51  C   UNL     1      -4.104   9.733  -2.893  1.00  0.00     0.049 A 
ATOM     52  C   UNL     1       0.743   9.963  -0.122  1.00  0.00     0.074 A 
ATOM     53  C   UNL     1      -5.179  10.445  -2.328  1.00  0.00     0.029 A 
ATOM     54  N   UNL     1      -3.006   9.911  -2.080  1.00  0.00    -0.354 N 
ATOM     55  N   UNL     1      -0.498  10.051  -0.604  1.00  0.00    -0.248 NA
ATOM     56  C   UNL     1       0.836  10.809   1.075  1.00  0.00     0.031 C 
ATOM     57  C   UNL     1      -4.734  11.053  -1.196  1.00  0.00     0.029 A 
ATOM     58  C   UNL     1      -3.373  10.730  -1.035  1.00  0.00     0.049 A 
ATOM     59  H   UNL     1      -2.114   9.521  -2.222  1.00  0.00     0.167 HD
ATOM     60  C   UNL     1      -1.234  10.854   0.166  1.00  0.00     0.074 A 
ATOM     61  C   UNL     1      -0.384  11.359   1.253  1.00  0.00     0.031 C 
ATOM     62  C   UNL     1      -2.582  11.184   0.009  1.00  0.00     0.034 A 
BRANCH  49  63
ATOM     63  C   UNL     1      -5.512   8.958  -4.800  1.00  0.00     0.023 A 
ATOM     64  C   UNL     1      -6.141   7.741  -5.002  1.00  0.00     0.031 A 
ATOM     65  C   UNL     1      -6.048  10.092  -5.236  1.00  0.00     0.131 A 
ATOM     66  C   UNL     1      -7.203   7.793  -5.937  1.00  0.00     0.055 A 
ATOM     67  C   UNL     1      -7.166  10.075  -6.035  1.00  0.00     0.041 A 
ATOM     68  F   UNL     1      -5.499  11.255  -4.897  1.00  0.00    -0.206 F 
ATOM     69  C   UNL     1      -7.806   8.902  -6.325  1.00  0.00     0.022 A 
BRANCH  66  70
ATOM     70  S   UNL     1      -7.773   6.230  -6.650  1.00  0.00     0.124 S 
ATOM     71  O   UNL     1      -6.617   5.556  -7.393  1.00  0.00    -0.237 OA
ATOM     72  O   UNL     1      -8.267   5.309  -5.532  1.00  0.00    -0.237 OA
ATOM     73  O   UNL     1      -9.051   6.536  -7.744  1.00  0.00    -0.744 OA
ENDBRANCH  66  70
ENDBRANCH  49  63
BRANCH  50  74
ATOM     74  C   UNL     1       3.126   9.233   0.110  1.00  0.00     0.023 A 
ATOM     75  C   UNL     1       3.175   8.801   1.425  1.00  0.00     0.031 A 
ATOM     76  C   UNL     1       4.215   9.669  -0.513  1.00  0.00     0.131 A 
ATOM     77  C   UNL     1       4.373   9.141   2.095  1.00  0.00     0.055 A 
ATOM     78  C   UNL     1       5.390   9.849   0.175  1.00  0.00     0.041 A 
ATOM     79  F   UNL     1       4.167   9.934  -1.816  1.00  0.00    -0.206 F 
ATOM     80  C   UNL     1       5.493   9.499   1.493  1.00  0.00     0.022 A 
BRANCH  77  81
ATOM     81  S   UNL     1       4.372   9.080   3.904  1.00  0.00     0.124 S 
ATOM     82  O   UNL     1       3.321  10.051   4.447  1.00  0.00    -0.237 OA
ATOM     83  O   UNL     1       4.042   7.659   4.367  1.00  0.00    -0.237 OA
ATOM     84  O   UNL     1       5.916   9.526   4.490  1.00  0.00    -0.744 OA
ENDBRANCH  77  81
ENDBRANCH  50  74
BRANCH  62  85
ATOM     85  C   UNL     1      -3.220  12.095   1.044  1.00  0.00     0.023 A 
ATOM     86  C   UNL     1      -2.578  13.293   1.314  1.00  0.00     0.031 A 
ATOM     87  C   UNL     1      -4.257  11.691   1.768  1.00  0.00     0.131 A 
ATOM     88  C   UNL     1      -2.926  13.862   2.562  1.00  0.00     0.055 A 
ATOM     89  C   UNL     1      -4.627  12.374   2.901  1.00  0.00     0.041 A 
ATOM     90  F   UNL     1      -4.944  10.616   1.393  1.00  0.00    -0.206 F 
ATOM     91  C   UNL     1      -3.997  13.533   3.261  1.00  0.00     0.022 A 
BRANCH  88  92
ATOM     92  S   UNL     1      -1.829  15.128   3.246  1.00  0.00     0.124 S 
ATOM     93  O   UNL     1      -0.433  14.536   3.452  1.00  0.00    -0.237 OA
ATOM     94  O   UNL     1      -1.744  16.308   2.276  1.00  0.00    -0.237 OA
ATOM     95  O   UNL     1      -2.446  15.666   4.747  1.00  0.00    -0.744 OA
ENDBRANCH  88  92
ENDBRANCH  62  85
ENDBRANCH  36  37
ENDBRANCH  29  31
ENDBRANCH  28  29
ENDBRANCH   1  28
TORSDOF 17
