REMARK SMILES COc1cc([C@H]2C[C@@H](C(=O)OCCOC(=O)c3ccc(-c4c5nc(c(-c6cc(S(=O)(=O)[O-])ccc6F)c6ccc([nH]6)c(-c6cc(S(=O)(=O)[O-])ccc6F)c6nc(c(-c7cc(S(=O)(=O)[O-])ccc7F)c7ccc4[nH]7)C=C6)C=C5)cc3)C2)ccc1Br
REMARK SMILES IDX 13 1 12 2 11 3 9 4 10 5 8 6 6 7 7 8 80 9 5 10 3 11 4 12
REMARK SMILES IDX 83 13 82 14 84 15 81 16 2 17 1 18 14 19 15 20 16 21 17 22
REMARK SMILES IDX 18 23 79 24 19 25 78 26 20 27 21 28 22 29 72 30 23 31 77 32
REMARK SMILES IDX 71 33 73 34 24 35 76 36 70 37 69 38 25 40 57 41 37 42 56 43
REMARK SMILES IDX 38 44 41 45 55 46 74 47 39 48 40 49 54 51 75 52 42 53 26 54
REMARK SMILES IDX 27 55 35 56 28 57 34 58 36 59 33 60 29 61 30 62 31 63 32 64
REMARK SMILES IDX 58 65 59 66 67 67 60 68 66 69 68 70 65 71 61 72 62 73 63 74
REMARK SMILES IDX 64 75 43 76 44 77 52 78 45 79 51 80 53 81 50 82 46 83 47 84
REMARK SMILES IDX 48 85 49 86
REMARK H PARENT 73 39 41 50
REMARK Flexibility Score: inf
ROOT
ATOM      1  C   UNL     1      -0.881  11.672   1.730  1.00  0.00     0.275 C 
ENDROOT
BRANCH   1   2
ATOM      2  C   UNL     1      -0.189  10.660   2.649  1.00  0.00     0.274 C 
BRANCH   2   3
ATOM      3  O   UNL     1      -0.294   9.325   2.118  1.00  0.00    -0.462 OA
BRANCH   3   4
ATOM      4  C   UNL     1      -1.127   8.464   2.774  1.00  0.00     0.309 C 
ATOM      5  O   UNL     1      -1.671   8.739   3.843  1.00  0.00    -0.252 OA
BRANCH   4   6
ATOM      6  C   UNL     1      -1.354   7.141   2.018  1.00  0.00     0.100 C 
ATOM      7  C   UNL     1      -0.659   5.339   1.101  1.00  0.00     0.021 C 
ATOM      8  C   UNL     1      -0.704   5.854   2.570  1.00  0.00     0.023 C 
ATOM      9  C   UNL     1      -0.620   6.837   0.687  1.00  0.00     0.023 C 
BRANCH   7  10
ATOM     10  C   UNL     1       0.519   4.373   0.681  1.00  0.00    -0.041 A 
ATOM     11  C   UNL     1       1.290   2.244  -0.277  1.00  0.00     0.133 A 
ATOM     12  C   UNL     1       0.263   3.132   0.062  1.00  0.00     0.051 A 
ATOM     13  C   UNL     1       2.619   2.597  -0.050  1.00  0.00     0.060 A 
ATOM     14  C   UNL     1       2.909   3.817   0.555  1.00  0.00     0.020 A 
ATOM     15  Br  UNL     1       4.060   1.471  -0.546  1.00  0.00    -0.047 Br
ATOM     16  C   UNL     1       1.872   4.684   0.914  1.00  0.00     0.005 A 
BRANCH  11  17
ATOM     17  O   UNL     1       0.945   1.071  -0.894  1.00  0.00    -0.496 OA
ATOM     18  C   UNL     1       0.718   0.045   0.074  1.00  0.00     0.278 C 
ENDBRANCH  11  17
ENDBRANCH   7  10
ENDBRANCH   4   6
ENDBRANCH   3   4
ENDBRANCH   2   3
ENDBRANCH   1   2
BRANCH   1  19
ATOM     19  O   UNL     1      -2.307  11.472   1.686  1.00  0.00    -0.458 OA
BRANCH  19  20
ATOM     20  C   UNL     1      -2.731  10.645   0.700  1.00  0.00     0.338 C 
ATOM     21  O   UNL     1      -2.043  10.086  -0.136  1.00  0.00    -0.246 OA
BRANCH  20  22
ATOM     22  C   UNL     1      -4.170  10.376   0.853  1.00  0.00     0.060 A 
ATOM     23  C   UNL     1      -4.548   9.068   1.156  1.00  0.00     0.016 A 
ATOM     24  C   UNL     1      -5.137  11.349   0.602  1.00  0.00     0.016 A 
ATOM     25  C   UNL     1      -5.889   8.712   1.195  1.00  0.00     0.010 A 
ATOM     26  C   UNL     1      -6.492  10.993   0.653  1.00  0.00     0.010 A 
ATOM     27  C   UNL     1      -6.875   9.669   0.936  1.00  0.00    -0.014 A 
BRANCH  27  28
ATOM     28  C   UNL     1      -8.298   9.247   0.902  1.00  0.00     0.031 A 
ATOM     29  C   UNL     1      -9.023   9.171  -0.412  1.00  0.00     0.074 A 
ATOM     30  C   UNL     1      -8.914   8.875   2.041  1.00  0.00     0.049 A 
ATOM     31  N   UNL     1     -10.281   8.908  -0.651  1.00  0.00    -0.248 NA
ATOM     32  C   UNL     1      -8.220   9.430  -1.616  1.00  0.00     0.031 C 
ATOM     33  C   UNL     1      -8.289   8.840   3.364  1.00  0.00     0.029 A 
ATOM     34  N   UNL     1     -10.198   8.449   2.267  1.00  0.00    -0.354 N 
ATOM     35  C   UNL     1     -10.431   8.995  -2.031  1.00  0.00     0.074 A 
ATOM     36  C   UNL     1      -9.136   9.354  -2.571  1.00  0.00     0.031 C 
ATOM     37  C   UNL     1      -9.189   8.407   4.262  1.00  0.00     0.029 A 
ATOM     38  C   UNL     1     -10.468   8.195   3.592  1.00  0.00     0.049 A 
ATOM     39  H   UNL     1     -10.863   8.336   1.550  1.00  0.00     0.167 HD
ATOM     40  C   UNL     1     -11.548   8.793  -2.774  1.00  0.00     0.034 A 
ATOM     41  C   UNL     1     -11.624   7.867   4.202  1.00  0.00     0.034 A 
ATOM     42  C   UNL     1     -12.828   8.425  -2.215  1.00  0.00     0.049 A 
ATOM     43  C   UNL     1     -12.867   7.717   3.364  1.00  0.00     0.074 A 
ATOM     44  C   UNL     1     -14.026   8.201  -2.871  1.00  0.00     0.029 A 
ATOM     45  N   UNL     1     -13.076   8.227  -0.862  1.00  0.00    -0.354 N 
ATOM     46  N   UNL     1     -13.009   7.851   2.065  1.00  0.00    -0.248 NA
ATOM     47  C   UNL     1     -14.107   7.379   4.075  1.00  0.00     0.031 C 
ATOM     48  C   UNL     1     -15.008   7.925  -1.912  1.00  0.00     0.029 A 
ATOM     49  C   UNL     1     -14.412   7.910  -0.662  1.00  0.00     0.049 A 
ATOM     50  H   UNL     1     -12.402   8.301  -0.148  1.00  0.00     0.167 HD
ATOM     51  C   UNL     1     -14.351   7.597   1.802  1.00  0.00     0.074 A 
ATOM     52  C   UNL     1     -14.971   7.284   3.075  1.00  0.00     0.031 C 
ATOM     53  C   UNL     1     -15.014   7.619   0.618  1.00  0.00     0.034 A 
BRANCH  40  54
ATOM     54  C   UNL     1     -11.442   9.036  -4.260  1.00  0.00     0.023 A 
ATOM     55  C   UNL     1     -10.637   8.237  -5.090  1.00  0.00     0.031 A 
ATOM     56  C   UNL     1     -12.127  10.116  -4.847  1.00  0.00     0.131 A 
ATOM     57  C   UNL     1     -10.482   8.571  -6.445  1.00  0.00     0.055 A 
ATOM     58  C   UNL     1     -12.027  10.398  -6.210  1.00  0.00     0.041 A 
ATOM     59  F   UNL     1     -12.892  10.927  -4.099  1.00  0.00    -0.206 F 
ATOM     60  C   UNL     1     -11.190   9.632  -7.016  1.00  0.00     0.022 A 
BRANCH  57  61
ATOM     61  S   UNL     1      -9.235   7.686  -7.421  1.00  0.00     0.124 S 
ATOM     62  O   UNL     1      -8.016   7.969  -6.668  1.00  0.00    -0.237 OA
ATOM     63  O   UNL     1      -9.713   6.310  -7.371  1.00  0.00    -0.237 OA
ATOM     64  O   UNL     1      -9.309   8.326  -8.733  1.00  0.00    -0.744 OA
ENDBRANCH  57  61
ENDBRANCH  40  54
BRANCH  41  65
ATOM     65  C   UNL     1     -11.678   7.724   5.684  1.00  0.00     0.023 A 
ATOM     66  C   UNL     1     -11.982   6.494   6.288  1.00  0.00     0.031 A 
ATOM     67  C   UNL     1     -11.461   8.835   6.520  1.00  0.00     0.131 A 
ATOM     68  C   UNL     1     -12.093   6.412   7.686  1.00  0.00     0.055 A 
ATOM     69  C   UNL     1     -11.524   8.737   7.910  1.00  0.00     0.041 A 
ATOM     70  F   UNL     1     -11.170  10.035   5.992  1.00  0.00    -0.206 F 
ATOM     71  C   UNL     1     -11.853   7.521   8.501  1.00  0.00     0.022 A 
BRANCH  68  72
ATOM     72  S   UNL     1     -12.630   4.845   8.425  1.00  0.00     0.124 S 
ATOM     73  O   UNL     1     -13.924   4.640   7.783  1.00  0.00    -0.237 OA
ATOM     74  O   UNL     1     -11.562   3.938   8.021  1.00  0.00    -0.237 OA
ATOM     75  O   UNL     1     -12.684   5.144   9.855  1.00  0.00    -0.744 OA
ENDBRANCH  68  72
ENDBRANCH  41  65
BRANCH  53  76
ATOM     76  C   UNL     1     -16.477   7.259   0.654  1.00  0.00     0.023 A 
ATOM     77  C   UNL     1     -17.429   8.101   1.255  1.00  0.00     0.031 A 
ATOM     78  C   UNL     1     -16.920   6.046   0.099  1.00  0.00     0.131 A 
ATOM     79  C   UNL     1     -18.769   7.694   1.334  1.00  0.00     0.055 A 
ATOM     80  C   UNL     1     -18.263   5.670   0.133  1.00  0.00     0.041 A 
ATOM     81  F   UNL     1     -16.051   5.205  -0.486  1.00  0.00    -0.206 F 
ATOM     82  C   UNL     1     -19.194   6.490   0.765  1.00  0.00     0.022 A 
BRANCH  79  83
ATOM     83  S   UNL     1     -19.939   8.720   2.266  1.00  0.00     0.124 S 
ATOM     84  O   UNL     1     -19.338   8.734   3.596  1.00  0.00    -0.237 OA
ATOM     85  O   UNL     1     -19.899   9.982   1.536  1.00  0.00    -0.237 OA
ATOM     86  O   UNL     1     -21.199   7.985   2.163  1.00  0.00    -0.744 OA
ENDBRANCH  79  83
ENDBRANCH  53  76
ENDBRANCH  27  28
ENDBRANCH  20  22
ENDBRANCH  19  20
ENDBRANCH   1  19
TORSDOF 16
