REMARK SMILES Cc1nc(C)c(C(=O)N2CCC([C@H](C)C(=O)OCCOC(=O)c3ccc(-c4c5nc(c(-c6cc(S(=O)(=O)[O-])ccc6F)c6ccc([nH]6)c(-c6cc(S(=O)(=O)[O-])ccc6F)c6nc(c(-c7cc(S(=O)(=O)[O-])ccc7F)c7ccc4[nH]7)C=C6)C=C5)cc3)CC2)s1
REMARK SMILES IDX 19 1 18 2 17 3 15 4 16 5 13 6 14 7 12 8 7 9 8 10 9 11 10 12
REMARK SMILES IDX 87 13 11 14 86 15 6 16 1 17 2 18 3 19 88 20 4 21 5 22 20 23
REMARK SMILES IDX 21 24 22 25 23 26 24 27 85 28 25 29 84 30 26 31 27 32 28 33
REMARK SMILES IDX 78 34 29 35 83 36 77 37 79 38 30 39 82 40 76 41 75 42 31 44
REMARK SMILES IDX 63 45 43 46 62 47 44 48 47 49 61 50 80 51 45 52 46 53 60 55
REMARK SMILES IDX 81 56 48 57 32 58 33 59 41 60 34 61 40 62 42 63 39 64 35 65
REMARK SMILES IDX 36 66 37 67 38 68 64 69 65 70 73 71 66 72 72 73 74 74 71 75
REMARK SMILES IDX 67 76 68 77 69 78 70 79 49 80 50 81 58 82 51 83 57 84 59 85
REMARK SMILES IDX 56 86 52 87 53 88 54 89 55 90
REMARK H PARENT 79 43 47 54
REMARK Flexibility Score: inf
ROOT
ATOM      1  C   UNL     1       2.099  -6.957   5.105  1.00  0.00     0.275 C 
ENDROOT
BRANCH   1   2
ATOM      2  C   UNL     1       2.407  -7.987   4.013  1.00  0.00     0.274 C 
BRANCH   2   3
ATOM      3  O   UNL     1       1.770  -7.667   2.761  1.00  0.00    -0.462 OA
BRANCH   3   4
ATOM      4  C   UNL     1       0.563  -8.254   2.558  1.00  0.00     0.309 C 
ATOM      5  O   UNL     1       0.033  -9.040   3.336  1.00  0.00    -0.252 OA
BRANCH   4   6
ATOM      6  C   UNL     1      -0.069  -7.884   1.222  1.00  0.00     0.099 C 
ATOM      7  C   UNL     1       0.229  -6.437   0.821  1.00  0.00     0.020 C 
BRANCH   6   8
ATOM      8  C   UNL     1       0.112  -8.951   0.104  1.00  0.00     0.006 C 
ATOM      9  C   UNL     1       2.554 -11.329  -2.395  1.00  0.00     0.265 C 
ATOM     10  O   UNL     1       3.329 -10.613  -3.032  1.00  0.00    -0.268 OA
ATOM     11  N   UNL     1       1.469 -10.765  -1.722  1.00  0.00    -0.338 N 
ATOM     12  C   UNL     1       0.908  -9.520  -2.220  1.00  0.00     0.120 C 
ATOM     13  C   UNL     1       0.829 -11.322  -0.532  1.00  0.00     0.120 C 
ATOM     14  C   UNL     1       0.870  -8.451  -1.138  1.00  0.00     0.026 C 
ATOM     15  C   UNL     1       0.738 -10.278   0.584  1.00  0.00     0.026 C 
BRANCH   9  16
ATOM     16  C   UNL     1       2.723 -12.771  -2.371  1.00  0.00     0.115 A 
ATOM     17  C   UNL     1       1.904 -16.547  -2.754  1.00  0.00     0.079 C 
ATOM     18  C   UNL     1       2.445 -15.172  -2.590  1.00  0.00     0.091 A 
ATOM     19  N   UNL     1       3.724 -14.884  -2.491  1.00  0.00    -0.246 NA
ATOM     20  S   UNL     1       1.385 -13.830  -2.574  1.00  0.00    -0.113 S 
ATOM     21  C   UNL     1       3.898 -13.507  -2.401  1.00  0.00     0.061 A 
ATOM     22  C   UNL     1       5.291 -12.985  -2.380  1.00  0.00     0.068 C 
ENDBRANCH   9  16
ENDBRANCH   6   8
ENDBRANCH   4   6
ENDBRANCH   3   4
ENDBRANCH   2   3
ENDBRANCH   1   2
BRANCH   1  23
ATOM     23  O   UNL     1       0.707  -6.952   5.468  1.00  0.00    -0.458 OA
BRANCH  23  24
ATOM     24  C   UNL     1      -0.035  -5.984   4.879  1.00  0.00     0.338 C 
ATOM     25  O   UNL     1       0.363  -5.109   4.129  1.00  0.00    -0.246 OA
BRANCH  24  26
ATOM     26  C   UNL     1      -1.461  -6.197   5.173  1.00  0.00     0.060 A 
ATOM     27  C   UNL     1      -2.293  -6.615   4.133  1.00  0.00     0.016 A 
ATOM     28  C   UNL     1      -1.994  -5.887   6.424  1.00  0.00     0.016 A 
ATOM     29  C   UNL     1      -3.665  -6.731   4.331  1.00  0.00     0.010 A 
ATOM     30  C   UNL     1      -3.376  -5.997   6.622  1.00  0.00     0.010 A 
ATOM     31  C   UNL     1      -4.219  -6.407   5.573  1.00  0.00    -0.014 A 
BRANCH  31  32
ATOM     32  C   UNL     1      -5.691  -6.409   5.743  1.00  0.00     0.031 A 
ATOM     33  C   UNL     1      -6.429  -5.101   5.764  1.00  0.00     0.074 A 
ATOM     34  C   UNL     1      -6.360  -7.571   5.848  1.00  0.00     0.049 A 
ATOM     35  N   UNL     1      -7.688  -4.861   6.024  1.00  0.00    -0.248 NA
ATOM     36  C   UNL     1      -5.636  -3.902   5.453  1.00  0.00     0.031 C 
ATOM     37  C   UNL     1      -5.755  -8.901   5.766  1.00  0.00     0.029 A 
ATOM     38  N   UNL     1      -7.692  -7.821   6.056  1.00  0.00    -0.354 N 
ATOM     39  C   UNL     1      -7.837  -3.482   5.930  1.00  0.00     0.074 A 
ATOM     40  C   UNL     1      -6.534  -2.940   5.606  1.00  0.00     0.031 C 
ATOM     41  C   UNL     1      -6.713  -9.827   5.935  1.00  0.00     0.029 A 
ATOM     42  C   UNL     1      -7.985  -9.157   6.193  1.00  0.00     0.049 A 
ATOM     43  H   UNL     1      -8.374  -7.112   6.102  1.00  0.00     0.167 HD
ATOM     44  C   UNL     1      -8.960  -2.741   6.100  1.00  0.00     0.034 A 
ATOM     45  C   UNL     1      -9.139  -9.767   6.532  1.00  0.00     0.034 A 
ATOM     46  C   UNL     1     -10.248  -3.304   6.428  1.00  0.00     0.049 A 
ATOM     47  C   UNL     1     -10.356  -8.918   6.801  1.00  0.00     0.074 A 
ATOM     48  C   UNL     1     -11.450  -2.651   6.638  1.00  0.00     0.029 A 
ATOM     49  N   UNL     1     -10.500  -4.660   6.600  1.00  0.00    -0.354 N 
ATOM     50  N   UNL     1     -10.479  -7.611   6.754  1.00  0.00    -0.248 NA
ATOM     51  C   UNL     1     -11.588  -9.626   7.171  1.00  0.00     0.031 C 
ATOM     52  C   UNL     1     -12.412  -3.605   6.993  1.00  0.00     0.029 A 
ATOM     53  C   UNL     1     -11.830  -4.861   6.938  1.00  0.00     0.049 A 
ATOM     54  H   UNL     1      -9.831  -5.375   6.497  1.00  0.00     0.167 HD
ATOM     55  C   UNL     1     -11.808  -7.343   7.070  1.00  0.00     0.074 A 
ATOM     56  C   UNL     1     -12.448  -8.625   7.289  1.00  0.00     0.031 C 
ATOM     57  C   UNL     1     -12.444  -6.148   7.168  1.00  0.00     0.034 A 
BRANCH  44  58
ATOM     58  C   UNL     1      -8.817  -1.242   6.003  1.00  0.00     0.023 A 
ATOM     59  C   UNL     1      -8.462  -0.605   4.801  1.00  0.00     0.031 A 
ATOM     60  C   UNL     1      -8.992  -0.440   7.146  1.00  0.00     0.131 A 
ATOM     61  C   UNL     1      -8.223   0.779   4.786  1.00  0.00     0.055 A 
ATOM     62  C   UNL     1      -8.827   0.945   7.107  1.00  0.00     0.041 A 
ATOM     63  F   UNL     1      -9.308  -0.995   8.327  1.00  0.00    -0.206 F 
ATOM     64  C   UNL     1      -8.425   1.561   5.925  1.00  0.00     0.022 A 
BRANCH  61  65
ATOM     65  S   UNL     1      -7.508   1.521   3.293  1.00  0.00     0.124 S 
ATOM     66  O   UNL     1      -6.260   0.773   3.160  1.00  0.00    -0.237 OA
ATOM     67  O   UNL     1      -8.526   1.248   2.286  1.00  0.00    -0.237 OA
ATOM     68  O   UNL     1      -7.346   2.928   3.653  1.00  0.00    -0.744 OA
ENDBRANCH  61  65
ENDBRANCH  44  58
BRANCH  45  69
ATOM     69  C   UNL     1      -9.185 -11.246   6.705  1.00  0.00     0.023 A 
ATOM     70  C   UNL     1      -9.971 -12.054   5.868  1.00  0.00     0.031 A 
ATOM     71  C   UNL     1      -8.469 -11.870   7.742  1.00  0.00     0.131 A 
ATOM     72  C   UNL     1     -10.048 -13.436   6.105  1.00  0.00     0.055 A 
ATOM     73  C   UNL     1      -8.511 -13.250   7.944  1.00  0.00     0.041 A 
ATOM     74  F   UNL     1      -7.703 -11.143   8.572  1.00  0.00    -0.206 F 
ATOM     75  C   UNL     1      -9.314 -14.041   7.128  1.00  0.00     0.022 A 
BRANCH  72  76
ATOM     76  S   UNL     1     -11.182 -14.429   5.095  1.00  0.00     0.124 S 
ATOM     77  O   UNL     1     -12.463 -13.786   5.364  1.00  0.00    -0.237 OA
ATOM     78  O   UNL     1     -10.638 -14.240   3.755  1.00  0.00    -0.237 OA
ATOM     79  O   UNL     1     -11.033 -15.777   5.641  1.00  0.00    -0.744 OA
ENDBRANCH  72  76
ENDBRANCH  45  69
BRANCH  57  80
ATOM     80  C   UNL     1     -13.917  -6.187   7.487  1.00  0.00     0.023 A 
ATOM     81  C   UNL     1     -14.389  -6.593   8.748  1.00  0.00     0.031 A 
ATOM     82  C   UNL     1     -14.861  -5.829   6.509  1.00  0.00     0.131 A 
ATOM     83  C   UNL     1     -15.770  -6.681   8.980  1.00  0.00     0.055 A 
ATOM     84  C   UNL     1     -16.232  -5.867   6.763  1.00  0.00     0.041 A 
ATOM     85  F   UNL     1     -14.463  -5.436   5.288  1.00  0.00    -0.206 F 
ATOM     86  C   UNL     1     -16.694  -6.307   8.000  1.00  0.00     0.022 A 
BRANCH  83  87
ATOM     87  S   UNL     1     -16.348  -7.372  10.555  1.00  0.00     0.124 S 
ATOM     88  O   UNL     1     -15.751  -8.704  10.539  1.00  0.00    -0.237 OA
ATOM     89  O   UNL     1     -15.794  -6.437  11.528  1.00  0.00    -0.237 OA
ATOM     90  O   UNL     1     -17.804  -7.343  10.429  1.00  0.00    -0.744 OA
ENDBRANCH  83  87
ENDBRANCH  57  80
ENDBRANCH  31  32
ENDBRANCH  24  26
ENDBRANCH  23  24
ENDBRANCH   1  23
TORSDOF 16
