REMARK SMILES CC[C@](C)(NC(=O)[C@](C)([NH3+])c1ccccc1)C(=O)OCCOC(=O)c1ccc(-c2c3nc(c(-c4cc(S(=O)(=O)[O-])ccc4F)c4ccc([nH]4)c(-c4cc(S(=O)(=O)[O-])ccc4F)c4nc(c(-c5cc(S(=O)(=O)[O-])ccc5F)c5ccc2[nH]5)C=C4)C=C3)cc1
REMARK SMILES IDX 20 1 19 2 17 3 18 4 3 5 4 6 2 7 1 8 5 9 6 10 7 12 8 13 9 14
REMARK SMILES IDX 10 15 11 19 12 20 16 21 13 22 15 23 14 24 21 25 22 26 23 27
REMARK SMILES IDX 24 28 25 29 26 30 87 31 27 32 86 33 28 34 29 35 30 36 80 37
REMARK SMILES IDX 31 38 85 39 79 40 81 41 32 42 84 43 78 44 77 45 33 47 65 48
REMARK SMILES IDX 45 49 64 50 46 51 49 52 63 53 82 54 47 55 48 56 62 58 83 59
REMARK SMILES IDX 50 60 34 61 35 62 43 63 36 64 42 65 44 66 41 67 37 68 38 69
REMARK SMILES IDX 39 70 40 71 66 72 67 73 75 74 68 75 74 76 76 77 73 78 69 79
REMARK SMILES IDX 70 80 71 81 72 82 51 83 52 84 60 85 53 86 59 87 61 88 58 89
REMARK SMILES IDX 54 90 55 91 56 92 57 93
REMARK H PARENT 5 11 10 16 10 17 10 18 81 46 49 57
REMARK Flexibility Score: inf
ROOT
ATOM      1  C   UNL     1      -0.475  -3.434  -5.035  1.00  0.00     0.274 C 
ENDROOT
BRANCH   1   2
ATOM      2  O   UNL     1       0.284  -2.204  -4.937  1.00  0.00    -0.460 OA
BRANCH   2   3
ATOM      3  C   UNL     1       0.035  -1.418  -3.861  1.00  0.00     0.331 C 
ATOM      4  O   UNL     1      -0.923  -1.605  -3.116  1.00  0.00    -0.249 OA
BRANCH   3   5
ATOM      5  C   UNL     1       0.951  -0.144  -3.761  1.00  0.00     0.135 C 
ATOM      6  C   UNL     1       1.193   0.128  -2.260  1.00  0.00     0.047 C 
BRANCH   5   7
ATOM      7  C   UNL     1      -0.029   0.938  -4.340  1.00  0.00     0.037 C 
ATOM      8  C   UNL     1       0.496   2.361  -4.478  1.00  0.00     0.007 C 
ENDBRANCH   5   7
BRANCH   5   9
ATOM      9  N   UNL     1       2.267  -0.033  -4.509  1.00  0.00    -0.335 N 
ATOM     10  C   UNL     1       3.509  -0.496  -4.128  1.00  0.00     0.286 C 
ATOM     11  H   UNL     1       2.229   0.429  -5.377  1.00  0.00     0.164 HD
ATOM     12  O   UNL     1       4.232   0.312  -3.530  1.00  0.00    -0.267 OA
BRANCH  10  13
ATOM     13  C   UNL     1       4.074  -1.889  -4.594  1.00  0.00     0.196 C 
ATOM     14  C   UNL     1       2.950  -2.788  -5.059  1.00  0.00     0.096 C 
BRANCH  13  15
ATOM     15  N   UNL     1       4.723  -2.521  -3.421  1.00  0.00    -0.341 N 
ATOM     16  H   UNL     1       5.101  -3.429  -3.690  1.00  0.00     0.345 HD
ATOM     17  H   UNL     1       4.035  -2.645  -2.678  1.00  0.00     0.345 HD
ATOM     18  H   UNL     1       5.479  -1.923  -3.088  1.00  0.00     0.345 HD
ENDBRANCH  13  15
BRANCH  13  19
ATOM     19  C   UNL     1       5.064  -1.842  -5.771  1.00  0.00     0.022 A 
ATOM     20  C   UNL     1       5.681  -3.051  -6.175  1.00  0.00     0.011 A 
ATOM     21  C   UNL     1       5.267  -0.710  -6.569  1.00  0.00     0.011 A 
ATOM     22  C   UNL     1       6.387  -3.150  -7.371  1.00  0.00     0.001 A 
ATOM     23  C   UNL     1       5.998  -0.805  -7.761  1.00  0.00     0.001 A 
ATOM     24  C   UNL     1       6.533  -2.026  -8.174  1.00  0.00     0.000 A 
ENDBRANCH  13  19
ENDBRANCH  10  13
ENDBRANCH   5   9
ENDBRANCH   3   5
ENDBRANCH   2   3
ENDBRANCH   1   2
BRANCH   1  25
ATOM     25  C   UNL     1       0.178  -4.595  -4.268  1.00  0.00     0.275 C 
BRANCH  25  26
ATOM     26  O   UNL     1       0.134  -4.340  -2.853  1.00  0.00    -0.458 OA
BRANCH  26  27
ATOM     27  C   UNL     1       1.280  -4.472  -2.150  1.00  0.00     0.338 C 
ATOM     28  O   UNL     1       2.380  -4.813  -2.571  1.00  0.00    -0.246 OA
BRANCH  27  29
ATOM     29  C   UNL     1       1.018  -4.157  -0.739  1.00  0.00     0.060 A 
ATOM     30  C   UNL     1       0.411  -2.949  -0.396  1.00  0.00     0.016 A 
ATOM     31  C   UNL     1       1.383  -5.068   0.254  1.00  0.00     0.016 A 
ATOM     32  C   UNL     1       0.149  -2.650   0.934  1.00  0.00     0.010 A 
ATOM     33  C   UNL     1       1.048  -4.803   1.584  1.00  0.00     0.010 A 
ATOM     34  C   UNL     1       0.408  -3.601   1.928  1.00  0.00    -0.014 A 
BRANCH  34  35
ATOM     35  C   UNL     1      -0.100  -3.365   3.300  1.00  0.00     0.031 A 
ATOM     36  C   UNL     1       0.848  -3.164   4.442  1.00  0.00     0.074 A 
ATOM     37  C   UNL     1      -1.435  -3.325   3.484  1.00  0.00     0.049 A 
ATOM     38  N   UNL     1       0.587  -3.058   5.718  1.00  0.00    -0.248 NA
ATOM     39  C   UNL     1       2.277  -3.083   4.108  1.00  0.00     0.031 C 
ATOM     40  C   UNL     1      -2.435  -3.486   2.422  1.00  0.00     0.029 A 
ATOM     41  N   UNL     1      -2.187  -3.125   4.612  1.00  0.00    -0.354 N 
ATOM     42  C   UNL     1       1.819  -2.927   6.348  1.00  0.00     0.074 A 
ATOM     43  C   UNL     1       2.828  -2.974   5.309  1.00  0.00     0.031 C 
ATOM     44  C   UNL     1      -3.661  -3.336   2.940  1.00  0.00     0.029 A 
ATOM     45  C   UNL     1      -3.544  -3.156   4.380  1.00  0.00     0.049 A 
ATOM     46  H   UNL     1      -1.795  -2.974   5.502  1.00  0.00     0.167 HD
ATOM     47  C   UNL     1       2.072  -2.793   7.674  1.00  0.00     0.034 A 
ATOM     48  C   UNL     1      -4.579  -3.087   5.239  1.00  0.00     0.034 A 
ATOM     49  C   UNL     1       1.036  -2.756   8.681  1.00  0.00     0.049 A 
ATOM     50  C   UNL     1      -4.266  -2.951   6.703  1.00  0.00     0.074 A 
ATOM     51  C   UNL     1       1.164  -2.666  10.056  1.00  0.00     0.029 A 
ATOM     52  N   UNL     1      -0.329  -2.803   8.414  1.00  0.00    -0.354 N 
ATOM     53  N   UNL     1      -3.092  -2.892   7.291  1.00  0.00    -0.248 NA
ATOM     54  C   UNL     1      -5.408  -2.882   7.618  1.00  0.00     0.031 C 
ATOM     55  C   UNL     1      -0.118  -2.705  10.621  1.00  0.00     0.029 A 
ATOM     56  C   UNL     1      -1.051  -2.758   9.597  1.00  0.00     0.049 A 
ATOM     57  H   UNL     1      -0.725  -2.861   7.515  1.00  0.00     0.167 HD
ATOM     58  C   UNL     1      -3.356  -2.788   8.650  1.00  0.00     0.074 A 
ATOM     59  C   UNL     1      -4.800  -2.744   8.787  1.00  0.00     0.031 C 
ATOM     60  C   UNL     1      -2.491  -2.749   9.696  1.00  0.00     0.034 A 
BRANCH  47  61
ATOM     61  C   UNL     1       3.519  -2.753   8.103  1.00  0.00     0.023 A 
ATOM     62  C   UNL     1       4.369  -1.685   7.766  1.00  0.00     0.031 A 
ATOM     63  C   UNL     1       4.066  -3.822   8.836  1.00  0.00     0.131 A 
ATOM     64  C   UNL     1       5.729  -1.736   8.112  1.00  0.00     0.055 A 
ATOM     65  C   UNL     1       5.405  -3.836   9.235  1.00  0.00     0.041 A 
ATOM     66  F   UNL     1       3.310  -4.881   9.167  1.00  0.00    -0.206 F 
ATOM     67  C   UNL     1       6.248  -2.793   8.863  1.00  0.00     0.022 A 
BRANCH  64  68
ATOM     68  S   UNL     1       6.842  -0.453   7.472  1.00  0.00     0.124 S 
ATOM     69  O   UNL     1       6.731  -0.660   6.030  1.00  0.00    -0.237 OA
ATOM     70  O   UNL     1       6.243   0.772   7.989  1.00  0.00    -0.237 OA
ATOM     71  O   UNL     1       8.138  -0.804   8.048  1.00  0.00    -0.744 OA
ENDBRANCH  64  68
ENDBRANCH  47  61
BRANCH  48  72
ATOM     72  C   UNL     1      -5.981  -3.211   4.747  1.00  0.00     0.023 A 
ATOM     73  C   UNL     1      -6.900  -2.160   4.889  1.00  0.00     0.031 A 
ATOM     74  C   UNL     1      -6.429  -4.398   4.136  1.00  0.00     0.131 A 
ATOM     75  C   UNL     1      -8.225  -2.325   4.453  1.00  0.00     0.055 A 
ATOM     76  C   UNL     1      -7.731  -4.537   3.655  1.00  0.00     0.041 A 
ATOM     77  F   UNL     1      -5.593  -5.436   3.974  1.00  0.00    -0.206 F 
ATOM     78  C   UNL     1      -8.642  -3.500   3.823  1.00  0.00     0.022 A 
BRANCH  75  79
ATOM     79  S   UNL     1      -9.426  -1.008   4.793  1.00  0.00     0.124 S 
ATOM     80  O   UNL     1      -9.290  -0.842   6.236  1.00  0.00    -0.237 OA
ATOM     81  O   UNL     1      -8.916   0.084   3.971  1.00  0.00    -0.237 OA
ATOM     82  O   UNL     1     -10.694  -1.581   4.348  1.00  0.00    -0.744 OA
ENDBRANCH  75  79
ENDBRANCH  48  72
BRANCH  60  83
ATOM     83  C   UNL     1      -3.118  -2.651  11.062  1.00  0.00     0.023 A 
ATOM     84  C   UNL     1      -3.856  -3.720  11.600  1.00  0.00     0.031 A 
ATOM     85  C   UNL     1      -3.034  -1.459  11.799  1.00  0.00     0.131 A 
ATOM     86  C   UNL     1      -4.545  -3.550  12.808  1.00  0.00     0.055 A 
ATOM     87  C   UNL     1      -3.675  -1.316  13.030  1.00  0.00     0.041 A 
ATOM     88  F   UNL     1      -2.344  -0.410  11.325  1.00  0.00    -0.206 F 
ATOM     89  C   UNL     1      -4.450  -2.359  13.532  1.00  0.00     0.022 A 
BRANCH  86  90
ATOM     90  S   UNL     1      -5.663  -4.867  13.360  1.00  0.00     0.124 S 
ATOM     91  O   UNL     1      -6.581  -4.980  12.231  1.00  0.00    -0.237 OA
ATOM     92  O   UNL     1      -4.750  -5.989  13.554  1.00  0.00    -0.237 OA
ATOM     93  O   UNL     1      -6.250  -4.327  14.585  1.00  0.00    -0.744 OA
ENDBRANCH  86  90
ENDBRANCH  60  83
ENDBRANCH  34  35
ENDBRANCH  27  29
ENDBRANCH  26  27
ENDBRANCH  25  26
ENDBRANCH   1  25
TORSDOF 19
