REMARK SMILES C[NH2+][C@@]1(C(=O)OCCOC(=O)c2ccc(-c3c4nc(c(-c5cc(S(=O)(=O)[O-])ccc5F)c5ccc([nH]5)c(-c5cc(S(=O)(=O)[O-])ccc5F)c5nc(c(-c6cc(S(=O)(=O)[O-])ccc6F)c6ccc3[nH]6)C=C5)C=C4)cc2)CCC[C@H]1CCn1ccc(C(F)(F)F)n1
REMARK SMILES IDX 7 1 6 2 4 3 5 4 3 5 75 6 78 7 76 8 77 9 2 10 1 11 79 14
REMARK SMILES IDX 80 15 81 16 82 17 89 18 83 19 84 20 85 21 86 22 87 23 88 24
REMARK SMILES IDX 8 25 9 26 10 27 11 28 12 29 13 30 74 31 14 32 73 33 15 34
REMARK SMILES IDX 16 35 17 36 67 37 18 38 72 39 66 40 68 41 19 42 71 43 65 44
REMARK SMILES IDX 64 45 20 47 52 48 32 49 51 50 33 51 36 52 50 53 69 54 34 55
REMARK SMILES IDX 35 56 49 58 70 59 37 60 21 61 22 62 30 63 23 64 29 65 31 66
REMARK SMILES IDX 28 67 24 68 25 69 26 70 27 71 53 72 54 73 62 74 55 75 61 76
REMARK SMILES IDX 63 77 60 78 56 79 57 80 58 81 59 82 38 83 39 84 47 85 40 86
REMARK SMILES IDX 46 87 48 88 45 89 41 90 42 91 43 92 44 93
REMARK H PARENT 2 12 2 13 68 46 36 57
REMARK Flexibility Score: inf
ROOT
ATOM      1  C   UNL     1      -2.822  -0.064   4.141  1.00  0.00     0.274 C 
ENDROOT
BRANCH   1   2
ATOM      2  O   UNL     1      -2.373  -0.516   2.848  1.00  0.00    -0.457 OA
BRANCH   2   3
ATOM      3  C   UNL     1      -1.523   0.319   2.184  1.00  0.00     0.368 C 
ATOM      4  O   UNL     1      -1.165   1.407   2.631  1.00  0.00    -0.245 OA
BRANCH   3   5
ATOM      5  C   UNL     1      -1.103  -0.208   0.751  1.00  0.00     0.197 C 
ATOM      6  C   UNL     1      -1.942   0.609  -0.248  1.00  0.00     0.081 C 
ATOM      7  C   UNL     1      -1.545  -1.679   0.457  1.00  0.00     0.064 C 
ATOM      8  C   UNL     1      -3.314  -0.045  -0.187  1.00  0.00     0.008 C 
ATOM      9  C   UNL     1      -3.047  -1.527   0.074  1.00  0.00     0.011 C 
BRANCH   5  10
ATOM     10  N   UNL     1       0.348  -0.002   0.686  1.00  0.00    -0.334 N 
ATOM     11  C   UNL     1       0.945   0.622  -0.468  1.00  0.00     0.331 C 
ATOM     12  H   UNL     1       0.598   0.573   1.491  1.00  0.00     0.347 HD
ATOM     13  H   UNL     1       0.714  -0.953   0.650  1.00  0.00     0.347 HD
ENDBRANCH   5  10
BRANCH   7  14
ATOM     14  C   UNL     1      -0.824  -2.412  -0.712  1.00  0.00     0.034 C 
BRANCH  14  15
ATOM     15  C   UNL     1       0.555  -3.033  -0.438  1.00  0.00     0.144 C 
BRANCH  15  16
ATOM     16  N   UNL     1       0.525  -4.220   0.397  1.00  0.00    -0.272 N 
ATOM     17  C   UNL     1       0.395  -5.503  -0.046  1.00  0.00     0.109 A 
ATOM     18  N   UNL     1       0.754  -4.130   1.722  1.00  0.00    -0.168 NA
ATOM     19  C   UNL     1       0.537  -6.302   1.059  1.00  0.00     0.055 A 
ATOM     20  C   UNL     1       0.756  -5.414   2.149  1.00  0.00     0.166 A 
BRANCH  20  21
ATOM     21  C   UNL     1       1.016  -5.844   3.573  1.00  0.00     0.435 C 
ATOM     22  F   UNL     1       0.654  -7.146   3.774  1.00  0.00    -0.164 F 
ATOM     23  F   UNL     1       2.333  -5.763   3.907  1.00  0.00    -0.164 F 
ATOM     24  F   UNL     1       0.338  -5.138   4.513  1.00  0.00    -0.164 F 
ENDBRANCH  20  21
ENDBRANCH  15  16
ENDBRANCH  14  15
ENDBRANCH   7  14
ENDBRANCH   3   5
ENDBRANCH   2   3
ENDBRANCH   1   2
BRANCH   1  25
ATOM     25  C   UNL     1      -2.205  -0.877   5.278  1.00  0.00     0.275 C 
BRANCH  25  26
ATOM     26  O   UNL     1      -0.769  -0.831   5.225  1.00  0.00    -0.458 OA
BRANCH  26  27
ATOM     27  C   UNL     1      -0.217  -1.923   4.640  1.00  0.00     0.338 C 
ATOM     28  O   UNL     1      -0.824  -2.894   4.226  1.00  0.00    -0.246 OA
BRANCH  27  29
ATOM     29  C   UNL     1       1.241  -1.754   4.514  1.00  0.00     0.060 A 
ATOM     30  C   UNL     1       1.728  -0.851   3.575  1.00  0.00     0.016 A 
ATOM     31  C   UNL     1       2.122  -2.586   5.202  1.00  0.00     0.016 A 
ATOM     32  C   UNL     1       3.078  -0.866   3.225  1.00  0.00     0.010 A 
ATOM     33  C   UNL     1       3.497  -2.514   4.933  1.00  0.00     0.010 A 
ATOM     34  C   UNL     1       3.991  -1.682   3.912  1.00  0.00    -0.014 A 
BRANCH  34  35
ATOM     35  C   UNL     1       5.444  -1.661   3.558  1.00  0.00     0.031 A 
ATOM     36  C   UNL     1       6.160  -2.926   3.148  1.00  0.00     0.074 A 
ATOM     37  C   UNL     1       6.134  -0.501   3.592  1.00  0.00     0.049 A 
ATOM     38  N   UNL     1       7.441  -3.131   2.963  1.00  0.00    -0.248 NA
ATOM     39  C   UNL     1       5.327  -4.117   2.927  1.00  0.00     0.031 C 
ATOM     40  C   UNL     1       5.573   0.808   3.935  1.00  0.00     0.029 A 
ATOM     41  N   UNL     1       7.456  -0.230   3.329  1.00  0.00    -0.354 N 
ATOM     42  C   UNL     1       7.575  -4.482   2.656  1.00  0.00     0.074 A 
ATOM     43  C   UNL     1       6.241  -5.047   2.686  1.00  0.00     0.031 C 
ATOM     44  C   UNL     1       6.528   1.743   3.821  1.00  0.00     0.029 A 
ATOM     45  C   UNL     1       7.791   1.094   3.493  1.00  0.00     0.049 A 
ATOM     46  H   UNL     1       8.102  -0.919   3.050  1.00  0.00     0.167 HD
ATOM     47  C   UNL     1       8.704  -5.186   2.381  1.00  0.00     0.034 A 
ATOM     48  C   UNL     1       8.983   1.721   3.438  1.00  0.00     0.034 A 
ATOM     49  C   UNL     1      10.027  -4.609   2.316  1.00  0.00     0.049 A 
ATOM     50  C   UNL     1      10.223   0.916   3.168  1.00  0.00     0.074 A 
ATOM     51  C   UNL     1      11.230  -5.234   2.027  1.00  0.00     0.029 A 
ATOM     52  N   UNL     1      10.325  -3.271   2.536  1.00  0.00    -0.354 N 
ATOM     53  N   UNL     1      10.339  -0.373   2.954  1.00  0.00    -0.248 NA
ATOM     54  C   UNL     1      11.495   1.650   3.152  1.00  0.00     0.031 C 
ATOM     55  C   UNL     1      12.257  -4.287   2.121  1.00  0.00     0.029 A 
ATOM     56  C   UNL     1      11.691  -3.056   2.411  1.00  0.00     0.049 A 
ATOM     57  H   UNL     1       9.663  -2.574   2.751  1.00  0.00     0.167 HD
ATOM     58  C   UNL     1      11.699  -0.605   2.781  1.00  0.00     0.074 A 
ATOM     59  C   UNL     1      12.359   0.680   2.889  1.00  0.00     0.031 C 
ATOM     60  C   UNL     1      12.343  -1.777   2.555  1.00  0.00     0.034 A 
BRANCH  47  61
ATOM     61  C   UNL     1       8.562  -6.678   2.188  1.00  0.00     0.023 A 
ATOM     62  C   UNL     1       7.890  -7.231   1.085  1.00  0.00     0.031 A 
ATOM     63  C   UNL     1       9.104  -7.561   3.141  1.00  0.00     0.131 A 
ATOM     64  C   UNL     1       7.727  -8.623   0.991  1.00  0.00     0.055 A 
ATOM     65  C   UNL     1       8.996  -8.947   3.007  1.00  0.00     0.041 A 
ATOM     66  F   UNL     1       9.743  -7.089   4.223  1.00  0.00    -0.206 F 
ATOM     67  C   UNL     1       8.294  -9.485   1.934  1.00  0.00     0.022 A 
BRANCH  64  68
ATOM     68  S   UNL     1       6.667  -9.291  -0.322  1.00  0.00     0.124 S 
ATOM     69  O   UNL     1       5.391  -8.639  -0.037  1.00  0.00    -0.237 OA
ATOM     70  O   UNL     1       7.350  -8.854  -1.534  1.00  0.00    -0.237 OA
ATOM     71  O   UNL     1       6.688 -10.732  -0.081  1.00  0.00    -0.744 OA
ENDBRANCH  64  68
ENDBRANCH  47  61
BRANCH  48  72
ATOM     72  C   UNL     1       9.071   3.179   3.728  1.00  0.00     0.023 A 
ATOM     73  C   UNL     1       9.425   4.100   2.731  1.00  0.00     0.031 A 
ATOM     74  C   UNL     1       8.809   3.668   5.021  1.00  0.00     0.131 A 
ATOM     75  C   UNL     1       9.528   5.464   3.048  1.00  0.00     0.055 A 
ATOM     76  C   UNL     1       8.869   5.029   5.320  1.00  0.00     0.041 A 
ATOM     77  F   UNL     1       8.466   2.826   6.009  1.00  0.00    -0.206 F 
ATOM     78  C   UNL     1       9.238   5.935   4.332  1.00  0.00     0.022 A 
BRANCH  75  79
ATOM     79  S   UNL     1      10.099   6.615   1.768  1.00  0.00     0.124 S 
ATOM     80  O   UNL     1      11.421   6.084   1.456  1.00  0.00    -0.237 OA
ATOM     81  O   UNL     1       9.082   6.450   0.735  1.00  0.00    -0.237 OA
ATOM     82  O   UNL     1      10.090   7.910   2.446  1.00  0.00    -0.744 OA
ENDBRANCH  75  79
ENDBRANCH  48  72
BRANCH  60  83
ATOM     83  C   UNL     1      13.838  -1.702   2.391  1.00  0.00     0.023 A 
ATOM     84  C   UNL     1      14.682  -1.419   3.481  1.00  0.00     0.031 A 
ATOM     85  C   UNL     1      14.421  -1.869   1.124  1.00  0.00     0.131 A 
ATOM     86  C   UNL     1      16.060  -1.261   3.272  1.00  0.00     0.055 A 
ATOM     87  C   UNL     1      15.799  -1.755   0.930  1.00  0.00     0.041 A 
ATOM     88  F   UNL     1      13.659  -2.134   0.051  1.00  0.00    -0.206 F 
ATOM     89  C   UNL     1      16.625  -1.437   2.006  1.00  0.00     0.022 A 
BRANCH  86  90
ATOM     90  S   UNL     1      17.100  -0.738   4.664  1.00  0.00     0.124 S 
ATOM     91  O   UNL     1      16.498   0.539   5.031  1.00  0.00    -0.237 OA
ATOM     92  O   UNL     1      16.917  -1.827   5.618  1.00  0.00    -0.237 OA
ATOM     93  O   UNL     1      18.437  -0.647   4.079  1.00  0.00    -0.744 OA
ENDBRANCH  86  90
ENDBRANCH  60  83
ENDBRANCH  34  35
ENDBRANCH  27  29
ENDBRANCH  26  27
ENDBRANCH  25  26
ENDBRANCH   1  25
TORSDOF 19
