REMARK SMILES C[C@H]1C[C@](C(=O)OCCOC(=O)c2ccc(-c3c4nc(c(-c5cc(S(=O)(=O)[O-])ccc5F)c5ccc([nH]5)c(-c5cc(S(=O)(=O)[O-])ccc5F)c5nc(c(-c6cc(S(=O)(=O)[O-])ccc6F)c6ccc3[nH]6)C=C5)C=C4)cc2)(N(C=O)C2CC2)CS1
REMARK SMILES IDX 9 1 8 2 7 3 5 4 6 5 4 6 1 7 2 8 3 9 83 10 82 11 76 12 77 13
REMARK SMILES IDX 78 14 79 15 80 16 81 17 10 18 11 19 12 20 13 21 14 22 75 23
REMARK SMILES IDX 15 24 74 25 16 26 17 27 18 28 68 29 19 30 73 31 67 32 69 33
REMARK SMILES IDX 20 34 72 35 66 36 65 37 21 39 53 40 33 41 52 42 34 43 37 44
REMARK SMILES IDX 51 45 70 46 35 47 36 48 50 50 71 51 38 52 22 53 23 54 31 55
REMARK SMILES IDX 24 56 30 57 32 58 29 59 25 60 26 61 27 62 28 63 54 64 55 65
REMARK SMILES IDX 63 66 56 67 62 68 64 69 61 70 57 71 58 72 59 73 60 74 39 75
REMARK SMILES IDX 40 76 48 77 41 78 47 79 49 80 46 81 42 82 43 83 44 84 45 85
REMARK H PARENT 69 38 37 49
REMARK Flexibility Score: inf
ROOT
ATOM      1  C   UNL     1      -0.169  -5.668   5.207  1.00  0.00     0.275 C 
ENDROOT
BRANCH   1   2
ATOM      2  C   UNL     1      -0.631  -5.566   3.756  1.00  0.00     0.274 C 
BRANCH   2   3
ATOM      3  O   UNL     1       0.440  -5.250   2.837  1.00  0.00    -0.460 OA
BRANCH   3   4
ATOM      4  C   UNL     1       0.533  -3.923   2.519  1.00  0.00     0.333 C 
ATOM      5  O   UNL     1      -0.098  -3.047   3.108  1.00  0.00    -0.249 OA
BRANCH   4   6
ATOM      6  C   UNL     1       1.213  -3.681   1.148  1.00  0.00     0.150 C 
ATOM      7  C   UNL     1      -0.690  -0.912   0.777  1.00  0.00     0.019 C 
ATOM      8  C   UNL     1       0.541  -1.459   0.059  1.00  0.00     0.046 C 
ATOM      9  C   UNL     1       1.547  -2.162   0.978  1.00  0.00     0.055 C 
ATOM     10  S   UNL     1       0.072  -2.762  -1.107  1.00  0.00    -0.156 SA
ATOM     11  C   UNL     1       0.024  -4.010   0.194  1.00  0.00     0.110 C 
BRANCH   6  12
ATOM     12  N   UNL     1       2.454  -4.507   0.886  1.00  0.00    -0.325 N 
BRANCH  12  13
ATOM     13  C   UNL     1       2.674  -5.211  -0.295  1.00  0.00     0.341 C 
ATOM     14  O   UNL     1       3.698  -5.816  -0.595  1.00  0.00    -0.279 OA
ENDBRANCH  12  13
BRANCH  12  15
ATOM     15  C   UNL     1       3.657  -4.287   1.681  1.00  0.00     0.086 C 
ATOM     16  C   UNL     1       3.720  -3.740   3.066  1.00  0.00     0.027 C 
ATOM     17  C   UNL     1       3.984  -5.195   2.840  1.00  0.00     0.027 C 
ENDBRANCH  12  15
ENDBRANCH   6  12
ENDBRANCH   4   6
ENDBRANCH   3   4
ENDBRANCH   2   3
ENDBRANCH   1   2
BRANCH   1  18
ATOM     18  O   UNL     1       0.522  -4.472   5.593  1.00  0.00    -0.458 OA
BRANCH  18  19
ATOM     19  C   UNL     1       1.652  -4.660   6.312  1.00  0.00     0.338 C 
ATOM     20  O   UNL     1       2.039  -5.734   6.767  1.00  0.00    -0.246 OA
BRANCH  19  21
ATOM     21  C   UNL     1       2.440  -3.407   6.420  1.00  0.00     0.060 A 
ATOM     22  C   UNL     1       2.182  -2.295   5.614  1.00  0.00     0.016 A 
ATOM     23  C   UNL     1       3.571  -3.403   7.242  1.00  0.00     0.016 A 
ATOM     24  C   UNL     1       3.139  -1.283   5.496  1.00  0.00     0.010 A 
ATOM     25  C   UNL     1       4.459  -2.323   7.216  1.00  0.00     0.010 A 
ATOM     26  C   UNL     1       4.290  -1.274   6.299  1.00  0.00    -0.014 A 
BRANCH  26  27
ATOM     27  C   UNL     1       5.325  -0.200   6.185  1.00  0.00     0.031 A 
ATOM     28  C   UNL     1       6.786  -0.551   6.013  1.00  0.00     0.074 A 
ATOM     29  C   UNL     1       4.975   1.099   6.273  1.00  0.00     0.049 A 
ATOM     30  N   UNL     1       7.847   0.200   6.179  1.00  0.00    -0.248 NA
ATOM     31  C   UNL     1       7.092  -1.936   5.625  1.00  0.00     0.031 C 
ATOM     32  C   UNL     1       3.608   1.606   6.402  1.00  0.00     0.029 A 
ATOM     33  N   UNL     1       5.749   2.236   6.287  1.00  0.00    -0.354 N 
ATOM     34  C   UNL     1       8.946  -0.634   5.981  1.00  0.00     0.074 A 
ATOM     35  C   UNL     1       8.416  -1.950   5.686  1.00  0.00     0.031 C 
ATOM     36  C   UNL     1       3.635   2.943   6.462  1.00  0.00     0.029 A 
ATOM     37  C   UNL     1       5.023   3.384   6.499  1.00  0.00     0.049 A 
ATOM     38  H   UNL     1       6.725   2.228   6.158  1.00  0.00     0.167 HD
ATOM     39  C   UNL     1      10.268  -0.330   6.049  1.00  0.00     0.034 A 
ATOM     40  C   UNL     1       5.410   4.643   6.780  1.00  0.00     0.034 A 
ATOM     41  C   UNL     1      10.780   1.000   6.298  1.00  0.00     0.049 A 
ATOM     42  C   UNL     1       6.872   4.956   6.892  1.00  0.00     0.074 A 
ATOM     43  C   UNL     1      12.099   1.423   6.343  1.00  0.00     0.029 A 
ATOM     44  N   UNL     1      10.001   2.125   6.538  1.00  0.00    -0.354 N 
ATOM     45  N   UNL     1       7.898   4.145   6.787  1.00  0.00    -0.248 NA
ATOM     46  C   UNL     1       7.225   6.352   7.172  1.00  0.00     0.031 C 
ATOM     47  C   UNL     1      12.118   2.784   6.673  1.00  0.00     0.029 A 
ATOM     48  C   UNL     1      10.810   3.232   6.759  1.00  0.00     0.049 A 
ATOM     49  H   UNL     1       9.017   2.136   6.549  1.00  0.00     0.167 HD
ATOM     50  C   UNL     1       9.024   4.935   6.994  1.00  0.00     0.074 A 
ATOM     51  C   UNL     1       8.548   6.289   7.200  1.00  0.00     0.031 C 
ATOM     52  C   UNL     1      10.331   4.571   7.012  1.00  0.00     0.034 A 
BRANCH  39  53
ATOM     53  C   UNL     1      11.262  -1.465   5.916  1.00  0.00     0.023 A 
ATOM     54  C   UNL     1      11.407  -2.208   4.732  1.00  0.00     0.031 A 
ATOM     55  C   UNL     1      12.082  -1.809   7.008  1.00  0.00     0.131 A 
ATOM     56  C   UNL     1      12.302  -3.290   4.687  1.00  0.00     0.055 A 
ATOM     57  C   UNL     1      13.024  -2.837   6.933  1.00  0.00     0.041 A 
ATOM     58  F   UNL     1      11.979  -1.150   8.173  1.00  0.00    -0.206 F 
ATOM     59  C   UNL     1      13.129  -3.594   5.771  1.00  0.00     0.022 A 
BRANCH  56  60
ATOM     60  S   UNL     1      12.276  -4.384   3.239  1.00  0.00     0.124 S 
ATOM     61  O   UNL     1      10.868  -4.770   3.186  1.00  0.00    -0.237 OA
ATOM     62  O   UNL     1      12.740  -3.503   2.174  1.00  0.00    -0.237 OA
ATOM     63  O   UNL     1      13.195  -5.460   3.606  1.00  0.00    -0.744 OA
ENDBRANCH  56  60
ENDBRANCH  39  53
BRANCH  40  64
ATOM     64  C   UNL     1       4.374   5.669   7.080  1.00  0.00     0.023 A 
ATOM     65  C   UNL     1       4.123   6.729   6.199  1.00  0.00     0.031 A 
ATOM     66  C   UNL     1       3.587   5.566   8.243  1.00  0.00     0.131 A 
ATOM     67  C   UNL     1       3.108   7.650   6.497  1.00  0.00     0.055 A 
ATOM     68  C   UNL     1       2.550   6.457   8.510  1.00  0.00     0.041 A 
ATOM     69  F   UNL     1       3.786   4.560   9.110  1.00  0.00    -0.206 F 
ATOM     70  C   UNL     1       2.308   7.511   7.635  1.00  0.00     0.022 A 
BRANCH  67  71
ATOM     71  S   UNL     1       2.855   9.055   5.379  1.00  0.00     0.124 S 
ATOM     72  O   UNL     1       4.132   9.751   5.482  1.00  0.00    -0.237 OA
ATOM     73  O   UNL     1       2.588   8.388   4.109  1.00  0.00    -0.237 OA
ATOM     74  O   UNL     1       1.712   9.754   5.964  1.00  0.00    -0.744 OA
ENDBRANCH  67  71
ENDBRANCH  40  64
BRANCH  52  75
ATOM     75  C   UNL     1      11.332   5.675   7.247  1.00  0.00     0.023 A 
ATOM     76  C   UNL     1      11.414   6.340   8.484  1.00  0.00     0.031 A 
ATOM     77  C   UNL     1      12.170   6.108   6.205  1.00  0.00     0.131 A 
ATOM     78  C   UNL     1      12.264   7.447   8.627  1.00  0.00     0.055 A 
ATOM     79  C   UNL     1      13.057   7.172   6.371  1.00  0.00     0.041 A 
ATOM     80  F   UNL     1      12.128   5.512   5.003  1.00  0.00    -0.206 F 
ATOM     81  C   UNL     1      13.096   7.859   7.582  1.00  0.00     0.022 A 
BRANCH  78  82
ATOM     82  S   UNL     1      12.183   8.416  10.158  1.00  0.00     0.124 S 
ATOM     83  O   UNL     1      10.774   8.794  10.204  1.00  0.00    -0.237 OA
ATOM     84  O   UNL     1      12.618   7.450  11.162  1.00  0.00    -0.237 OA
ATOM     85  O   UNL     1      13.112   9.519   9.916  1.00  0.00    -0.744 OA
ENDBRANCH  78  82
ENDBRANCH  52  75
ENDBRANCH  26  27
ENDBRANCH  19  21
ENDBRANCH  18  19
ENDBRANCH   1  18
TORSDOF 17
