REMARK SMILES Cc1ccnc(C(=O)c2[nH]c3ccc(OC(F)(F)F)cc3c2CC(=O)OCCOC(=O)c2ccc(-c3c4nc(c(-c5cc(S(=O)(=O)[O-])ccc5F)c5ccc([nH]5)c(-c5cc(S(=O)(=O)[O-])ccc5F)c5nc(c(-c6cc(S(=O)(=O)[O-])ccc6F)c6ccc3[nH]6)C=C5)C=C4)cc2)c1
REMARK SMILES IDX 27 1 26 2 24 3 25 4 23 5 22 6 9 7 10 8 11 9 21 11 12 12
REMARK SMILES IDX 20 13 13 14 14 15 7 16 8 17 6 18 1 19 2 20 3 21 95 22 4 23
REMARK SMILES IDX 5 24 15 25 16 26 17 27 18 28 19 29 28 30 29 31 30 32 31 33
REMARK SMILES IDX 32 34 33 35 94 36 34 37 93 38 35 39 36 40 37 41 87 42 38 43
REMARK SMILES IDX 92 44 86 45 88 46 39 47 91 48 85 49 84 50 40 52 72 53 52 54
REMARK SMILES IDX 71 55 53 56 56 57 70 58 89 59 54 60 55 61 69 63 90 64 57 65
REMARK SMILES IDX 41 66 42 67 50 68 43 69 49 70 51 71 48 72 44 73 45 74 46 75
REMARK SMILES IDX 47 76 73 77 74 78 82 79 75 80 81 81 83 82 80 83 76 84 77 85
REMARK SMILES IDX 78 86 79 87 58 88 59 89 67 90 60 91 66 92 68 93 65 94 61 95
REMARK SMILES IDX 62 96 63 97 64 98
REMARK H PARENT 10 10 88 51 56 62
REMARK Flexibility Score: inf
ROOT
ATOM      1  C   UNL     1       5.202  -5.360   0.608  1.00  0.00     0.274 C 
ENDROOT
BRANCH   1   2
ATOM      2  O   UNL     1       3.763  -5.259   0.511  1.00  0.00    -0.462 OA
BRANCH   2   3
ATOM      3  C   UNL     1       3.098  -5.090   1.680  1.00  0.00     0.310 C 
ATOM      4  O   UNL     1       3.634  -5.174   2.785  1.00  0.00    -0.252 OA
BRANCH   3   5
ATOM      5  C   UNL     1       1.656  -4.649   1.556  1.00  0.00     0.161 C 
BRANCH   5   6
ATOM      6  C   UNL     1       0.871  -4.959   0.319  1.00  0.00     0.000 A 
ATOM      7  C   UNL     1       0.699  -4.171  -0.820  1.00  0.00     0.093 A 
ATOM      8  N   UNL     1      -0.179  -4.834  -1.643  1.00  0.00    -0.352 N 
ATOM      9  C   UNL     1      -0.688  -5.943  -1.028  1.00  0.00     0.046 A 
ATOM     10  H   UNL     1      -0.410  -4.547  -2.556  1.00  0.00     0.167 HD
ATOM     11  C   UNL     1      -0.006  -6.094   0.174  1.00  0.00     0.008 A 
ATOM     12  C   UNL     1      -1.695  -6.810  -1.452  1.00  0.00     0.030 A 
ATOM     13  C   UNL     1      -0.326  -7.211   0.977  1.00  0.00     0.057 A 
ATOM     14  C   UNL     1      -2.009  -7.893  -0.626  1.00  0.00     0.049 A 
ATOM     15  C   UNL     1      -1.327  -8.110   0.571  1.00  0.00     0.130 A 
BRANCH   7  16
ATOM     16  C   UNL     1       1.267  -2.912  -1.283  1.00  0.00     0.227 C 
ATOM     17  O   UNL     1       2.041  -2.915  -2.241  1.00  0.00    -0.285 OA
BRANCH  16  18
ATOM     18  C   UNL     1       0.677  -1.599  -0.807  1.00  0.00     0.113 A 
ATOM     19  C   UNL     1      -2.627  -0.160   0.410  1.00  0.00     0.044 C 
ATOM     20  C   UNL     1      -1.216  -0.294  -0.084  1.00  0.00    -0.047 A 
ATOM     21  C   UNL     1      -0.525   0.851  -0.481  1.00  0.00     0.023 A 
ATOM     22  C   UNL     1      -0.594  -1.542  -0.229  1.00  0.00     0.036 A 
ATOM     23  C   UNL     1       0.746   0.708  -1.004  1.00  0.00     0.112 A 
ATOM     24  N   UNL     1       1.360  -0.482  -1.179  1.00  0.00    -0.253 NA
ENDBRANCH  16  18
ENDBRANCH   7  16
BRANCH  15  25
ATOM     25  O   UNL     1      -1.538  -9.148   1.437  1.00  0.00    -0.406 OA
BRANCH  25  26
ATOM     26  C   UNL     1      -2.546 -10.086   1.102  1.00  0.00     0.573 C 
ATOM     27  F   UNL     1      -3.762  -9.502   1.043  1.00  0.00    -0.132 F 
ATOM     28  F   UNL     1      -2.282 -10.693  -0.077  1.00  0.00    -0.132 F 
ATOM     29  F   UNL     1      -2.587 -11.043   2.057  1.00  0.00    -0.132 F 
ENDBRANCH  25  26
ENDBRANCH  15  25
ENDBRANCH   5   6
ENDBRANCH   3   5
ENDBRANCH   2   3
ENDBRANCH   1   2
BRANCH   1  30
ATOM     30  C   UNL     1       5.906  -4.064   0.172  1.00  0.00     0.275 C 
BRANCH  30  31
ATOM     31  O   UNL     1       5.699  -2.969   1.092  1.00  0.00    -0.458 OA
BRANCH  31  32
ATOM     32  C   UNL     1       4.556  -2.294   0.855  1.00  0.00     0.338 C 
ATOM     33  O   UNL     1       3.721  -2.570   0.004  1.00  0.00    -0.246 OA
BRANCH  32  34
ATOM     34  C   UNL     1       4.277  -1.226   1.809  1.00  0.00     0.060 A 
ATOM     35  C   UNL     1       3.254  -1.459   2.726  1.00  0.00     0.016 A 
ATOM     36  C   UNL     1       4.780   0.061   1.611  1.00  0.00     0.016 A 
ATOM     37  C   UNL     1       2.662  -0.394   3.385  1.00  0.00     0.010 A 
ATOM     38  C   UNL     1       4.240   1.124   2.345  1.00  0.00     0.010 A 
ATOM     39  C   UNL     1       3.158   0.907   3.215  1.00  0.00    -0.014 A 
BRANCH  39  40
ATOM     40  C   UNL     1       2.540   1.999   4.007  1.00  0.00     0.031 A 
ATOM     41  C   UNL     1       1.707   3.065   3.357  1.00  0.00     0.074 A 
ATOM     42  C   UNL     1       2.665   1.954   5.347  1.00  0.00     0.049 A 
ATOM     43  N   UNL     1       1.042   4.045   3.914  1.00  0.00    -0.248 NA
ATOM     44  C   UNL     1       1.596   3.022   1.892  1.00  0.00     0.031 C 
ATOM     45  C   UNL     1       3.421   0.937   6.085  1.00  0.00     0.029 A 
ATOM     46  N   UNL     1       2.144   2.756   6.327  1.00  0.00    -0.354 N 
ATOM     47  C   UNL     1       0.415   4.723   2.876  1.00  0.00     0.074 A 
ATOM     48  C   UNL     1       0.814   4.066   1.648  1.00  0.00     0.031 C 
ATOM     49  C   UNL     1       3.284   1.157   7.399  1.00  0.00     0.029 A 
ATOM     50  C   UNL     1       2.494   2.365   7.597  1.00  0.00     0.049 A 
ATOM     51  H   UNL     1       1.574   3.537   6.139  1.00  0.00     0.167 HD
ATOM     52  C   UNL     1      -0.422   5.789   2.945  1.00  0.00     0.034 A 
ATOM     53  C   UNL     1       2.234   2.932   8.789  1.00  0.00     0.034 A 
ATOM     54  C   UNL     1      -0.772   6.463   4.172  1.00  0.00     0.049 A 
ATOM     55  C   UNL     1       1.399   4.181   8.822  1.00  0.00     0.074 A 
ATOM     56  C   UNL     1      -1.577   7.576   4.349  1.00  0.00     0.029 A 
ATOM     57  N   UNL     1      -0.325   6.096   5.435  1.00  0.00    -0.354 N 
ATOM     58  N   UNL     1       0.824   4.817   7.827  1.00  0.00    -0.248 NA
ATOM     59  C   UNL     1       1.177   4.786  10.139  1.00  0.00     0.031 C 
ATOM     60  C   UNL     1      -1.569   7.914   5.709  1.00  0.00     0.029 A 
ATOM     61  C   UNL     1      -0.809   6.977   6.390  1.00  0.00     0.049 A 
ATOM     62  H   UNL     1       0.252   5.321   5.625  1.00  0.00     0.167 HD
ATOM     63  C   UNL     1       0.167   5.898   8.403  1.00  0.00     0.074 A 
ATOM     64  C   UNL     1       0.388   5.803   9.833  1.00  0.00     0.031 C 
ATOM     65  C   UNL     1      -0.549   6.886   7.807  1.00  0.00     0.034 A 
BRANCH  52  66
ATOM     66  C   UNL     1      -0.982   6.309   1.646  1.00  0.00     0.023 A 
ATOM     67  C   UNL     1      -1.915   5.565   0.905  1.00  0.00     0.031 A 
ATOM     68  C   UNL     1      -0.574   7.554   1.137  1.00  0.00     0.131 A 
ATOM     69  C   UNL     1      -2.376   6.049  -0.328  1.00  0.00     0.055 A 
ATOM     70  C   UNL     1      -1.079   8.057  -0.064  1.00  0.00     0.041 A 
ATOM     71  F   UNL     1       0.331   8.297   1.793  1.00  0.00    -0.206 F 
ATOM     72  C   UNL     1      -1.978   7.299  -0.810  1.00  0.00     0.022 A 
BRANCH  69  73
ATOM     73  S   UNL     1      -3.407   4.963  -1.351  1.00  0.00     0.124 S 
ATOM     74  O   UNL     1      -2.557   3.780  -1.476  1.00  0.00    -0.237 OA
ATOM     75  O   UNL     1      -4.603   4.802  -0.532  1.00  0.00    -0.237 OA
ATOM     76  O   UNL     1      -3.590   5.725  -2.584  1.00  0.00    -0.744 OA
ENDBRANCH  69  73
ENDBRANCH  52  66
BRANCH  53  77
ATOM     77  C   UNL     1       2.822   2.362  10.032  1.00  0.00     0.023 A 
ATOM     78  C   UNL     1       2.010   1.857  11.057  1.00  0.00     0.031 A 
ATOM     79  C   UNL     1       4.216   2.351  10.223  1.00  0.00     0.131 A 
ATOM     80  C   UNL     1       2.597   1.394  12.244  1.00  0.00     0.055 A 
ATOM     81  C   UNL     1       4.797   1.840  11.383  1.00  0.00     0.041 A 
ATOM     82  F   UNL     1       5.037   2.823   9.271  1.00  0.00    -0.206 F 
ATOM     83  C   UNL     1       3.985   1.371  12.409  1.00  0.00     0.022 A 
BRANCH  80  84
ATOM     84  S   UNL     1       1.514   0.907  13.615  1.00  0.00     0.124 S 
ATOM     85  O   UNL     1       0.676   2.091  13.771  1.00  0.00    -0.237 OA
ATOM     86  O   UNL     1       0.857  -0.277  13.073  1.00  0.00    -0.237 OA
ATOM     87  O   UNL     1       2.447   0.655  14.711  1.00  0.00    -0.744 OA
ENDBRANCH  80  84
ENDBRANCH  53  77
BRANCH  65  88
ATOM     88  C   UNL     1      -1.140   7.923   8.726  1.00  0.00     0.023 A 
ATOM     89  C   UNL     1      -0.319   8.813   9.442  1.00  0.00     0.031 A 
ATOM     90  C   UNL     1      -2.527   7.976   8.943  1.00  0.00     0.131 A 
ATOM     91  C   UNL     1      -0.884   9.666  10.399  1.00  0.00     0.055 A 
ATOM     92  C   UNL     1      -3.090   8.870   9.855  1.00  0.00     0.041 A 
ATOM     93  F   UNL     1      -3.354   7.148   8.287  1.00  0.00    -0.206 F 
ATOM     94  C   UNL     1      -2.266   9.708  10.603  1.00  0.00     0.022 A 
BRANCH  91  95
ATOM     95  S   UNL     1       0.224  10.629  11.464  1.00  0.00     0.124 S 
ATOM     96  O   UNL     1       1.079   9.592  12.033  1.00  0.00    -0.237 OA
ATOM     97  O   UNL     1       0.863  11.531  10.512  1.00  0.00    -0.237 OA
ATOM     98  O   UNL     1      -0.685  11.271  12.412  1.00  0.00    -0.744 OA
ENDBRANCH  91  95
ENDBRANCH  65  88
ENDBRANCH  39  40
ENDBRANCH  32  34
ENDBRANCH  31  32
ENDBRANCH  30  31
ENDBRANCH   1  30
TORSDOF 19
