REMARK SMILES O=C(OCCOC(=O)[C@H]1Cc2[nH]cnc2CN1C(=O)c1ccncc1Cl)c1ccc(-c2c3nc(c(-c4cc(S(=O)(=O)[O-])ccc4F)c4ccc([nH]4)c(-c4cc(S(=O)(=O)[O-])ccc4F)c4nc(c(-c5cc(S(=O)(=O)[O-])ccc5F)c5ccc2[nH]5)C=C4)C=C3)cc1
REMARK SMILES IDX 4 1 3 2 2 3 1 4 27 5 28 6 89 7 29 8 88 9 30 10 31 11 32 12
REMARK SMILES IDX 82 13 33 14 87 15 81 16 83 17 34 18 86 19 80 20 79 21 35 23
REMARK SMILES IDX 67 24 47 25 66 26 48 27 51 28 65 29 84 30 49 31 50 32 64 34
REMARK SMILES IDX 85 35 52 36 36 37 37 38 45 39 38 40 44 41 46 42 43 43 39 44
REMARK SMILES IDX 40 45 41 46 42 47 68 48 69 49 77 50 70 51 76 52 78 53 75 54
REMARK SMILES IDX 71 55 72 56 73 57 74 58 53 59 54 60 62 61 55 62 61 63 63 64
REMARK SMILES IDX 60 65 56 66 57 67 58 68 59 69 5 70 6 71 7 72 8 73 9 74 10 75
REMARK SMILES IDX 17 76 11 77 16 78 12 79 15 80 13 81 14 83 18 84 19 85 20 86
REMARK SMILES IDX 21 87 25 88 22 89 24 90 26 91 23 92
REMARK H PARENT 83 22 51 33 12 82
REMARK Flexibility Score: inf
ROOT
ATOM      1  C   UNL     1       4.446   0.204   1.386  1.00  0.00     0.275 C 
ENDROOT
BRANCH   1   2
ATOM      2  O   UNL     1       3.179   0.709   1.835  1.00  0.00    -0.458 OA
BRANCH   2   3
ATOM      3  C   UNL     1       2.174   0.853   0.943  1.00  0.00     0.338 C 
ATOM      4  O   UNL     1       1.286   0.040   0.780  1.00  0.00    -0.246 OA
BRANCH   3   5
ATOM      5  C   UNL     1       2.133   2.204   0.337  1.00  0.00     0.060 A 
ATOM      6  C   UNL     1       3.284   2.951   0.073  1.00  0.00     0.016 A 
ATOM      7  C   UNL     1       0.873   2.718   0.007  1.00  0.00     0.016 A 
ATOM      8  C   UNL     1       3.178   4.226  -0.457  1.00  0.00     0.010 A 
ATOM      9  C   UNL     1       0.765   3.996  -0.529  1.00  0.00     0.010 A 
ATOM     10  C   UNL     1       1.917   4.757  -0.731  1.00  0.00    -0.014 A 
BRANCH  10  11
ATOM     11  C   UNL     1       1.870   6.103  -1.282  1.00  0.00     0.031 A 
ATOM     12  C   UNL     1       2.444   6.286  -2.640  1.00  0.00     0.074 A 
ATOM     13  C   UNL     1       1.232   7.130  -0.696  1.00  0.00     0.049 A 
ATOM     14  N   UNL     1       3.510   6.927  -2.991  1.00  0.00    -0.248 NA
ATOM     15  C   UNL     1       1.785   5.579  -3.744  1.00  0.00     0.031 C 
ATOM     16  C   UNL     1       0.346   7.100   0.466  1.00  0.00     0.029 A 
ATOM     17  N   UNL     1       1.169   8.423  -1.113  1.00  0.00    -0.354 N 
ATOM     18  C   UNL     1       3.550   6.886  -4.385  1.00  0.00     0.074 A 
ATOM     19  C   UNL     1       2.572   5.903  -4.771  1.00  0.00     0.031 C 
ATOM     20  C   UNL     1      -0.337   8.265   0.524  1.00  0.00     0.029 A 
ATOM     21  C   UNL     1       0.168   9.161  -0.505  1.00  0.00     0.049 A 
ATOM     22  H   UNL     1       1.781   8.800  -1.787  1.00  0.00     0.167 HD
ATOM     23  C   UNL     1       4.247   7.798  -5.123  1.00  0.00     0.034 A 
ATOM     24  C   UNL     1      -0.260  10.395  -0.866  1.00  0.00     0.034 A 
ATOM     25  C   UNL     1       5.176   8.539  -4.303  1.00  0.00     0.049 A 
ATOM     26  C   UNL     1       0.837  11.045  -1.626  1.00  0.00     0.074 A 
ATOM     27  C   UNL     1       6.229   8.199  -3.475  1.00  0.00     0.029 A 
ATOM     28  N   UNL     1       4.876   9.845  -3.982  1.00  0.00    -0.354 N 
ATOM     29  N   UNL     1       1.985  11.368  -1.096  1.00  0.00    -0.248 NA
ATOM     30  C   UNL     1       0.841  10.943  -3.079  1.00  0.00     0.031 C 
ATOM     31  C   UNL     1       6.124   9.093  -2.369  1.00  0.00     0.029 A 
ATOM     32  C   UNL     1       5.059   9.960  -2.626  1.00  0.00     0.049 A 
ATOM     33  H   UNL     1       4.588  10.554  -4.601  1.00  0.00     0.167 HD
ATOM     34  C   UNL     1       2.929  11.099  -2.074  1.00  0.00     0.074 A 
ATOM     35  C   UNL     1       2.158  10.953  -3.306  1.00  0.00     0.031 C 
ATOM     36  C   UNL     1       4.209  10.744  -1.752  1.00  0.00     0.034 A 
BRANCH  23  37
ATOM     37  C   UNL     1       3.900   8.254  -6.527  1.00  0.00     0.023 A 
ATOM     38  C   UNL     1       4.758   9.195  -7.136  1.00  0.00     0.031 A 
ATOM     39  C   UNL     1       2.666   8.046  -7.183  1.00  0.00     0.131 A 
ATOM     40  C   UNL     1       4.344   9.944  -8.251  1.00  0.00     0.055 A 
ATOM     41  C   UNL     1       2.293   8.735  -8.342  1.00  0.00     0.041 A 
ATOM     42  F   UNL     1       1.714   7.244  -6.694  1.00  0.00    -0.206 F 
ATOM     43  C   UNL     1       3.117   9.716  -8.864  1.00  0.00     0.022 A 
BRANCH  40  44
ATOM     44  S   UNL     1       5.353  11.364  -8.753  1.00  0.00     0.124 S 
ATOM     45  O   UNL     1       5.474  12.094  -7.495  1.00  0.00    -0.237 OA
ATOM     46  O   UNL     1       6.564  10.714  -9.242  1.00  0.00    -0.237 OA
ATOM     47  O   UNL     1       4.536  12.014  -9.775  1.00  0.00    -0.744 OA
ENDBRANCH  40  44
ENDBRANCH  23  37
BRANCH  24  48
ATOM     48  C   UNL     1      -1.652  10.899  -0.803  1.00  0.00     0.023 A 
ATOM     49  C   UNL     1      -1.957  12.272  -0.804  1.00  0.00     0.031 A 
ATOM     50  C   UNL     1      -2.736  10.004  -0.956  1.00  0.00     0.131 A 
ATOM     51  C   UNL     1      -3.297  12.698  -0.939  1.00  0.00     0.055 A 
ATOM     52  C   UNL     1      -4.060  10.429  -1.071  1.00  0.00     0.041 A 
ATOM     53  F   UNL     1      -2.535   8.682  -1.083  1.00  0.00    -0.206 F 
ATOM     54  C   UNL     1      -4.345  11.784  -1.070  1.00  0.00     0.022 A 
BRANCH  51  55
ATOM     55  S   UNL     1      -3.678  14.473  -1.061  1.00  0.00     0.124 S 
ATOM     56  O   UNL     1      -3.459  14.930   0.307  1.00  0.00    -0.237 OA
ATOM     57  O   UNL     1      -2.720  14.931  -2.060  1.00  0.00    -0.237 OA
ATOM     58  O   UNL     1      -5.074  14.490  -1.501  1.00  0.00    -0.744 OA
ENDBRANCH  51  55
ENDBRANCH  24  48
BRANCH  36  59
ATOM     59  C   UNL     1       4.686  10.922  -0.325  1.00  0.00     0.023 A 
ATOM     60  C   UNL     1       4.044  10.365   0.803  1.00  0.00     0.031 A 
ATOM     61  C   UNL     1       5.927  11.553  -0.121  1.00  0.00     0.131 A 
ATOM     62  C   UNL     1       4.641  10.458   2.074  1.00  0.00     0.055 A 
ATOM     63  C   UNL     1       6.526  11.626   1.137  1.00  0.00     0.041 A 
ATOM     64  F   UNL     1       6.606  12.072  -1.157  1.00  0.00    -0.206 F 
ATOM     65  C   UNL     1       5.881  11.083   2.242  1.00  0.00     0.022 A 
BRANCH  62  66
ATOM     66  S   UNL     1       3.809   9.767   3.538  1.00  0.00     0.124 S 
ATOM     67  O   UNL     1       2.426  10.202   3.386  1.00  0.00    -0.237 OA
ATOM     68  O   UNL     1       4.049   8.334   3.385  1.00  0.00    -0.237 OA
ATOM     69  O   UNL     1       4.524  10.386   4.656  1.00  0.00    -0.744 OA
ENDBRANCH  62  66
ENDBRANCH  36  59
ENDBRANCH  10  11
ENDBRANCH   3   5
ENDBRANCH   2   3
ENDBRANCH   1   2
BRANCH   1  70
ATOM     70  C   UNL     1       4.431  -0.830   0.264  1.00  0.00     0.274 C 
BRANCH  70  71
ATOM     71  O   UNL     1       3.916  -0.338  -0.994  1.00  0.00    -0.461 OA
BRANCH  71  72
ATOM     72  C   UNL     1       2.924  -1.095  -1.555  1.00  0.00     0.329 C 
ATOM     73  O   UNL     1       2.408  -2.062  -1.006  1.00  0.00    -0.250 OA
BRANCH  72  74
ATOM     74  C   UNL     1       2.631  -0.738  -3.019  1.00  0.00     0.201 C 
ATOM     75  C   UNL     1       2.674   0.806  -3.241  1.00  0.00     0.093 C 
ATOM     76  N   UNL     1       3.281  -1.522  -4.152  1.00  0.00    -0.318 N 
ATOM     77  C   UNL     1       2.403   1.096  -4.668  1.00  0.00     0.042 A 
ATOM     78  C   UNL     1       2.746  -1.264  -5.513  1.00  0.00     0.179 C 
ATOM     79  N   UNL     1       2.105   2.288  -5.255  1.00  0.00    -0.348 N 
ATOM     80  C   UNL     1       2.443   0.179  -5.689  1.00  0.00     0.081 A 
ATOM     81  C   UNL     1       1.975   2.049  -6.598  1.00  0.00     0.197 A 
ATOM     82  H   UNL     1       2.003   3.156  -4.801  1.00  0.00     0.167 HD
ATOM     83  N   UNL     1       2.159   0.778  -6.888  1.00  0.00    -0.240 NA
BRANCH  76  84
ATOM     84  C   UNL     1       4.201  -2.567  -4.096  1.00  0.00     0.256 C 
ATOM     85  O   UNL     1       4.652  -3.138  -5.089  1.00  0.00    -0.269 OA
BRANCH  84  86
ATOM     86  C   UNL     1       4.731  -3.065  -2.830  1.00  0.00     0.061 A 
ATOM     87  C   UNL     1       5.999  -2.627  -2.439  1.00  0.00     0.035 A 
ATOM     88  C   UNL     1       4.073  -4.061  -2.114  1.00  0.00     0.072 A 
ATOM     89  C   UNL     1       6.530  -3.156  -1.278  1.00  0.00     0.112 A 
ATOM     90  C   UNL     1       4.665  -4.476  -0.933  1.00  0.00     0.132 A 
ATOM     91  Cl  UNL     1       2.585  -4.767  -2.621  1.00  0.00    -0.082 Cl
ATOM     92  N   UNL     1       5.877  -4.041  -0.494  1.00  0.00    -0.263 NA
ENDBRANCH  84  86
ENDBRANCH  76  84
ENDBRANCH  72  74
ENDBRANCH  71  72
ENDBRANCH  70  71
ENDBRANCH   1  70
TORSDOF 16
