REMARK SMILES CCC(CC)N(CC(C)C)C(=O)N1CC[C@@H](C(=O)OCCOC(=O)c2ccc(-c3c4nc(c(-c5cc(S(=O)(=O)[O-])ccc5F)c5ccc([nH]5)c(-c5cc(S(=O)(=O)[O-])ccc5F)c5nc(c(-c6cc(S(=O)(=O)[O-])ccc6F)c6ccc3[nH]6)C=C5)C=C4)cc2)[C@@H]1C
REMARK SMILES IDX 20 1 19 2 17 3 18 4 16 5 13 6 14 7 88 8 15 9 89 10 11 11
REMARK SMILES IDX 12 12 6 13 3 14 2 15 1 16 4 17 5 18 7 19 8 20 9 21 10 22
REMARK SMILES IDX 21 23 22 24 23 25 24 26 25 27 26 28 87 29 27 30 86 31 28 32
REMARK SMILES IDX 29 33 30 34 80 35 31 36 85 37 79 38 81 39 32 40 84 41 78 42
REMARK SMILES IDX 77 43 33 45 65 46 45 47 64 48 46 49 49 50 63 51 82 52 47 53
REMARK SMILES IDX 48 54 62 56 83 57 50 58 34 59 35 60 43 61 36 62 42 63 44 64
REMARK SMILES IDX 41 65 37 66 38 67 39 68 40 69 66 70 67 71 75 72 68 73 74 74
REMARK SMILES IDX 76 75 73 76 69 77 70 78 71 79 72 80 51 81 52 82 60 83 53 84
REMARK SMILES IDX 59 85 61 86 58 87 54 88 55 89 56 90 57 91
REMARK H PARENT 81 44 49 55
REMARK Flexibility Score: inf
ROOT
ATOM      1  C   UNL     1       1.058  -9.404  -2.052  1.00  0.00     0.274 C 
ENDROOT
BRANCH   1   2
ATOM      2  O   UNL     1       0.201  -8.386  -1.495  1.00  0.00    -0.462 OA
BRANCH   2   3
ATOM      3  C   UNL     1      -1.103  -8.731  -1.331  1.00  0.00     0.311 C 
ATOM      4  O   UNL     1      -1.571  -9.821  -1.642  1.00  0.00    -0.252 OA
BRANCH   3   5
ATOM      5  C   UNL     1      -1.977  -7.608  -0.809  1.00  0.00     0.123 C 
ATOM      6  N   UNL     1      -1.435  -5.302  -0.563  1.00  0.00    -0.321 N 
ATOM      7  C   UNL     1      -2.567  -5.377  -1.463  1.00  0.00     0.122 C 
ATOM      8  C   UNL     1      -1.293  -6.589   0.131  1.00  0.00     0.098 C 
ATOM      9  C   UNL     1      -2.517  -6.793  -1.988  1.00  0.00     0.039 C 
ATOM     10  C   UNL     1      -2.008  -6.528   1.489  1.00  0.00     0.032 C 
BRANCH   6  11
ATOM     11  C   UNL     1      -0.999  -4.057  -0.172  1.00  0.00     0.320 C 
ATOM     12  O   UNL     1      -1.769  -3.103  -0.319  1.00  0.00    -0.248 OA
BRANCH  11  13
ATOM     13  N   UNL     1       0.299  -3.884   0.294  1.00  0.00    -0.321 N 
BRANCH  13  14
ATOM     14  C   UNL     1       0.740  -2.522   0.720  1.00  0.00     0.086 C 
BRANCH  14  15
ATOM     15  C   UNL     1       0.498  -1.434  -0.355  1.00  0.00     0.022 C 
ATOM     16  C   UNL     1       1.246  -0.134  -0.092  1.00  0.00     0.006 C 
ENDBRANCH  14  15
BRANCH  14  17
ATOM     17  C   UNL     1       0.301  -2.138   2.150  1.00  0.00     0.022 C 
ATOM     18  C   UNL     1      -1.182  -1.907   2.375  1.00  0.00     0.006 C 
ENDBRANCH  14  17
ENDBRANCH  13  14
BRANCH  13  19
ATOM     19  C   UNL     1       1.387  -4.848   0.073  1.00  0.00     0.124 C 
BRANCH  19  20
ATOM     20  C   UNL     1       2.163  -5.283   1.339  1.00  0.00     0.002 C 
ATOM     21  C   UNL     1       1.292  -5.807   2.479  1.00  0.00     0.009 C 
ATOM     22  C   UNL     1       3.204  -6.340   0.959  1.00  0.00     0.009 C 
ENDBRANCH  19  20
ENDBRANCH  13  19
ENDBRANCH  11  13
ENDBRANCH   6  11
ENDBRANCH   3   5
ENDBRANCH   2   3
ENDBRANCH   1   2
BRANCH   1  23
ATOM     23  C   UNL     1       1.879 -10.139  -0.987  1.00  0.00     0.275 C 
BRANCH  23  24
ATOM     24  O   UNL     1       1.052 -10.880  -0.073  1.00  0.00    -0.458 OA
BRANCH  24  25
ATOM     25  C   UNL     1       0.681 -10.179   1.024  1.00  0.00     0.338 C 
ATOM     26  O   UNL     1       1.000  -9.037   1.300  1.00  0.00    -0.246 OA
BRANCH  25  27
ATOM     27  C   UNL     1      -0.309 -10.925   1.809  1.00  0.00     0.060 A 
ATOM     28  C   UNL     1      -1.588 -10.374   1.910  1.00  0.00     0.016 A 
ATOM     29  C   UNL     1       0.037 -12.058   2.542  1.00  0.00     0.016 A 
ATOM     30  C   UNL     1      -2.520 -10.923   2.780  1.00  0.00     0.010 A 
ATOM     31  C   UNL     1      -0.911 -12.629   3.399  1.00  0.00     0.010 A 
ATOM     32  C   UNL     1      -2.185 -12.049   3.540  1.00  0.00    -0.014 A 
BRANCH  32  33
ATOM     33  C   UNL     1      -3.169 -12.570   4.518  1.00  0.00     0.031 A 
ATOM     34  C   UNL     1      -2.949 -12.353   5.987  1.00  0.00     0.074 A 
ATOM     35  C   UNL     1      -4.277 -13.191   4.076  1.00  0.00     0.049 A 
ATOM     36  N   UNL     1      -3.663 -12.764   7.002  1.00  0.00    -0.248 NA
ATOM     37  C   UNL     1      -1.761 -11.573   6.361  1.00  0.00     0.031 C 
ATOM     38  C   UNL     1      -4.610 -13.416   2.668  1.00  0.00     0.029 A 
ATOM     39  N   UNL     1      -5.329 -13.740   4.761  1.00  0.00    -0.354 N 
ATOM     40  C   UNL     1      -3.002 -12.314   8.139  1.00  0.00     0.074 A 
ATOM     41  C   UNL     1      -1.815 -11.619   7.683  1.00  0.00     0.031 C 
ATOM     42  C   UNL     1      -5.789 -14.054   2.595  1.00  0.00     0.029 A 
ATOM     43  C   UNL     1      -6.269 -14.323   3.947  1.00  0.00     0.049 A 
ATOM     44  H   UNL     1      -5.403 -13.719   5.743  1.00  0.00     0.167 HD
ATOM     45  C   UNL     1      -3.356 -12.466   9.440  1.00  0.00     0.034 A 
ATOM     46  C   UNL     1      -7.379 -15.020   4.257  1.00  0.00     0.034 A 
ATOM     47  C   UNL     1      -4.547 -13.162   9.870  1.00  0.00     0.049 A 
ATOM     48  C   UNL     1      -7.734 -15.211   5.707  1.00  0.00     0.074 A 
ATOM     49  C   UNL     1      -5.008 -13.376  11.157  1.00  0.00     0.029 A 
ATOM     50  N   UNL     1      -5.467 -13.762   9.017  1.00  0.00    -0.354 N 
ATOM     51  N   UNL     1      -7.089 -14.800   6.775  1.00  0.00    -0.248 NA
ATOM     52  C   UNL     1      -8.967 -15.952   5.992  1.00  0.00     0.031 C 
ATOM     53  C   UNL     1      -6.171 -14.153  11.085  1.00  0.00     0.029 A 
ATOM     54  C   UNL     1      -6.477 -14.368   9.751  1.00  0.00     0.049 A 
ATOM     55  H   UNL     1      -5.410 -13.759   8.034  1.00  0.00     0.167 HD
ATOM     56  C   UNL     1      -7.848 -15.223   7.861  1.00  0.00     0.074 A 
ATOM     57  C   UNL     1      -9.007 -15.902   7.316  1.00  0.00     0.031 C 
ATOM     58  C   UNL     1      -7.612 -15.062   9.189  1.00  0.00     0.034 A 
BRANCH  45  59
ATOM     59  C   UNL     1      -2.401 -11.927  10.479  1.00  0.00     0.023 A 
ATOM     60  C   UNL     1      -2.123 -10.553  10.594  1.00  0.00     0.031 A 
ATOM     61  C   UNL     1      -1.711 -12.810  11.329  1.00  0.00     0.131 A 
ATOM     62  C   UNL     1      -1.123 -10.112  11.475  1.00  0.00     0.055 A 
ATOM     63  C   UNL     1      -0.774 -12.357  12.260  1.00  0.00     0.041 A 
ATOM     64  F   UNL     1      -1.916 -14.134  11.250  1.00  0.00    -0.206 F 
ATOM     65  C   UNL     1      -0.462 -11.002  12.324  1.00  0.00     0.022 A 
BRANCH  62  66
ATOM     66  S   UNL     1      -0.583  -8.383  11.379  1.00  0.00     0.124 S 
ATOM     67  O   UNL     1      -0.186  -8.274   9.976  1.00  0.00    -0.237 OA
ATOM     68  O   UNL     1      -1.786  -7.655  11.762  1.00  0.00    -0.237 OA
ATOM     69  O   UNL     1       0.520  -8.314  12.335  1.00  0.00    -0.744 OA
ENDBRANCH  62  66
ENDBRANCH  45  59
BRANCH  46  70
ATOM     70  C   UNL     1      -8.202 -15.627   3.175  1.00  0.00     0.023 A 
ATOM     71  C   UNL     1      -9.502 -15.175   2.907  1.00  0.00     0.031 A 
ATOM     72  C   UNL     1      -7.693 -16.683   2.398  1.00  0.00     0.131 A 
ATOM     73  C   UNL     1     -10.262 -15.797   1.903  1.00  0.00     0.055 A 
ATOM     74  C   UNL     1      -8.436 -17.269   1.374  1.00  0.00     0.041 A 
ATOM     75  F   UNL     1      -6.450 -17.145   2.613  1.00  0.00    -0.206 F 
ATOM     76  C   UNL     1      -9.733 -16.832   1.128  1.00  0.00     0.022 A 
BRANCH  73  77
ATOM     77  S   UNL     1     -11.978 -15.264   1.655  1.00  0.00     0.124 S 
ATOM     78  O   UNL     1     -12.571 -15.554   2.955  1.00  0.00    -0.237 OA
ATOM     79  O   UNL     1     -11.812 -13.853   1.324  1.00  0.00    -0.237 OA
ATOM     80  O   UNL     1     -12.440 -16.108   0.554  1.00  0.00    -0.744 OA
ENDBRANCH  73  77
ENDBRANCH  46  70
BRANCH  58  81
ATOM     81  C   UNL     1      -8.654 -15.611  10.130  1.00  0.00     0.023 A 
ATOM     82  C   UNL     1      -8.860 -16.994  10.277  1.00  0.00     0.031 A 
ATOM     83  C   UNL     1      -9.472 -14.736  10.866  1.00  0.00     0.131 A 
ATOM     84  C   UNL     1      -9.897 -17.462  11.098  1.00  0.00     0.055 A 
ATOM     85  C   UNL     1     -10.468 -15.208  11.722  1.00  0.00     0.041 A 
ATOM     86  F   UNL     1      -9.318 -13.406  10.761  1.00  0.00    -0.206 F 
ATOM     87  C   UNL     1     -10.694 -16.578  11.831  1.00  0.00     0.022 A 
BRANCH  84  88
ATOM     88  S   UNL     1     -10.254 -19.240  11.123  1.00  0.00     0.124 S 
ATOM     89  O   UNL     1     -10.514 -19.519   9.714  1.00  0.00    -0.237 OA
ATOM     90  O   UNL     1      -9.020 -19.798  11.667  1.00  0.00    -0.237 OA
ATOM     91  O   UNL     1     -11.419 -19.344  12.000  1.00  0.00    -0.744 OA
ENDBRANCH  84  88
ENDBRANCH  58  81
ENDBRANCH  32  33
ENDBRANCH  25  27
ENDBRANCH  24  25
ENDBRANCH  23  24
ENDBRANCH   1  23
TORSDOF 21
