REMARK SMILES Cc1ccc2c(c1C)O[C@@H](C(=O)OCCOC(=O)c1ccc(-c3c4nc(c(-c5cc(S(=O)(=O)[O-])ccc5F)c5ccc([nH]5)c(-c5cc(S(=O)(=O)[O-])ccc5F)c5nc(c(-c6cc(S(=O)(=O)[O-])ccc6F)c6ccc3[nH]6)C=C5)C=C4)cc1)CC2=O
REMARK SMILES IDX 16 1 15 2 14 3 13 4 11 5 12 6 10 7 1 8 2 9 3 10 7 11 4 12
REMARK SMILES IDX 6 13 8 14 5 15 9 16 83 17 82 18 84 19 17 20 18 21 19 22
REMARK SMILES IDX 20 23 81 24 21 25 80 26 22 27 23 28 24 29 74 30 25 31 79 32
REMARK SMILES IDX 73 33 75 34 26 35 78 36 72 37 71 38 27 40 59 41 39 42 58 43
REMARK SMILES IDX 40 44 43 45 57 46 76 47 41 48 42 49 56 51 77 52 44 53 28 54
REMARK SMILES IDX 29 55 37 56 30 57 36 58 38 59 35 60 31 61 32 62 33 63 34 64
REMARK SMILES IDX 60 65 61 66 69 67 62 68 68 69 70 70 67 71 63 72 64 73 65 74
REMARK SMILES IDX 66 75 45 76 46 77 54 78 47 79 53 80 55 81 52 82 48 83 49 84
REMARK SMILES IDX 50 85 51 86
REMARK H PARENT 75 39 43 50
REMARK Flexibility Score: inf
ROOT
ATOM      1  O   UNL     1       1.920  -2.783  -8.247  1.00  0.00    -0.458 OA
ENDROOT
BRANCH   1   2
ATOM      2  C   UNL     1       2.765  -3.183  -7.155  1.00  0.00     0.275 C 
BRANCH   2   3
ATOM      3  C   UNL     1       2.510  -2.318  -5.920  1.00  0.00     0.274 C 
BRANCH   3   4
ATOM      4  O   UNL     1       1.199  -2.575  -5.378  1.00  0.00    -0.459 OA
BRANCH   4   5
ATOM      5  C   UNL     1       0.254  -1.621  -5.588  1.00  0.00     0.347 C 
ATOM      6  O   UNL     1       0.459  -0.552  -6.152  1.00  0.00    -0.248 OA
BRANCH   5   7
ATOM      7  C   UNL     1      -1.111  -1.993  -4.981  1.00  0.00     0.290 C 
ATOM      8  C   UNL     1       1.109   0.101   0.233  1.00  0.00     0.045 C 
ATOM      9  C   UNL     1       0.590  -0.896  -0.767  1.00  0.00    -0.044 A 
ATOM     10  C   UNL     1       0.987  -2.237  -0.588  1.00  0.00     0.005 A 
ATOM     11  C   UNL     1      -0.266  -0.562  -1.839  1.00  0.00    -0.005 A 
ATOM     12  C   UNL     1       0.576  -3.236  -1.466  1.00  0.00     0.016 A 
ATOM     13  C   UNL     1      -0.633  -1.576  -2.744  1.00  0.00     0.134 A 
ATOM     14  C   UNL     1      -0.731   0.846  -2.113  1.00  0.00     0.049 C 
ATOM     15  C   UNL     1      -0.229  -2.899  -2.548  1.00  0.00     0.060 A 
ATOM     16  O   UNL     1      -1.405  -1.215  -3.821  1.00  0.00    -0.477 OA
ATOM     17  C   UNL     1      -0.655  -3.935  -3.507  1.00  0.00     0.170 C 
ATOM     18  C   UNL     1      -1.376  -3.469  -4.741  1.00  0.00     0.138 C 
ATOM     19  O   UNL     1      -0.459  -5.123  -3.268  1.00  0.00    -0.294 OA
ENDBRANCH   5   7
ENDBRANCH   4   5
ENDBRANCH   3   4
ENDBRANCH   2   3
ENDBRANCH   1   2
BRANCH   1  20
ATOM     20  C   UNL     1       0.748  -3.451  -8.332  1.00  0.00     0.338 C 
ATOM     21  O   UNL     1       0.354  -4.355  -7.617  1.00  0.00    -0.246 OA
BRANCH  20  22
ATOM     22  C   UNL     1      -0.084  -2.853  -9.378  1.00  0.00     0.060 A 
ATOM     23  C   UNL     1      -1.086  -1.953  -9.005  1.00  0.00     0.016 A 
ATOM     24  C   UNL     1       0.046  -3.279 -10.699  1.00  0.00     0.016 A 
ATOM     25  C   UNL     1      -1.991  -1.495  -9.955  1.00  0.00     0.010 A 
ATOM     26  C   UNL     1      -0.850  -2.802 -11.655  1.00  0.00     0.010 A 
ATOM     27  C   UNL     1      -1.886  -1.928 -11.282  1.00  0.00    -0.014 A 
BRANCH  27  28
ATOM     28  C   UNL     1      -2.889  -1.499 -12.279  1.00  0.00     0.031 A 
ATOM     29  C   UNL     1      -3.952  -2.459 -12.723  1.00  0.00     0.074 A 
ATOM     30  C   UNL     1      -2.835  -0.251 -12.776  1.00  0.00     0.049 A 
ATOM     31  N   UNL     1      -4.868  -2.305 -13.641  1.00  0.00    -0.248 NA
ATOM     32  C   UNL     1      -3.993  -3.764 -12.042  1.00  0.00     0.031 C 
ATOM     33  C   UNL     1      -1.869   0.770 -12.371  1.00  0.00     0.029 A 
ATOM     34  N   UNL     1      -3.600   0.367 -13.730  1.00  0.00    -0.354 N 
ATOM     35  C   UNL     1      -5.590  -3.492 -13.657  1.00  0.00     0.074 A 
ATOM     36  C   UNL     1      -4.992  -4.367 -12.673  1.00  0.00     0.031 C 
ATOM     37  C   UNL     1      -2.096   1.888 -13.079  1.00  0.00     0.029 A 
ATOM     38  C   UNL     1      -3.189   1.646 -14.018  1.00  0.00     0.049 A 
ATOM     39  H   UNL     1      -4.370  -0.064 -14.168  1.00  0.00     0.167 HD
ATOM     40  C   UNL     1      -6.658  -3.812 -14.423  1.00  0.00     0.034 A 
ATOM     41  C   UNL     1      -3.626   2.514 -14.952  1.00  0.00     0.034 A 
ATOM     42  C   UNL     1      -7.237  -2.927 -15.398  1.00  0.00     0.049 A 
ATOM     43  C   UNL     1      -4.771   2.107 -15.842  1.00  0.00     0.074 A 
ATOM     44  C   UNL     1      -8.324  -3.156 -16.222  1.00  0.00     0.029 A 
ATOM     45  N   UNL     1      -6.781  -1.647 -15.680  1.00  0.00    -0.354 N 
ATOM     46  N   UNL     1      -5.461   0.990 -15.835  1.00  0.00    -0.248 NA
ATOM     47  C   UNL     1      -5.199   3.068 -16.867  1.00  0.00     0.031 C 
ATOM     48  C   UNL     1      -8.500  -2.031 -17.031  1.00  0.00     0.029 A 
ATOM     49  C   UNL     1      -7.553  -1.081 -16.680  1.00  0.00     0.049 A 
ATOM     50  H   UNL     1      -6.022  -1.207 -15.234  1.00  0.00     0.167 HD
ATOM     51  C   UNL     1      -6.416   1.122 -16.837  1.00  0.00     0.074 A 
ATOM     52  C   UNL     1      -6.226   2.434 -17.421  1.00  0.00     0.031 C 
ATOM     53  C   UNL     1      -7.362   0.236 -17.237  1.00  0.00     0.034 A 
BRANCH  40  54
ATOM     54  C   UNL     1      -7.280  -5.171 -14.248  1.00  0.00     0.023 A 
ATOM     55  C   UNL     1      -7.197  -6.122 -15.280  1.00  0.00     0.031 A 
ATOM     56  C   UNL     1      -8.041  -5.483 -13.108  1.00  0.00     0.131 A 
ATOM     57  C   UNL     1      -7.887  -7.335 -15.162  1.00  0.00     0.055 A 
ATOM     58  C   UNL     1      -8.703  -6.704 -12.983  1.00  0.00     0.041 A 
ATOM     59  F   UNL     1      -8.141  -4.606 -12.096  1.00  0.00    -0.206 F 
ATOM     60  C   UNL     1      -8.635  -7.633 -14.018  1.00  0.00     0.022 A 
BRANCH  57  61
ATOM     61  S   UNL     1      -7.861  -8.561 -16.498  1.00  0.00     0.124 S 
ATOM     62  O   UNL     1      -7.424  -9.765 -15.795  1.00  0.00    -0.237 OA
ATOM     63  O   UNL     1      -9.254  -8.563 -16.936  1.00  0.00    -0.237 OA
ATOM     64  O   UNL     1      -6.898  -8.019 -17.451  1.00  0.00    -0.744 OA
ENDBRANCH  57  61
ENDBRANCH  40  54
BRANCH  41  65
ATOM     65  C   UNL     1      -2.983   3.854 -15.056  1.00  0.00     0.023 A 
ATOM     66  C   UNL     1      -1.629   3.981 -15.419  1.00  0.00     0.031 A 
ATOM     67  C   UNL     1      -3.685   5.014 -14.695  1.00  0.00     0.131 A 
ATOM     68  C   UNL     1      -1.007   5.235 -15.355  1.00  0.00     0.055 A 
ATOM     69  C   UNL     1      -3.076   6.270 -14.689  1.00  0.00     0.041 A 
ATOM     70  F   UNL     1      -4.975   4.937 -14.332  1.00  0.00    -0.206 F 
ATOM     71  C   UNL     1      -1.726   6.382 -15.007  1.00  0.00     0.022 A 
BRANCH  68  72
ATOM     72  S   UNL     1       0.778   5.403 -15.628  1.00  0.00     0.124 S 
ATOM     73  O   UNL     1       0.833   6.404 -16.690  1.00  0.00    -0.237 OA
ATOM     74  O   UNL     1       1.238   5.850 -14.316  1.00  0.00    -0.237 OA
ATOM     75  O   UNL     1       1.198   4.059 -16.010  1.00  0.00    -0.744 OA
ENDBRANCH  68  72
ENDBRANCH  41  65
BRANCH  53  76
ATOM     76  C   UNL     1      -8.289   0.633 -18.356  1.00  0.00     0.023 A 
ATOM     77  C   UNL     1      -9.662   0.808 -18.099  1.00  0.00     0.031 A 
ATOM     78  C   UNL     1      -7.845   0.676 -19.687  1.00  0.00     0.131 A 
ATOM     79  C   UNL     1     -10.551   0.976 -19.167  1.00  0.00     0.055 A 
ATOM     80  C   UNL     1      -8.730   0.883 -20.745  1.00  0.00     0.041 A 
ATOM     81  F   UNL     1      -6.545   0.505 -19.977  1.00  0.00    -0.206 F 
ATOM     82  C   UNL     1     -10.092   1.021 -20.488  1.00  0.00     0.022 A 
BRANCH  79  83
ATOM     83  S   UNL     1     -12.340   1.075 -18.887  1.00  0.00     0.124 S 
ATOM     84  O   UNL     1     -12.684   2.330 -19.552  1.00  0.00    -0.237 OA
ATOM     85  O   UNL     1     -12.820  -0.134 -19.549  1.00  0.00    -0.237 OA
ATOM     86  O   UNL     1     -12.468   1.090 -17.433  1.00  0.00    -0.744 OA
ENDBRANCH  79  83
ENDBRANCH  53  76
ENDBRANCH  27  28
ENDBRANCH  20  22
ENDBRANCH   1  20
TORSDOF 14
