REMARK SMILES CC1=C(C(=O)OCCOC(=O)c2ccc(-c3c4nc(c(-c5cc(S(=O)(=O)[O-])ccc5F)c5ccc([nH]5)c(-c5cc(S(=O)(=O)[O-])ccc5F)c5nc(c(-c6cc(S(=O)(=O)[O-])ccc6F)c6ccc3[nH]6)C=C5)C=C4)cc2)N2C(=O)[C@H](NC(=O)c3c(Cl)c(C(F)(F)F)nn3C)[C@@H]2SC1
REMARK SMILES IDX 7 1 6 2 4 3 5 4 3 5 1 6 2 7 95 8 75 9 94 10 76 11 93 12
REMARK SMILES IDX 77 13 78 14 79 15 80 16 81 18 82 19 83 20 91 21 84 22 85 23
REMARK SMILES IDX 90 24 92 25 86 26 87 27 88 28 89 29 8 30 9 31 10 32 11 33
REMARK SMILES IDX 12 34 13 35 74 36 14 37 73 38 15 39 16 40 17 41 67 42 18 43
REMARK SMILES IDX 72 44 66 45 68 46 19 47 71 48 65 49 64 50 20 52 52 53 32 54
REMARK SMILES IDX 51 55 33 56 36 57 50 58 69 59 34 60 35 61 49 63 70 64 37 65
REMARK SMILES IDX 21 66 22 67 30 68 23 69 29 70 31 71 28 72 24 73 25 74 26 75
REMARK SMILES IDX 27 76 53 77 54 78 62 79 55 80 61 81 63 82 60 83 56 84 57 85
REMARK SMILES IDX 58 86 59 87 38 88 39 89 47 90 40 91 46 92 48 93 45 94 41 95
REMARK SMILES IDX 42 96 43 97 44 98
REMARK H PARENT 79 17 68 51 36 62
REMARK Flexibility Score: inf
ROOT
ATOM      1  C   UNL     1       0.713  -3.640  -0.571  1.00  0.00     0.275 C 
ENDROOT
BRANCH   1   2
ATOM      2  O   UNL     1       0.609  -2.235  -0.892  1.00  0.00    -0.457 OA
BRANCH   2   3
ATOM      3  C   UNL     1       1.270  -1.792  -1.996  1.00  0.00     0.355 C 
ATOM      4  O   UNL     1       1.948  -2.497  -2.723  1.00  0.00    -0.244 OA
BRANCH   3   5
ATOM      5  C   UNL     1       0.959  -0.333  -2.264  1.00  0.00     0.131 C 
ATOM      6  C   UNL     1       1.081   0.309   0.182  1.00  0.00     0.043 C 
ATOM      7  C   UNL     1       0.872   0.608  -1.285  1.00  0.00    -0.032 C 
ATOM      8  C   UNL     1       0.632   2.091  -1.542  1.00  0.00     0.105 C 
ATOM      9  N   UNL     1       0.769   0.050  -3.562  1.00  0.00    -0.289 N 
ATOM     10  S   UNL     1       0.869   2.636  -3.263  1.00  0.00    -0.129 SA
ATOM     11  C   UNL     1       1.028  -0.380  -4.817  1.00  0.00     0.253 C 
ATOM     12  C   UNL     1      -0.012   1.212  -3.929  1.00  0.00     0.181 C 
ATOM     13  O   UNL     1       1.643  -1.312  -5.269  1.00  0.00    -0.272 OA
ATOM     14  C   UNL     1       0.201   0.810  -5.414  1.00  0.00     0.206 C 
BRANCH  14  15
ATOM     15  N   UNL     1       0.936   1.717  -6.319  1.00  0.00    -0.336 N 
ATOM     16  C   UNL     1       0.567   2.185  -7.562  1.00  0.00     0.271 C 
ATOM     17  H   UNL     1       1.808   2.031  -5.989  1.00  0.00     0.164 HD
ATOM     18  O   UNL     1       1.434   2.754  -8.221  1.00  0.00    -0.267 OA
BRANCH  16  19
ATOM     19  C   UNL     1      -0.792   2.037  -8.020  1.00  0.00     0.145 A 
ATOM     20  C   UNL     1      -1.247   1.597  -9.254  1.00  0.00     0.104 A 
ATOM     21  N   UNL     1      -1.922   2.487  -7.388  1.00  0.00    -0.261 N 
ATOM     22  Cl  UNL     1      -0.324   0.988 -10.544  1.00  0.00    -0.079 Cl
ATOM     23  C   UNL     1      -2.653   1.786  -9.261  1.00  0.00     0.185 A 
ATOM     24  N   UNL     1      -3.057   2.280  -8.072  1.00  0.00    -0.166 NA
ATOM     25  C   UNL     1      -2.028   3.213  -6.144  1.00  0.00     0.174 C 
BRANCH  23  26
ATOM     26  C   UNL     1      -3.594   1.558 -10.419  1.00  0.00     0.436 C 
ATOM     27  F   UNL     1      -3.316   2.413 -11.444  1.00  0.00    -0.164 F 
ATOM     28  F   UNL     1      -3.509   0.301 -10.916  1.00  0.00    -0.164 F 
ATOM     29  F   UNL     1      -4.896   1.773 -10.091  1.00  0.00    -0.164 F 
ENDBRANCH  23  26
ENDBRANCH  16  19
ENDBRANCH  14  15
ENDBRANCH   3   5
ENDBRANCH   2   3
ENDBRANCH   1   2
BRANCH   1  30
ATOM     30  C   UNL     1      -0.675  -4.285  -0.509  1.00  0.00     0.275 C 
BRANCH  30  31
ATOM     31  O   UNL     1      -1.258  -4.385  -1.822  1.00  0.00    -0.458 OA
BRANCH  31  32
ATOM     32  C   UNL     1      -2.057  -3.350  -2.170  1.00  0.00     0.338 C 
ATOM     33  O   UNL     1      -2.382  -2.401  -1.474  1.00  0.00    -0.246 OA
BRANCH  32  34
ATOM     34  C   UNL     1      -2.295  -3.386  -3.621  1.00  0.00     0.060 A 
ATOM     35  C   UNL     1      -1.580  -2.460  -4.368  1.00  0.00     0.016 A 
ATOM     36  C   UNL     1      -3.228  -4.211  -4.241  1.00  0.00     0.016 A 
ATOM     37  C   UNL     1      -1.805  -2.317  -5.729  1.00  0.00     0.010 A 
ATOM     38  C   UNL     1      -3.441  -4.082  -5.626  1.00  0.00     0.010 A 
ATOM     39  C   UNL     1      -2.742  -3.119  -6.380  1.00  0.00    -0.014 A 
BRANCH  39  40
ATOM     40  C   UNL     1      -3.019  -2.862  -7.822  1.00  0.00     0.031 A 
ATOM     41  C   UNL     1      -4.367  -2.340  -8.237  1.00  0.00     0.074 A 
ATOM     42  C   UNL     1      -2.045  -2.991  -8.747  1.00  0.00     0.049 A 
ATOM     43  N   UNL     1      -4.856  -2.165  -9.437  1.00  0.00    -0.248 NA
ATOM     44  C   UNL     1      -5.281  -1.956  -7.152  1.00  0.00     0.031 C 
ATOM     45  C   UNL     1      -0.655  -3.361  -8.468  1.00  0.00     0.029 A 
ATOM     46  N   UNL     1      -2.070  -2.815 -10.110  1.00  0.00    -0.354 N 
ATOM     47  C   UNL     1      -6.149  -1.685  -9.256  1.00  0.00     0.074 A 
ATOM     48  C   UNL     1      -6.368  -1.612  -7.826  1.00  0.00     0.031 C 
ATOM     49  C   UNL     1       0.036  -3.376  -9.618  1.00  0.00     0.029 A 
ATOM     50  C   UNL     1      -0.875  -3.115 -10.727  1.00  0.00     0.049 A 
ATOM     51  H   UNL     1      -2.865  -2.503 -10.599  1.00  0.00     0.167 HD
ATOM     52  C   UNL     1      -7.066  -1.345 -10.196  1.00  0.00     0.034 A 
ATOM     53  C   UNL     1      -0.561  -3.231 -12.034  1.00  0.00     0.034 A 
ATOM     54  C   UNL     1      -6.825  -1.423 -11.618  1.00  0.00     0.049 A 
ATOM     55  C   UNL     1      -1.639  -2.991 -13.062  1.00  0.00     0.074 A 
ATOM     56  C   UNL     1      -7.695  -1.140 -12.657  1.00  0.00     0.029 A 
ATOM     57  N   UNL     1      -5.627  -1.814 -12.205  1.00  0.00    -0.354 N 
ATOM     58  N   UNL     1      -2.888  -2.626 -12.882  1.00  0.00    -0.248 NA
ATOM     59  C   UNL     1      -1.270  -3.192 -14.470  1.00  0.00     0.031 C 
ATOM     60  C   UNL     1      -7.057  -1.448 -13.863  1.00  0.00     0.029 A 
ATOM     61  C   UNL     1      -5.754  -1.828 -13.586  1.00  0.00     0.049 A 
ATOM     62  H   UNL     1      -4.807  -2.046 -11.712  1.00  0.00     0.167 HD
ATOM     63  C   UNL     1      -3.439  -2.515 -14.156  1.00  0.00     0.074 A 
ATOM     64  C   UNL     1      -2.387  -2.845 -15.093  1.00  0.00     0.031 C 
ATOM     65  C   UNL     1      -4.701  -2.166 -14.516  1.00  0.00     0.034 A 
BRANCH  52  66
ATOM     66  C   UNL     1      -8.442  -0.952  -9.711  1.00  0.00     0.023 A 
ATOM     67  C   UNL     1      -8.663   0.189  -8.920  1.00  0.00     0.031 A 
ATOM     68  C   UNL     1      -9.550  -1.766 -10.013  1.00  0.00     0.131 A 
ATOM     69  C   UNL     1      -9.941   0.438  -8.394  1.00  0.00     0.055 A 
ATOM     70  C   UNL     1     -10.835  -1.462  -9.564  1.00  0.00     0.041 A 
ATOM     71  F   UNL     1      -9.399  -2.886 -10.738  1.00  0.00    -0.206 F 
ATOM     72  C   UNL     1     -11.034  -0.363  -8.735  1.00  0.00     0.022 A 
BRANCH  69  73
ATOM     73  S   UNL     1     -10.124   1.715  -7.118  1.00  0.00     0.124 S 
ATOM     74  O   UNL     1      -9.180   1.258  -6.100  1.00  0.00    -0.237 OA
ATOM     75  O   UNL     1      -9.757   2.933  -7.830  1.00  0.00    -0.237 OA
ATOM     76  O   UNL     1     -11.531   1.618  -6.734  1.00  0.00    -0.744 OA
ENDBRANCH  69  73
ENDBRANCH  52  66
BRANCH  53  77
ATOM     77  C   UNL     1       0.799  -3.688 -12.453  1.00  0.00     0.023 A 
ATOM     78  C   UNL     1       1.616  -2.895 -13.276  1.00  0.00     0.031 A 
ATOM     79  C   UNL     1       1.271  -4.966 -12.097  1.00  0.00     0.131 A 
ATOM     80  C   UNL     1       2.834  -3.407 -13.754  1.00  0.00     0.055 A 
ATOM     81  C   UNL     1       2.515  -5.441 -12.517  1.00  0.00     0.041 A 
ATOM     82  F   UNL     1       0.527  -5.778 -11.330  1.00  0.00    -0.206 F 
ATOM     83  C   UNL     1       3.297  -4.665 -13.364  1.00  0.00     0.022 A 
BRANCH  80  84
ATOM     84  S   UNL     1       3.753  -2.453 -14.995  1.00  0.00     0.124 S 
ATOM     85  O   UNL     1       2.769  -2.334 -16.065  1.00  0.00    -0.237 OA
ATOM     86  O   UNL     1       4.066  -1.227 -14.270  1.00  0.00    -0.237 OA
ATOM     87  O   UNL     1       4.901  -3.306 -15.297  1.00  0.00    -0.744 OA
ENDBRANCH  80  84
ENDBRANCH  53  77
BRANCH  65  88
ATOM     88  C   UNL     1      -4.995  -2.066 -15.995  1.00  0.00     0.023 A 
ATOM     89  C   UNL     1      -4.967  -3.189 -16.841  1.00  0.00     0.031 A 
ATOM     90  C   UNL     1      -5.304  -0.818 -16.567  1.00  0.00     0.131 A 
ATOM     91  C   UNL     1      -5.189  -3.033 -18.219  1.00  0.00     0.055 A 
ATOM     92  C   UNL     1      -5.590  -0.680 -17.925  1.00  0.00     0.041 A 
ATOM     93  F   UNL     1      -5.340   0.291 -15.810  1.00  0.00    -0.206 F 
ATOM     94  C   UNL     1      -5.520  -1.789 -18.762  1.00  0.00     0.022 A 
BRANCH  91  95
ATOM     95  S   UNL     1      -4.942  -4.460 -19.312  1.00  0.00     0.124 S 
ATOM     96  O   UNL     1      -3.553  -4.815 -19.040  1.00  0.00    -0.237 OA
ATOM     97  O   UNL     1      -5.947  -5.402 -18.829  1.00  0.00    -0.237 OA
ATOM     98  O   UNL     1      -5.193  -3.919 -20.646  1.00  0.00    -0.744 OA
ENDBRANCH  91  95
ENDBRANCH  65  88
ENDBRANCH  39  40
ENDBRANCH  32  34
ENDBRANCH  31  32
ENDBRANCH  30  31
ENDBRANCH   1  30
TORSDOF 17
