REMARK SMILES NC(=O)[C@@H]1CCC[N@@H+]1[C@@H](C(=O)OCCOC(=O)c1ccc(-c2c3nc(c(-c4cc(S(=O)(=O)[O-])ccc4F)c4ccc([nH]4)c(-c4cc(S(=O)(=O)[O-])ccc4F)c4nc(c(-c5cc(S(=O)(=O)[O-])ccc5F)c5ccc2[nH]5)C=C4)C=C3)cc1)c1c[nH]c2cc(OCc3ccccc3)ccc12
REMARK SMILES IDX 13 1 12 2 10 3 11 4 9 5 8 6 4 7 5 8 6 9 7 10 2 12 1 13 3 16
REMARK SMILES IDX 81 17 82 18 97 19 83 20 84 21 96 22 85 24 95 25 86 26 87 27
REMARK SMILES IDX 88 28 89 29 90 30 94 31 91 32 93 33 92 34 14 35 15 36 16 37
REMARK SMILES IDX 17 38 18 39 19 40 80 41 20 42 79 43 21 44 22 45 23 46 73 47
REMARK SMILES IDX 24 48 78 49 72 50 74 51 25 52 77 53 71 54 70 55 26 57 58 58
REMARK SMILES IDX 38 59 57 60 39 61 42 62 56 63 75 64 40 65 41 66 55 68 76 69
REMARK SMILES IDX 43 70 27 71 28 72 36 73 29 74 35 75 37 76 34 77 30 78 31 79
REMARK SMILES IDX 32 80 33 81 59 82 60 83 68 84 61 85 67 86 69 87 66 88 62 89
REMARK SMILES IDX 63 90 64 91 65 92 44 93 45 94 53 95 46 96 52 97 54 98 51 99
REMARK SMILES IDX 47 100 48 101 49 102 50 103
REMARK H PARENT 8 11 1 14 1 15 83 23 74 56 42 67
REMARK Flexibility Score: inf
ROOT
ATOM      1  C   UNL     1      -2.373  -0.635   3.829  1.00  0.00     0.274 C 
ENDROOT
BRANCH   1   2
ATOM      2  O   UNL     1      -1.287   0.269   4.163  1.00  0.00    -0.457 OA
BRANCH   2   3
ATOM      3  C   UNL     1      -1.343   1.485   3.556  1.00  0.00     0.370 C 
ATOM      4  O   UNL     1      -2.333   1.878   2.934  1.00  0.00    -0.245 OA
BRANCH   3   5
ATOM      5  C   UNL     1      -0.060   2.310   3.599  1.00  0.00     0.329 C 
BRANCH   5   6
ATOM      6  N   UNL     1       1.189   1.754   2.902  1.00  0.00    -0.309 N 
ATOM      7  C   UNL     1       1.168   0.472   2.145  1.00  0.00     0.275 C 
ATOM      8  C   UNL     1       1.393  -0.647   3.160  1.00  0.00     0.081 C 
ATOM      9  C   UNL     1       1.981   0.072   4.369  1.00  0.00     0.068 C 
ATOM     10  C   UNL     1       2.307   1.448   3.822  1.00  0.00     0.264 C 
ATOM     11  H   UNL     1       1.271   2.546   2.265  1.00  0.00     0.349 HD
BRANCH   7  12
ATOM     12  C   UNL     1       0.142   0.203   1.051  1.00  0.00     0.275 C 
ATOM     13  N   UNL     1       0.667   0.049  -0.206  1.00  0.00    -0.365 N 
ATOM     14  H   UNL     1       0.071  -0.128  -0.970  1.00  0.00     0.159 HD
ATOM     15  H   UNL     1       1.639   0.114  -0.345  1.00  0.00     0.159 HD
ATOM     16  O   UNL     1      -1.058   0.005   1.214  1.00  0.00    -0.268 OA
ENDBRANCH   7  12
ENDBRANCH   5   6
BRANCH   5  17
ATOM     17  C   UNL     1       0.319   3.143   4.855  1.00  0.00     0.046 A 
ATOM     18  C   UNL     1       1.045   4.329   4.739  1.00  0.00     0.094 A 
ATOM     19  C   UNL     1       0.364   2.892   6.278  1.00  0.00     0.009 A 
ATOM     20  N   UNL     1       1.937   4.353   5.784  1.00  0.00    -0.361 N 
ATOM     21  C   UNL     1       1.607   3.375   6.687  1.00  0.00     0.050 A 
ATOM     22  C   UNL     1      -0.389   2.297   7.301  1.00  0.00     0.015 A 
ATOM     23  H   UNL     1       2.694   4.976   5.872  1.00  0.00     0.166 HD
ATOM     24  C   UNL     1       2.266   2.908   7.832  1.00  0.00     0.073 A 
ATOM     25  C   UNL     1       0.149   2.061   8.580  1.00  0.00     0.047 A 
ATOM     26  C   UNL     1       1.505   2.236   8.792  1.00  0.00     0.121 A 
BRANCH  26  27
ATOM     27  O   UNL     1       2.200   1.808   9.890  1.00  0.00    -0.489 OA
BRANCH  27  28
ATOM     28  C   UNL     1       1.543   1.836  11.163  1.00  0.00     0.265 C 
BRANCH  28  29
ATOM     29  C   UNL     1       1.480   3.213  11.783  1.00  0.00    -0.011 A 
ATOM     30  C   UNL     1       0.730   3.421  12.952  1.00  0.00     0.007 A 
ATOM     31  C   UNL     1       2.198   4.290  11.250  1.00  0.00     0.007 A 
ATOM     32  C   UNL     1       0.676   4.685  13.544  1.00  0.00     0.000 A 
ATOM     33  C   UNL     1       2.138   5.547  11.837  1.00  0.00     0.000 A 
ATOM     34  C   UNL     1       1.374   5.747  12.980  1.00  0.00     0.000 A 
ENDBRANCH  28  29
ENDBRANCH  27  28
ENDBRANCH  26  27
ENDBRANCH   5  17
ENDBRANCH   3   5
ENDBRANCH   2   3
ENDBRANCH   1   2
BRANCH   1  35
ATOM     35  C   UNL     1      -3.307  -0.814   5.015  1.00  0.00     0.275 C 
BRANCH  35  36
ATOM     36  O   UNL     1      -3.902   0.463   5.312  1.00  0.00    -0.458 OA
BRANCH  36  37
ATOM     37  C   UNL     1      -3.584   0.955   6.528  1.00  0.00     0.338 C 
ATOM     38  O   UNL     1      -3.066   0.328   7.442  1.00  0.00    -0.246 OA
BRANCH  37  39
ATOM     39  C   UNL     1      -3.797   2.423   6.625  1.00  0.00     0.060 A 
ATOM     40  C   UNL     1      -3.418   3.277   5.589  1.00  0.00     0.016 A 
ATOM     41  C   UNL     1      -4.040   2.957   7.894  1.00  0.00     0.016 A 
ATOM     42  C   UNL     1      -3.144   4.621   5.846  1.00  0.00     0.010 A 
ATOM     43  C   UNL     1      -3.871   4.327   8.127  1.00  0.00     0.010 A 
ATOM     44  C   UNL     1      -3.391   5.168   7.113  1.00  0.00    -0.014 A 
BRANCH  44  45
ATOM     45  C   UNL     1      -3.305   6.637   7.322  1.00  0.00     0.031 A 
ATOM     46  C   UNL     1      -2.301   7.268   8.248  1.00  0.00     0.074 A 
ATOM     47  C   UNL     1      -4.181   7.410   6.652  1.00  0.00     0.049 A 
ATOM     48  N   UNL     1      -2.266   8.495   8.706  1.00  0.00    -0.248 NA
ATOM     49  C   UNL     1      -1.185   6.427   8.703  1.00  0.00     0.031 C 
ATOM     50  C   UNL     1      -5.138   6.924   5.652  1.00  0.00     0.029 A 
ATOM     51  N   UNL     1      -4.416   8.760   6.705  1.00  0.00    -0.354 N 
ATOM     52  C   UNL     1      -1.146   8.572   9.531  1.00  0.00     0.074 A 
ATOM     53  C   UNL     1      -0.518   7.267   9.491  1.00  0.00     0.031 C 
ATOM     54  C   UNL     1      -5.840   7.957   5.176  1.00  0.00     0.029 A 
ATOM     55  C   UNL     1      -5.478   9.151   5.925  1.00  0.00     0.049 A 
ATOM     56  H   UNL     1      -3.880   9.384   7.245  1.00  0.00     0.167 HD
ATOM     57  C   UNL     1      -0.709   9.635  10.255  1.00  0.00     0.034 A 
ATOM     58  C   UNL     1      -6.151  10.314   5.870  1.00  0.00     0.034 A 
ATOM     59  C   UNL     1      -1.353  10.936  10.246  1.00  0.00     0.049 A 
ATOM     60  C   UNL     1      -5.709  11.442   6.751  1.00  0.00     0.074 A 
ATOM     61  C   UNL     1      -0.997  12.078  10.947  1.00  0.00     0.029 A 
ATOM     62  N   UNL     1      -2.477  11.272   9.501  1.00  0.00    -0.354 N 
ATOM     63  N   UNL     1      -4.725  11.472   7.619  1.00  0.00    -0.248 NA
ATOM     64  C   UNL     1      -6.467  12.691   6.644  1.00  0.00     0.031 C 
ATOM     65  C   UNL     1      -1.942  13.075  10.683  1.00  0.00     0.029 A 
ATOM     66  C   UNL     1      -2.838  12.592   9.745  1.00  0.00     0.049 A 
ATOM     67  H   UNL     1      -2.950  10.663   8.889  1.00  0.00     0.167 HD
ATOM     68  C   UNL     1      -4.736  12.754   8.154  1.00  0.00     0.074 A 
ATOM     69  C   UNL     1      -5.807  13.470   7.488  1.00  0.00     0.031 C 
ATOM     70  C   UNL     1      -3.931  13.289   9.107  1.00  0.00     0.034 A 
BRANCH  57  71
ATOM     71  C   UNL     1       0.473   9.459  11.187  1.00  0.00     0.023 A 
ATOM     72  C   UNL     1       1.792   9.293  10.729  1.00  0.00     0.031 A 
ATOM     73  C   UNL     1       0.272   9.575  12.578  1.00  0.00     0.131 A 
ATOM     74  C   UNL     1       2.854   9.251  11.652  1.00  0.00     0.055 A 
ATOM     75  C   UNL     1       1.332   9.577  13.486  1.00  0.00     0.041 A 
ATOM     76  F   UNL     1      -0.967   9.715  13.078  1.00  0.00    -0.206 F 
ATOM     77  C   UNL     1       2.632   9.406  13.025  1.00  0.00     0.022 A 
BRANCH  74  78
ATOM     78  S   UNL     1       4.536   8.861  11.077  1.00  0.00     0.124 S 
ATOM     79  O   UNL     1       4.294   7.861  10.039  1.00  0.00    -0.237 OA
ATOM     80  O   UNL     1       5.015  10.158  10.617  1.00  0.00    -0.237 OA
ATOM     81  O   UNL     1       5.185   8.342  12.280  1.00  0.00    -0.744 OA
ENDBRANCH  74  78
ENDBRANCH  57  71
BRANCH  58  82
ATOM     82  C   UNL     1      -7.358  10.419   5.005  1.00  0.00     0.023 A 
ATOM     83  C   UNL     1      -7.392  11.289   3.908  1.00  0.00     0.031 A 
ATOM     84  C   UNL     1      -8.491   9.619   5.255  1.00  0.00     0.131 A 
ATOM     85  C   UNL     1      -8.541  11.350   3.107  1.00  0.00     0.055 A 
ATOM     86  C   UNL     1      -9.604   9.637   4.418  1.00  0.00     0.041 A 
ATOM     87  F   UNL     1      -8.508   8.771   6.296  1.00  0.00    -0.206 F 
ATOM     88  C   UNL     1      -9.637  10.514   3.339  1.00  0.00     0.022 A 
BRANCH  85  89
ATOM     89  S   UNL     1      -8.611  12.591   1.789  1.00  0.00     0.124 S 
ATOM     90  O   UNL     1      -8.395  13.827   2.533  1.00  0.00    -0.237 OA
ATOM     91  O   UNL     1      -7.520  12.169   0.916  1.00  0.00    -0.237 OA
ATOM     92  O   UNL     1      -9.952  12.422   1.234  1.00  0.00    -0.744 OA
ENDBRANCH  85  89
ENDBRANCH  58  82
BRANCH  70  93
ATOM     93  C   UNL     1      -4.172  14.740   9.446  1.00  0.00     0.023 A 
ATOM     94  C   UNL     1      -5.378  15.167  10.030  1.00  0.00     0.031 A 
ATOM     95  C   UNL     1      -3.221  15.717   9.103  1.00  0.00     0.131 A 
ATOM     96  C   UNL     1      -5.640  16.538  10.167  1.00  0.00     0.055 A 
ATOM     97  C   UNL     1      -3.456  17.076   9.314  1.00  0.00     0.041 A 
ATOM     98  F   UNL     1      -2.054  15.368   8.538  1.00  0.00    -0.206 F 
ATOM     99  C   UNL     1      -4.680  17.495   9.828  1.00  0.00     0.022 A 
BRANCH  96 100
ATOM    100  S   UNL     1      -7.310  17.056  10.651  1.00  0.00     0.124 S 
ATOM    101  O   UNL     1      -8.130  16.428   9.620  1.00  0.00    -0.237 OA
ATOM    102  O   UNL     1      -7.433  16.497  11.993  1.00  0.00    -0.237 OA
ATOM    103  O   UNL     1      -7.247  18.515  10.590  1.00  0.00    -0.744 OA
ENDBRANCH  96 100
ENDBRANCH  70  93
ENDBRANCH  44  45
ENDBRANCH  37  39
ENDBRANCH  36  37
ENDBRANCH  35  36
ENDBRANCH   1  35
TORSDOF 20
