REMARK SMILES CN(C)S(=O)(=O)c1ccc(-n2c(CCC(=O)OCCOC(=O)c3ccc(-c4c5nc(c(-c6cc(S(=O)(=O)[O-])ccc6F)c6ccc([nH]6)c(-c6cc(S(=O)(=O)[O-])ccc6F)c6nc(c(-c7cc(S(=O)(=O)[O-])ccc7F)c7ccc4[nH]7)C=C6)C=C5)cc3)ccc2-c2ccc(F)cc2)cc1
REMARK SMILES IDX 18 1 17 2 15 3 16 4 14 5 13 6 12 7 11 8 88 9 86 10 87 11
REMARK SMILES IDX 10 12 7 13 8 14 97 15 9 16 96 17 4 18 5 19 6 20 2 21 1 22
REMARK SMILES IDX 3 23 89 24 90 25 95 26 91 27 94 28 92 29 93 30 19 31 20 32
REMARK SMILES IDX 21 33 22 34 23 35 24 36 85 37 25 38 84 39 26 40 27 41 28 42
REMARK SMILES IDX 78 43 29 44 83 45 77 46 79 47 30 48 82 49 76 50 75 51 31 53
REMARK SMILES IDX 63 54 43 55 62 56 44 57 47 58 61 59 80 60 45 61 46 62 60 64
REMARK SMILES IDX 81 65 48 66 32 67 33 68 41 69 34 70 40 71 42 72 39 73 35 74
REMARK SMILES IDX 36 75 37 76 38 77 64 78 65 79 73 80 66 81 72 82 74 83 71 84
REMARK SMILES IDX 67 85 68 86 69 87 70 88 49 89 50 90 58 91 51 92 57 93 59 94
REMARK SMILES IDX 56 95 52 96 53 97 54 98 55 99
REMARK H PARENT 79 52 47 63
REMARK Flexibility Score: inf
ROOT
ATOM      1  C   UNL     1      -1.417  -2.870   5.654  1.00  0.00     0.274 C 
ENDROOT
BRANCH   1   2
ATOM      2  O   UNL     1      -1.530  -3.003   7.098  1.00  0.00    -0.462 OA
BRANCH   2   3
ATOM      3  C   UNL     1      -1.059  -4.163   7.638  1.00  0.00     0.306 C 
ATOM      4  O   UNL     1      -1.020  -5.226   7.027  1.00  0.00    -0.252 OA
BRANCH   3   5
ATOM      5  C   UNL     1      -0.540  -4.030   9.067  1.00  0.00     0.129 C 
BRANCH   5   6
ATOM      6  C   UNL     1       0.405  -2.873   9.433  1.00  0.00     0.066 C 
BRANCH   6   7
ATOM      7  C   UNL     1      -0.279  -1.552   9.443  1.00  0.00     0.024 A 
ATOM      8  N   UNL     1      -0.504  -0.735   8.338  1.00  0.00    -0.314 N 
ATOM      9  C   UNL     1      -1.484   0.197   8.729  1.00  0.00     0.053 A 
ATOM     10  C   UNL     1      -0.800  -0.917  10.556  1.00  0.00     0.024 A 
ATOM     11  C   UNL     1      -1.551   0.179  10.111  1.00  0.00     0.029 A 
BRANCH   8  12
ATOM     12  C   UNL     1       0.021  -0.876   7.012  1.00  0.00     0.046 A 
ATOM     13  C   UNL     1       1.080  -1.097   3.557  1.00  0.00     0.082 A 
ATOM     14  C   UNL     1       0.319   0.404   4.164  1.00  0.00     0.024 A 
ATOM     15  C   UNL     1       1.340  -2.501   4.645  1.00  0.00     0.024 A 
ATOM     16  C   UNL     1      -0.203   0.535   5.879  1.00  0.00     0.028 A 
ATOM     17  C   UNL     1       0.878  -2.379   6.393  1.00  0.00     0.028 A 
BRANCH  13  18
ATOM     18  S   UNL     1       1.413  -1.300   1.839  1.00  0.00     0.242 S 
ATOM     19  O   UNL     1       0.738  -2.513   1.428  1.00  0.00    -0.207 OA
ATOM     20  O   UNL     1       2.837  -1.122   1.666  1.00  0.00    -0.207 OA
BRANCH  18  21
ATOM     21  N   UNL     1       0.604   0.006   1.075  1.00  0.00    -0.204 NA
ATOM     22  C   UNL     1       1.082   0.238  -0.311  1.00  0.00     0.124 C 
ATOM     23  C   UNL     1      -0.876  -0.035   1.115  1.00  0.00     0.124 C 
ENDBRANCH  18  21
ENDBRANCH  13  18
ENDBRANCH   8  12
BRANCH   9  24
ATOM     24  C   UNL     1      -2.408   0.921   7.849  1.00  0.00    -0.001 A 
ATOM     25  C   UNL     1      -2.417   2.323   7.804  1.00  0.00     0.013 A 
ATOM     26  C   UNL     1      -3.321   0.204   7.058  1.00  0.00     0.013 A 
ATOM     27  C   UNL     1      -3.287   2.992   6.938  1.00  0.00     0.040 A 
ATOM     28  C   UNL     1      -4.189   0.872   6.195  1.00  0.00     0.040 A 
ATOM     29  C   UNL     1      -4.160   2.260   6.140  1.00  0.00     0.123 A 
ATOM     30  F   UNL     1      -4.991   2.900   5.307  1.00  0.00    -0.207 F 
ENDBRANCH   9  24
ENDBRANCH   6   7
ENDBRANCH   5   6
ENDBRANCH   3   5
ENDBRANCH   2   3
ENDBRANCH   1   2
BRANCH   1  31
ATOM     31  C   UNL     1      -0.666  -1.490   5.043  1.00  0.00     0.275 C 
BRANCH  31  32
ATOM     32  O   UNL     1       1.181  -0.770   5.461  1.00  0.00    -0.458 OA
BRANCH  32  33
ATOM     33  C   UNL     1       2.188  -0.079   6.162  1.00  0.00     0.338 C 
ATOM     34  O   UNL     1       2.078   0.663   7.139  1.00  0.00    -0.246 OA
BRANCH  33  35
ATOM     35  C   UNL     1       3.537  -0.430   5.761  1.00  0.00     0.060 A 
ATOM     36  C   UNL     1       4.315  -1.029   6.763  1.00  0.00     0.016 A 
ATOM     37  C   UNL     1       4.082   0.276   4.691  1.00  0.00     0.016 A 
ATOM     38  C   UNL     1       5.667  -0.776   6.780  1.00  0.00     0.010 A 
ATOM     39  C   UNL     1       5.435   0.534   4.716  1.00  0.00     0.010 A 
ATOM     40  C   UNL     1       6.197   0.067   5.799  1.00  0.00    -0.014 A 
BRANCH  40  41
ATOM     41  C   UNL     1       7.611   0.438   5.911  1.00  0.00     0.031 A 
ATOM     42  C   UNL     1       8.506  -0.644   5.301  1.00  0.00     0.074 A 
ATOM     43  C   UNL     1       7.852   1.623   6.553  1.00  0.00     0.049 A 
ATOM     44  N   UNL     1       9.728  -0.980   5.576  1.00  0.00    -0.248 NA
ATOM     45  C   UNL     1       7.909  -1.575   4.298  1.00  0.00     0.031 C 
ATOM     46  C   UNL     1       6.811   2.525   7.116  1.00  0.00     0.029 A 
ATOM     47  N   UNL     1       8.998   2.318   6.869  1.00  0.00    -0.354 N 
ATOM     48  C   UNL     1      10.114  -1.944   4.620  1.00  0.00     0.074 A 
ATOM     49  C   UNL     1       8.914  -2.393   3.990  1.00  0.00     0.031 C 
ATOM     50  C   UNL     1       7.369   3.588   7.742  1.00  0.00     0.029 A 
ATOM     51  C   UNL     1       8.811   3.504   7.633  1.00  0.00     0.049 A 
ATOM     52  H   UNL     1       9.889   2.013   6.584  1.00  0.00     0.167 HD
ATOM     53  C   UNL     1      11.414  -2.183   4.280  1.00  0.00     0.034 A 
ATOM     54  C   UNL     1       9.759   4.333   8.171  1.00  0.00     0.034 A 
ATOM     55  C   UNL     1      12.282  -1.388   5.085  1.00  0.00     0.049 A 
ATOM     56  C   UNL     1      11.035   3.785   7.680  1.00  0.00     0.074 A 
ATOM     57  C   UNL     1      12.685  -1.449   6.391  1.00  0.00     0.029 A 
ATOM     58  N   UNL     1      12.676  -0.180   4.559  1.00  0.00    -0.354 N 
ATOM     59  N   UNL     1      11.485   3.907   6.469  1.00  0.00    -0.248 NA
ATOM     60  C   UNL     1      11.831   2.953   8.591  1.00  0.00     0.031 C 
ATOM     61  C   UNL     1      12.946  -0.104   6.734  1.00  0.00     0.029 A 
ATOM     62  C   UNL     1      12.778   0.705   5.604  1.00  0.00     0.049 A 
ATOM     63  H   UNL     1      12.852   0.014   3.611  1.00  0.00     0.167 HD
ATOM     64  C   UNL     1      12.451   2.934   6.401  1.00  0.00     0.074 A 
ATOM     65  C   UNL     1      12.822   2.631   7.765  1.00  0.00     0.031 C 
ATOM     66  C   UNL     1      12.515   2.105   5.328  1.00  0.00     0.034 A 
BRANCH  53  67
ATOM     67  C   UNL     1      12.035  -2.894   3.101  1.00  0.00     0.023 A 
ATOM     68  C   UNL     1      13.437  -3.091   3.167  1.00  0.00     0.031 A 
ATOM     69  C   UNL     1      11.442  -3.105   1.849  1.00  0.00     0.131 A 
ATOM     70  C   UNL     1      14.202  -3.332   2.020  1.00  0.00     0.055 A 
ATOM     71  C   UNL     1      12.202  -3.425   0.712  1.00  0.00     0.041 A 
ATOM     72  F   UNL     1      10.131  -2.930   1.644  1.00  0.00    -0.206 F 
ATOM     73  C   UNL     1      13.591  -3.500   0.784  1.00  0.00     0.022 A 
BRANCH  70  74
ATOM     74  S   UNL     1      16.008  -3.224   2.163  1.00  0.00     0.124 S 
ATOM     75  O   UNL     1      16.193  -1.915   2.778  1.00  0.00    -0.237 OA
ATOM     76  O   UNL     1      16.314  -4.375   3.007  1.00  0.00    -0.237 OA
ATOM     77  O   UNL     1      16.464  -3.332   0.778  1.00  0.00    -0.744 OA
ENDBRANCH  70  74
ENDBRANCH  53  67
BRANCH  54  78
ATOM     78  C   UNL     1       9.862   5.518   9.123  1.00  0.00     0.023 A 
ATOM     79  C   UNL     1       8.801   6.302   9.614  1.00  0.00     0.031 A 
ATOM     80  C   UNL     1      11.150   5.889   9.627  1.00  0.00     0.131 A 
ATOM     81  C   UNL     1       9.047   7.321  10.582  1.00  0.00     0.055 A 
ATOM     82  C   UNL     1      11.374   6.833  10.628  1.00  0.00     0.041 A 
ATOM     83  F   UNL     1      12.284   5.343   9.168  1.00  0.00    -0.206 F 
ATOM     84  C   UNL     1      10.315   7.550  11.124  1.00  0.00     0.022 A 
BRANCH  81  85
ATOM     85  S   UNL     1       7.721   8.401  11.203  1.00  0.00     0.124 S 
ATOM     86  O   UNL     1       7.841   9.561  10.325  1.00  0.00    -0.237 OA
ATOM     87  O   UNL     1       6.521   7.589  11.032  1.00  0.00    -0.237 OA
ATOM     88  O   UNL     1       8.111   8.634  12.594  1.00  0.00    -0.744 OA
ENDBRANCH  81  85
ENDBRANCH  54  78
BRANCH  66  89
ATOM     89  C   UNL     1      11.859   2.661   4.068  1.00  0.00     0.023 A 
ATOM     90  C   UNL     1      12.366   3.812   3.442  1.00  0.00     0.031 A 
ATOM     91  C   UNL     1      10.664   2.144   3.534  1.00  0.00     0.131 A 
ATOM     92  C   UNL     1      11.687   4.396   2.351  1.00  0.00     0.055 A 
ATOM     93  C   UNL     1       9.994   2.711   2.446  1.00  0.00     0.041 A 
ATOM     94  F   UNL     1      10.095   1.066   4.067  1.00  0.00    -0.206 F 
ATOM     95  C   UNL     1      10.505   3.850   1.848  1.00  0.00     0.022 A 
BRANCH  92  96
ATOM     96  S   UNL     1      12.376   5.878   1.564  1.00  0.00     0.124 S 
ATOM     97  O   UNL     1      12.133   6.912   2.564  1.00  0.00    -0.237 OA
ATOM     98  O   UNL     1      13.772   5.507   1.355  1.00  0.00    -0.237 OA
ATOM     99  O   UNL     1      11.589   6.011   0.337  1.00  0.00    -0.744 OA
ENDBRANCH  92  96
ENDBRANCH  66  89
ENDBRANCH  40  41
ENDBRANCH  33  35
ENDBRANCH  32  33
ENDBRANCH  31  32
ENDBRANCH   1  31
TORSDOF 20
