REMARK SMILES CC[C@]1(C(=O)OCCOC(=O)c2ccc(-c3c4nc(c(-c5cc(S(=O)(=O)[O-])ccc5F)c5ccc([nH]5)c(-c5cc(S(=O)(=O)[O-])ccc5F)c5nc(c(-c6cc(S(=O)(=O)[O-])ccc6F)c6ccc3[nH]6)C=C5)C=C4)cc2)CCN(C(=O)[C@]2(C)CCCO2)C1
REMARK SMILES IDX 8 1 7 2 6 3 4 4 5 5 3 6 75 7 86 8 76 9 77 10 2 11 1 12 78 13
REMARK SMILES IDX 79 14 80 15 82 16 85 17 81 18 83 19 84 20 9 21 10 22 11 23
REMARK SMILES IDX 12 24 13 25 74 26 14 27 73 28 15 29 16 30 17 31 67 32 18 33
REMARK SMILES IDX 72 34 66 35 68 36 19 37 71 38 65 39 64 40 20 42 52 43 32 44
REMARK SMILES IDX 51 45 33 46 36 47 50 48 69 49 34 50 35 51 49 53 70 54 37 55
REMARK SMILES IDX 21 56 22 57 30 58 23 59 29 60 31 61 28 62 24 63 25 64 26 65
REMARK SMILES IDX 27 66 53 67 54 68 62 69 55 70 61 71 63 72 60 73 56 74 57 75
REMARK SMILES IDX 58 76 59 77 38 78 39 79 47 80 40 81 46 82 48 83 45 84 41 85
REMARK SMILES IDX 42 86 43 87 44 88
REMARK H PARENT 68 41 36 52
REMARK Flexibility Score: inf
ROOT
ATOM      1  C   UNL     1       6.819  10.488  -3.632  1.00  0.00     0.275 C 
ENDROOT
BRANCH   1   2
ATOM      2  C   UNL     1       7.189   9.230  -2.853  1.00  0.00     0.274 C 
BRANCH   2   3
ATOM      3  O   UNL     1       6.154   8.916  -1.901  1.00  0.00    -0.462 OA
BRANCH   3   4
ATOM      4  C   UNL     1       6.427   9.156  -0.590  1.00  0.00     0.314 C 
ATOM      5  O   UNL     1       7.513   9.551  -0.182  1.00  0.00    -0.252 OA
BRANCH   4   6
ATOM      6  C   UNL     1       5.261   8.796   0.336  1.00  0.00     0.087 C 
ATOM      7  C   UNL     1       3.879   8.829  -0.348  1.00  0.00     0.042 C 
ATOM      8  C   UNL     1       5.457   7.314   0.672  1.00  0.00     0.138 C 
ATOM      9  C   UNL     1       3.118   7.667   0.265  1.00  0.00     0.121 C 
ATOM     10  N   UNL     1       4.135   6.711   0.653  1.00  0.00    -0.339 N 
BRANCH   6  11
ATOM     11  C   UNL     1       5.283   9.737   1.574  1.00  0.00     0.017 C 
ATOM     12  C   UNL     1       4.442   9.363   2.786  1.00  0.00     0.005 C 
ENDBRANCH   6  11
BRANCH  10  13
ATOM     13  C   UNL     1       3.969   5.392   1.025  1.00  0.00     0.254 C 
ATOM     14  O   UNL     1       4.957   4.674   1.218  1.00  0.00    -0.272 OA
BRANCH  13  15
ATOM     15  C   UNL     1       2.527   4.816   1.152  1.00  0.00     0.144 C 
ATOM     16  C   UNL     1       1.878   4.564  -0.212  1.00  0.00     0.048 C 
ATOM     17  O   UNL     1       1.666   5.707   1.874  1.00  0.00    -0.365 OA
ATOM     18  C   UNL     1       2.588   3.505   1.952  1.00  0.00     0.053 C 
ATOM     19  C   UNL     1       0.546   5.280  -0.169  1.00  0.00     0.032 C 
ATOM     20  C   UNL     1       0.378   5.723   1.264  1.00  0.00     0.162 C 
ENDBRANCH  13  15
ENDBRANCH  10  13
ENDBRANCH   4   6
ENDBRANCH   3   4
ENDBRANCH   2   3
ENDBRANCH   1   2
BRANCH   1  21
ATOM     21  O   UNL     1       6.776  11.612  -2.737  1.00  0.00    -0.458 OA
BRANCH  21  22
ATOM     22  C   UNL     1       5.554  12.131  -2.501  1.00  0.00     0.338 C 
ATOM     23  O   UNL     1       4.490  11.800  -3.018  1.00  0.00    -0.246 OA
BRANCH  22  24
ATOM     24  C   UNL     1       5.657  13.169  -1.470  1.00  0.00     0.060 A 
ATOM     25  C   UNL     1       6.031  12.809  -0.176  1.00  0.00     0.016 A 
ATOM     26  C   UNL     1       5.277  14.478  -1.751  1.00  0.00     0.016 A 
ATOM     27  C   UNL     1       5.931  13.729   0.865  1.00  0.00     0.010 A 
ATOM     28  C   UNL     1       5.289  15.428  -0.725  1.00  0.00     0.010 A 
ATOM     29  C   UNL     1       5.584  15.060   0.603  1.00  0.00    -0.014 A 
BRANCH  29  30
ATOM     30  C   UNL     1       5.492  16.073   1.694  1.00  0.00     0.031 A 
ATOM     31  C   UNL     1       4.218  16.858   1.865  1.00  0.00     0.074 A 
ATOM     32  C   UNL     1       6.538  16.326   2.506  1.00  0.00     0.049 A 
ATOM     33  N   UNL     1       4.017  17.996   2.475  1.00  0.00    -0.248 NA
ATOM     34  C   UNL     1       3.016  16.290   1.236  1.00  0.00     0.031 C 
ATOM     35  C   UNL     1       7.804  15.591   2.524  1.00  0.00     0.029 A 
ATOM     36  N   UNL     1       6.706  17.292   3.470  1.00  0.00    -0.354 N 
ATOM     37  C   UNL     1       2.684  18.322   2.239  1.00  0.00     0.074 A 
ATOM     38  C   UNL     1       2.127  17.252   1.437  1.00  0.00     0.031 C 
ATOM     39  C   UNL     1       8.609  16.120   3.457  1.00  0.00     0.029 A 
ATOM     40  C   UNL     1       7.968  17.301   4.021  1.00  0.00     0.049 A 
ATOM     41  H   UNL     1       5.995  17.916   3.740  1.00  0.00     0.167 HD
ATOM     42  C   UNL     1       2.003  19.424   2.642  1.00  0.00     0.034 A 
ATOM     43  C   UNL     1       8.574  18.197   4.825  1.00  0.00     0.034 A 
ATOM     44  C   UNL     1       2.571  20.449   3.485  1.00  0.00     0.049 A 
ATOM     45  C   UNL     1       7.821  19.438   5.227  1.00  0.00     0.074 A 
ATOM     46  C   UNL     1       1.985  21.615   3.947  1.00  0.00     0.029 A 
ATOM     47  N   UNL     1       3.857  20.419   4.009  1.00  0.00    -0.354 N 
ATOM     48  N   UNL     1       6.605  19.806   4.897  1.00  0.00    -0.248 NA
ATOM     49  C   UNL     1       8.529  20.394   6.088  1.00  0.00     0.031 C 
ATOM     50  C   UNL     1       2.929  22.309   4.713  1.00  0.00     0.029 A 
ATOM     51  C   UNL     1       4.085  21.548   4.780  1.00  0.00     0.049 A 
ATOM     52  H   UNL     1       4.512  19.701   3.855  1.00  0.00     0.167 HD
ATOM     53  C   UNL     1       6.396  21.029   5.526  1.00  0.00     0.074 A 
ATOM     54  C   UNL     1       7.608  21.333   6.259  1.00  0.00     0.031 C 
ATOM     55  C   UNL     1       5.301  21.828   5.503  1.00  0.00     0.034 A 
BRANCH  42  56
ATOM     56  C   UNL     1       0.603  19.610   2.108  1.00  0.00     0.023 A 
ATOM     57  C   UNL     1      -0.450  18.742   2.440  1.00  0.00     0.031 A 
ATOM     58  C   UNL     1       0.331  20.663   1.214  1.00  0.00     0.131 A 
ATOM     59  C   UNL     1      -1.704  18.897   1.827  1.00  0.00     0.055 A 
ATOM     60  C   UNL     1      -0.939  20.859   0.669  1.00  0.00     0.041 A 
ATOM     61  F   UNL     1       1.302  21.511   0.842  1.00  0.00    -0.206 F 
ATOM     62  C   UNL     1      -1.962  19.964   0.962  1.00  0.00     0.022 A 
BRANCH  59  63
ATOM     63  S   UNL     1      -2.952  17.602   2.063  1.00  0.00     0.124 S 
ATOM     64  O   UNL     1      -2.257  16.424   1.550  1.00  0.00    -0.237 OA
ATOM     65  O   UNL     1      -3.173  17.636   3.504  1.00  0.00    -0.237 OA
ATOM     66  O   UNL     1      -4.077  18.056   1.248  1.00  0.00    -0.744 OA
ENDBRANCH  59  63
ENDBRANCH  42  56
BRANCH  43  67
ATOM     67  C   UNL     1       9.998  18.005   5.222  1.00  0.00     0.023 A 
ATOM     68  C   UNL     1      10.357  17.791   6.561  1.00  0.00     0.031 A 
ATOM     69  C   UNL     1      11.026  18.050   4.261  1.00  0.00     0.131 A 
ATOM     70  C   UNL     1      11.711  17.654   6.907  1.00  0.00     0.055 A 
ATOM     71  C   UNL     1      12.366  17.861   4.603  1.00  0.00     0.041 A 
ATOM     72  F   UNL     1      10.737  18.254   2.966  1.00  0.00    -0.206 F 
ATOM     73  C   UNL     1      12.715  17.671   5.935  1.00  0.00     0.022 A 
BRANCH  70  74
ATOM     74  S   UNL     1      12.151  17.521   8.661  1.00  0.00     0.124 S 
ATOM     75  O   UNL     1      11.607  18.762   9.199  1.00  0.00    -0.237 OA
ATOM     76  O   UNL     1      11.464  16.295   9.054  1.00  0.00    -0.237 OA
ATOM     77  O   UNL     1      13.610  17.436   8.640  1.00  0.00    -0.744 OA
ENDBRANCH  70  74
ENDBRANCH  43  67
BRANCH  55  78
ATOM     78  C   UNL     1       5.347  23.070   6.351  1.00  0.00     0.023 A 
ATOM     79  C   UNL     1       6.118  24.187   5.988  1.00  0.00     0.031 A 
ATOM     80  C   UNL     1       4.598  23.131   7.540  1.00  0.00     0.131 A 
ATOM     81  C   UNL     1       6.151  25.310   6.828  1.00  0.00     0.055 A 
ATOM     82  C   UNL     1       4.603  24.266   8.350  1.00  0.00     0.041 A 
ATOM     83  F   UNL     1       3.847  22.088   7.927  1.00  0.00    -0.206 F 
ATOM     84  C   UNL     1       5.388  25.361   8.000  1.00  0.00     0.022 A 
BRANCH  81  85
ATOM     85  S   UNL     1       7.239  26.695   6.396  1.00  0.00     0.124 S 
ATOM     86  O   UNL     1       8.559  26.078   6.472  1.00  0.00    -0.237 OA
ATOM     87  O   UNL     1       6.779  27.051   5.057  1.00  0.00    -0.237 OA
ATOM     88  O   UNL     1       6.958  27.689   7.430  1.00  0.00    -0.744 OA
ENDBRANCH  81  85
ENDBRANCH  55  78
ENDBRANCH  29  30
ENDBRANCH  22  24
ENDBRANCH  21  22
ENDBRANCH   1  21
TORSDOF 17
