REMARK SMILES O=C(COc1ccc(C(=O)/C=C/c2ccc(Cl)c([N+](=O)[O-])c2)cc1)OCCOC(=O)c1ccc(-c2c3nc(c(-c4cc(S(=O)(=O)[O-])ccc4F)c4ccc([nH]4)c(-c4cc(S(=O)(=O)[O-])ccc4F)c4nc(c(-c5cc(S(=O)(=O)[O-])ccc5F)c5ccc2[nH]5)C=C4)C=C3)cc1
REMARK SMILES IDX 25 1 2 2 1 3 3 4 4 5 5 6 6 7 24 8 7 9 23 10 8 11 9 12 10 13
REMARK SMILES IDX 11 14 12 15 13 16 14 17 22 18 15 19 18 20 16 21 17 22 19 23
REMARK SMILES IDX 20 24 21 25 26 26 27 27 28 28 29 29 30 30 31 31 32 32 93 33
REMARK SMILES IDX 33 34 92 35 34 36 35 37 36 38 86 39 37 40 91 41 85 42 87 43
REMARK SMILES IDX 38 44 90 45 84 46 83 47 39 49 71 50 51 51 70 52 52 53 55 54
REMARK SMILES IDX 69 55 88 56 53 57 54 58 68 60 89 61 56 62 40 63 41 64 49 65
REMARK SMILES IDX 42 66 48 67 50 68 47 69 43 70 44 71 45 72 46 73 72 74 73 75
REMARK SMILES IDX 81 76 74 77 80 78 82 79 79 80 75 81 76 82 77 83 78 84 57 85
REMARK SMILES IDX 58 86 66 87 59 88 65 89 67 90 64 91 60 92 61 93 62 94 63 95
REMARK H PARENT 87 48 55 59
REMARK Flexibility Score: inf
ROOT
ATOM      1  O   UNL     1       3.324  -0.510  -0.519  1.00  0.00    -0.460 OA
ENDROOT
BRANCH   1   2
ATOM      2  C   UNL     1       2.603  -0.046   0.533  1.00  0.00     0.344 C 
ATOM      3  O   UNL     1       1.388  -0.228   0.575  1.00  0.00    -0.248 OA
BRANCH   2   4
ATOM      4  C   UNL     1       3.345   0.641   1.679  1.00  0.00     0.351 C 
BRANCH   4   5
ATOM      5  O   UNL     1       4.360  -0.132   2.320  1.00  0.00    -0.482 OA
BRANCH   5   6
ATOM      6  C   UNL     1       3.797  -1.059   3.151  1.00  0.00     0.120 A 
ATOM      7  C   UNL     1       3.758  -0.808   4.520  1.00  0.00     0.047 A 
ATOM      8  C   UNL     1       3.310  -2.255   2.629  1.00  0.00     0.047 A 
ATOM      9  C   UNL     1       3.141  -1.728   5.370  1.00  0.00     0.016 A 
ATOM     10  C   UNL     1       2.695  -3.173   3.474  1.00  0.00     0.016 A 
ATOM     11  C   UNL     1       2.568  -2.893   4.842  1.00  0.00     0.022 A 
BRANCH  11  12
ATOM     12  C   UNL     1       1.877  -3.835   5.758  1.00  0.00     0.185 C 
ATOM     13  O   UNL     1       2.297  -4.005   6.899  1.00  0.00    -0.289 OA
BRANCH  12  14
ATOM     14  C   UNL     1       0.709  -4.626   5.279  1.00  0.00     0.053 C 
ATOM     15  C   UNL     1      -0.146  -4.215   4.330  1.00  0.00     0.012 C 
BRANCH  15  16
ATOM     16  C   UNL     1      -1.213  -5.077   3.825  1.00  0.00    -0.019 A 
ATOM     17  C   UNL     1      -1.081  -5.641   2.553  1.00  0.00     0.010 A 
ATOM     18  C   UNL     1      -2.356  -5.346   4.581  1.00  0.00     0.095 A 
ATOM     19  C   UNL     1      -2.074  -6.482   2.047  1.00  0.00     0.028 A 
ATOM     20  C   UNL     1      -3.363  -6.188   4.066  1.00  0.00     0.288 A 
ATOM     21  C   UNL     1      -3.220  -6.771   2.800  1.00  0.00     0.118 A 
ATOM     22  Cl  UNL     1      -4.323  -7.890   2.079  1.00  0.00    -0.077 Cl
BRANCH  20  23
ATOM     23  N   UNL     1      -4.533  -6.429   4.912  1.00  0.00     0.064 N 
ATOM     24  O   UNL     1      -5.616  -6.690   4.375  1.00  0.00    -0.258 OA
ATOM     25  O   UNL     1      -4.371  -6.333   6.137  1.00  0.00    -0.258 OA
ENDBRANCH  20  23
ENDBRANCH  15  16
ENDBRANCH  12  14
ENDBRANCH  11  12
ENDBRANCH   5   6
ENDBRANCH   4   5
ENDBRANCH   2   4
ENDBRANCH   1   2
BRANCH   1  26
ATOM     26  C   UNL     1       4.691  -0.140  -0.796  1.00  0.00     0.274 C 
BRANCH  26  27
ATOM     27  C   UNL     1       4.750   1.038  -1.769  1.00  0.00     0.275 C 
BRANCH  27  28
ATOM     28  O   UNL     1       4.214   2.211  -1.133  1.00  0.00    -0.458 OA
BRANCH  28  29
ATOM     29  C   UNL     1       2.928   2.512  -1.452  1.00  0.00     0.338 C 
ATOM     30  O   UNL     1       2.255   1.980  -2.318  1.00  0.00    -0.246 OA
BRANCH  29  31
ATOM     31  C   UNL     1       2.391   3.441  -0.432  1.00  0.00     0.060 A 
ATOM     32  C   UNL     1       1.072   3.251  -0.002  1.00  0.00     0.016 A 
ATOM     33  C   UNL     1       3.174   4.456   0.131  1.00  0.00     0.016 A 
ATOM     34  C   UNL     1       0.525   4.095   0.965  1.00  0.00     0.010 A 
ATOM     35  C   UNL     1       2.623   5.299   1.102  1.00  0.00     0.010 A 
ATOM     36  C   UNL     1       1.287   5.140   1.505  1.00  0.00    -0.014 A 
BRANCH  36  37
ATOM     37  C   UNL     1       0.634   6.145   2.380  1.00  0.00     0.031 A 
ATOM     38  C   UNL     1       0.159   7.436   1.770  1.00  0.00     0.074 A 
ATOM     39  C   UNL     1       0.431   5.900   3.688  1.00  0.00     0.049 A 
ATOM     40  N   UNL     1      -0.484   8.430   2.326  1.00  0.00    -0.248 NA
ATOM     41  C   UNL     1       0.452   7.629   0.342  1.00  0.00     0.031 C 
ATOM     42  C   UNL     1       0.840   4.687   4.395  1.00  0.00     0.029 A 
ATOM     43  N   UNL     1      -0.173   6.664   4.655  1.00  0.00    -0.354 N 
ATOM     44  C   UNL     1      -0.702   9.354   1.310  1.00  0.00     0.074 A 
ATOM     45  C   UNL     1      -0.061   8.829   0.121  1.00  0.00     0.031 C 
ATOM     46  C   UNL     1       0.481   4.794   5.687  1.00  0.00     0.029 A 
ATOM     47  C   UNL     1      -0.170   6.085   5.902  1.00  0.00     0.049 A 
ATOM     48  H   UNL     1      -0.572   7.546   4.472  1.00  0.00     0.167 HD
ATOM     49  C   UNL     1      -1.392  10.520   1.353  1.00  0.00     0.034 A 
ATOM     50  C   UNL     1      -0.634   6.548   7.081  1.00  0.00     0.034 A 
ATOM     51  C   UNL     1      -1.995  11.055   2.548  1.00  0.00     0.049 A 
ATOM     52  C   UNL     1      -1.334   7.887   7.122  1.00  0.00     0.074 A 
ATOM     53  C   UNL     1      -2.707  12.232   2.703  1.00  0.00     0.029 A 
ATOM     54  N   UNL     1      -1.947  10.456   3.800  1.00  0.00    -0.354 N 
ATOM     55  N   UNL     1      -1.567   8.732   6.142  1.00  0.00    -0.248 NA
ATOM     56  C   UNL     1      -1.852   8.324   8.425  1.00  0.00     0.031 C 
ATOM     57  C   UNL     1      -3.034  12.375   4.057  1.00  0.00     0.029 A 
ATOM     58  C   UNL     1      -2.591  11.252   4.736  1.00  0.00     0.049 A 
ATOM     59  H   UNL     1      -1.517   9.592   3.995  1.00  0.00     0.167 HD
ATOM     60  C   UNL     1      -2.284   9.783   6.710  1.00  0.00     0.074 A 
ATOM     61  C   UNL     1      -2.467   9.452   8.108  1.00  0.00     0.031 C 
ATOM     62  C   UNL     1      -2.752  10.920   6.132  1.00  0.00     0.034 A 
BRANCH  49  63
ATOM     63  C   UNL     1      -1.497  11.301   0.068  1.00  0.00     0.023 A 
ATOM     64  C   UNL     1      -2.200  10.794  -1.040  1.00  0.00     0.031 A 
ATOM     65  C   UNL     1      -0.867  12.550  -0.065  1.00  0.00     0.131 A 
ATOM     66  C   UNL     1      -2.201  11.501  -2.251  1.00  0.00     0.055 A 
ATOM     67  C   UNL     1      -0.935  13.284  -1.251  1.00  0.00     0.041 A 
ATOM     68  F   UNL     1      -0.162  13.071   0.951  1.00  0.00    -0.206 F 
ATOM     69  C   UNL     1      -1.594  12.755  -2.357  1.00  0.00     0.022 A 
BRANCH  66  70
ATOM     70  S   UNL     1      -2.898  10.702  -3.722  1.00  0.00     0.124 S 
ATOM     71  O   UNL     1      -2.048   9.520  -3.846  1.00  0.00    -0.237 OA
ATOM     72  O   UNL     1      -4.280  10.457  -3.325  1.00  0.00    -0.237 OA
ATOM     73  O   UNL     1      -2.719  11.702  -4.773  1.00  0.00    -0.744 OA
ENDBRANCH  66  70
ENDBRANCH  49  63
BRANCH  50  74
ATOM     74  C   UNL     1      -0.436   5.767   8.337  1.00  0.00     0.023 A 
ATOM     75  C   UNL     1      -1.528   5.285   9.077  1.00  0.00     0.031 A 
ATOM     76  C   UNL     1       0.854   5.571   8.861  1.00  0.00     0.131 A 
ATOM     77  C   UNL     1      -1.314   4.690  10.331  1.00  0.00     0.055 A 
ATOM     78  C   UNL     1       1.065   4.928  10.082  1.00  0.00     0.041 A 
ATOM     79  F   UNL     1       1.933   6.011   8.194  1.00  0.00    -0.206 F 
ATOM     80  C   UNL     1      -0.025   4.499  10.833  1.00  0.00     0.022 A 
BRANCH  77  81
ATOM     81  S   UNL     1      -2.756   4.269  11.348  1.00  0.00     0.124 S 
ATOM     82  O   UNL     1      -3.438   5.555  11.444  1.00  0.00    -0.237 OA
ATOM     83  O   UNL     1      -3.413   3.253  10.532  1.00  0.00    -0.237 OA
ATOM     84  O   UNL     1      -2.164   3.781  12.592  1.00  0.00    -0.744 OA
ENDBRANCH  77  81
ENDBRANCH  50  74
BRANCH  62  85
ATOM     85  C   UNL     1      -3.533  11.866   7.014  1.00  0.00     0.023 A 
ATOM     86  C   UNL     1      -2.932  12.533   8.097  1.00  0.00     0.031 A 
ATOM     87  C   UNL     1      -4.904  12.078   6.788  1.00  0.00     0.131 A 
ATOM     88  C   UNL     1      -3.713  13.322   8.954  1.00  0.00     0.055 A 
ATOM     89  C   UNL     1      -5.664  12.916   7.607  1.00  0.00     0.041 A 
ATOM     90  F   UNL     1      -5.532  11.470   5.770  1.00  0.00    -0.206 F 
ATOM     91  C   UNL     1      -5.072  13.530   8.708  1.00  0.00     0.022 A 
BRANCH  88  92
ATOM     92  S   UNL     1      -2.952  13.983  10.463  1.00  0.00     0.124 S 
ATOM     93  O   UNL     1      -2.447  12.774  11.105  1.00  0.00    -0.237 OA
ATOM     94  O   UNL     1      -1.942  14.891   9.929  1.00  0.00    -0.237 OA
ATOM     95  O   UNL     1      -4.066  14.633  11.152  1.00  0.00    -0.744 OA
ENDBRANCH  88  92
ENDBRANCH  62  85
ENDBRANCH  36  37
ENDBRANCH  29  31
ENDBRANCH  28  29
ENDBRANCH  27  28
ENDBRANCH  26  27
ENDBRANCH   1  26
TORSDOF 20
