REMARK SMILES C=CCOc1ccc(C(=O)N2CCC[C@H]2C(=O)OCCOC(=O)c2ccc(-c3c4nc(c(-c5cc(S(=O)(=O)[O-])ccc5F)c5ccc([nH]5)c(-c5cc(S(=O)(=O)[O-])ccc5F)c5nc(c(-c6cc(S(=O)(=O)[O-])ccc6F)c6ccc3[nH]6)C=C5)C=C4)cc2)cc1
REMARK SMILES IDX 19 1 18 2 16 3 17 4 15 5 11 6 12 7 13 8 14 9 9 10 10 11 8 12
REMARK SMILES IDX 5 13 6 14 88 15 7 16 87 17 4 18 3 19 2 20 1 21 20 22 21 23
REMARK SMILES IDX 22 24 23 25 24 26 25 27 86 28 26 29 85 30 27 31 28 32 29 33
REMARK SMILES IDX 79 34 30 35 84 36 78 37 80 38 31 39 83 40 77 41 76 42 32 44
REMARK SMILES IDX 64 45 44 46 63 47 45 48 48 49 62 50 81 51 46 52 47 53 61 55
REMARK SMILES IDX 82 56 49 57 33 58 34 59 42 60 35 61 41 62 43 63 40 64 36 65
REMARK SMILES IDX 37 66 38 67 39 68 65 69 66 70 74 71 67 72 73 73 75 74 72 75
REMARK SMILES IDX 68 76 69 77 70 78 71 79 50 80 51 81 59 82 52 83 58 84 60 85
REMARK SMILES IDX 57 86 53 87 54 88 55 89 56 90
REMARK H PARENT 80 43 48 54
REMARK Flexibility Score: inf
ROOT
ATOM      1  C   UNL     1       0.384   8.855   6.451  1.00  0.00     0.274 C 
ENDROOT
BRANCH   1   2
ATOM      2  O   UNL     1       0.497   7.774   5.510  1.00  0.00    -0.461 OA
BRANCH   2   3
ATOM      3  C   UNL     1       1.752   7.303   5.283  1.00  0.00     0.328 C 
ATOM      4  O   UNL     1       2.767   7.821   5.739  1.00  0.00    -0.250 OA
BRANCH   3   5
ATOM      5  C   UNL     1       1.732   5.960   4.533  1.00  0.00     0.195 C 
ATOM      6  N   UNL     1       1.171   5.966   3.187  1.00  0.00    -0.325 N 
ATOM      7  C   UNL     1       2.235   6.083   2.207  1.00  0.00     0.121 C 
ATOM      8  C   UNL     1       3.379   5.299   2.820  1.00  0.00     0.024 C 
ATOM      9  C   UNL     1       3.156   5.395   4.330  1.00  0.00     0.039 C 
BRANCH   6  10
ATOM     10  C   UNL     1      -0.159   5.643   2.984  1.00  0.00     0.254 C 
ATOM     11  O   UNL     1      -1.057   5.977   3.750  1.00  0.00    -0.269 OA
BRANCH  10  12
ATOM     12  C   UNL     1      -0.505   4.732   1.859  1.00  0.00     0.040 A 
ATOM     13  C   UNL     1      -1.218   2.875  -0.119  1.00  0.00     0.119 A 
ATOM     14  C   UNL     1      -2.089   3.916   0.214  1.00  0.00     0.047 A 
ATOM     15  C   UNL     1       0.006   2.769   0.534  1.00  0.00     0.047 A 
ATOM     16  C   UNL     1      -1.740   4.838   1.212  1.00  0.00     0.017 A 
ATOM     17  C   UNL     1       0.342   3.667   1.542  1.00  0.00     0.017 A 
BRANCH  13  18
ATOM     18  O   UNL     1      -1.596   2.034  -1.131  1.00  0.00    -0.490 OA
BRANCH  18  19
ATOM     19  C   UNL     1      -1.428   0.636  -0.845  1.00  0.00     0.257 C 
BRANCH  19  20
ATOM     20  C   UNL     1      -0.084   0.138  -1.301  1.00  0.00     0.006 C 
ATOM     21  C   UNL     1       0.745  -0.591  -0.539  1.00  0.00     0.007 C 
ENDBRANCH  19  20
ENDBRANCH  18  19
ENDBRANCH  13  18
ENDBRANCH  10  12
ENDBRANCH   6  10
ENDBRANCH   3   5
ENDBRANCH   2   3
ENDBRANCH   1   2
BRANCH   1  22
ATOM     22  C   UNL     1      -0.027   8.351   7.840  1.00  0.00     0.275 C 
BRANCH  22  23
ATOM     23  O   UNL     1       1.015   7.581   8.474  1.00  0.00    -0.458 OA
BRANCH  23  24
ATOM     24  C   UNL     1       0.922   6.241   8.293  1.00  0.00     0.338 C 
ATOM     25  O   UNL     1       0.049   5.648   7.682  1.00  0.00    -0.246 OA
BRANCH  24  26
ATOM     26  C   UNL     1       2.126   5.555   8.799  1.00  0.00     0.060 A 
ATOM     27  C   UNL     1       2.760   4.665   7.929  1.00  0.00     0.016 A 
ATOM     28  C   UNL     1       2.582   5.696  10.111  1.00  0.00     0.016 A 
ATOM     29  C   UNL     1       3.857   3.921   8.350  1.00  0.00     0.010 A 
ATOM     30  C   UNL     1       3.676   4.931  10.543  1.00  0.00     0.010 A 
ATOM     31  C   UNL     1       4.313   4.033   9.667  1.00  0.00    -0.014 A 
BRANCH  31  32
ATOM     32  C   UNL     1       5.393   3.125  10.126  1.00  0.00     0.031 A 
ATOM     33  C   UNL     1       5.042   1.913  10.943  1.00  0.00     0.074 A 
ATOM     34  C   UNL     1       6.666   3.338   9.745  1.00  0.00     0.049 A 
ATOM     35  N   UNL     1       5.827   1.004  11.460  1.00  0.00    -0.248 NA
ATOM     36  C   UNL     1       3.612   1.697  11.207  1.00  0.00     0.031 C 
ATOM     37  C   UNL     1       7.114   4.439   8.891  1.00  0.00     0.029 A 
ATOM     38  N   UNL     1       7.813   2.635  10.016  1.00  0.00    -0.354 N 
ATOM     39  C   UNL     1       4.990   0.111  12.121  1.00  0.00     0.074 A 
ATOM     40  C   UNL     1       3.639   0.607  11.959  1.00  0.00     0.031 C 
ATOM     41  C   UNL     1       8.441   4.334   8.706  1.00  0.00     0.029 A 
ATOM     42  C   UNL     1       8.944   3.191   9.464  1.00  0.00     0.049 A 
ATOM     43  H   UNL     1       7.825   1.811  10.554  1.00  0.00     0.167 HD
ATOM     44  C   UNL     1       5.320  -1.019  12.796  1.00  0.00     0.034 A 
ATOM     45  C   UNL     1      10.239   2.835   9.582  1.00  0.00     0.034 A 
ATOM     46  C   UNL     1       6.674  -1.495  12.953  1.00  0.00     0.049 A 
ATOM     47  C   UNL     1      10.591   1.626  10.414  1.00  0.00     0.074 A 
ATOM     48  C   UNL     1       7.122  -2.619  13.627  1.00  0.00     0.029 A 
ATOM     49  N   UNL     1       7.803  -0.871  12.434  1.00  0.00    -0.354 N 
ATOM     50  N   UNL     1       9.793   0.807  11.061  1.00  0.00    -0.248 NA
ATOM     51  C   UNL     1      12.017   1.293  10.529  1.00  0.00     0.031 C 
ATOM     52  C   UNL     1       8.520  -2.638  13.570  1.00  0.00     0.029 A 
ATOM     53  C   UNL     1       8.945  -1.569  12.798  1.00  0.00     0.049 A 
ATOM     54  H   UNL     1       7.793  -0.052  11.889  1.00  0.00     0.167 HD
ATOM     55  C   UNL     1      10.622  -0.152  11.638  1.00  0.00     0.074 A 
ATOM     56  C   UNL     1      11.977   0.182  11.250  1.00  0.00     0.031 C 
ATOM     57  C   UNL     1      10.292  -1.217  12.413  1.00  0.00     0.034 A 
BRANCH  44  58
ATOM     58  C   UNL     1       4.198  -1.771  13.468  1.00  0.00     0.023 A 
ATOM     59  C   UNL     1       3.171  -2.388  12.731  1.00  0.00     0.031 A 
ATOM     60  C   UNL     1       4.131  -1.835  14.871  1.00  0.00     0.131 A 
ATOM     61  C   UNL     1       2.086  -2.976  13.401  1.00  0.00     0.055 A 
ATOM     62  C   UNL     1       3.089  -2.490  15.530  1.00  0.00     0.041 A 
ATOM     63  F   UNL     1       5.071  -1.246  15.627  1.00  0.00    -0.206 F 
ATOM     64  C   UNL     1       2.050  -3.051  14.795  1.00  0.00     0.022 A 
BRANCH  61  65
ATOM     65  S   UNL     1       0.652  -3.511  12.427  1.00  0.00     0.124 S 
ATOM     66  O   UNL     1       0.264  -2.268  11.764  1.00  0.00    -0.237 OA
ATOM     67  O   UNL     1       1.221  -4.543  11.568  1.00  0.00    -0.237 OA
ATOM     68  O   UNL     1      -0.289  -3.990  13.437  1.00  0.00    -0.744 OA
ENDBRANCH  61  65
ENDBRANCH  44  58
BRANCH  45  69
ATOM     69  C   UNL     1      11.308   3.656   8.945  1.00  0.00     0.023 A 
ATOM     70  C   UNL     1      12.135   3.128   7.941  1.00  0.00     0.031 A 
ATOM     71  C   UNL     1      11.550   4.975   9.373  1.00  0.00     0.131 A 
ATOM     72  C   UNL     1      13.190   3.900   7.427  1.00  0.00     0.055 A 
ATOM     73  C   UNL     1      12.567   5.756   8.823  1.00  0.00     0.041 A 
ATOM     74  F   UNL     1      10.791   5.527  10.333  1.00  0.00    -0.206 F 
ATOM     75  C   UNL     1      13.402   5.214   7.851  1.00  0.00     0.022 A 
BRANCH  72  76
ATOM     76  S   UNL     1      14.335   3.133   6.247  1.00  0.00     0.124 S 
ATOM     77  O   UNL     1      14.847   2.006   7.019  1.00  0.00    -0.237 OA
ATOM     78  O   UNL     1      13.448   2.802   5.137  1.00  0.00    -0.237 OA
ATOM     79  O   UNL     1      15.303   4.194   5.974  1.00  0.00    -0.744 OA
ENDBRANCH  72  76
ENDBRANCH  45  69
BRANCH  57  80
ATOM     80  C   UNL     1      11.419  -2.122  12.850  1.00  0.00     0.023 A 
ATOM     81  C   UNL     1      12.404  -1.695  13.757  1.00  0.00     0.031 A 
ATOM     82  C   UNL     1      11.512  -3.428  12.338  1.00  0.00     0.131 A 
ATOM     83  C   UNL     1      13.469  -2.549  14.084  1.00  0.00     0.055 A 
ATOM     84  C   UNL     1      12.542  -4.292  12.710  1.00  0.00     0.041 A 
ATOM     85  F   UNL     1      10.598  -3.887  11.467  1.00  0.00    -0.206 F 
ATOM     86  C   UNL     1      13.535  -3.850  13.579  1.00  0.00     0.022 A 
BRANCH  83  87
ATOM     87  S   UNL     1      14.817  -1.908  15.116  1.00  0.00     0.124 S 
ATOM     88  O   UNL     1      15.290  -0.774  14.328  1.00  0.00    -0.237 OA
ATOM     89  O   UNL     1      14.128  -1.577  16.359  1.00  0.00    -0.237 OA
ATOM     90  O   UNL     1      15.746  -3.033  15.205  1.00  0.00    -0.744 OA
ENDBRANCH  83  87
ENDBRANCH  57  80
ENDBRANCH  31  32
ENDBRANCH  24  26
ENDBRANCH  23  24
ENDBRANCH  22  23
ENDBRANCH   1  22
TORSDOF 19
