REMARK SMILES C=Cc1cc(Cl)cc2c1O[C@H](C(F)(F)F)C(C(=O)OCCOC(=O)c1ccc(-c3c4nc(c(-c5cc(S(=O)(=O)[O-])ccc5F)c5ccc([nH]5)c(-c5cc(S(=O)(=O)[O-])ccc5F)c5nc(c(-c6cc(S(=O)(=O)[O-])ccc6F)c6ccc3[nH]6)C=C5)C=C4)cc1)=C2
REMARK SMILES IDX 21 1 20 2 19 3 17 4 18 5 16 6 3 7 4 8 9 9 5 10 8 11 10 12
REMARK SMILES IDX 6 13 7 14 88 15 11 16 2 17 1 18 12 19 13 20 14 21 15 22
REMARK SMILES IDX 22 23 23 24 24 25 25 26 26 27 87 28 27 29 86 30 28 31 29 32
REMARK SMILES IDX 30 33 80 34 31 35 85 36 79 37 81 38 32 39 84 40 78 41 77 42
REMARK SMILES IDX 33 44 65 45 45 46 64 47 46 48 49 49 63 50 82 51 47 52 48 53
REMARK SMILES IDX 62 55 83 56 50 57 34 58 35 59 43 60 36 61 42 62 44 63 41 64
REMARK SMILES IDX 37 65 38 66 39 67 40 68 66 69 67 70 75 71 68 72 74 73 76 74
REMARK SMILES IDX 73 75 69 76 70 77 71 78 72 79 51 80 52 81 60 82 53 83 59 84
REMARK SMILES IDX 61 85 58 86 54 87 55 88 56 89 57 90
REMARK H PARENT 81 43 49 54
REMARK Flexibility Score: inf
ROOT
ATOM      1  C   UNL     1      -5.066  -8.008   0.837  1.00  0.00     0.275 C 
ENDROOT
BRANCH   1   2
ATOM      2  C   UNL     1      -4.079  -7.844  -0.320  1.00  0.00     0.275 C 
BRANCH   2   3
ATOM      3  O   UNL     1      -3.378  -6.581  -0.255  1.00  0.00    -0.459 OA
BRANCH   3   4
ATOM      4  C   UNL     1      -3.775  -5.643  -1.147  1.00  0.00     0.338 C 
ATOM      5  O   UNL     1      -4.645  -5.772  -1.994  1.00  0.00    -0.246 OA
BRANCH   4   6
ATOM      6  C   UNL     1      -3.016  -4.390  -0.962  1.00  0.00     0.087 C 
ATOM      7  C   UNL     1      -0.878  -0.776  -0.769  1.00  0.00     0.018 A 
ATOM      8  C   UNL     1      -1.600   0.429  -0.826  1.00  0.00     0.032 A 
ATOM      9  C   UNL     1      -1.578  -1.998  -0.803  1.00  0.00     0.135 A 
ATOM     10  C   UNL     1      -2.991   0.420  -0.869  1.00  0.00     0.042 A 
ATOM     11  C   UNL     1      -2.973  -1.990  -0.868  1.00  0.00     0.019 A 
ATOM     12  O   UNL     1      -0.852  -3.161  -0.743  1.00  0.00    -0.475 OA
ATOM     13  Cl  UNL     1      -3.857   1.905  -0.930  1.00  0.00    -0.084 Cl
ATOM     14  C   UNL     1      -3.683  -0.783  -0.883  1.00  0.00     0.032 A 
ATOM     15  C   UNL     1      -3.698  -3.240  -0.951  1.00  0.00     0.027 C 
ATOM     16  C   UNL     1      -1.518  -4.441  -0.934  1.00  0.00     0.316 C 
BRANCH   7  17
ATOM     17  C   UNL     1       0.592  -0.753  -0.748  1.00  0.00     0.004 C 
ATOM     18  C   UNL     1       1.310   0.105  -0.012  1.00  0.00     0.009 C 
ENDBRANCH   7  17
BRANCH  16  19
ATOM     19  C   UNL     1      -0.967  -5.091  -2.214  1.00  0.00     0.430 C 
ATOM     20  F   UNL     1       0.389  -5.116  -2.211  1.00  0.00    -0.167 F 
ATOM     21  F   UNL     1      -1.371  -6.379  -2.336  1.00  0.00    -0.167 F 
ATOM     22  F   UNL     1      -1.356  -4.437  -3.331  1.00  0.00    -0.167 F 
ENDBRANCH  16  19
ENDBRANCH   4   6
ENDBRANCH   3   4
ENDBRANCH   2   3
ENDBRANCH   1   2
BRANCH   1  23
ATOM     23  O   UNL     1      -6.180  -7.110   0.691  1.00  0.00    -0.458 OA
BRANCH  23  24
ATOM     24  C   UNL     1      -6.112  -5.990   1.447  1.00  0.00     0.338 C 
ATOM     25  O   UNL     1      -5.240  -5.689   2.244  1.00  0.00    -0.246 OA
BRANCH  24  26
ATOM     26  C   UNL     1      -7.203  -5.081   1.073  1.00  0.00     0.060 A 
ATOM     27  C   UNL     1      -8.331  -4.916   1.865  1.00  0.00     0.016 A 
ATOM     28  C   UNL     1      -7.001  -4.260  -0.028  1.00  0.00     0.016 A 
ATOM     29  C   UNL     1      -9.255  -3.918   1.524  1.00  0.00     0.010 A 
ATOM     30  C   UNL     1      -7.829  -3.170  -0.265  1.00  0.00     0.010 A 
ATOM     31  C   UNL     1      -8.996  -3.002   0.480  1.00  0.00    -0.014 A 
BRANCH  31  32
ATOM     32  C   UNL     1      -9.928  -1.876   0.174  1.00  0.00     0.031 A 
ATOM     33  C   UNL     1     -10.477  -1.666  -1.220  1.00  0.00     0.074 A 
ATOM     34  C   UNL     1     -10.253  -1.004   1.152  1.00  0.00     0.049 A 
ATOM     35  N   UNL     1     -11.331  -0.765  -1.641  1.00  0.00    -0.248 NA
ATOM     36  C   UNL     1      -9.977  -2.542  -2.293  1.00  0.00     0.031 C 
ATOM     37  C   UNL     1      -9.690  -1.014   2.503  1.00  0.00     0.029 A 
ATOM     38  N   UNL     1     -11.141   0.044   1.175  1.00  0.00    -0.354 N 
ATOM     39  C   UNL     1     -11.452  -0.962  -3.014  1.00  0.00     0.074 A 
ATOM     40  C   UNL     1     -10.516  -1.998  -3.374  1.00  0.00     0.031 C 
ATOM     41  C   UNL     1     -10.305  -0.083   3.245  1.00  0.00     0.029 A 
ATOM     42  C   UNL     1     -11.272   0.631   2.414  1.00  0.00     0.049 A 
ATOM     43  H   UNL     1     -11.638   0.348   0.380  1.00  0.00     0.167 HD
ATOM     44  C   UNL     1     -12.306  -0.375  -3.887  1.00  0.00     0.034 A 
ATOM     45  C   UNL     1     -12.089   1.615   2.845  1.00  0.00     0.034 A 
ATOM     46  C   UNL     1     -13.277   0.615  -3.501  1.00  0.00     0.049 A 
ATOM     47  C   UNL     1     -13.083   2.206   1.878  1.00  0.00     0.074 A 
ATOM     48  C   UNL     1     -14.249   1.208  -4.286  1.00  0.00     0.029 A 
ATOM     49  N   UNL     1     -13.411   1.147  -2.227  1.00  0.00    -0.354 N 
ATOM     50  N   UNL     1     -13.272   1.913   0.612  1.00  0.00    -0.248 NA
ATOM     51  C   UNL     1     -13.987   3.244   2.392  1.00  0.00     0.031 C 
ATOM     52  C   UNL     1     -14.931   2.139  -3.503  1.00  0.00     0.029 A 
ATOM     53  C   UNL     1     -14.439   2.074  -2.209  1.00  0.00     0.049 A 
ATOM     54  H   UNL     1     -12.857   0.901  -1.451  1.00  0.00     0.167 HD
ATOM     55  C   UNL     1     -14.325   2.716   0.184  1.00  0.00     0.074 A 
ATOM     56  C   UNL     1     -14.755   3.482   1.336  1.00  0.00     0.031 C 
ATOM     57  C   UNL     1     -14.876   2.817  -1.051  1.00  0.00     0.034 A 
BRANCH  44  58
ATOM     58  C   UNL     1     -12.297  -0.824  -5.332  1.00  0.00     0.023 A 
ATOM     59  C   UNL     1     -12.053   0.103  -6.364  1.00  0.00     0.031 A 
ATOM     60  C   UNL     1     -12.671  -2.132  -5.694  1.00  0.00     0.131 A 
ATOM     61  C   UNL     1     -12.222  -0.282  -7.701  1.00  0.00     0.055 A 
ATOM     62  C   UNL     1     -12.784  -2.525  -7.028  1.00  0.00     0.041 A 
ATOM     63  F   UNL     1     -12.926  -3.054  -4.751  1.00  0.00    -0.206 F 
ATOM     64  C   UNL     1     -12.573  -1.593  -8.039  1.00  0.00     0.022 A 
BRANCH  61  65
ATOM     65  S   UNL     1     -12.068   0.917  -9.054  1.00  0.00     0.124 S 
ATOM     66  O   UNL     1     -11.023   0.310  -9.876  1.00  0.00    -0.237 OA
ATOM     67  O   UNL     1     -13.408   0.894  -9.634  1.00  0.00    -0.237 OA
ATOM     68  O   UNL     1     -11.690   2.156  -8.384  1.00  0.00    -0.744 OA
ENDBRANCH  61  65
ENDBRANCH  44  58
BRANCH  45  69
ATOM     69  C   UNL     1     -12.052   2.009   4.287  1.00  0.00     0.023 A 
ATOM     70  C   UNL     1     -10.881   2.530   4.868  1.00  0.00     0.031 A 
ATOM     71  C   UNL     1     -13.143   1.743   5.132  1.00  0.00     0.131 A 
ATOM     72  C   UNL     1     -10.804   2.693   6.258  1.00  0.00     0.055 A 
ATOM     73  C   UNL     1     -13.089   1.982   6.507  1.00  0.00     0.041 A 
ATOM     74  F   UNL     1     -14.277   1.228   4.632  1.00  0.00    -0.206 F 
ATOM     75  C   UNL     1     -11.907   2.440   7.079  1.00  0.00     0.022 A 
BRANCH  72  76
ATOM     76  S   UNL     1      -9.224   3.085   7.062  1.00  0.00     0.124 S 
ATOM     77  O   UNL     1      -9.522   4.355   7.716  1.00  0.00    -0.237 OA
ATOM     78  O   UNL     1      -9.052   1.940   7.954  1.00  0.00    -0.237 OA
ATOM     79  O   UNL     1      -8.280   3.151   5.951  1.00  0.00    -0.744 OA
ENDBRANCH  72  76
ENDBRANCH  45  69
BRANCH  57  80
ATOM     80  C   UNL     1     -16.016   3.784  -1.265  1.00  0.00     0.023 A 
ATOM     81  C   UNL     1     -17.270   3.307  -1.693  1.00  0.00     0.031 A 
ATOM     82  C   UNL     1     -15.810   5.174  -1.224  1.00  0.00     0.131 A 
ATOM     83  C   UNL     1     -18.251   4.211  -2.116  1.00  0.00     0.055 A 
ATOM     84  C   UNL     1     -16.811   6.072  -1.595  1.00  0.00     0.041 A 
ATOM     85  F   UNL     1     -14.627   5.677  -0.837  1.00  0.00    -0.206 F 
ATOM     86  C   UNL     1     -18.032   5.591  -2.061  1.00  0.00     0.022 A 
BRANCH  83  87
ATOM     87  S   UNL     1     -19.803   3.629  -2.854  1.00  0.00     0.124 S 
ATOM     88  O   UNL     1     -20.799   4.188  -1.942  1.00  0.00    -0.237 OA
ATOM     89  O   UNL     1     -19.761   4.240  -4.180  1.00  0.00    -0.237 OA
ATOM     90  O   UNL     1     -19.684   2.176  -2.829  1.00  0.00    -0.744 OA
ENDBRANCH  83  87
ENDBRANCH  57  80
ENDBRANCH  31  32
ENDBRANCH  24  26
ENDBRANCH  23  24
ENDBRANCH   1  23
TORSDOF 16
