REMARK SMILES Cc1cc(OC(F)(F)F)cc2c1O[C@H](C(F)(F)F)C(C(=O)OCCOC(=O)c1ccc(-c3c4nc(c(-c5cc(S(=O)(=O)[O-])ccc5F)c5ccc([nH]5)c(-c5cc(S(=O)(=O)[O-])ccc5F)c5nc(c(-c6cc(S(=O)(=O)[O-])ccc6F)c6ccc3[nH]6)C=C5)C=C4)cc1)=C2
REMARK SMILES IDX 24 1 23 2 22 3 20 4 21 5 19 6 1 7 2 8 3 9 12 10 4 11 11 12
REMARK SMILES IDX 13 13 10 14 91 15 14 16 5 17 6 18 7 19 8 20 9 21 15 22 16 23
REMARK SMILES IDX 17 24 18 25 25 26 26 27 27 28 28 29 29 30 90 31 30 32 89 33
REMARK SMILES IDX 31 34 32 35 33 36 83 37 34 38 88 39 82 40 84 41 35 42 87 43
REMARK SMILES IDX 81 44 80 45 36 47 68 48 48 49 67 50 49 51 52 52 66 53 85 54
REMARK SMILES IDX 50 55 51 56 65 58 86 59 53 60 37 61 38 62 46 63 39 64 45 65
REMARK SMILES IDX 47 66 44 67 40 68 41 69 42 70 43 71 69 72 70 73 78 74 71 75
REMARK SMILES IDX 77 76 79 77 76 78 72 79 73 80 74 81 75 82 54 83 55 84 63 85
REMARK SMILES IDX 56 86 62 87 64 88 61 89 57 90 58 91 59 92 60 93
REMARK H PARENT 84 46 52 57
REMARK Flexibility Score: inf
ROOT
ATOM      1  C   UNL     1      -2.426  -0.980   8.499  1.00  0.00     0.275 C 
ENDROOT
BRANCH   1   2
ATOM      2  C   UNL     1      -3.189  -1.391   7.240  1.00  0.00     0.275 C 
BRANCH   2   3
ATOM      3  O   UNL     1      -2.419  -1.119   6.050  1.00  0.00    -0.459 OA
BRANCH   3   4
ATOM      4  C   UNL     1      -2.813  -0.040   5.328  1.00  0.00     0.338 C 
ATOM      5  O   UNL     1      -3.768   0.677   5.559  1.00  0.00    -0.246 OA
BRANCH   4   6
ATOM      6  C   UNL     1      -1.882   0.186   4.203  1.00  0.00     0.087 C 
ATOM      7  C   UNL     1       1.047  -0.196  -0.034  1.00  0.00     0.048 C 
ATOM      8  C   UNL     1       0.596   0.893   0.899  1.00  0.00    -0.005 A 
ATOM      9  C   UNL     1       0.988   2.218   0.617  1.00  0.00     0.054 A 
ATOM     10  C   UNL     1      -0.207   0.634   2.020  1.00  0.00     0.131 A 
ATOM     11  C   UNL     1       0.591   3.274   1.438  1.00  0.00     0.130 A 
ATOM     12  C   UNL     1      -0.630   1.693   2.822  1.00  0.00     0.021 A 
ATOM     13  O   UNL     1      -0.528  -0.669   2.285  1.00  0.00    -0.475 OA
ATOM     14  C   UNL     1      -0.218   3.001   2.541  1.00  0.00     0.058 A 
ATOM     15  C   UNL     1      -1.516   1.445   3.943  1.00  0.00     0.027 C 
ATOM     16  C   UNL     1      -1.464  -0.978   3.355  1.00  0.00     0.316 C 
BRANCH  11  17
ATOM     17  O   UNL     1       0.909   4.592   1.288  1.00  0.00    -0.406 OA
BRANCH  17  18
ATOM     18  C   UNL     1       1.610   4.980   0.120  1.00  0.00     0.573 C 
ATOM     19  F   UNL     1       2.827   4.398   0.065  1.00  0.00    -0.132 F 
ATOM     20  F   UNL     1       0.912   4.653  -0.991  1.00  0.00    -0.132 F 
ATOM     21  F   UNL     1       1.780   6.319   0.129  1.00  0.00    -0.132 F 
ENDBRANCH  17  18
ENDBRANCH  11  17
BRANCH  16  22
ATOM     22  C   UNL     1      -2.686  -1.675   2.734  1.00  0.00     0.430 C 
ATOM     23  F   UNL     1      -2.313  -2.711   1.943  1.00  0.00    -0.167 F 
ATOM     24  F   UNL     1      -3.507  -2.193   3.679  1.00  0.00    -0.167 F 
ATOM     25  F   UNL     1      -3.425  -0.835   1.974  1.00  0.00    -0.167 F 
ENDBRANCH  16  22
ENDBRANCH   4   6
ENDBRANCH   3   4
ENDBRANCH   2   3
ENDBRANCH   1   2
BRANCH   1  26
ATOM     26  O   UNL     1      -2.286   0.449   8.560  1.00  0.00    -0.458 OA
BRANCH  26  27
ATOM     27  C   UNL     1      -1.083   0.920   8.164  1.00  0.00     0.338 C 
ATOM     28  O   UNL     1      -0.117   0.270   7.797  1.00  0.00    -0.246 OA
BRANCH  27  29
ATOM     29  C   UNL     1      -1.097   2.388   8.156  1.00  0.00     0.060 A 
ATOM     30  C   UNL     1      -1.775   3.041   7.131  1.00  0.00     0.016 A 
ATOM     31  C   UNL     1      -0.297   3.105   9.042  1.00  0.00     0.016 A 
ATOM     32  C   UNL     1      -1.536   4.389   6.889  1.00  0.00     0.010 A 
ATOM     33  C   UNL     1      -0.161   4.487   8.873  1.00  0.00     0.010 A 
ATOM     34  C   UNL     1      -0.730   5.133   7.761  1.00  0.00    -0.014 A 
BRANCH  34  35
ATOM     35  C   UNL     1      -0.462   6.574   7.497  1.00  0.00     0.031 A 
ATOM     36  C   UNL     1       0.952   7.060   7.314  1.00  0.00     0.074 A 
ATOM     37  C   UNL     1      -1.486   7.446   7.414  1.00  0.00     0.049 A 
ATOM     38  N   UNL     1       1.397   8.286   7.221  1.00  0.00    -0.248 NA
ATOM     39  C   UNL     1       2.008   6.035   7.234  1.00  0.00     0.031 C 
ATOM     40  C   UNL     1      -2.903   7.095   7.528  1.00  0.00     0.029 A 
ATOM     41  N   UNL     1      -1.499   8.805   7.215  1.00  0.00    -0.354 N 
ATOM     42  C   UNL     1       2.780   8.185   7.119  1.00  0.00     0.074 A 
ATOM     43  C   UNL     1       3.106   6.777   7.176  1.00  0.00     0.031 C 
ATOM     44  C   UNL     1      -3.645   8.198   7.368  1.00  0.00     0.029 A 
ATOM     45  C   UNL     1      -2.762   9.351   7.234  1.00  0.00     0.049 A 
ATOM     46  H   UNL     1      -0.683   9.337   7.072  1.00  0.00     0.167 HD
ATOM     47  C   UNL     1       3.692   9.177   6.984  1.00  0.00     0.034 A 
ATOM     48  C   UNL     1      -3.170  10.636   7.194  1.00  0.00     0.034 A 
ATOM     49  C   UNL     1       3.348  10.572   6.881  1.00  0.00     0.049 A 
ATOM     50  C   UNL     1      -2.137  11.724   7.080  1.00  0.00     0.074 A 
ATOM     51  C   UNL     1       4.199  11.650   6.716  1.00  0.00     0.029 A 
ATOM     52  N   UNL     1       2.059  11.083   6.920  1.00  0.00    -0.354 N 
ATOM     53  N   UNL     1      -0.833  11.612   6.990  1.00  0.00    -0.248 NA
ATOM     54  C   UNL     1      -2.623  13.110   7.068  1.00  0.00     0.031 C 
ATOM     55  C   UNL     1       3.432  12.815   6.710  1.00  0.00     0.029 A 
ATOM     56  C   UNL     1       2.095  12.462   6.805  1.00  0.00     0.049 A 
ATOM     57  H   UNL     1       1.240  10.544   7.015  1.00  0.00     0.167 HD
ATOM     58  C   UNL     1      -0.343  12.910   6.895  1.00  0.00     0.074 A 
ATOM     59  C   UNL     1      -1.494  13.790   6.914  1.00  0.00     0.031 C 
ATOM     60  C   UNL     1       0.943  13.331   6.808  1.00  0.00     0.034 A 
BRANCH  47  61
ATOM     61  C   UNL     1       5.155   8.819   6.939  1.00  0.00     0.023 A 
ATOM     62  C   UNL     1       6.011   9.255   7.969  1.00  0.00     0.031 A 
ATOM     63  C   UNL     1       5.725   8.170   5.830  1.00  0.00     0.131 A 
ATOM     64  C   UNL     1       7.394   9.072   7.851  1.00  0.00     0.055 A 
ATOM     65  C   UNL     1       7.101   7.956   5.735  1.00  0.00     0.041 A 
ATOM     66  F   UNL     1       4.949   7.731   4.826  1.00  0.00    -0.206 F 
ATOM     67  C   UNL     1       7.943   8.419   6.743  1.00  0.00     0.022 A 
BRANCH  64  68
ATOM     68  S   UNL     1       8.533   9.714   9.107  1.00  0.00     0.124 S 
ATOM     69  O   UNL     1       9.307   8.523   9.450  1.00  0.00    -0.237 OA
ATOM     70  O   UNL     1       9.261  10.738   8.363  1.00  0.00    -0.237 OA
ATOM     71  O   UNL     1       7.652  10.203  10.162  1.00  0.00    -0.744 OA
ENDBRANCH  64  68
ENDBRANCH  47  61
BRANCH  48  72
ATOM     72  C   UNL     1      -4.630  10.934   7.255  1.00  0.00     0.023 A 
ATOM     73  C   UNL     1      -5.391  10.581   8.386  1.00  0.00     0.031 A 
ATOM     74  C   UNL     1      -5.302  11.465   6.144  1.00  0.00     0.131 A 
ATOM     75  C   UNL     1      -6.786  10.692   8.349  1.00  0.00     0.055 A 
ATOM     76  C   UNL     1      -6.688  11.639   6.137  1.00  0.00     0.041 A 
ATOM     77  F   UNL     1      -4.619  11.809   5.041  1.00  0.00    -0.206 F 
ATOM     78  C   UNL     1      -7.438  11.235   7.237  1.00  0.00     0.022 A 
BRANCH  75  79
ATOM     79  S   UNL     1      -7.806  10.030   9.694  1.00  0.00     0.124 S 
ATOM     80  O   UNL     1      -8.616  11.187  10.064  1.00  0.00    -0.237 OA
ATOM     81  O   UNL     1      -8.521   8.950   9.018  1.00  0.00    -0.237 OA
ATOM     82  O   UNL     1      -6.830   9.601  10.690  1.00  0.00    -0.744 OA
ENDBRANCH  75  79
ENDBRANCH  48  72
BRANCH  60  83
ATOM     83  C   UNL     1       1.209  14.812   6.712  1.00  0.00     0.023 A 
ATOM     84  C   UNL     1       1.802  15.343   5.551  1.00  0.00     0.031 A 
ATOM     85  C   UNL     1       1.020  15.661   7.815  1.00  0.00     0.131 A 
ATOM     86  C   UNL     1       2.226  16.677   5.536  1.00  0.00     0.055 A 
ATOM     87  C   UNL     1       1.403  17.002   7.779  1.00  0.00     0.041 A 
ATOM     88  F   UNL     1       0.466  15.195   8.946  1.00  0.00    -0.206 F 
ATOM     89  C   UNL     1       2.022  17.512   6.640  1.00  0.00     0.022 A 
BRANCH  86  90
ATOM     90  S   UNL     1       3.122  17.357   4.113  1.00  0.00     0.124 S 
ATOM     91  O   UNL     1       2.293  18.506   3.754  1.00  0.00    -0.237 OA
ATOM     92  O   UNL     1       4.420  17.682   4.696  1.00  0.00    -0.237 OA
ATOM     93  O   UNL     1       3.122  16.267   3.143  1.00  0.00    -0.744 OA
ENDBRANCH  86  90
ENDBRANCH  60  83
ENDBRANCH  34  35
ENDBRANCH  27  29
ENDBRANCH  26  27
ENDBRANCH   1  26
TORSDOF 17
