REMARK SMILES Cc1cc(C(=O)N[C@@H]2C(=O)N3C(C(=O)OCCOC(=O)c4ccc(-c5c6nc(c(-c7cc(S(=O)(=O)[O-])ccc7F)c7ccc([nH]7)c(-c7cc(S(=O)(=O)[O-])ccc7F)c7nc(c(-c8cc(S(=O)(=O)[O-])ccc8F)c8ccc5[nH]8)C=C7)C=C6)cc4)=C(CSc4nnc(C)s4)CS[C@H]23)n(C)n1
REMARK SMILES IDX 16 1 15 2 13 3 14 4 12 5 8 6 9 7 95 8 10 9 11 10 94 11 93 12
REMARK SMILES IDX 84 13 7 14 5 15 6 16 4 18 1 19 2 20 3 21 98 22 96 23 97 24
REMARK SMILES IDX 85 25 86 26 87 27 88 28 92 29 89 30 90 31 91 32 17 33 18 34
REMARK SMILES IDX 19 35 20 36 21 37 22 38 83 39 23 40 82 41 24 42 25 43 26 44
REMARK SMILES IDX 76 45 27 46 81 47 75 48 77 49 28 50 80 51 74 52 73 53 29 55
REMARK SMILES IDX 61 56 41 57 60 58 42 59 45 60 59 61 78 62 43 63 44 64 58 66
REMARK SMILES IDX 79 67 46 68 30 69 31 70 39 71 32 72 38 73 40 74 37 75 33 76
REMARK SMILES IDX 34 77 35 78 36 79 62 80 63 81 71 82 64 83 70 84 72 85 69 86
REMARK SMILES IDX 65 87 66 88 67 89 68 90 47 91 48 92 56 93 49 94 55 95 57 96
REMARK SMILES IDX 54 97 50 98 51 99 52 100 53 101
REMARK H PARENT 7 17 77 54 45 65
REMARK Flexibility Score: inf
ROOT
ATOM      1  C   UNL     1      -3.845   0.693  -3.366  1.00  0.00     0.275 C 
ENDROOT
BRANCH   1   2
ATOM      2  O   UNL     1      -3.968  -0.672  -2.918  1.00  0.00    -0.457 OA
BRANCH   2   3
ATOM      3  C   UNL     1      -2.835  -1.404  -2.905  1.00  0.00     0.355 C 
ATOM      4  O   UNL     1      -1.728  -1.010  -3.253  1.00  0.00    -0.244 OA
BRANCH   3   5
ATOM      5  C   UNL     1      -3.051  -2.823  -2.473  1.00  0.00     0.132 C 
ATOM      6  C   UNL     1      -0.852  -4.279  -0.315  1.00  0.00     0.206 C 
ATOM      7  C   UNL     1      -1.968  -3.179  -0.261  1.00  0.00     0.253 C 
ATOM      8  C   UNL     1      -1.601  -4.655  -1.641  1.00  0.00     0.181 C 
ATOM      9  O   UNL     1      -2.551  -2.520   0.574  1.00  0.00    -0.272 OA
ATOM     10  N   UNL     1      -2.107  -3.295  -1.608  1.00  0.00    -0.289 N 
ATOM     11  S   UNL     1      -3.017  -5.784  -1.500  1.00  0.00    -0.129 SA
ATOM     12  C   UNL     1      -3.835  -5.174  -2.986  1.00  0.00     0.106 C 
ATOM     13  C   UNL     1      -3.862  -3.662  -3.159  1.00  0.00    -0.019 C 
BRANCH   6  14
ATOM     14  N   UNL     1      -0.747  -5.228   0.810  1.00  0.00    -0.336 N 
ATOM     15  C   UNL     1      -0.205  -6.495   0.838  1.00  0.00     0.270 C 
ATOM     16  O   UNL     1      -0.140  -7.066   1.923  1.00  0.00    -0.268 OA
ATOM     17  H   UNL     1      -1.117  -4.910   1.665  1.00  0.00     0.164 HD
BRANCH  15  18
ATOM     18  C   UNL     1       0.171  -7.120  -0.407  1.00  0.00     0.126 A 
ATOM     19  C   UNL     1       0.530  -7.372  -4.029  1.00  0.00     0.069 C 
ATOM     20  C   UNL     1       0.473  -7.556  -2.561  1.00  0.00     0.060 A 
ATOM     21  C   UNL     1       0.754  -6.608  -1.555  1.00  0.00     0.059 A 
ATOM     22  N   UNL     1       0.033  -8.701  -2.037  1.00  0.00    -0.178 NA
ATOM     23  N   UNL     1      -0.022  -8.450  -0.707  1.00  0.00    -0.263 N 
ATOM     24  C   UNL     1      -0.344  -9.548   0.173  1.00  0.00     0.174 C 
ENDBRANCH  15  18
ENDBRANCH   6  14
BRANCH  13  25
ATOM     25  C   UNL     1      -4.784  -3.236  -4.280  1.00  0.00     0.111 C 
BRANCH  25  26
ATOM     26  S   UNL     1      -6.313  -2.390  -3.818  1.00  0.00    -0.089 SA
BRANCH  26  27
ATOM     27  C   UNL     1      -6.702  -2.994  -2.231  1.00  0.00     0.174 A 
ATOM     28  N   UNL     1      -6.766  -4.276  -1.955  1.00  0.00    -0.132 NA
ATOM     29  S   UNL     1      -7.160  -1.966  -0.940  1.00  0.00    -0.091 S 
ATOM     30  N   UNL     1      -7.188  -4.505  -0.658  1.00  0.00    -0.143 NA
ATOM     31  C   UNL     1      -7.449  -3.384  -0.015  1.00  0.00     0.115 A 
ATOM     32  C   UNL     1      -7.996  -3.306   1.365  1.00  0.00     0.081 C 
ENDBRANCH  26  27
ENDBRANCH  25  26
ENDBRANCH  13  25
ENDBRANCH   3   5
ENDBRANCH   2   3
ENDBRANCH   1   2
BRANCH   1  33
ATOM     33  C   UNL     1      -3.989   1.647  -2.188  1.00  0.00     0.275 C 
BRANCH  33  34
ATOM     34  O   UNL     1      -2.856   1.492  -1.318  1.00  0.00    -0.458 OA
BRANCH  34  35
ATOM     35  C   UNL     1      -3.098   0.773  -0.196  1.00  0.00     0.338 C 
ATOM     36  O   UNL     1      -4.179   0.356   0.184  1.00  0.00    -0.246 OA
BRANCH  35  37
ATOM     37  C   UNL     1      -1.834   0.556   0.525  1.00  0.00     0.060 A 
ATOM     38  C   UNL     1      -0.835  -0.226  -0.050  1.00  0.00     0.016 A 
ATOM     39  C   UNL     1      -1.714   0.987   1.844  1.00  0.00     0.016 A 
ATOM     40  C   UNL     1       0.203  -0.709   0.744  1.00  0.00     0.010 A 
ATOM     41  C   UNL     1      -0.591   0.616   2.592  1.00  0.00     0.010 A 
ATOM     42  C   UNL     1       0.358  -0.283   2.072  1.00  0.00    -0.014 A 
BRANCH  42  43
ATOM     43  C   UNL     1       1.484  -0.795   2.914  1.00  0.00     0.031 A 
ATOM     44  C   UNL     1       1.214  -1.391   4.277  1.00  0.00     0.074 A 
ATOM     45  C   UNL     1       2.755  -0.736   2.462  1.00  0.00     0.049 A 
ATOM     46  N   UNL     1       2.056  -1.671   5.240  1.00  0.00    -0.248 NA
ATOM     47  C   UNL     1      -0.188  -1.689   4.606  1.00  0.00     0.031 C 
ATOM     48  C   UNL     1       3.166  -0.236   1.148  1.00  0.00     0.029 A 
ATOM     49  N   UNL     1       3.939  -1.103   3.054  1.00  0.00    -0.354 N 
ATOM     50  C   UNL     1       1.282  -2.108   6.314  1.00  0.00     0.074 A 
ATOM     51  C   UNL     1      -0.098  -2.047   5.879  1.00  0.00     0.031 C 
ATOM     52  C   UNL     1       4.490  -0.383   1.011  1.00  0.00     0.029 A 
ATOM     53  C   UNL     1       5.045  -0.851   2.273  1.00  0.00     0.049 A 
ATOM     54  H   UNL     1       3.993  -1.507   3.950  1.00  0.00     0.167 HD
ATOM     55  C   UNL     1       1.690  -2.512   7.545  1.00  0.00     0.034 A 
ATOM     56  C   UNL     1       6.362  -0.914   2.550  1.00  0.00     0.034 A 
ATOM     57  C   UNL     1       3.079  -2.616   7.936  1.00  0.00     0.049 A 
ATOM     58  C   UNL     1       6.791  -1.315   3.934  1.00  0.00     0.074 A 
ATOM     59  C   UNL     1       3.605  -3.040   9.146  1.00  0.00     0.029 A 
ATOM     60  N   UNL     1       4.164  -2.303   7.126  1.00  0.00    -0.354 N 
ATOM     61  N   UNL     1       6.048  -1.645   4.964  1.00  0.00    -0.248 NA
ATOM     62  C   UNL     1       8.234  -1.333   4.197  1.00  0.00     0.031 C 
ATOM     63  C   UNL     1       4.997  -2.913   9.092  1.00  0.00     0.029 A 
ATOM     64  C   UNL     1       5.351  -2.493   7.820  1.00  0.00     0.049 A 
ATOM     65  H   UNL     1       4.100  -1.991   6.195  1.00  0.00     0.167 HD
ATOM     66  C   UNL     1       6.937  -1.925   5.997  1.00  0.00     0.074 A 
ATOM     67  C   UNL     1       8.270  -1.748   5.454  1.00  0.00     0.031 C 
ATOM     68  C   UNL     1       6.675  -2.292   7.277  1.00  0.00     0.034 A 
BRANCH  55  69
ATOM     69  C   UNL     1       0.624  -2.800   8.583  1.00  0.00     0.023 A 
ATOM     70  C   UNL     1      -0.318  -3.833   8.439  1.00  0.00     0.031 A 
ATOM     71  C   UNL     1       0.544  -2.001   9.741  1.00  0.00     0.131 A 
ATOM     72  C   UNL     1      -1.336  -3.993   9.394  1.00  0.00     0.055 A 
ATOM     73  C   UNL     1      -0.419  -2.220  10.729  1.00  0.00     0.041 A 
ATOM     74  F   UNL     1       1.399  -0.983   9.930  1.00  0.00    -0.206 F 
ATOM     75  C   UNL     1      -1.377  -3.211  10.551  1.00  0.00     0.022 A 
BRANCH  72  76
ATOM     76  S   UNL     1      -2.698  -5.138   9.034  1.00  0.00     0.124 S 
ATOM     77  O   UNL     1      -3.196  -4.613   7.765  1.00  0.00    -0.237 OA
ATOM     78  O   UNL     1      -2.019  -6.426   8.974  1.00  0.00    -0.237 OA
ATOM     79  O   UNL     1      -3.603  -4.961  10.169  1.00  0.00    -0.744 OA
ENDBRANCH  72  76
ENDBRANCH  55  69
BRANCH  56  80
ATOM     80  C   UNL     1       7.363  -0.505   1.522  1.00  0.00     0.023 A 
ATOM     81  C   UNL     1       8.294  -1.420   1.010  1.00  0.00     0.031 A 
ATOM     82  C   UNL     1       7.407   0.818   1.042  1.00  0.00     0.131 A 
ATOM     83  C   UNL     1       9.245  -0.995   0.068  1.00  0.00     0.055 A 
ATOM     84  C   UNL     1       8.313   1.220   0.060  1.00  0.00     0.041 A 
ATOM     85  F   UNL     1       6.542   1.737   1.500  1.00  0.00    -0.206 F 
ATOM     86  C   UNL     1       9.247   0.312  -0.425  1.00  0.00     0.022 A 
BRANCH  83  87
ATOM     87  S   UNL     1      10.533  -2.161  -0.454  1.00  0.00     0.124 S 
ATOM     88  O   UNL     1      11.171  -2.486   0.816  1.00  0.00    -0.237 OA
ATOM     89  O   UNL     1       9.746  -3.224  -1.069  1.00  0.00    -0.237 OA
ATOM     90  O   UNL     1      11.346  -1.376  -1.380  1.00  0.00    -0.744 OA
ENDBRANCH  83  87
ENDBRANCH  56  80
BRANCH  68  91
ATOM     91  C   UNL     1       7.869  -2.567   8.160  1.00  0.00     0.023 A 
ATOM     92  C   UNL     1       8.763  -1.548   8.534  1.00  0.00     0.031 A 
ATOM     93  C   UNL     1       8.135  -3.875   8.601  1.00  0.00     0.131 A 
ATOM     94  C   UNL     1       9.916  -1.865   9.268  1.00  0.00     0.055 A 
ATOM     95  C   UNL     1       9.249  -4.173   9.388  1.00  0.00     0.041 A 
ATOM     96  F   UNL     1       7.320  -4.888   8.269  1.00  0.00    -0.206 F 
ATOM     97  C   UNL     1      10.155  -3.168   9.712  1.00  0.00     0.022 A 
BRANCH  94  98
ATOM     98  S   UNL     1      11.160  -0.572   9.537  1.00  0.00     0.124 S 
ATOM     99  O   UNL     1      11.492  -0.182   8.171  1.00  0.00    -0.237 OA
ATOM    100  O   UNL     1      10.421   0.414  10.320  1.00  0.00    -0.237 OA
ATOM    101  O   UNL     1      12.224  -1.265  10.261  1.00  0.00    -0.744 OA
ENDBRANCH  94  98
ENDBRANCH  68  91
ENDBRANCH  42  43
ENDBRANCH  35  37
ENDBRANCH  34  35
ENDBRANCH  33  34
ENDBRANCH   1  33
TORSDOF 19
