REMARK SMILES O=C(COCC(=O)OCCOC(=O)c1ccc(-c2c3nc(c(-c4cc(S(=O)(=O)[O-])ccc4F)c4ccc([nH]4)c(-c4cc(S(=O)(=O)[O-])ccc4F)c4nc(c(-c5cc(S(=O)(=O)[O-])ccc5F)c5ccc2[nH]5)C=C4)C=C3)cc1)Nc1cccc([N+](=O)[O-])c1
REMARK SMILES IDX 9 1 8 2 6 3 7 4 5 5 4 6 3 7 2 8 1 9 77 10 78 12 79 13 86 14
REMARK SMILES IDX 80 15 82 16 81 17 83 18 84 19 85 20 10 21 11 22 12 23 13 24
REMARK SMILES IDX 14 25 15 26 76 27 16 28 75 29 17 30 18 31 19 32 69 33 20 34
REMARK SMILES IDX 74 35 68 36 70 37 21 38 73 39 67 40 66 41 22 43 54 44 34 45
REMARK SMILES IDX 53 46 35 47 38 48 52 49 71 50 36 51 37 52 51 54 72 55 39 56
REMARK SMILES IDX 23 57 24 58 32 59 25 60 31 61 33 62 30 63 26 64 27 65 28 66
REMARK SMILES IDX 29 67 55 68 56 69 64 70 57 71 63 72 65 73 62 74 58 75 59 76
REMARK SMILES IDX 60 77 61 78 40 79 41 80 49 81 42 82 48 83 50 84 47 85 43 86
REMARK SMILES IDX 44 87 45 88 46 89
REMARK H PARENT 77 11 70 42 38 53
REMARK Flexibility Score: inf
ROOT
ATOM      1  C   UNL     1       1.821  -4.360   3.004  1.00  0.00     0.274 C 
ENDROOT
BRANCH   1   2
ATOM      2  O   UNL     1       2.774  -3.588   2.244  1.00  0.00    -0.460 OA
BRANCH   2   3
ATOM      3  C   UNL     1       2.696  -3.750   0.899  1.00  0.00     0.332 C 
ATOM      4  O   UNL     1       1.894  -4.484   0.328  1.00  0.00    -0.250 OA
BRANCH   3   5
ATOM      5  C   UNL     1       3.746  -2.950   0.115  1.00  0.00     0.283 C 
BRANCH   5   6
ATOM      6  O   UNL     1       4.610  -1.959   0.630  1.00  0.00    -0.360 OA
BRANCH   6   7
ATOM      7  C   UNL     1       3.990  -0.822   1.208  1.00  0.00     0.261 C 
BRANCH   7   8
ATOM      8  C   UNL     1       3.221   0.183   0.327  1.00  0.00     0.250 C 
ATOM      9  O   UNL     1       2.463   1.000   0.837  1.00  0.00    -0.272 OA
ATOM     10  N   UNL     1       3.496   0.063  -1.025  1.00  0.00    -0.324 N 
ATOM     11  H   UNL     1       4.164  -0.613  -1.280  1.00  0.00     0.170 HD
BRANCH  10  12
ATOM     12  C   UNL     1       2.919   0.808  -2.075  1.00  0.00     0.048 A 
ATOM     13  C   UNL     1       3.161   0.373  -3.387  1.00  0.00     0.026 A 
ATOM     14  C   UNL     1       2.130   1.942  -1.875  1.00  0.00     0.111 A 
ATOM     15  C   UNL     1       2.607   1.044  -4.483  1.00  0.00     0.009 A 
ATOM     16  C   UNL     1       1.602   2.629  -2.977  1.00  0.00     0.271 A 
ATOM     17  C   UNL     1       1.826   2.178  -4.282  1.00  0.00     0.086 A 
BRANCH  16  18
ATOM     18  N   UNL     1       0.807   3.840  -2.758  1.00  0.00     0.062 N 
ATOM     19  O   UNL     1       0.464   4.470  -3.762  1.00  0.00    -0.258 OA
ATOM     20  O   UNL     1       0.503   4.119  -1.589  1.00  0.00    -0.258 OA
ENDBRANCH  16  18
ENDBRANCH  10  12
ENDBRANCH   7   8
ENDBRANCH   6   7
ENDBRANCH   5   6
ENDBRANCH   3   5
ENDBRANCH   2   3
ENDBRANCH   1   2
BRANCH   1  21
ATOM     21  C   UNL     1       0.584  -3.549   3.395  1.00  0.00     0.275 C 
BRANCH  21  22
ATOM     22  O   UNL     1      -0.108  -3.034   2.244  1.00  0.00    -0.458 OA
BRANCH  22  23
ATOM     23  C   UNL     1       0.149  -1.731   1.973  1.00  0.00     0.338 C 
ATOM     24  O   UNL     1       0.892  -0.995   2.594  1.00  0.00    -0.246 OA
BRANCH  23  25
ATOM     25  C   UNL     1      -0.571  -1.322   0.757  1.00  0.00     0.060 A 
ATOM     26  C   UNL     1       0.061  -1.430  -0.482  1.00  0.00     0.016 A 
ATOM     27  C   UNL     1      -1.837  -0.745   0.859  1.00  0.00     0.016 A 
ATOM     28  C   UNL     1      -0.562  -0.938  -1.628  1.00  0.00     0.010 A 
ATOM     29  C   UNL     1      -2.479  -0.292  -0.298  1.00  0.00     0.010 A 
ATOM     30  C   UNL     1      -1.843  -0.373  -1.550  1.00  0.00    -0.014 A 
BRANCH  30  31
ATOM     31  C   UNL     1      -2.530   0.096  -2.781  1.00  0.00     0.031 A 
ATOM     32  C   UNL     1      -2.773   1.560  -3.021  1.00  0.00     0.074 A 
ATOM     33  C   UNL     1      -2.955  -0.813  -3.680  1.00  0.00     0.049 A 
ATOM     34  N   UNL     1      -3.346   2.143  -4.043  1.00  0.00    -0.248 NA
ATOM     35  C   UNL     1      -2.297   2.491  -1.988  1.00  0.00     0.031 C 
ATOM     36  C   UNL     1      -2.780  -2.263  -3.561  1.00  0.00     0.029 A 
ATOM     37  N   UNL     1      -3.650  -0.658  -4.853  1.00  0.00    -0.354 N 
ATOM     38  C   UNL     1      -3.265   3.510  -3.797  1.00  0.00     0.074 A 
ATOM     39  C   UNL     1      -2.634   3.665  -2.505  1.00  0.00     0.031 C 
ATOM     40  C   UNL     1      -3.382  -2.864  -4.598  1.00  0.00     0.029 A 
ATOM     41  C   UNL     1      -4.025  -1.849  -5.428  1.00  0.00     0.049 A 
ATOM     42  H   UNL     1      -3.859   0.221  -5.245  1.00  0.00     0.167 HD
ATOM     43  C   UNL     1      -3.665   4.541  -4.582  1.00  0.00     0.034 A 
ATOM     44  C   UNL     1      -4.841  -2.103  -6.470  1.00  0.00     0.034 A 
ATOM     45  C   UNL     1      -4.362   4.375  -5.831  1.00  0.00     0.049 A 
ATOM     46  C   UNL     1      -5.440  -0.946  -7.224  1.00  0.00     0.074 A 
ATOM     47  C   UNL     1      -4.774   5.345  -6.728  1.00  0.00     0.029 A 
ATOM     48  N   UNL     1      -4.801   3.157  -6.333  1.00  0.00    -0.354 N 
ATOM     49  N   UNL     1      -5.266   0.341  -7.033  1.00  0.00    -0.248 NA
ATOM     50  C   UNL     1      -6.344  -1.276  -8.333  1.00  0.00     0.031 C 
ATOM     51  C   UNL     1      -5.527   4.719  -7.731  1.00  0.00     0.029 A 
ATOM     52  C   UNL     1      -5.538   3.354  -7.491  1.00  0.00     0.049 A 
ATOM     53  H   UNL     1      -4.616   2.280  -5.926  1.00  0.00     0.167 HD
ATOM     54  C   UNL     1      -6.026   0.976  -8.010  1.00  0.00     0.074 A 
ATOM     55  C   UNL     1      -6.652  -0.071  -8.794  1.00  0.00     0.031 C 
ATOM     56  C   UNL     1      -6.184   2.304  -8.244  1.00  0.00     0.034 A 
BRANCH  43  57
ATOM     57  C   UNL     1      -3.406   5.935  -4.072  1.00  0.00     0.023 A 
ATOM     58  C   UNL     1      -2.123   6.511  -4.112  1.00  0.00     0.031 A 
ATOM     59  C   UNL     1      -4.454   6.690  -3.519  1.00  0.00     0.131 A 
ATOM     60  C   UNL     1      -1.903   7.778  -3.548  1.00  0.00     0.055 A 
ATOM     61  C   UNL     1      -4.242   7.971  -3.008  1.00  0.00     0.041 A 
ATOM     62  F   UNL     1      -5.696   6.186  -3.457  1.00  0.00    -0.206 F 
ATOM     63  C   UNL     1      -2.961   8.517  -3.010  1.00  0.00     0.022 A 
BRANCH  60  64
ATOM     64  S   UNL     1      -0.220   8.467  -3.502  1.00  0.00     0.124 S 
ATOM     65  O   UNL     1       0.416   7.669  -2.458  1.00  0.00    -0.237 OA
ATOM     66  O   UNL     1       0.262   8.250  -4.862  1.00  0.00    -0.237 OA
ATOM     67  O   UNL     1      -0.439   9.870  -3.149  1.00  0.00    -0.744 OA
ENDBRANCH  60  64
ENDBRANCH  43  57
BRANCH  44  68
ATOM     68  C   UNL     1      -5.209  -3.509  -6.797  1.00  0.00     0.023 A 
ATOM     69  C   UNL     1      -4.818  -4.112  -8.001  1.00  0.00     0.031 A 
ATOM     70  C   UNL     1      -5.982  -4.266  -5.896  1.00  0.00     0.131 A 
ATOM     71  C   UNL     1      -5.220  -5.428  -8.282  1.00  0.00     0.055 A 
ATOM     72  C   UNL     1      -6.343  -5.587  -6.162  1.00  0.00     0.041 A 
ATOM     73  F   UNL     1      -6.382  -3.733  -4.730  1.00  0.00    -0.206 F 
ATOM     74  C   UNL     1      -5.968  -6.173  -7.365  1.00  0.00     0.022 A 
BRANCH  71  75
ATOM     75  S   UNL     1      -4.792  -6.145  -9.892  1.00  0.00     0.124 S 
ATOM     76  O   UNL     1      -5.430  -5.212 -10.814  1.00  0.00    -0.237 OA
ATOM     77  O   UNL     1      -3.333  -6.116  -9.858  1.00  0.00    -0.237 OA
ATOM     78  O   UNL     1      -5.387  -7.478  -9.841  1.00  0.00    -0.744 OA
ENDBRANCH  71  75
ENDBRANCH  44  68
BRANCH  56  79
ATOM     79  C   UNL     1      -7.060   2.688  -9.408  1.00  0.00     0.023 A 
ATOM     80  C   UNL     1      -8.451   2.484  -9.377  1.00  0.00     0.031 A 
ATOM     81  C   UNL     1      -6.496   3.246 -10.569  1.00  0.00     0.131 A 
ATOM     82  C   UNL     1      -9.226   2.792 -10.505  1.00  0.00     0.055 A 
ATOM     83  C   UNL     1      -7.280   3.600 -11.667  1.00  0.00     0.041 A 
ATOM     84  F   UNL     1      -5.173   3.454 -10.652  1.00  0.00    -0.206 F 
ATOM     85  C   UNL     1      -8.652   3.364 -11.644  1.00  0.00     0.022 A 
BRANCH  82  86
ATOM     86  S   UNL     1     -10.988   2.362 -10.497  1.00  0.00     0.124 S 
ATOM     87  O   UNL     1     -10.945   0.912 -10.343  1.00  0.00    -0.237 OA
ATOM     88  O   UNL     1     -11.489   3.111  -9.348  1.00  0.00    -0.237 OA
ATOM     89  O   UNL     1     -11.463   2.834 -11.796  1.00  0.00    -0.744 OA
ENDBRANCH  82  86
ENDBRANCH  56  79
ENDBRANCH  30  31
ENDBRANCH  23  25
ENDBRANCH  22  23
ENDBRANCH  21  22
ENDBRANCH   1  21
TORSDOF 19
