REMARK SMILES Cc1nn(-c2ccncn2)c(C)c1[C@@H](C)C(=O)OCCOC(=O)c1ccc(-c2c3nc(c(-c4cc(S(=O)(=O)[O-])ccc4F)c4ccc([nH]4)c(-c4cc(S(=O)(=O)[O-])ccc4F)c4nc(c(-c5cc(S(=O)(=O)[O-])ccc5F)c5ccc2[nH]5)C=C4)C=C3)cc1
REMARK SMILES IDX 20 1 19 2 18 3 16 4 17 5 14 6 15 7 13 8 1 9 2 10 3 11 4 12
REMARK SMILES IDX 11 13 12 14 5 15 6 16 10 17 7 18 9 19 8 20 21 21 22 22 23 23
REMARK SMILES IDX 24 24 25 25 86 26 26 27 85 28 27 29 28 30 29 31 79 32 30 33
REMARK SMILES IDX 84 34 78 35 80 36 31 37 83 38 77 39 76 40 32 42 64 43 44 44
REMARK SMILES IDX 63 45 45 46 48 47 62 48 81 49 46 50 47 51 61 53 82 54 49 55
REMARK SMILES IDX 33 56 34 57 42 58 35 59 41 60 43 61 40 62 36 63 37 64 38 65
REMARK SMILES IDX 39 66 65 67 66 68 74 69 67 70 73 71 75 72 72 73 68 74 69 75
REMARK SMILES IDX 70 76 71 77 50 78 51 79 59 80 52 81 58 82 60 83 57 84 53 85
REMARK SMILES IDX 54 86 55 87 56 88
REMARK H PARENT 80 41 48 52
REMARK Flexibility Score: inf
ROOT
ATOM      1  C   UNL     1      -4.812  -2.704   1.382  1.00  0.00     0.275 C 
ENDROOT
BRANCH   1   2
ATOM      2  C   UNL     1      -5.065  -2.543  -0.110  1.00  0.00     0.274 C 
BRANCH   2   3
ATOM      3  O   UNL     1      -3.826  -2.407  -0.826  1.00  0.00    -0.462 OA
BRANCH   3   4
ATOM      4  C   UNL     1      -3.370  -1.155  -1.089  1.00  0.00     0.313 C 
ATOM      5  O   UNL     1      -4.052  -0.142  -0.944  1.00  0.00    -0.252 OA
BRANCH   4   6
ATOM      6  C   UNL     1      -1.954  -1.111  -1.670  1.00  0.00     0.130 C 
ATOM      7  C   UNL     1      -2.049  -0.963  -3.184  1.00  0.00     0.025 C 
BRANCH   6   8
ATOM      8  C   UNL     1      -0.987  -2.210  -1.267  1.00  0.00     0.010 A 
ATOM      9  C   UNL     1       0.963  -0.779  -0.199  1.00  0.00     0.069 C 
ATOM     10  C   UNL     1       0.268  -2.032  -0.601  1.00  0.00     0.064 A 
ATOM     11  N   UNL     1       0.849  -3.195  -0.301  1.00  0.00    -0.171 NA
ATOM     12  N   UNL     1       0.001  -4.141  -0.750  1.00  0.00    -0.219 N 
ATOM     13  C   UNL     1      -1.090  -3.592  -1.416  1.00  0.00     0.047 A 
ATOM     14  C   UNL     1      -2.200  -4.429  -1.949  1.00  0.00     0.067 C 
BRANCH  12  15
ATOM     15  C   UNL     1       0.299  -5.523  -0.565  1.00  0.00     0.156 A 
ATOM     16  C   UNL     1       0.257  -6.359  -1.664  1.00  0.00     0.069 A 
ATOM     17  N   UNL     1       0.557  -5.972   0.684  1.00  0.00    -0.217 NA
ATOM     18  C   UNL     1       0.421  -7.698  -1.407  1.00  0.00     0.117 A 
ATOM     19  C   UNL     1       0.693  -7.296   0.817  1.00  0.00     0.224 A 
ATOM     20  N   UNL     1       0.618  -8.199  -0.176  1.00  0.00    -0.245 NA
ENDBRANCH  12  15
ENDBRANCH   6   8
ENDBRANCH   4   6
ENDBRANCH   3   4
ENDBRANCH   2   3
ENDBRANCH   1   2
BRANCH   1  21
ATOM     21  O   UNL     1      -4.441  -1.460   1.974  1.00  0.00    -0.458 OA
BRANCH  21  22
ATOM     22  C   UNL     1      -3.108  -1.239   1.991  1.00  0.00     0.338 C 
ATOM     23  O   UNL     1      -2.263  -1.813   1.333  1.00  0.00    -0.246 OA
BRANCH  22  24
ATOM     24  C   UNL     1      -2.757  -0.340   3.083  1.00  0.00     0.060 A 
ATOM     25  C   UNL     1      -1.417   0.053   3.171  1.00  0.00     0.016 A 
ATOM     26  C   UNL     1      -3.661  -0.163   4.133  1.00  0.00     0.016 A 
ATOM     27  C   UNL     1      -0.934   0.485   4.383  1.00  0.00     0.010 A 
ATOM     28  C   UNL     1      -3.175   0.247   5.347  1.00  0.00     0.010 A 
ATOM     29  C   UNL     1      -1.808   0.506   5.470  1.00  0.00    -0.014 A 
BRANCH  29  30
ATOM     30  C   UNL     1      -1.294   0.940   6.748  1.00  0.00     0.031 A 
ATOM     31  C   UNL     1      -1.103   2.403   6.822  1.00  0.00     0.074 A 
ATOM     32  C   UNL     1      -1.203   0.104   7.795  1.00  0.00     0.049 A 
ATOM     33  N   UNL     1      -0.000   3.059   6.955  1.00  0.00    -0.248 NA
ATOM     34  C   UNL     1      -2.268   3.248   6.504  1.00  0.00     0.031 C 
ATOM     35  C   UNL     1      -1.672  -1.281   7.871  1.00  0.00     0.029 A 
ATOM     36  N   UNL     1      -0.807   0.372   9.066  1.00  0.00    -0.354 N 
ATOM     37  C   UNL     1      -0.375   4.397   6.995  1.00  0.00     0.074 A 
ATOM     38  C   UNL     1      -1.701   4.451   6.454  1.00  0.00     0.031 C 
ATOM     39  C   UNL     1      -1.759  -1.643   9.170  1.00  0.00     0.029 A 
ATOM     40  C   UNL     1      -1.246  -0.561   9.997  1.00  0.00     0.049 A 
ATOM     41  H   UNL     1      -0.261   1.155   9.306  1.00  0.00     0.167 HD
ATOM     42  C   UNL     1       0.314   5.293   7.753  1.00  0.00     0.034 A 
ATOM     43  C   UNL     1      -1.280  -0.402  11.345  1.00  0.00     0.034 A 
ATOM     44  C   UNL     1       1.634   4.782   8.072  1.00  0.00     0.049 A 
ATOM     45  C   UNL     1      -0.337   0.697  11.681  1.00  0.00     0.074 A 
ATOM     46  C   UNL     1       2.702   4.334   7.316  1.00  0.00     0.029 A 
ATOM     47  N   UNL     1       1.866   4.310   9.348  1.00  0.00    -0.354 N 
ATOM     48  N   UNL     1       0.953   0.619  11.500  1.00  0.00    -0.248 NA
ATOM     49  C   UNL     1      -0.860   2.054  11.778  1.00  0.00     0.031 C 
ATOM     50  C   UNL     1       3.245   3.237   8.047  1.00  0.00     0.029 A 
ATOM     51  C   UNL     1       2.534   3.116   9.242  1.00  0.00     0.049 A 
ATOM     52  H   UNL     1       1.599   4.752  10.187  1.00  0.00     0.167 HD
ATOM     53  C   UNL     1       1.329   1.869  11.029  1.00  0.00     0.074 A 
ATOM     54  C   UNL     1       0.198   2.741  11.337  1.00  0.00     0.031 C 
ATOM     55  C   UNL     1       2.389   2.015  10.178  1.00  0.00     0.034 A 
BRANCH  42  56
ATOM     56  C   UNL     1      -0.351   6.398   8.560  1.00  0.00     0.023 A 
ATOM     57  C   UNL     1       0.489   7.113   9.431  1.00  0.00     0.031 A 
ATOM     58  C   UNL     1      -1.738   6.586   8.770  1.00  0.00     0.131 A 
ATOM     59  C   UNL     1      -0.031   7.787  10.546  1.00  0.00     0.055 A 
ATOM     60  C   UNL     1      -2.254   7.319   9.843  1.00  0.00     0.041 A 
ATOM     61  F   UNL     1      -2.685   6.033   8.007  1.00  0.00    -0.206 F 
ATOM     62  C   UNL     1      -1.399   7.884  10.769  1.00  0.00     0.022 A 
BRANCH  59  63
ATOM     63  S   UNL     1       1.136   8.337  11.811  1.00  0.00     0.124 S 
ATOM     64  O   UNL     1       1.879   7.106  12.063  1.00  0.00    -0.237 OA
ATOM     65  O   UNL     1       1.856   9.394  11.109  1.00  0.00    -0.237 OA
ATOM     66  O   UNL     1       0.270   8.783  12.898  1.00  0.00    -0.744 OA
ENDBRANCH  59  63
ENDBRANCH  42  56
BRANCH  43  67
ATOM     67  C   UNL     1      -2.319  -0.922  12.274  1.00  0.00     0.023 A 
ATOM     68  C   UNL     1      -2.101  -1.045  13.661  1.00  0.00     0.031 A 
ATOM     69  C   UNL     1      -3.647  -1.107  11.823  1.00  0.00     0.131 A 
ATOM     70  C   UNL     1      -3.178  -1.349  14.526  1.00  0.00     0.055 A 
ATOM     71  C   UNL     1      -4.704  -1.421  12.680  1.00  0.00     0.041 A 
ATOM     72  F   UNL     1      -3.984  -0.905  10.540  1.00  0.00    -0.206 F 
ATOM     73  C   UNL     1      -4.475  -1.535  14.040  1.00  0.00     0.022 A 
BRANCH  70  74
ATOM     74  S   UNL     1      -2.922  -1.406  16.328  1.00  0.00     0.124 S 
ATOM     75  O   UNL     1      -2.120  -2.613  16.489  1.00  0.00    -0.237 OA
ATOM     76  O   UNL     1      -2.251  -0.139  16.590  1.00  0.00    -0.237 OA
ATOM     77  O   UNL     1      -4.282  -1.497  16.863  1.00  0.00    -0.744 OA
ENDBRANCH  70  74
ENDBRANCH  43  67
BRANCH  55  78
ATOM     78  C   UNL     1       3.361   0.862  10.033  1.00  0.00     0.023 A 
ATOM     79  C   UNL     1       3.013  -0.442   9.612  1.00  0.00     0.031 A 
ATOM     80  C   UNL     1       4.726   1.143  10.222  1.00  0.00     0.131 A 
ATOM     81  C   UNL     1       4.018  -1.409   9.410  1.00  0.00     0.055 A 
ATOM     82  C   UNL     1       5.719   0.190  10.000  1.00  0.00     0.041 A 
ATOM     83  F   UNL     1       5.124   2.371  10.592  1.00  0.00    -0.206 F 
ATOM     84  C   UNL     1       5.367  -1.093   9.599  1.00  0.00     0.022 A 
BRANCH  81  85
ATOM     85  S   UNL     1       3.587  -3.107   8.911  1.00  0.00     0.124 S 
ATOM     86  O   UNL     1       2.498  -3.465   9.811  1.00  0.00    -0.237 OA
ATOM     87  O   UNL     1       3.229  -2.939   7.505  1.00  0.00    -0.237 OA
ATOM     88  O   UNL     1       4.830  -3.851   9.135  1.00  0.00    -0.744 OA
ENDBRANCH  81  85
ENDBRANCH  55  78
ENDBRANCH  29  30
ENDBRANCH  22  24
ENDBRANCH  21  22
ENDBRANCH   1  21
TORSDOF 16
