REMARK SMILES C[N@@H+]1CCC[C@@H](C[NH2+]CC(=O)OCCOC(=O)c2ccc(-c3c4nc(c(-c5cc(S(=O)(=O)[O-])ccc5F)c5ccc([nH]5)c(-c5cc(S(=O)(=O)[O-])ccc5F)c5nc(c(-c6cc(S(=O)(=O)[O-])ccc6F)c6ccc3[nH]6)C=C5)C=C4)cc2)C1
REMARK SMILES IDX 13 1 12 2 10 3 11 4 9 5 8 6 7 9 6 10 1 11 2 12 3 13 81 14
REMARK SMILES IDX 4 16 5 17 14 18 15 19 16 20 17 21 18 22 19 23 80 24 20 25
REMARK SMILES IDX 79 26 21 27 22 28 23 29 73 30 24 31 78 32 72 33 74 34 25 35
REMARK SMILES IDX 77 36 71 37 70 38 26 40 58 41 38 42 57 43 39 44 42 45 56 46
REMARK SMILES IDX 75 47 40 48 41 49 55 51 76 52 43 53 27 54 28 55 36 56 29 57
REMARK SMILES IDX 35 58 37 59 34 60 30 61 31 62 32 63 33 64 59 65 60 66 68 67
REMARK SMILES IDX 61 68 67 69 69 70 66 71 62 72 63 73 64 74 65 75 44 76 45 77
REMARK SMILES IDX 53 78 46 79 52 80 54 81 51 82 47 83 48 84 49 85 50 86
REMARK H PARENT 8 7 8 8 2 15 74 39 42 50
REMARK Flexibility Score: inf
ROOT
ATOM      1  C   UNL     1      -0.240   0.924   4.902  1.00  0.00     0.274 C 
ENDROOT
BRANCH   1   2
ATOM      2  O   UNL     1       0.615   0.005   4.199  1.00  0.00    -0.458 OA
BRANCH   2   3
ATOM      3  C   UNL     1       0.767  -1.238   4.726  1.00  0.00     0.361 C 
ATOM      4  O   UNL     1       0.374  -1.567   5.840  1.00  0.00    -0.245 OA
BRANCH   3   5
ATOM      5  C   UNL     1       1.522  -2.186   3.788  1.00  0.00     0.384 C 
BRANCH   5   6
ATOM      6  N   UNL     1       1.062  -2.172   2.381  1.00  0.00    -0.337 N 
ATOM      7  H   UNL     1       1.330  -3.052   1.941  1.00  0.00     0.346 HD
ATOM      8  H   UNL     1       0.049  -2.048   2.389  1.00  0.00     0.346 HD
BRANCH   6   9
ATOM      9  C   UNL     1       1.635  -1.069   1.609  1.00  0.00     0.270 C 
BRANCH   9  10
ATOM     10  C   UNL     1       1.283  -1.119   0.105  1.00  0.00     0.099 C 
ATOM     11  C   UNL     1      -2.302   0.106  -0.116  1.00  0.00     0.332 C 
ATOM     12  N   UNL     1      -0.862   0.179   0.144  1.00  0.00    -0.337 N 
ATOM     13  C   UNL     1      -0.257   1.296  -0.584  1.00  0.00     0.262 C 
ATOM     14  C   UNL     1      -0.226  -1.103  -0.205  1.00  0.00     0.271 C 
ATOM     15  H   UNL     1      -0.712   0.351   1.138  1.00  0.00     0.347 HD
ATOM     16  C   UNL     1       1.247   1.386  -0.320  1.00  0.00     0.062 C 
ATOM     17  C   UNL     1       1.951   0.063  -0.624  1.00  0.00     0.021 C 
ENDBRANCH   9  10
ENDBRANCH   6   9
ENDBRANCH   5   6
ENDBRANCH   3   5
ENDBRANCH   2   3
ENDBRANCH   1   2
BRANCH   1  18
ATOM     18  C   UNL     1      -1.641   0.956   4.280  1.00  0.00     0.275 C 
BRANCH  18  19
ATOM     19  O   UNL     1      -2.429  -0.176   4.693  1.00  0.00    -0.458 OA
BRANCH  19  20
ATOM     20  C   UNL     1      -2.293  -1.276   3.917  1.00  0.00     0.338 C 
ATOM     21  O   UNL     1      -1.627  -1.379   2.901  1.00  0.00    -0.246 OA
BRANCH  20  22
ATOM     22  C   UNL     1      -2.948  -2.439   4.528  1.00  0.00     0.060 A 
ATOM     23  C   UNL     1      -2.227  -3.638   4.553  1.00  0.00     0.016 A 
ATOM     24  C   UNL     1      -4.266  -2.386   4.984  1.00  0.00     0.016 A 
ATOM     25  C   UNL     1      -2.832  -4.800   5.014  1.00  0.00     0.010 A 
ATOM     26  C   UNL     1      -4.872  -3.555   5.449  1.00  0.00     0.010 A 
ATOM     27  C   UNL     1      -4.162  -4.770   5.447  1.00  0.00    -0.014 A 
BRANCH  27  28
ATOM     28  C   UNL     1      -4.829  -6.036   5.823  1.00  0.00     0.031 A 
ATOM     29  C   UNL     1      -5.778  -6.683   4.858  1.00  0.00     0.074 A 
ATOM     30  C   UNL     1      -4.546  -6.612   7.005  1.00  0.00     0.049 A 
ATOM     31  N   UNL     1      -6.498  -7.765   5.002  1.00  0.00    -0.248 NA
ATOM     32  C   UNL     1      -5.941  -6.017   3.557  1.00  0.00     0.031 C 
ATOM     33  C   UNL     1      -3.600  -6.087   7.991  1.00  0.00     0.029 A 
ATOM     34  N   UNL     1      -5.023  -7.762   7.575  1.00  0.00    -0.354 N 
ATOM     35  C   UNL     1      -7.207  -7.908   3.814  1.00  0.00     0.074 A 
ATOM     36  C   UNL     1      -6.853  -6.782   2.976  1.00  0.00     0.031 C 
ATOM     37  C   UNL     1      -3.568  -6.916   9.048  1.00  0.00     0.029 A 
ATOM     38  C   UNL     1      -4.520  -8.002   8.832  1.00  0.00     0.049 A 
ATOM     39  H   UNL     1      -5.665  -8.360   7.129  1.00  0.00     0.167 HD
ATOM     40  C   UNL     1      -8.069  -8.894   3.460  1.00  0.00     0.034 A 
ATOM     41  C   UNL     1      -4.815  -8.975   9.715  1.00  0.00     0.034 A 
ATOM     42  C   UNL     1      -8.411 -10.002   4.320  1.00  0.00     0.049 A 
ATOM     43  C   UNL     1      -5.826 -10.023   9.325  1.00  0.00     0.074 A 
ATOM     44  C   UNL     1      -9.274 -11.055   4.072  1.00  0.00     0.029 A 
ATOM     45  N   UNL     1      -7.908 -10.197   5.602  1.00  0.00    -0.354 N 
ATOM     46  N   UNL     1      -6.504 -10.141   8.206  1.00  0.00    -0.248 NA
ATOM     47  C   UNL     1      -6.107 -11.071  10.314  1.00  0.00     0.031 C 
ATOM     48  C   UNL     1      -9.339 -11.850   5.223  1.00  0.00     0.029 A 
ATOM     49  C   UNL     1      -8.463 -11.336   6.165  1.00  0.00     0.049 A 
ATOM     50  H   UNL     1      -7.254  -9.610   6.045  1.00  0.00     0.167 HD
ATOM     51  C   UNL     1      -7.271 -11.294   8.347  1.00  0.00     0.074 A 
ATOM     52  C   UNL     1      -6.962 -11.839   9.654  1.00  0.00     0.031 C 
ATOM     53  C   UNL     1      -8.148 -11.855   7.476  1.00  0.00     0.034 A 
BRANCH  40  54
ATOM     54  C   UNL     1      -8.739  -8.772   2.113  1.00  0.00     0.023 A 
ATOM     55  C   UNL     1      -8.010  -8.828   0.912  1.00  0.00     0.031 A 
ATOM     56  C   UNL     1     -10.126  -8.552   2.031  1.00  0.00     0.131 A 
ATOM     57  C   UNL     1      -8.658  -8.595  -0.312  1.00  0.00     0.055 A 
ATOM     58  C   UNL     1     -10.777  -8.397   0.806  1.00  0.00     0.041 A 
ATOM     59  F   UNL     1     -10.871  -8.464   3.145  1.00  0.00    -0.206 F 
ATOM     60  C   UNL     1     -10.040  -8.403  -0.375  1.00  0.00     0.022 A 
BRANCH  57  61
ATOM     61  S   UNL     1      -7.649  -8.403  -1.808  1.00  0.00     0.124 S 
ATOM     62  O   UNL     1      -6.797  -7.272  -1.447  1.00  0.00    -0.237 OA
ATOM     63  O   UNL     1      -6.985  -9.697  -1.909  1.00  0.00    -0.237 OA
ATOM     64  O   UNL     1      -8.632  -8.123  -2.852  1.00  0.00    -0.744 OA
ENDBRANCH  57  61
ENDBRANCH  40  54
BRANCH  41  65
ATOM     65  C   UNL     1      -4.182  -8.984  11.064  1.00  0.00     0.023 A 
ATOM     66  C   UNL     1      -3.328 -10.023  11.461  1.00  0.00     0.031 A 
ATOM     67  C   UNL     1      -4.457  -7.963  11.992  1.00  0.00     0.131 A 
ATOM     68  C   UNL     1      -2.810 -10.041  12.766  1.00  0.00     0.055 A 
ATOM     69  C   UNL     1      -3.901  -7.959  13.271  1.00  0.00     0.041 A 
ATOM     70  F   UNL     1      -5.268  -6.945  11.662  1.00  0.00    -0.206 F 
ATOM     71  C   UNL     1      -3.080  -9.010  13.669  1.00  0.00     0.022 A 
BRANCH  68  72
ATOM     72  S   UNL     1      -1.837 -11.477  13.296  1.00  0.00     0.124 S 
ATOM     73  O   UNL     1      -2.779 -12.570  13.082  1.00  0.00    -0.237 OA
ATOM     74  O   UNL     1      -0.698 -11.424  12.385  1.00  0.00    -0.237 OA
ATOM     75  O   UNL     1      -1.528 -11.183  14.694  1.00  0.00    -0.744 OA
ENDBRANCH  68  72
ENDBRANCH  41  65
BRANCH  53  76
ATOM     76  C   UNL     1      -8.791 -13.152   7.901  1.00  0.00     0.023 A 
ATOM     77  C   UNL     1      -9.720 -13.206   8.955  1.00  0.00     0.031 A 
ATOM     78  C   UNL     1      -8.454 -14.351   7.250  1.00  0.00     0.131 A 
ATOM     79  C   UNL     1     -10.238 -14.444   9.364  1.00  0.00     0.055 A 
ATOM     80  C   UNL     1      -9.015 -15.572   7.625  1.00  0.00     0.041 A 
ATOM     81  F   UNL     1      -7.572 -14.354   6.237  1.00  0.00    -0.206 F 
ATOM     82  C   UNL     1      -9.902 -15.626   8.696  1.00  0.00     0.022 A 
BRANCH  79  83
ATOM     83  S   UNL     1     -11.292 -14.505  10.839  1.00  0.00     0.124 S 
ATOM     84  O   UNL     1     -10.414 -13.947  11.863  1.00  0.00    -0.237 OA
ATOM     85  O   UNL     1     -12.425 -13.672  10.447  1.00  0.00    -0.237 OA
ATOM     86  O   UNL     1     -11.592 -15.927  10.989  1.00  0.00    -0.744 OA
ENDBRANCH  79  83
ENDBRANCH  53  76
ENDBRANCH  27  28
ENDBRANCH  20  22
ENDBRANCH  19  20
ENDBRANCH  18  19
ENDBRANCH   1  18
TORSDOF 17
