REMARK SMILES CCC(CC)(NC(=O)c1ccc(NC(C)=O)cc1)C(=O)OCCOC(=O)c1ccc(-c2c3nc(c(-c4cc(S(=O)(=O)[O-])ccc4F)c4ccc([nH]4)c(-c4cc(S(=O)(=O)[O-])ccc4F)c4nc(c(-c5cc(S(=O)(=O)[O-])ccc5F)c5ccc2[nH]5)C=C4)C=C3)cc1
REMARK SMILES IDX 22 1 21 2 19 3 20 4 3 5 2 6 1 7 4 8 5 9 6 10 7 11 8 13 9 14
REMARK SMILES IDX 10 15 18 16 11 17 17 18 12 19 13 20 14 21 15 23 16 24 23 25
REMARK SMILES IDX 24 26 25 27 26 28 27 29 28 30 89 31 29 32 88 33 30 34 31 35
REMARK SMILES IDX 32 36 82 37 33 38 87 39 81 40 83 41 34 42 86 43 80 44 79 45
REMARK SMILES IDX 35 47 67 48 47 49 66 50 48 51 51 52 65 53 84 54 49 55 50 56
REMARK SMILES IDX 64 58 85 59 52 60 36 61 37 62 45 63 38 64 44 65 46 66 43 67
REMARK SMILES IDX 39 68 40 69 41 70 42 71 68 72 69 73 77 74 70 75 76 76 78 77
REMARK SMILES IDX 75 78 71 79 72 80 73 81 74 82 53 83 54 84 62 85 55 86 61 87
REMARK SMILES IDX 63 88 60 89 56 90 57 91 58 92 59 93
REMARK H PARENT 6 12 13 22 83 46 51 57
REMARK Flexibility Score: inf
ROOT
ATOM      1  C   UNL     1       4.614   0.100   2.388  1.00  0.00     0.274 C 
ENDROOT
BRANCH   1   2
ATOM      2  O   UNL     1       3.338  -0.488   2.731  1.00  0.00    -0.460 OA
BRANCH   2   3
ATOM      3  C   UNL     1       2.246   0.082   2.176  1.00  0.00     0.331 C 
ATOM      4  O   UNL     1       2.323   1.022   1.388  1.00  0.00    -0.249 OA
BRANCH   3   5
ATOM      5  C   UNL     1       0.878  -0.437   2.732  1.00  0.00     0.137 C 
BRANCH   5   6
ATOM      6  C   UNL     1      -0.021  -0.801   1.494  1.00  0.00     0.037 C 
ATOM      7  C   UNL     1      -0.272   0.252   0.418  1.00  0.00     0.007 C 
ENDBRANCH   5   6
BRANCH   5   8
ATOM      8  C   UNL     1       0.308   0.776   3.531  1.00  0.00     0.037 C 
ATOM      9  C   UNL     1      -1.193   0.762   3.796  1.00  0.00     0.007 C 
ENDBRANCH   5   8
BRANCH   5  10
ATOM     10  N   UNL     1       0.782  -1.677   3.592  1.00  0.00    -0.336 N 
ATOM     11  C   UNL     1       1.355  -2.119   4.754  1.00  0.00     0.252 C 
ATOM     12  H   UNL     1       0.148  -2.333   3.223  1.00  0.00     0.165 HD
ATOM     13  O   UNL     1       0.648  -2.638   5.616  1.00  0.00    -0.269 OA
BRANCH  11  14
ATOM     14  C   UNL     1       2.810  -2.237   4.902  1.00  0.00     0.039 A 
ATOM     15  C   UNL     1       3.423  -3.421   4.482  1.00  0.00     0.016 A 
ATOM     16  C   UNL     1       3.560  -1.251   5.536  1.00  0.00     0.016 A 
ATOM     17  C   UNL     1       4.812  -3.562   4.567  1.00  0.00     0.027 A 
ATOM     18  C   UNL     1       4.954  -1.390   5.602  1.00  0.00     0.027 A 
ATOM     19  C   UNL     1       5.594  -2.517   5.058  1.00  0.00     0.041 A 
BRANCH  19  20
ATOM     20  N   UNL     1       6.997  -2.450   4.898  1.00  0.00    -0.326 N 
ATOM     21  C   UNL     1       7.801  -3.359   4.231  1.00  0.00     0.221 C 
ATOM     22  H   UNL     1       7.449  -1.675   5.302  1.00  0.00     0.169 HD
ATOM     23  C   UNL     1       9.131  -2.766   3.829  1.00  0.00     0.114 C 
ATOM     24  O   UNL     1       7.536  -4.524   3.959  1.00  0.00    -0.275 OA
ENDBRANCH  19  20
ENDBRANCH  11  14
ENDBRANCH   5  10
ENDBRANCH   3   5
ENDBRANCH   2   3
ENDBRANCH   1   2
BRANCH   1  25
ATOM     25  C   UNL     1       5.520  -0.938   1.744  1.00  0.00     0.275 C 
BRANCH  25  26
ATOM     26  O   UNL     1       4.886  -1.420   0.558  1.00  0.00    -0.458 OA
BRANCH  26  27
ATOM     27  C   UNL     1       4.396  -2.678   0.639  1.00  0.00     0.338 C 
ATOM     28  O   UNL     1       4.548  -3.500   1.518  1.00  0.00    -0.246 OA
BRANCH  27  29
ATOM     29  C   UNL     1       3.610  -2.924  -0.565  1.00  0.00     0.060 A 
ATOM     30  C   UNL     1       2.495  -2.129  -0.825  1.00  0.00     0.016 A 
ATOM     31  C   UNL     1       3.983  -3.957  -1.416  1.00  0.00     0.016 A 
ATOM     32  C   UNL     1       1.717  -2.384  -1.942  1.00  0.00     0.010 A 
ATOM     33  C   UNL     1       3.263  -4.144  -2.590  1.00  0.00     0.010 A 
ATOM     34  C   UNL     1       2.132  -3.353  -2.862  1.00  0.00    -0.014 A 
BRANCH  34  35
ATOM     35  C   UNL     1       1.436  -3.498  -4.158  1.00  0.00     0.031 A 
ATOM     36  C   UNL     1       0.792  -4.801  -4.511  1.00  0.00     0.074 A 
ATOM     37  C   UNL     1       1.465  -2.466  -5.024  1.00  0.00     0.049 A 
ATOM     38  N   UNL     1       0.367  -5.225  -5.670  1.00  0.00    -0.248 NA
ATOM     39  C   UNL     1       0.634  -5.768  -3.414  1.00  0.00     0.031 C 
ATOM     40  C   UNL     1       2.050  -1.149  -4.750  1.00  0.00     0.029 A 
ATOM     41  N   UNL     1       1.015  -2.364  -6.313  1.00  0.00    -0.354 N 
ATOM     42  C   UNL     1      -0.065  -6.529  -5.457  1.00  0.00     0.074 A 
ATOM     43  C   UNL     1       0.157  -6.824  -4.057  1.00  0.00     0.031 C 
ATOM     44  C   UNL     1       1.910  -0.369  -5.830  1.00  0.00     0.029 A 
ATOM     45  C   UNL     1       1.321  -1.159  -6.902  1.00  0.00     0.049 A 
ATOM     46  H   UNL     1       0.521  -3.080  -6.773  1.00  0.00     0.167 HD
ATOM     47  C   UNL     1      -0.584  -7.393  -6.364  1.00  0.00     0.034 A 
ATOM     48  C   UNL     1       1.204  -0.758  -8.181  1.00  0.00     0.034 A 
ATOM     49  C   UNL     1      -0.787  -7.047  -7.751  1.00  0.00     0.049 A 
ATOM     50  C   UNL     1       0.652  -1.741  -9.174  1.00  0.00     0.074 A 
ATOM     51  C   UNL     1      -1.299  -7.824  -8.775  1.00  0.00     0.029 A 
ATOM     52  N   UNL     1      -0.479  -5.809  -8.310  1.00  0.00    -0.354 N 
ATOM     53  N   UNL     1       0.283  -2.987  -8.978  1.00  0.00    -0.248 NA
ATOM     54  C   UNL     1       0.509  -1.275 -10.556  1.00  0.00     0.031 C 
ATOM     55  C   UNL     1      -1.250  -7.076  -9.958  1.00  0.00     0.029 A 
ATOM     56  C   UNL     1      -0.769  -5.808  -9.665  1.00  0.00     0.049 A 
ATOM     57  H   UNL     1      -0.108  -5.044  -7.813  1.00  0.00     0.167 HD
ATOM     58  C   UNL     1      -0.142  -3.455 -10.215  1.00  0.00     0.074 A 
ATOM     59  C   UNL     1      -0.004  -2.347 -11.142  1.00  0.00     0.031 C 
ATOM     60  C   UNL     1      -0.600  -4.686 -10.559  1.00  0.00     0.034 A 
BRANCH  47  61
ATOM     61  C   UNL     1      -0.880  -8.796  -5.889  1.00  0.00     0.023 A 
ATOM     62  C   UNL     1      -1.838  -9.061  -4.894  1.00  0.00     0.031 A 
ATOM     63  C   UNL     1      -0.137  -9.881  -6.389  1.00  0.00     0.131 A 
ATOM     64  C   UNL     1      -1.967 -10.359  -4.372  1.00  0.00     0.055 A 
ATOM     65  C   UNL     1      -0.327 -11.184  -5.922  1.00  0.00     0.041 A 
ATOM     66  F   UNL     1       0.808  -9.690  -7.322  1.00  0.00    -0.206 F 
ATOM     67  C   UNL     1      -1.233 -11.426  -4.894  1.00  0.00     0.022 A 
BRANCH  64  68
ATOM     68  S   UNL     1      -2.990 -10.602  -2.893  1.00  0.00     0.124 S 
ATOM     69  O   UNL     1      -2.347  -9.702  -1.938  1.00  0.00    -0.237 OA
ATOM     70  O   UNL     1      -4.313 -10.202  -3.356  1.00  0.00    -0.237 OA
ATOM     71  O   UNL     1      -2.836 -12.025  -2.598  1.00  0.00    -0.744 OA
ENDBRANCH  64  68
ENDBRANCH  47  61
BRANCH  48  72
ATOM     72  C   UNL     1       1.685   0.592  -8.589  1.00  0.00     0.023 A 
ATOM     73  C   UNL     1       0.794   1.577  -9.037  1.00  0.00     0.031 A 
ATOM     74  C   UNL     1       3.052   0.922  -8.515  1.00  0.00     0.131 A 
ATOM     75  C   UNL     1       1.280   2.841  -9.411  1.00  0.00     0.055 A 
ATOM     76  C   UNL     1       3.524   2.193  -8.843  1.00  0.00     0.041 A 
ATOM     77  F   UNL     1       3.947   0.018  -8.086  1.00  0.00    -0.206 F 
ATOM     78  C   UNL     1       2.636   3.160  -9.302  1.00  0.00     0.022 A 
BRANCH  75  79
ATOM     79  S   UNL     1       0.118   4.053 -10.097  1.00  0.00     0.124 S 
ATOM     80  O   UNL     1      -0.429   3.329 -11.239  1.00  0.00    -0.237 OA
ATOM     81  O   UNL     1      -0.792   4.266  -8.976  1.00  0.00    -0.237 OA
ATOM     82  O   UNL     1       0.971   5.192 -10.429  1.00  0.00    -0.744 OA
ENDBRANCH  75  79
ENDBRANCH  48  72
BRANCH  60  83
ATOM     83  C   UNL     1      -1.009  -4.863 -11.996  1.00  0.00     0.023 A 
ATOM     84  C   UNL     1      -0.058  -4.896 -13.030  1.00  0.00     0.031 A 
ATOM     85  C   UNL     1      -2.368  -4.981 -12.332  1.00  0.00     0.131 A 
ATOM     86  C   UNL     1      -0.484  -4.992 -14.361  1.00  0.00     0.055 A 
ATOM     87  C   UNL     1      -2.783  -5.129 -13.655  1.00  0.00     0.041 A 
ATOM     88  F   UNL     1      -3.312  -4.951 -11.378  1.00  0.00    -0.206 F 
ATOM     89  C   UNL     1      -1.840  -5.124 -14.679  1.00  0.00     0.022 A 
BRANCH  86  90
ATOM     90  S   UNL     1       0.751  -4.864 -15.682  1.00  0.00     0.124 S 
ATOM     91  O   UNL     1       1.290  -3.526 -15.463  1.00  0.00    -0.237 OA
ATOM     92  O   UNL     1       1.652  -5.972 -15.377  1.00  0.00    -0.237 OA
ATOM     93  O   UNL     1      -0.035  -5.025 -16.904  1.00  0.00    -0.744 OA
ENDBRANCH  86  90
ENDBRANCH  60  83
ENDBRANCH  34  35
ENDBRANCH  27  29
ENDBRANCH  26  27
ENDBRANCH  25  26
ENDBRANCH   1  25
TORSDOF 19
