REMARK SMILES CC(C)c1cc2c(cc1Cl)C=C(C(=O)OCCOC(=O)c1ccc(-c3c4nc(c(-c5cc(S(=O)(=O)[O-])ccc5F)c5ccc([nH]5)c(-c5cc(S(=O)(=O)[O-])ccc5F)c5nc(c(-c6cc(S(=O)(=O)[O-])ccc6F)c6ccc3[nH]6)C=C5)C=C4)cc1)[C@@H](C(F)(F)F)O2
REMARK SMILES IDX 17 1 16 2 15 3 13 4 14 5 12 6 4 7 5 8 9 9 6 10 8 11 10 12
REMARK SMILES IDX 7 13 89 14 11 15 84 16 2 17 1 18 3 19 85 20 86 21 87 22
REMARK SMILES IDX 88 23 18 24 19 25 20 26 21 27 22 28 83 29 23 30 82 31 24 32
REMARK SMILES IDX 25 33 26 34 76 35 27 36 81 37 75 38 77 39 28 40 80 41 74 42
REMARK SMILES IDX 73 43 29 45 61 46 41 47 60 48 42 49 45 50 59 51 78 52 43 53
REMARK SMILES IDX 44 54 58 56 79 57 46 58 30 59 31 60 39 61 32 62 38 63 40 64
REMARK SMILES IDX 37 65 33 66 34 67 35 68 36 69 62 70 63 71 71 72 64 73 70 74
REMARK SMILES IDX 72 75 69 76 65 77 66 78 67 79 68 80 47 81 48 82 56 83 49 84
REMARK SMILES IDX 55 85 57 86 54 87 50 88 51 89 52 90 53 91
REMARK H PARENT 77 44 45 55
REMARK Flexibility Score: inf
ROOT
ATOM      1  C   UNL     1      -9.868  -2.015   2.592  1.00  0.00     0.275 C 
ENDROOT
BRANCH   1   2
ATOM      2  C   UNL     1      -9.175  -2.807   1.483  1.00  0.00     0.275 C 
BRANCH   2   3
ATOM      3  O   UNL     1      -7.737  -2.794   1.637  1.00  0.00    -0.459 OA
BRANCH   3   4
ATOM      4  C   UNL     1      -7.074  -1.978   0.785  1.00  0.00     0.338 C 
ATOM      5  O   UNL     1      -7.571  -1.290  -0.094  1.00  0.00    -0.246 OA
BRANCH   4   6
ATOM      6  C   UNL     1      -5.628  -1.979   1.071  1.00  0.00     0.087 C 
ATOM      7  C   UNL     1      -0.799  -0.557   1.419  1.00  0.00    -0.023 A 
ATOM      8  C   UNL     1      -1.468  -1.808   1.406  1.00  0.00     0.052 A 
ATOM      9  C   UNL     1      -1.583   0.609   1.405  1.00  0.00     0.045 A 
ATOM     10  C   UNL     1      -2.861  -1.893   1.349  1.00  0.00     0.128 A 
ATOM     11  C   UNL     1      -2.974   0.521   1.366  1.00  0.00     0.032 A 
ATOM     12  Cl  UNL     1      -0.936   2.209   1.389  1.00  0.00    -0.084 Cl
ATOM     13  C   UNL     1      -3.604  -0.724   1.318  1.00  0.00     0.019 A 
ATOM     14  O   UNL     1      -3.422  -3.141   1.324  1.00  0.00    -0.475 OA
ATOM     15  C   UNL     1      -5.038  -0.786   1.180  1.00  0.00     0.027 C 
ATOM     16  C   UNL     1      -4.857  -3.267   1.071  1.00  0.00     0.316 C 
BRANCH   7  17
ATOM     17  C   UNL     1       0.724  -0.572   1.407  1.00  0.00     0.014 C 
ATOM     18  C   UNL     1       1.289  -0.077   0.071  1.00  0.00     0.012 C 
ATOM     19  C   UNL     1       1.364   0.145   2.598  1.00  0.00     0.012 C 
ENDBRANCH   7  17
BRANCH  16  20
ATOM     20  C   UNL     1      -5.059  -4.032  -0.247  1.00  0.00     0.430 C 
ATOM     21  F   UNL     1      -4.365  -5.197  -0.253  1.00  0.00    -0.167 F 
ATOM     22  F   UNL     1      -6.360  -4.365  -0.437  1.00  0.00    -0.167 F 
ATOM     23  F   UNL     1      -4.662  -3.319  -1.324  1.00  0.00    -0.167 F 
ENDBRANCH  16  20
ENDBRANCH   4   6
ENDBRANCH   3   4
ENDBRANCH   2   3
ENDBRANCH   1   2
BRANCH   1  24
ATOM     24  O   UNL     1      -9.592  -0.610   2.458  1.00  0.00    -0.458 OA
BRANCH  24  25
ATOM     25  C   UNL     1      -8.735  -0.098   3.372  1.00  0.00     0.338 C 
ATOM     26  O   UNL     1      -8.207  -0.685   4.300  1.00  0.00    -0.246 OA
BRANCH  25  27
ATOM     27  C   UNL     1      -8.433   1.301   3.032  1.00  0.00     0.060 A 
ATOM     28  C   UNL     1      -8.820   2.354   3.851  1.00  0.00     0.016 A 
ATOM     29  C   UNL     1      -7.606   1.540   1.943  1.00  0.00     0.016 A 
ATOM     30  C   UNL     1      -8.377   3.650   3.548  1.00  0.00     0.010 A 
ATOM     31  C   UNL     1      -7.021   2.789   1.758  1.00  0.00     0.010 A 
ATOM     32  C   UNL     1      -7.436   3.883   2.522  1.00  0.00    -0.014 A 
BRANCH  32  33
ATOM     33  C   UNL     1      -6.905   5.251   2.225  1.00  0.00     0.031 A 
ATOM     34  C   UNL     1      -6.943   5.813   0.817  1.00  0.00     0.074 A 
ATOM     35  C   UNL     1      -6.341   5.985   3.209  1.00  0.00     0.049 A 
ATOM     36  N   UNL     1      -6.513   6.970   0.378  1.00  0.00    -0.248 NA
ATOM     37  C   UNL     1      -7.485   4.951  -0.249  1.00  0.00     0.031 C 
ATOM     38  C   UNL     1      -6.133   5.528   4.584  1.00  0.00     0.029 A 
ATOM     39  N   UNL     1      -5.851   7.270   3.216  1.00  0.00    -0.354 N 
ATOM     40  C   UNL     1      -6.702   6.952  -1.002  1.00  0.00     0.074 A 
ATOM     41  C   UNL     1      -7.196   5.640  -1.341  1.00  0.00     0.031 C 
ATOM     42  C   UNL     1      -5.637   6.537   5.316  1.00  0.00     0.029 A 
ATOM     43  C   UNL     1      -5.435   7.701   4.457  1.00  0.00     0.049 A 
ATOM     44  H   UNL     1      -5.802   7.831   2.408  1.00  0.00     0.167 HD
ATOM     45  C   UNL     1      -6.538   7.951  -1.902  1.00  0.00     0.034 A 
ATOM     46  C   UNL     1      -4.960   8.896   4.867  1.00  0.00     0.034 A 
ATOM     47  C   UNL     1      -6.131   9.283  -1.542  1.00  0.00     0.049 A 
ATOM     48  C   UNL     1      -4.859  10.022   3.867  1.00  0.00     0.074 A 
ATOM     49  C   UNL     1      -6.035  10.395  -2.358  1.00  0.00     0.029 A 
ATOM     50  N   UNL     1      -5.779   9.691  -0.264  1.00  0.00    -0.354 N 
ATOM     51  N   UNL     1      -5.157  10.015   2.589  1.00  0.00    -0.248 NA
ATOM     52  C   UNL     1      -4.373  11.320   4.358  1.00  0.00     0.031 C 
ATOM     53  C   UNL     1      -5.573  11.460  -1.589  1.00  0.00     0.029 A 
ATOM     54  C   UNL     1      -5.451  11.035  -0.275  1.00  0.00     0.049 A 
ATOM     55  H   UNL     1      -5.765   9.111   0.531  1.00  0.00     0.167 HD
ATOM     56  C   UNL     1      -4.922  11.309   2.131  1.00  0.00     0.074 A 
ATOM     57  C   UNL     1      -4.482  12.080   3.275  1.00  0.00     0.031 C 
ATOM     58  C   UNL     1      -5.051  11.808   0.877  1.00  0.00     0.034 A 
BRANCH  45  59
ATOM     59  C   UNL     1      -6.865   7.692  -3.357  1.00  0.00     0.023 A 
ATOM     60  C   UNL     1      -5.880   7.871  -4.348  1.00  0.00     0.031 A 
ATOM     61  C   UNL     1      -8.180   7.414  -3.774  1.00  0.00     0.131 A 
ATOM     62  C   UNL     1      -6.234   7.806  -5.702  1.00  0.00     0.055 A 
ATOM     63  C   UNL     1      -8.515   7.295  -5.123  1.00  0.00     0.041 A 
ATOM     64  F   UNL     1      -9.162   7.245  -2.873  1.00  0.00    -0.206 F 
ATOM     65  C   UNL     1      -7.543   7.507  -6.094  1.00  0.00     0.022 A 
BRANCH  62  66
ATOM     66  S   UNL     1      -5.034   8.183  -7.009  1.00  0.00     0.124 S 
ATOM     67  O   UNL     1      -5.057   6.956  -7.802  1.00  0.00    -0.237 OA
ATOM     68  O   UNL     1      -5.637   9.349  -7.648  1.00  0.00    -0.237 OA
ATOM     69  O   UNL     1      -3.792   8.431  -6.285  1.00  0.00    -0.744 OA
ENDBRANCH  62  66
ENDBRANCH  45  59
BRANCH  46  70
ATOM     70  C   UNL     1      -4.647   9.100   6.316  1.00  0.00     0.023 A 
ATOM     71  C   UNL     1      -3.656   8.339   6.963  1.00  0.00     0.031 A 
ATOM     72  C   UNL     1      -5.418   9.978   7.098  1.00  0.00     0.131 A 
ATOM     73  C   UNL     1      -3.512   8.421   8.356  1.00  0.00     0.055 A 
ATOM     74  C   UNL     1      -5.219  10.112   8.474  1.00  0.00     0.041 A 
ATOM     75  F   UNL     1      -6.388  10.714   6.533  1.00  0.00    -0.206 F 
ATOM     76  C   UNL     1      -4.274   9.316   9.112  1.00  0.00     0.022 A 
BRANCH  73  77
ATOM     77  S   UNL     1      -2.437   7.264   9.250  1.00  0.00     0.124 S 
ATOM     78  O   UNL     1      -1.471   8.164   9.871  1.00  0.00    -0.237 OA
ATOM     79  O   UNL     1      -3.381   6.624  10.164  1.00  0.00    -0.237 OA
ATOM     80  O   UNL     1      -1.912   6.399   8.199  1.00  0.00    -0.744 OA
ENDBRANCH  73  77
ENDBRANCH  46  70
BRANCH  58  81
ATOM     81  C   UNL     1      -4.741  13.264   0.628  1.00  0.00     0.023 A 
ATOM     82  C   UNL     1      -5.750  14.119   0.144  1.00  0.00     0.031 A 
ATOM     83  C   UNL     1      -3.423  13.747   0.672  1.00  0.00     0.131 A 
ATOM     84  C   UNL     1      -5.415  15.391  -0.334  1.00  0.00     0.055 A 
ATOM     85  C   UNL     1      -3.102  15.036   0.245  1.00  0.00     0.041 A 
ATOM     86  F   UNL     1      -2.424  12.964   1.112  1.00  0.00    -0.206 F 
ATOM     87  C   UNL     1      -4.098  15.857  -0.280  1.00  0.00     0.022 A 
BRANCH  84  88
ATOM     88  S   UNL     1      -6.652  16.441  -1.146  1.00  0.00     0.124 S 
ATOM     89  O   UNL     1      -6.637  17.634  -0.302  1.00  0.00    -0.237 OA
ATOM     90  O   UNL     1      -6.081  16.614  -2.479  1.00  0.00    -0.237 OA
ATOM     91  O   UNL     1      -7.879  15.654  -1.085  1.00  0.00    -0.744 OA
ENDBRANCH  84  88
ENDBRANCH  58  81
ENDBRANCH  32  33
ENDBRANCH  25  27
ENDBRANCH  24  25
ENDBRANCH   1  24
TORSDOF 16
