REMARK SMILES O=C(OCCOC(=O)c1csc(S(=O)(=O)Nc2ccc(F)cc2)c1)c1ccc(-c2c3nc(c(-c4cc(S(=O)(=O)[O-])ccc4F)c4ccc([nH]4)c(-c4cc(S(=O)(=O)[O-])ccc4F)c4nc(c(-c5cc(S(=O)(=O)[O-])ccc5F)c5ccc2[nH]5)C=C4)C=C3)cc1
REMARK SMILES IDX 4 1 3 2 2 3 1 4 25 5 26 6 87 7 27 8 86 9 28 10 29 11 30 12
REMARK SMILES IDX 80 13 31 14 85 15 79 16 81 17 32 18 84 19 78 20 77 21 33 23
REMARK SMILES IDX 65 24 45 25 64 26 46 27 49 28 63 29 82 30 47 31 48 32 62 34
REMARK SMILES IDX 83 35 50 36 34 37 35 38 43 39 36 40 42 41 44 42 41 43 37 44
REMARK SMILES IDX 38 45 39 46 40 47 66 48 67 49 75 50 68 51 74 52 76 53 73 54
REMARK SMILES IDX 69 55 70 56 71 57 72 58 51 59 52 60 60 61 53 62 59 63 61 64
REMARK SMILES IDX 58 65 54 66 55 67 56 68 57 69 5 70 6 71 7 72 8 73 9 74 10 75
REMARK SMILES IDX 24 76 11 77 12 78 13 79 14 80 15 81 16 82 17 84 18 85 23 86
REMARK SMILES IDX 19 87 22 88 20 89 21 90
REMARK H PARENT 81 22 49 33 16 83
REMARK Flexibility Score: inf
ROOT
ATOM      1  C   UNL     1       4.460  -0.258  -1.984  1.00  0.00     0.275 C 
ENDROOT
BRANCH   1   2
ATOM      2  O   UNL     1       3.626  -0.990  -1.065  1.00  0.00    -0.458 OA
BRANCH   2   3
ATOM      3  C   UNL     1       3.222  -0.652   0.181  1.00  0.00     0.338 C 
ATOM      4  O   UNL     1       2.193  -1.156   0.625  1.00  0.00    -0.246 OA
BRANCH   3   5
ATOM      5  C   UNL     1       3.950   0.331   1.038  1.00  0.00     0.060 A 
ATOM      6  C   UNL     1       5.308   0.637   0.952  1.00  0.00     0.016 A 
ATOM      7  C   UNL     1       3.203   0.935   2.064  1.00  0.00     0.016 A 
ATOM      8  C   UNL     1       5.880   1.589   1.805  1.00  0.00     0.010 A 
ATOM      9  C   UNL     1       3.770   1.871   2.927  1.00  0.00     0.010 A 
ATOM     10  C   UNL     1       5.116   2.208   2.799  1.00  0.00    -0.014 A 
BRANCH  10  11
ATOM     11  C   UNL     1       5.757   3.103   3.785  1.00  0.00     0.031 A 
ATOM     12  C   UNL     1       6.128   2.548   5.129  1.00  0.00     0.074 A 
ATOM     13  C   UNL     1       6.020   4.383   3.465  1.00  0.00     0.049 A 
ATOM     14  N   UNL     1       6.839   3.094   6.078  1.00  0.00    -0.248 NA
ATOM     15  C   UNL     1       5.644   1.192   5.441  1.00  0.00     0.031 C 
ATOM     16  C   UNL     1       5.662   5.025   2.200  1.00  0.00     0.029 A 
ATOM     17  N   UNL     1       6.650   5.373   4.173  1.00  0.00    -0.354 N 
ATOM     18  C   UNL     1       6.932   2.132   7.075  1.00  0.00     0.074 A 
ATOM     19  C   UNL     1       6.137   1.000   6.655  1.00  0.00     0.031 C 
ATOM     20  C   UNL     1       6.073   6.304   2.223  1.00  0.00     0.029 A 
ATOM     21  C   UNL     1       6.739   6.566   3.495  1.00  0.00     0.049 A 
ATOM     22  H   UNL     1       7.005   5.243   5.082  1.00  0.00     0.167 HD
ATOM     23  C   UNL     1       7.656   2.175   8.218  1.00  0.00     0.034 A 
ATOM     24  C   UNL     1       7.316   7.730   3.857  1.00  0.00     0.034 A 
ATOM     25  C   UNL     1       8.408   3.328   8.632  1.00  0.00     0.049 A 
ATOM     26  C   UNL     1       8.052   7.785   5.169  1.00  0.00     0.074 A 
ATOM     27  C   UNL     1       9.200   3.488   9.753  1.00  0.00     0.029 A 
ATOM     28  N   UNL     1       8.439   4.532   7.941  1.00  0.00    -0.354 N 
ATOM     29  N   UNL     1       8.213   6.834   6.061  1.00  0.00    -0.248 NA
ATOM     30  C   UNL     1       8.706   9.054   5.514  1.00  0.00     0.031 C 
ATOM     31  C   UNL     1       9.671   4.806   9.764  1.00  0.00     0.029 A 
ATOM     32  C   UNL     1       9.213   5.451   8.625  1.00  0.00     0.049 A 
ATOM     33  H   UNL     1       7.978   4.706   7.089  1.00  0.00     0.167 HD
ATOM     34  C   UNL     1       9.005   7.382   7.063  1.00  0.00     0.074 A 
ATOM     35  C   UNL     1       9.291   8.747   6.665  1.00  0.00     0.031 C 
ATOM     36  C   UNL     1       9.465   6.808   8.203  1.00  0.00     0.034 A 
BRANCH  23  37
ATOM     37  C   UNL     1       7.659   0.938   9.074  1.00  0.00     0.023 A 
ATOM     38  C   UNL     1       8.280  -0.243   8.629  1.00  0.00     0.031 A 
ATOM     39  C   UNL     1       7.019   0.921  10.323  1.00  0.00     0.131 A 
ATOM     40  C   UNL     1       8.199  -1.410   9.401  1.00  0.00     0.055 A 
ATOM     41  C   UNL     1       6.992  -0.229  11.115  1.00  0.00     0.041 A 
ATOM     42  F   UNL     1       6.393   2.015  10.785  1.00  0.00    -0.206 F 
ATOM     43  C   UNL     1       7.577  -1.406  10.651  1.00  0.00     0.022 A 
BRANCH  40  44
ATOM     44  S   UNL     1       8.848  -2.957   8.713  1.00  0.00     0.124 S 
ATOM     45  O   UNL     1       7.901  -3.219   7.633  1.00  0.00    -0.237 OA
ATOM     46  O   UNL     1      10.197  -2.584   8.300  1.00  0.00    -0.237 OA
ATOM     47  O   UNL     1       8.777  -3.888   9.838  1.00  0.00    -0.744 OA
ENDBRANCH  40  44
ENDBRANCH  23  37
BRANCH  24  48
ATOM     48  C   UNL     1       7.239   8.912   2.955  1.00  0.00     0.023 A 
ATOM     49  C   UNL     1       8.365   9.368   2.252  1.00  0.00     0.031 A 
ATOM     50  C   UNL     1       6.022   9.591   2.769  1.00  0.00     0.131 A 
ATOM     51  C   UNL     1       8.255  10.483   1.405  1.00  0.00     0.055 A 
ATOM     52  C   UNL     1       5.912  10.685   1.908  1.00  0.00     0.041 A 
ATOM     53  F   UNL     1       4.915   9.185   3.409  1.00  0.00    -0.206 F 
ATOM     54  C   UNL     1       7.035  11.140   1.223  1.00  0.00     0.022 A 
BRANCH  51  55
ATOM     55  S   UNL     1       9.739  11.077   0.545  1.00  0.00     0.124 S 
ATOM     56  O   UNL     1      10.604  11.444   1.661  1.00  0.00    -0.237 OA
ATOM     57  O   UNL     1      10.139   9.899  -0.218  1.00  0.00    -0.237 OA
ATOM     58  O   UNL     1       9.244  12.195  -0.256  1.00  0.00    -0.744 OA
ENDBRANCH  51  55
ENDBRANCH  24  48
BRANCH  36  59
ATOM     59  C   UNL     1      10.332   7.650   9.094  1.00  0.00     0.023 A 
ATOM     60  C   UNL     1       9.777   8.650   9.907  1.00  0.00     0.031 A 
ATOM     61  C   UNL     1      11.711   7.396   9.182  1.00  0.00     0.131 A 
ATOM     62  C   UNL     1      10.607   9.378  10.770  1.00  0.00     0.055 A 
ATOM     63  C   UNL     1      12.525   8.097  10.071  1.00  0.00     0.041 A 
ATOM     64  F   UNL     1      12.280   6.443   8.427  1.00  0.00    -0.206 F 
ATOM     65  C   UNL     1      11.973   9.096  10.870  1.00  0.00     0.022 A 
BRANCH  62  66
ATOM     66  S   UNL     1       9.878  10.706  11.764  1.00  0.00     0.124 S 
ATOM     67  O   UNL     1       9.554  11.700  10.746  1.00  0.00    -0.237 OA
ATOM     68  O   UNL     1       8.739  10.045  12.395  1.00  0.00    -0.237 OA
ATOM     69  O   UNL     1      10.956  11.080  12.677  1.00  0.00    -0.744 OA
ENDBRANCH  62  66
ENDBRANCH  36  59
ENDBRANCH  10  11
ENDBRANCH   3   5
ENDBRANCH   2   3
ENDBRANCH   1   2
BRANCH   1  70
ATOM     70  C   UNL     1       3.793   0.967  -2.607  1.00  0.00     0.275 C 
BRANCH  70  71
ATOM     71  O   UNL     1       3.382   1.929  -1.625  1.00  0.00    -0.458 OA
BRANCH  71  72
ATOM     72  C   UNL     1       2.037   2.032  -1.406  1.00  0.00     0.339 C 
ATOM     73  O   UNL     1       1.180   1.400  -2.011  1.00  0.00    -0.246 OA
BRANCH  72  74
ATOM     74  C   UNL     1       1.721   2.912  -0.287  1.00  0.00     0.072 A 
ATOM     75  C   UNL     1       2.424   4.055   0.036  1.00  0.00     0.082 A 
ATOM     76  C   UNL     1       0.666   2.680   0.666  1.00  0.00     0.050 A 
ATOM     77  S   UNL     1       1.855   4.792   1.469  1.00  0.00    -0.130 S 
ATOM     78  C   UNL     1       0.708   3.544   1.745  1.00  0.00     0.141 A 
BRANCH  78  79
ATOM     79  S   UNL     1      -0.082   3.610   3.340  1.00  0.00     0.271 S 
ATOM     80  O   UNL     1       0.943   3.250   4.295  1.00  0.00    -0.200 OA
ATOM     81  O   UNL     1      -0.748   4.894   3.397  1.00  0.00    -0.200 OA
BRANCH  79  82
ATOM     82  N   UNL     1      -1.314   2.456   3.507  1.00  0.00    -0.279 N 
ATOM     83  H   UNL     1      -2.193   2.717   3.866  1.00  0.00     0.180 HD
BRANCH  82  84
ATOM     84  C   UNL     1      -1.069   1.105   3.125  1.00  0.00     0.049 A 
ATOM     85  C   UNL     1      -0.121   0.289   3.743  1.00  0.00     0.030 A 
ATOM     86  C   UNL     1      -1.900   0.589   2.127  1.00  0.00     0.030 A 
ATOM     87  C   UNL     1       0.032  -1.034   3.311  1.00  0.00     0.041 A 
ATOM     88  C   UNL     1      -1.744  -0.727   1.696  1.00  0.00     0.041 A 
ATOM     89  C   UNL     1      -0.776  -1.527   2.290  1.00  0.00     0.123 A 
ATOM     90  F   UNL     1      -0.635  -2.795   1.883  1.00  0.00    -0.207 F 
ENDBRANCH  82  84
ENDBRANCH  79  82
ENDBRANCH  78  79
ENDBRANCH  72  74
ENDBRANCH  71  72
ENDBRANCH  70  71
ENDBRANCH   1  70
TORSDOF 17
