REMARK SMILES CCc1c(Cl)ccc2c1C=C(C(=O)OCCOC(=O)c1ccc(-c3c4nc(c(-c5cc(S(=O)(=O)[O-])ccc5F)c5ccc([nH]5)c(-c5cc(S(=O)(=O)[O-])ccc5F)c5nc(c(-c6cc(S(=O)(=O)[O-])ccc6F)c6ccc3[nH]6)C=C5)C=C4)cc1)[C@@H](C(F)(F)F)O2
REMARK SMILES IDX 16 1 15 2 14 3 12 4 13 5 11 6 3 7 4 8 9 9 5 10 6 11 8 12
REMARK SMILES IDX 10 13 7 14 88 15 83 16 2 17 1 18 84 19 85 20 86 21 87 22
REMARK SMILES IDX 17 23 18 24 19 25 20 26 21 27 82 28 22 29 81 30 23 31 24 32
REMARK SMILES IDX 25 33 75 34 26 35 80 36 74 37 76 38 27 39 79 40 73 41 72 42
REMARK SMILES IDX 28 44 60 45 40 46 59 47 41 48 44 49 58 50 77 51 42 52 43 53
REMARK SMILES IDX 57 55 78 56 45 57 29 58 30 59 38 60 31 61 37 62 39 63 36 64
REMARK SMILES IDX 32 65 33 66 34 67 35 68 61 69 62 70 70 71 63 72 69 73 71 74
REMARK SMILES IDX 68 75 64 76 65 77 66 78 67 79 46 80 47 81 55 82 48 83 54 84
REMARK SMILES IDX 56 85 53 86 49 87 50 88 51 89 52 90
REMARK H PARENT 76 43 44 54
REMARK Flexibility Score: inf
ROOT
ATOM      1  C   UNL     1       1.318  -7.869   3.897  1.00  0.00     0.275 C 
ENDROOT
BRANCH   1   2
ATOM      2  C   UNL     1       2.567  -7.147   4.401  1.00  0.00     0.275 C 
BRANCH   2   3
ATOM      3  O   UNL     1       2.294  -5.760   4.701  1.00  0.00    -0.459 OA
BRANCH   3   4
ATOM      4  C   UNL     1       2.765  -4.860   3.804  1.00  0.00     0.338 C 
ATOM      5  O   UNL     1       3.397  -5.107   2.790  1.00  0.00    -0.246 OA
BRANCH   4   6
ATOM      6  C   UNL     1       2.418  -3.486   4.220  1.00  0.00     0.087 C 
ATOM      7  C   UNL     1       0.921  -0.353   2.803  1.00  0.00    -0.019 A 
ATOM      8  C   UNL     1       0.753   0.976   3.254  1.00  0.00     0.045 A 
ATOM      9  C   UNL     1       1.556  -1.278   3.684  1.00  0.00     0.022 A 
ATOM     10  Cl  UNL     1      -0.046   2.193   2.318  1.00  0.00    -0.084 Cl
ATOM     11  C   UNL     1       1.201   1.376   4.515  1.00  0.00     0.024 A 
ATOM     12  C   UNL     1       1.960  -0.864   4.966  1.00  0.00     0.128 A 
ATOM     13  C   UNL     1       1.831  -2.671   3.334  1.00  0.00     0.027 C 
ATOM     14  C   UNL     1       1.792   0.457   5.372  1.00  0.00     0.048 A 
ATOM     15  O   UNL     1       2.509  -1.679   5.918  1.00  0.00    -0.475 OA
ATOM     16  C   UNL     1       2.859  -3.042   5.578  1.00  0.00     0.316 C 
BRANCH   7  17
ATOM     17  C   UNL     1       0.387  -0.753   1.433  1.00  0.00     0.034 C 
ATOM     18  C   UNL     1       1.180  -0.202   0.252  1.00  0.00     0.009 C 
ENDBRANCH   7  17
BRANCH  16  19
ATOM     19  C   UNL     1       4.376  -3.214   5.766  1.00  0.00     0.430 C 
ATOM     20  F   UNL     1       4.772  -2.780   6.988  1.00  0.00    -0.167 F 
ATOM     21  F   UNL     1       4.745  -4.516   5.688  1.00  0.00    -0.167 F 
ATOM     22  F   UNL     1       5.090  -2.533   4.843  1.00  0.00    -0.167 F 
ENDBRANCH  16  19
ENDBRANCH   4   6
ENDBRANCH   3   4
ENDBRANCH   2   3
ENDBRANCH   1   2
BRANCH   1  23
ATOM     23  O   UNL     1       0.948  -7.373   2.600  1.00  0.00    -0.458 OA
BRANCH  23  24
ATOM     24  C   UNL     1      -0.114  -6.534   2.581  1.00  0.00     0.338 C 
ATOM     25  O   UNL     1      -0.815  -6.202   3.519  1.00  0.00    -0.246 OA
BRANCH  24  26
ATOM     26  C   UNL     1      -0.259  -5.988   1.224  1.00  0.00     0.060 A 
ATOM     27  C   UNL     1      -1.339  -6.329   0.419  1.00  0.00     0.016 A 
ATOM     28  C   UNL     1       0.655  -5.030   0.800  1.00  0.00     0.016 A 
ATOM     29  C   UNL     1      -1.476  -5.711  -0.831  1.00  0.00     0.010 A 
ATOM     30  C   UNL     1       0.436  -4.318  -0.371  1.00  0.00     0.010 A 
ATOM     31  C   UNL     1      -0.609  -4.673  -1.228  1.00  0.00    -0.014 A 
BRANCH  31  32
ATOM     32  C   UNL     1      -0.764  -3.958  -2.528  1.00  0.00     0.031 A 
ATOM     33  C   UNL     1       0.392  -3.864  -3.498  1.00  0.00     0.074 A 
ATOM     34  C   UNL     1      -1.923  -3.326  -2.807  1.00  0.00     0.049 A 
ATOM     35  N   UNL     1       0.457  -3.239  -4.646  1.00  0.00    -0.248 NA
ATOM     36  C   UNL     1       1.657  -4.511  -3.110  1.00  0.00     0.031 C 
ATOM     37  C   UNL     1      -3.075  -3.249  -1.907  1.00  0.00     0.029 A 
ATOM     38  N   UNL     1      -2.331  -2.635  -3.922  1.00  0.00    -0.354 N 
ATOM     39  C   UNL     1       1.768  -3.388  -5.089  1.00  0.00     0.074 A 
ATOM     40  C   UNL     1       2.486  -4.087  -4.051  1.00  0.00     0.031 C 
ATOM     41  C   UNL     1      -4.079  -2.615  -2.529  1.00  0.00     0.029 A 
ATOM     42  C   UNL     1      -3.633  -2.191  -3.853  1.00  0.00     0.049 A 
ATOM     43  H   UNL     1      -1.748  -2.472  -4.698  1.00  0.00     0.167 HD
ATOM     44  C   UNL     1       2.314  -3.022  -6.274  1.00  0.00     0.034 A 
ATOM     45  C   UNL     1      -4.389  -1.530  -4.756  1.00  0.00     0.034 A 
ATOM     46  C   UNL     1       1.560  -2.401  -7.331  1.00  0.00     0.049 A 
ATOM     47  C   UNL     1      -3.791  -1.207  -6.102  1.00  0.00     0.074 A 
ATOM     48  C   UNL     1       1.984  -2.082  -8.608  1.00  0.00     0.029 A 
ATOM     49  N   UNL     1       0.226  -2.029  -7.246  1.00  0.00    -0.354 N 
ATOM     50  N   UNL     1      -2.580  -1.454  -6.544  1.00  0.00    -0.248 NA
ATOM     51  C   UNL     1      -4.656  -0.530  -7.079  1.00  0.00     0.031 C 
ATOM     52  C   UNL     1       0.925  -1.472  -9.277  1.00  0.00     0.029 A 
ATOM     53  C   UNL     1      -0.184  -1.474  -8.445  1.00  0.00     0.049 A 
ATOM     54  H   UNL     1      -0.344  -2.143  -6.451  1.00  0.00     0.167 HD
ATOM     55  C   UNL     1      -2.546  -0.989  -7.855  1.00  0.00     0.074 A 
ATOM     56  C   UNL     1      -3.864  -0.465  -8.144  1.00  0.00     0.031 C 
ATOM     57  C   UNL     1      -1.513  -0.989  -8.734  1.00  0.00     0.034 A 
BRANCH  44  58
ATOM     58  C   UNL     1       3.769  -3.335  -6.540  1.00  0.00     0.023 A 
ATOM     59  C   UNL     1       4.674  -2.299  -6.844  1.00  0.00     0.031 A 
ATOM     60  C   UNL     1       4.232  -4.662  -6.627  1.00  0.00     0.131 A 
ATOM     61  C   UNL     1       5.980  -2.609  -7.247  1.00  0.00     0.055 A 
ATOM     62  C   UNL     1       5.548  -4.962  -6.977  1.00  0.00     0.041 A 
ATOM     63  F   UNL     1       3.409  -5.690  -6.362  1.00  0.00    -0.206 F 
ATOM     64  C   UNL     1       6.425  -3.934  -7.303  1.00  0.00     0.022 A 
BRANCH  61  65
ATOM     65  S   UNL     1       7.131  -1.316  -7.789  1.00  0.00     0.124 S 
ATOM     66  O   UNL     1       8.245  -1.497  -6.860  1.00  0.00    -0.237 OA
ATOM     67  O   UNL     1       7.402  -1.708  -9.169  1.00  0.00    -0.237 OA
ATOM     68  O   UNL     1       6.377  -0.079  -7.620  1.00  0.00    -0.744 OA
ENDBRANCH  61  65
ENDBRANCH  44  58
BRANCH  45  69
ATOM     69  C   UNL     1      -5.819  -1.244  -4.432  1.00  0.00     0.023 A 
ATOM     70  C   UNL     1      -6.173  -0.417  -3.350  1.00  0.00     0.031 A 
ATOM     71  C   UNL     1      -6.851  -1.903  -5.122  1.00  0.00     0.131 A 
ATOM     72  C   UNL     1      -7.513  -0.333  -2.946  1.00  0.00     0.055 A 
ATOM     73  C   UNL     1      -8.192  -1.757  -4.763  1.00  0.00     0.041 A 
ATOM     74  F   UNL     1      -6.565  -2.717  -6.150  1.00  0.00    -0.206 F 
ATOM     75  C   UNL     1      -8.527  -0.983  -3.656  1.00  0.00     0.022 A 
BRANCH  72  76
ATOM     76  S   UNL     1      -7.970   0.501  -1.399  1.00  0.00     0.124 S 
ATOM     77  O   UNL     1      -8.864   1.552  -1.873  1.00  0.00    -0.237 OA
ATOM     78  O   UNL     1      -8.607  -0.582  -0.654  1.00  0.00    -0.237 OA
ATOM     79  O   UNL     1      -6.691   0.953  -0.862  1.00  0.00    -0.744 OA
ENDBRANCH  72  76
ENDBRANCH  45  69
BRANCH  57  80
ATOM     80  C   UNL     1      -1.728  -0.430 -10.119  1.00  0.00     0.023 A 
ATOM     81  C   UNL     1      -1.573  -1.270 -11.240  1.00  0.00     0.031 A 
ATOM     82  C   UNL     1      -1.874   0.950 -10.333  1.00  0.00     0.131 A 
ATOM     83  C   UNL     1      -1.502  -0.711 -12.522  1.00  0.00     0.055 A 
ATOM     84  C   UNL     1      -1.855   1.495 -11.617  1.00  0.00     0.041 A 
ATOM     85  F   UNL     1      -2.011   1.790  -9.295  1.00  0.00    -0.206 F 
ATOM     86  C   UNL     1      -1.649   0.666 -12.717  1.00  0.00     0.022 A 
BRANCH  83  87
ATOM     87  S   UNL     1      -1.107  -1.735 -13.966  1.00  0.00     0.124 S 
ATOM     88  O   UNL     1      -2.267  -1.508 -14.825  1.00  0.00    -0.237 OA
ATOM     89  O   UNL     1       0.141  -1.138 -14.433  1.00  0.00    -0.237 OA
ATOM     90  O   UNL     1      -0.994  -3.085 -13.423  1.00  0.00    -0.744 OA
ENDBRANCH  83  87
ENDBRANCH  57  80
ENDBRANCH  31  32
ENDBRANCH  24  26
ENDBRANCH  23  24
ENDBRANCH   1  23
TORSDOF 16
