REMARK SMILES O=C(OCCOC(=O)c1ccc(-c2c3nc(c(-c4cc(S(=O)(=O)[O-])ccc4F)c4ccc([nH]4)c(-c4cc(S(=O)(=O)[O-])ccc4F)c4nc(c(-c5cc(S(=O)(=O)[O-])ccc5F)c5ccc2[nH]5)C=C4)C=C3)cc1)C1=Cc2cc(Cl)c(Cl)cc2O[C@@H]1C(F)(F)F
REMARK SMILES IDX 5 1 4 2 3 3 2 4 1 5 72 6 73 7 83 8 74 9 82 10 75 11 81 12
REMARK SMILES IDX 76 13 80 14 77 15 78 16 79 17 84 18 85 19 86 20 87 21 6 22
REMARK SMILES IDX 7 23 8 24 9 25 10 26 71 27 11 28 70 29 12 30 13 31 14 32
REMARK SMILES IDX 64 33 15 34 69 35 63 36 65 37 16 38 68 39 62 40 61 41 17 43
REMARK SMILES IDX 49 44 29 45 48 46 30 47 33 48 47 49 66 50 31 51 32 52 46 54
REMARK SMILES IDX 67 55 34 56 18 57 19 58 27 59 20 60 26 61 28 62 25 63 21 64
REMARK SMILES IDX 22 65 23 66 24 67 50 68 51 69 59 70 52 71 58 72 60 73 57 74
REMARK SMILES IDX 53 75 54 76 55 77 56 78 35 79 36 80 44 81 37 82 43 83 45 84
REMARK SMILES IDX 42 85 38 86 39 87 40 88 41 89
REMARK H PARENT 65 42 33 53
REMARK Flexibility Score: inf
ROOT
ATOM      1  C   UNL     1       4.799   0.734  -0.635  1.00  0.00     0.275 C 
ENDROOT
BRANCH   1   2
ATOM      2  C   UNL     1       4.016  -0.411   1.024  1.00  0.00     0.275 C 
BRANCH   2   3
ATOM      3  O   UNL     1       3.165   0.135   2.204  1.00  0.00    -0.459 OA
BRANCH   3   4
ATOM      4  C   UNL     1       3.377   1.435   2.446  1.00  0.00     0.338 C 
ATOM      5  O   UNL     1       2.811   2.185   3.198  1.00  0.00    -0.246 OA
BRANCH   4   6
ATOM      6  C   UNL     1       4.203   1.650   1.283  1.00  0.00     0.087 C 
ATOM      7  C   UNL     1       5.572   1.168   1.472  1.00  0.00     0.027 C 
ATOM      8  C   UNL     1       2.932   0.956   0.009  1.00  0.00     0.316 C 
ATOM      9  C   UNL     1       6.215  -0.302   0.665  1.00  0.00     0.019 A 
ATOM     10  O   UNL     1       3.583  -0.668  -0.817  1.00  0.00    -0.475 OA
ATOM     11  C   UNL     1       7.424  -0.776   1.089  1.00  0.00     0.034 A 
ATOM     12  C   UNL     1       5.249  -1.284  -0.386  1.00  0.00     0.129 A 
ATOM     13  C   UNL     1       7.751  -2.065   0.632  1.00  0.00     0.060 A 
ATOM     14  C   UNL     1       5.637  -2.531  -0.792  1.00  0.00     0.069 A 
ATOM     15  Cl  UNL     1       9.274  -2.663   1.245  1.00  0.00    -0.083 Cl
ATOM     16  C   UNL     1       6.904  -2.897  -0.246  1.00  0.00     0.063 A 
ATOM     17  Cl  UNL     1       7.457  -4.509  -0.629  1.00  0.00    -0.083 Cl
BRANCH   8  18
ATOM     18  C   UNL     1       2.484   2.382  -0.528  1.00  0.00     0.430 C 
ATOM     19  F   UNL     1       1.203   2.380  -0.912  1.00  0.00    -0.167 F 
ATOM     20  F   UNL     1       2.504   3.265   0.518  1.00  0.00    -0.167 F 
ATOM     21  F   UNL     1       3.271   2.992  -1.428  1.00  0.00    -0.167 F 
ENDBRANCH   8  18
ENDBRANCH   4   6
ENDBRANCH   3   4
ENDBRANCH   2   3
ENDBRANCH   1   2
BRANCH   1  22
ATOM     22  O   UNL     1       3.963   1.014  -2.138  1.00  0.00    -0.458 OA
BRANCH  22  23
ATOM     23  C   UNL     1       3.049   0.476  -3.019  1.00  0.00     0.338 C 
ATOM     24  O   UNL     1       2.631  -0.665  -3.094  1.00  0.00    -0.246 OA
BRANCH  23  25
ATOM     25  C   UNL     1       2.332   1.644  -3.636  1.00  0.00     0.060 A 
ATOM     26  C   UNL     1       0.976   1.852  -3.320  1.00  0.00     0.016 A 
ATOM     27  C   UNL     1       3.076   2.696  -4.167  1.00  0.00     0.016 A 
ATOM     28  C   UNL     1       0.458   3.166  -3.286  1.00  0.00     0.010 A 
ATOM     29  C   UNL     1       2.551   3.995  -4.147  1.00  0.00     0.010 A 
ATOM     30  C   UNL     1       1.274   4.258  -3.618  1.00  0.00    -0.014 A 
BRANCH  30  31
ATOM     31  C   UNL     1       0.764   5.662  -3.626  1.00  0.00     0.031 A 
ATOM     32  C   UNL     1       0.159   6.127  -4.917  1.00  0.00     0.074 A 
ATOM     33  C   UNL     1       0.907   6.533  -2.599  1.00  0.00     0.049 A 
ATOM     34  N   UNL     1      -0.231   7.319  -5.278  1.00  0.00    -0.248 NA
ATOM     35  C   UNL     1       0.014   5.094  -5.955  1.00  0.00     0.031 C 
ATOM     36  C   UNL     1       1.469   6.226  -1.283  1.00  0.00     0.029 A 
ATOM     37  N   UNL     1       0.605   7.879  -2.509  1.00  0.00    -0.354 N 
ATOM     38  C   UNL     1      -0.665   7.178  -6.590  1.00  0.00     0.074 A 
ATOM     39  C   UNL     1      -0.432   5.804  -6.974  1.00  0.00     0.031 C 
ATOM     40  C   UNL     1       1.483   7.345  -0.529  1.00  0.00     0.029 A 
ATOM     41  C   UNL     1       0.959   8.467  -1.307  1.00  0.00     0.049 A 
ATOM     42  H   UNL     1       0.174   8.378  -3.240  1.00  0.00     0.167 HD
ATOM     43  C   UNL     1      -1.225   8.103  -7.402  1.00  0.00     0.034 A 
ATOM     44  C   UNL     1       0.881   9.758  -0.898  1.00  0.00     0.034 A 
ATOM     45  C   UNL     1      -1.422   9.477  -7.033  1.00  0.00     0.049 A 
ATOM     46  C   UNL     1       0.330  10.797  -1.864  1.00  0.00     0.074 A 
ATOM     47  C   UNL     1      -1.978  10.496  -7.783  1.00  0.00     0.029 A 
ATOM     48  N   UNL     1      -1.052  10.028  -5.815  1.00  0.00    -0.354 N 
ATOM     49  N   UNL     1      -0.132  10.633  -3.084  1.00  0.00    -0.248 NA
ATOM     50  C   UNL     1       0.286  12.193  -1.398  1.00  0.00     0.031 C 
ATOM     51  C   UNL     1      -1.881  11.679  -7.045  1.00  0.00     0.029 A 
ATOM     52  C   UNL     1      -1.340  11.382  -5.803  1.00  0.00     0.049 A 
ATOM     53  H   UNL     1      -0.644   9.531  -5.069  1.00  0.00     0.167 HD
ATOM     54  C   UNL     1      -0.561  11.893  -3.504  1.00  0.00     0.074 A 
ATOM     55  C   UNL     1      -0.318  12.803  -2.407  1.00  0.00     0.031 C 
ATOM     56  C   UNL     1      -1.108  12.269  -4.689  1.00  0.00     0.034 A 
BRANCH  43  57
ATOM     57  C   UNL     1      -1.608   7.637  -8.780  1.00  0.00     0.023 A 
ATOM     58  C   UNL     1      -2.591   6.647  -8.963  1.00  0.00     0.031 A 
ATOM     59  C   UNL     1      -0.921   8.109  -9.909  1.00  0.00     0.131 A 
ATOM     60  C   UNL     1      -2.790   6.093 -10.233  1.00  0.00     0.055 A 
ATOM     61  C   UNL     1      -1.191   7.617 -11.186  1.00  0.00     0.041 A 
ATOM     62  F   UNL     1       0.050   9.028  -9.785  1.00  0.00    -0.206 F 
ATOM     63  C   UNL     1      -2.118   6.590 -11.352  1.00  0.00     0.022 A 
BRANCH  60  64
ATOM     64  S   UNL     1      -3.814   4.603 -10.371  1.00  0.00     0.124 S 
ATOM     65  O   UNL     1      -3.047   3.647  -9.575  1.00  0.00    -0.237 OA
ATOM     66  O   UNL     1      -5.084   5.035  -9.799  1.00  0.00    -0.237 OA
ATOM     67  O   UNL     1      -3.834   4.334 -11.807  1.00  0.00    -0.744 OA
ENDBRANCH  60  64
ENDBRANCH  43  57
BRANCH  44  68
ATOM     68  C   UNL     1       1.363  10.209   0.456  1.00  0.00     0.023 A 
ATOM     69  C   UNL     1       0.500  10.863   1.360  1.00  0.00     0.031 A 
ATOM     70  C   UNL     1       2.723  10.137   0.805  1.00  0.00     0.131 A 
ATOM     71  C   UNL     1       1.015  11.482   2.515  1.00  0.00     0.055 A 
ATOM     72  C   UNL     1       3.220  10.698   1.988  1.00  0.00     0.041 A 
ATOM     73  F   UNL     1       3.606   9.546  -0.016  1.00  0.00    -0.206 F 
ATOM     74  C   UNL     1       2.368  11.393   2.841  1.00  0.00     0.022 A 
BRANCH  71  75
ATOM     75  S   UNL     1      -0.083  12.534   3.515  1.00  0.00     0.124 S 
ATOM     76  O   UNL     1      -0.541  13.505   2.528  1.00  0.00    -0.237 OA
ATOM     77  O   UNL     1      -1.077  11.575   3.984  1.00  0.00    -0.237 OA
ATOM     78  O   UNL     1       0.802  13.066   4.549  1.00  0.00    -0.744 OA
ENDBRANCH  71  75
ENDBRANCH  44  68
BRANCH  56  79
ATOM     79  C   UNL     1      -1.545  13.707  -4.838  1.00  0.00     0.023 A 
ATOM     80  C   UNL     1      -0.625  14.769  -4.860  1.00  0.00     0.031 A 
ATOM     81  C   UNL     1      -2.910  14.011  -4.998  1.00  0.00     0.131 A 
ATOM     82  C   UNL     1      -1.085  16.088  -4.997  1.00  0.00     0.055 A 
ATOM     83  C   UNL     1      -3.355  15.318  -5.198  1.00  0.00     0.041 A 
ATOM     84  F   UNL     1      -3.834  13.036  -4.986  1.00  0.00    -0.206 F 
ATOM     85  C   UNL     1      -2.441  16.367  -5.187  1.00  0.00     0.022 A 
BRANCH  82  86
ATOM     86  S   UNL     1       0.107  17.447  -4.848  1.00  0.00     0.124 S 
ATOM     87  O   UNL     1       0.652  17.229  -3.512  1.00  0.00    -0.237 OA
ATOM     88  O   UNL     1       1.018  17.188  -5.958  1.00  0.00    -0.237 OA
ATOM     89  O   UNL     1      -0.719  18.645  -4.993  1.00  0.00    -0.744 OA
ENDBRANCH  82  86
ENDBRANCH  56  79
ENDBRANCH  30  31
ENDBRANCH  23  25
ENDBRANCH  22  23
ENDBRANCH   1  22
TORSDOF 15
