REMARK SMILES CC[C@@H](O)C[NH+]1CC(n2cc(C(=O)OCCOC(=O)c3ccc(-c4c5nc(c(-c6cc(S(=O)(=O)[O-])ccc6F)c6ccc([nH]6)c(-c6cc(S(=O)(=O)[O-])ccc6F)c6nc(c(-c7cc(S(=O)(=O)[O-])ccc7F)c7ccc4[nH]7)C=C6)C=C5)cc3)nn2)C1
REMARK SMILES IDX 15 1 14 2 12 3 13 4 11 5 9 6 10 7 84 8 83 9 8 10 6 11 7 12
REMARK SMILES IDX 85 13 5 15 3 16 2 17 1 18 4 19 16 21 17 22 18 23 19 24 20 25
REMARK SMILES IDX 21 26 82 27 22 28 81 29 23 30 24 31 25 32 75 33 26 34 80 35
REMARK SMILES IDX 74 36 76 37 27 38 79 39 73 40 72 41 28 43 60 44 40 45 59 46
REMARK SMILES IDX 41 47 44 48 58 49 77 50 42 51 43 52 57 54 78 55 45 56 29 57
REMARK SMILES IDX 30 58 38 59 31 60 37 61 39 62 36 63 32 64 33 65 34 66 35 67
REMARK SMILES IDX 61 68 62 69 70 70 63 71 69 72 71 73 68 74 64 75 65 76 66 77
REMARK SMILES IDX 67 78 46 79 47 80 55 81 48 82 54 83 56 84 53 85 49 86 50 87
REMARK SMILES IDX 51 88 52 89
REMARK H PARENT 6 14 4 20 76 42 44 53
REMARK Flexibility Score: inf
ROOT
ATOM      1  C   UNL     1       6.524   5.749  -0.390  1.00  0.00     0.275 C 
ENDROOT
BRANCH   1   2
ATOM      2  O   UNL     1       5.525   4.886  -0.954  1.00  0.00    -0.457 OA
BRANCH   2   3
ATOM      3  C   UNL     1       4.263   5.005  -0.433  1.00  0.00     0.360 C 
ATOM      4  O   UNL     1       4.007   5.592   0.617  1.00  0.00    -0.244 OA
BRANCH   3   5
ATOM      5  C   UNL     1       3.257   4.380  -1.274  1.00  0.00     0.190 A 
ATOM      6  N   UNL     1       2.187   3.350  -2.851  1.00  0.00    -0.237 N 
ATOM      7  C   UNL     1       3.440   3.747  -2.489  1.00  0.00     0.147 A 
ATOM      8  N   UNL     1       1.277   3.708  -1.930  1.00  0.00    -0.066 NA
ATOM      9  N   UNL     1       1.917   4.359  -0.966  1.00  0.00    -0.123 NA
BRANCH   6  10
ATOM     10  C   UNL     1       1.916   2.525  -3.986  1.00  0.00     0.218 C 
ATOM     11  N   UNL     1       1.203   0.581  -4.338  1.00  0.00    -0.329 N 
ATOM     12  C   UNL     1       0.526   1.863  -4.044  1.00  0.00     0.296 C 
ATOM     13  C   UNL     1       2.463   1.094  -3.778  1.00  0.00     0.296 C 
ATOM     14  H   UNL     1       1.195   0.197  -5.283  1.00  0.00     0.348 HD
BRANCH  11  15
ATOM     15  C   UNL     1       0.628  -0.572  -3.628  1.00  0.00     0.294 C 
BRANCH  15  16
ATOM     16  C   UNL     1       0.986  -0.942  -2.160  1.00  0.00     0.169 C 
BRANCH  16  17
ATOM     17  C   UNL     1       0.491   0.058  -1.111  1.00  0.00     0.034 C 
ATOM     18  C   UNL     1       1.037  -0.227   0.283  1.00  0.00     0.007 C 
ENDBRANCH  16  17
BRANCH  16  19
ATOM     19  O   UNL     1       0.401  -2.226  -1.886  1.00  0.00    -0.387 OA
ATOM     20  H   UNL     1      -0.564  -2.166  -1.969  1.00  0.00     0.211 HD
ENDBRANCH  16  19
ENDBRANCH  15  16
ENDBRANCH  11  15
ENDBRANCH   6  10
ENDBRANCH   3   5
ENDBRANCH   2   3
ENDBRANCH   1   2
BRANCH   1  21
ATOM     21  C   UNL     1       6.581   7.069  -1.142  1.00  0.00     0.275 C 
BRANCH  21  22
ATOM     22  O   UNL     1       5.416   7.852  -0.888  1.00  0.00    -0.458 OA
BRANCH  22  23
ATOM     23  C   UNL     1       4.444   7.756  -1.827  1.00  0.00     0.338 C 
ATOM     24  O   UNL     1       4.285   6.843  -2.619  1.00  0.00    -0.246 OA
BRANCH  23  25
ATOM     25  C   UNL     1       3.747   9.042  -1.919  1.00  0.00     0.060 A 
ATOM     26  C   UNL     1       2.674   9.138  -2.810  1.00  0.00     0.016 A 
ATOM     27  C   UNL     1       4.357  10.178  -1.368  1.00  0.00     0.016 A 
ATOM     28  C   UNL     1       2.329  10.386  -3.289  1.00  0.00     0.010 A 
ATOM     29  C   UNL     1       4.033  11.413  -1.869  1.00  0.00     0.010 A 
ATOM     30  C   UNL     1       3.076  11.494  -2.876  1.00  0.00    -0.014 A 
BRANCH  30  31
ATOM     31  C   UNL     1       2.751  12.804  -3.400  1.00  0.00     0.031 A 
ATOM     32  C   UNL     1       1.513  13.347  -2.795  1.00  0.00     0.074 A 
ATOM     33  C   UNL     1       3.589  13.490  -4.203  1.00  0.00     0.049 A 
ATOM     34  N   UNL     1       0.364  13.499  -3.362  1.00  0.00    -0.248 NA
ATOM     35  C   UNL     1       1.478  13.515  -1.330  1.00  0.00     0.031 C 
ATOM     36  C   UNL     1       4.945  13.123  -4.619  1.00  0.00     0.029 A 
ATOM     37  N   UNL     1       3.439  14.728  -4.741  1.00  0.00    -0.354 N 
ATOM     38  C   UNL     1      -0.459  14.043  -2.384  1.00  0.00     0.074 A 
ATOM     39  C   UNL     1       0.185  13.769  -1.132  1.00  0.00     0.031 C 
ATOM     40  C   UNL     1       5.566  14.211  -5.136  1.00  0.00     0.029 A 
ATOM     41  C   UNL     1       4.617  15.312  -5.203  1.00  0.00     0.049 A 
ATOM     42  H   UNL     1       2.565  15.178  -4.800  1.00  0.00     0.167 HD
ATOM     43  C   UNL     1      -1.428  14.940  -2.714  1.00  0.00     0.034 A 
ATOM     44  C   UNL     1       4.805  16.620  -5.545  1.00  0.00     0.034 A 
ATOM     45  C   UNL     1      -1.707  14.882  -4.135  1.00  0.00     0.049 A 
ATOM     46  C   UNL     1       3.455  17.184  -5.812  1.00  0.00     0.074 A 
ATOM     47  C   UNL     1      -2.131  13.886  -4.994  1.00  0.00     0.029 A 
ATOM     48  N   UNL     1      -1.155  15.857  -4.939  1.00  0.00    -0.354 N 
ATOM     49  N   UNL     1       2.706  16.788  -6.807  1.00  0.00    -0.248 NA
ATOM     50  C   UNL     1       2.727  17.774  -4.695  1.00  0.00     0.031 C 
ATOM     51  C   UNL     1      -1.375  14.084  -6.187  1.00  0.00     0.029 A 
ATOM     52  C   UNL     1      -0.606  15.240  -6.037  1.00  0.00     0.049 A 
ATOM     53  H   UNL     1      -1.155  16.825  -4.759  1.00  0.00     0.167 HD
ATOM     54  C   UNL     1       1.431  16.663  -6.273  1.00  0.00     0.074 A 
ATOM     55  C   UNL     1       1.487  17.372  -4.994  1.00  0.00     0.031 C 
ATOM     56  C   UNL     1       0.543  15.747  -6.766  1.00  0.00     0.034 A 
BRANCH  43  57
ATOM     57  C   UNL     1      -1.800  16.144  -1.870  1.00  0.00     0.023 A 
ATOM     58  C   UNL     1      -2.741  17.027  -2.429  1.00  0.00     0.031 A 
ATOM     59  C   UNL     1      -1.099  16.636  -0.743  1.00  0.00     0.131 A 
ATOM     60  C   UNL     1      -2.839  18.355  -1.986  1.00  0.00     0.055 A 
ATOM     61  C   UNL     1      -1.250  17.940  -0.263  1.00  0.00     0.041 A 
ATOM     62  F   UNL     1      -0.174  15.932  -0.085  1.00  0.00    -0.206 F 
ATOM     63  C   UNL     1      -2.092  18.823  -0.911  1.00  0.00     0.022 A 
BRANCH  60  64
ATOM     64  S   UNL     1      -3.813  19.510  -2.982  1.00  0.00     0.124 S 
ATOM     65  O   UNL     1      -3.221  19.322  -4.302  1.00  0.00    -0.237 OA
ATOM     66  O   UNL     1      -5.165  18.992  -2.800  1.00  0.00    -0.237 OA
ATOM     67  O   UNL     1      -3.547  20.802  -2.354  1.00  0.00    -0.744 OA
ENDBRANCH  60  64
ENDBRANCH  43  57
BRANCH  44  68
ATOM     68  C   UNL     1       6.016  17.455  -5.264  1.00  0.00     0.023 A 
ATOM     69  C   UNL     1       6.340  18.646  -5.957  1.00  0.00     0.031 A 
ATOM     70  C   UNL     1       6.778  17.180  -4.104  1.00  0.00     0.131 A 
ATOM     71  C   UNL     1       7.386  19.487  -5.488  1.00  0.00     0.055 A 
ATOM     72  C   UNL     1       7.805  18.010  -3.649  1.00  0.00     0.041 A 
ATOM     73  F   UNL     1       6.494  16.128  -3.321  1.00  0.00    -0.206 F 
ATOM     74  C   UNL     1       8.110  19.172  -4.336  1.00  0.00     0.022 A 
BRANCH  71  75
ATOM     75  S   UNL     1       7.797  21.052  -6.338  1.00  0.00     0.124 S 
ATOM     76  O   UNL     1       8.217  20.595  -7.656  1.00  0.00    -0.237 OA
ATOM     77  O   UNL     1       6.537  21.784  -6.274  1.00  0.00    -0.237 OA
ATOM     78  O   UNL     1       8.871  21.617  -5.518  1.00  0.00    -0.744 OA
ENDBRANCH  71  75
ENDBRANCH  44  68
BRANCH  56  79
ATOM     79  C   UNL     1       0.866  15.066  -8.084  1.00  0.00     0.023 A 
ATOM     80  C   UNL     1       2.011  14.273  -8.336  1.00  0.00     0.031 A 
ATOM     81  C   UNL     1      -0.116  15.129  -9.088  1.00  0.00     0.131 A 
ATOM     82  C   UNL     1       2.138  13.589  -9.563  1.00  0.00     0.055 A 
ATOM     83  C   UNL     1       0.002  14.432 -10.288  1.00  0.00     0.041 A 
ATOM     84  F   UNL     1      -1.238  15.843  -8.898  1.00  0.00    -0.206 F 
ATOM     85  C   UNL     1       1.132  13.663 -10.533  1.00  0.00     0.022 A 
BRANCH  82  86
ATOM     86  S   UNL     1       3.624  12.600  -9.938  1.00  0.00     0.124 S 
ATOM     87  O   UNL     1       4.724  13.488  -9.582  1.00  0.00    -0.237 OA
ATOM     88  O   UNL     1       3.448  11.427  -9.086  1.00  0.00    -0.237 OA
ATOM     89  O   UNL     1       3.501  12.330 -11.372  1.00  0.00    -0.744 OA
ENDBRANCH  82  86
ENDBRANCH  56  79
ENDBRANCH  30  31
ENDBRANCH  23  25
ENDBRANCH  22  23
ENDBRANCH  21  22
ENDBRANCH   1  21
TORSDOF 19
