REMARK SMILES O=C(CSc1nc2cnccc2n1Cc1cscn1)OCCOC(=O)c1ccc(-c2c3nc(c(-c4cc(S(=O)(=O)[O-])ccc4F)c4ccc([nH]4)c(-c4cc(S(=O)(=O)[O-])ccc4F)c4nc(c(-c5cc(S(=O)(=O)[O-])ccc5F)c5ccc2[nH]5)C=C4)C=C3)cc1
REMARK SMILES IDX 21 1 20 2 2 3 1 4 3 5 4 6 5 7 6 8 13 9 7 10 12 11 8 12 11 13
REMARK SMILES IDX 9 14 10 15 14 16 15 17 16 18 19 19 17 20 18 21 22 22 23 23
REMARK SMILES IDX 24 24 25 25 26 26 27 27 88 28 28 29 87 30 29 31 30 32 31 33
REMARK SMILES IDX 81 34 32 35 86 36 80 37 82 38 33 39 85 40 79 41 78 42 34 44
REMARK SMILES IDX 66 45 46 46 65 47 47 48 50 49 64 50 83 51 48 52 49 53 63 55
REMARK SMILES IDX 84 56 51 57 35 58 36 59 44 60 37 61 43 62 45 63 42 64 38 65
REMARK SMILES IDX 39 66 40 67 41 68 67 69 68 70 76 71 69 72 75 73 77 74 74 75
REMARK SMILES IDX 70 76 71 77 72 78 73 79 52 80 53 81 61 82 54 83 60 84 62 85
REMARK SMILES IDX 59 86 55 87 56 88 57 89 58 90
REMARK H PARENT 82 43 50 54
REMARK Flexibility Score: inf
ROOT
ATOM      1  C   UNL     1       4.731  -0.624   1.215  1.00  0.00     0.274 C 
ENDROOT
BRANCH   1   2
ATOM      2  O   UNL     1       3.582   0.206   0.995  1.00  0.00    -0.461 OA
BRANCH   2   3
ATOM      3  C   UNL     1       3.134   0.514  -0.250  1.00  0.00     0.316 C 
ATOM      4  O   UNL     1       2.042   1.065  -0.364  1.00  0.00    -0.251 OA
BRANCH   3   5
ATOM      5  C   UNL     1       3.995   0.154  -1.445  1.00  0.00     0.200 C 
BRANCH   5   6
ATOM      6  S   UNL     1       5.306   1.345  -1.778  1.00  0.00    -0.076 SA
BRANCH   6   7
ATOM      7  C   UNL     1       4.338   2.440  -2.696  1.00  0.00     0.170 A 
ATOM      8  N   UNL     1       3.417   2.055  -3.537  1.00  0.00    -0.221 NA
ATOM      9  N   UNL     1       4.276   3.774  -2.431  1.00  0.00    -0.313 N 
ATOM     10  C   UNL     1       2.652   3.172  -3.742  1.00  0.00     0.108 A 
ATOM     11  C   UNL     1       3.177   4.276  -3.080  1.00  0.00     0.072 A 
ATOM     12  C   UNL     1       1.510   3.355  -4.504  1.00  0.00     0.141 A 
ATOM     13  C   UNL     1       2.593   5.541  -3.139  1.00  0.00     0.049 A 
ATOM     14  N   UNL     1       0.939   4.583  -4.592  1.00  0.00    -0.262 NA
ATOM     15  C   UNL     1       1.470   5.622  -3.938  1.00  0.00     0.113 A 
BRANCH   9  16
ATOM     16  C   UNL     1       5.098   4.511  -1.500  1.00  0.00     0.181 C 
BRANCH  16  17
ATOM     17  C   UNL     1       4.519   4.494  -0.118  1.00  0.00     0.071 A 
ATOM     18  C   UNL     1       3.353   3.886   0.321  1.00  0.00     0.092 A 
ATOM     19  N   UNL     1       5.205   5.182   0.876  1.00  0.00    -0.248 NA
ATOM     20  S   UNL     1       3.146   4.107   2.003  1.00  0.00    -0.130 S 
ATOM     21  C   UNL     1       4.557   5.071   2.014  1.00  0.00     0.175 A 
ENDBRANCH  16  17
ENDBRANCH   9  16
ENDBRANCH   6   7
ENDBRANCH   5   6
ENDBRANCH   3   5
ENDBRANCH   2   3
ENDBRANCH   1   2
BRANCH   1  22
ATOM     22  C   UNL     1       4.381  -2.118   1.155  1.00  0.00     0.275 C 
BRANCH  22  23
ATOM     23  O   UNL     1       3.594  -2.417  -0.017  1.00  0.00    -0.458 OA
BRANCH  23  24
ATOM     24  C   UNL     1       2.285  -2.738   0.183  1.00  0.00     0.338 C 
ATOM     25  O   UNL     1       1.809  -3.154   1.231  1.00  0.00    -0.246 OA
BRANCH  24  26
ATOM     26  C   UNL     1       1.477  -2.241  -0.967  1.00  0.00     0.060 A 
ATOM     27  C   UNL     1       2.007  -2.130  -2.251  1.00  0.00     0.016 A 
ATOM     28  C   UNL     1       0.225  -1.668  -0.689  1.00  0.00     0.016 A 
ATOM     29  C   UNL     1       1.369  -1.299  -3.177  1.00  0.00     0.010 A 
ATOM     30  C   UNL     1      -0.428  -0.863  -1.635  1.00  0.00     0.010 A 
ATOM     31  C   UNL     1       0.172  -0.613  -2.865  1.00  0.00    -0.014 A 
BRANCH  31  32
ATOM     32  C   UNL     1      -0.445   0.200  -3.939  1.00  0.00     0.031 A 
ATOM     33  C   UNL     1      -0.496  -0.524  -5.231  1.00  0.00     0.074 A 
ATOM     34  C   UNL     1      -0.956   1.453  -3.927  1.00  0.00     0.049 A 
ATOM     35  N   UNL     1       0.195  -0.285  -6.299  1.00  0.00    -0.248 NA
ATOM     36  C   UNL     1      -1.277  -1.765  -5.258  1.00  0.00     0.031 C 
ATOM     37  C   UNL     1      -1.170   2.337  -2.781  1.00  0.00     0.029 A 
ATOM     38  N   UNL     1      -1.348   2.230  -5.005  1.00  0.00    -0.354 N 
ATOM     39  C   UNL     1      -0.193  -1.262  -7.205  1.00  0.00     0.074 A 
ATOM     40  C   UNL     1      -0.966  -2.229  -6.465  1.00  0.00     0.031 C 
ATOM     41  C   UNL     1      -1.755   3.484  -3.200  1.00  0.00     0.029 A 
ATOM     42  C   UNL     1      -1.849   3.476  -4.660  1.00  0.00     0.049 A 
ATOM     43  H   UNL     1      -1.277   1.924  -5.938  1.00  0.00     0.167 HD
ATOM     44  C   UNL     1      -0.052  -1.094  -8.546  1.00  0.00     0.034 A 
ATOM     45  C   UNL     1      -2.276   4.491  -5.461  1.00  0.00     0.034 A 
ATOM     46  C   UNL     1       0.902  -0.074  -8.881  1.00  0.00     0.049 A 
ATOM     47  C   UNL     1      -1.649   4.404  -6.823  1.00  0.00     0.074 A 
ATOM     48  C   UNL     1       2.269   0.021  -9.014  1.00  0.00     0.029 A 
ATOM     49  N   UNL     1       0.411   1.201  -8.854  1.00  0.00    -0.354 N 
ATOM     50  N   UNL     1      -0.435   4.760  -7.175  1.00  0.00    -0.248 NA
ATOM     51  C   UNL     1      -2.377   3.644  -7.836  1.00  0.00     0.031 C 
ATOM     52  C   UNL     1       2.587   1.411  -9.022  1.00  0.00     0.029 A 
ATOM     53  C   UNL     1       1.407   2.141  -8.902  1.00  0.00     0.049 A 
ATOM     54  H   UNL     1      -0.548   1.419  -8.807  1.00  0.00     0.167 HD
ATOM     55  C   UNL     1      -0.117   3.964  -8.270  1.00  0.00     0.074 A 
ATOM     56  C   UNL     1      -1.393   3.400  -8.700  1.00  0.00     0.031 C 
ATOM     57  C   UNL     1       1.152   3.538  -8.581  1.00  0.00     0.034 A 
BRANCH  44  58
ATOM     58  C   UNL     1      -1.104  -1.572  -9.525  1.00  0.00     0.023 A 
ATOM     59  C   UNL     1      -2.384  -1.995  -9.111  1.00  0.00     0.031 A 
ATOM     60  C   UNL     1      -0.943  -1.396 -10.912  1.00  0.00     0.131 A 
ATOM     61  C   UNL     1      -3.409  -2.274 -10.020  1.00  0.00     0.055 A 
ATOM     62  C   UNL     1      -1.992  -1.602 -11.822  1.00  0.00     0.041 A 
ATOM     63  F   UNL     1       0.223  -0.972 -11.424  1.00  0.00    -0.206 F 
ATOM     64  C   UNL     1      -3.232  -2.050 -11.378  1.00  0.00     0.022 A 
BRANCH  61  65
ATOM     65  S   UNL     1      -4.991  -2.936  -9.428  1.00  0.00     0.124 S 
ATOM     66  O   UNL     1      -5.933  -1.912  -9.867  1.00  0.00    -0.237 OA
ATOM     67  O   UNL     1      -5.062  -4.210 -10.140  1.00  0.00    -0.237 OA
ATOM     68  O   UNL     1      -4.798  -3.049  -7.985  1.00  0.00    -0.744 OA
ENDBRANCH  61  65
ENDBRANCH  44  58
BRANCH  45  69
ATOM     69  C   UNL     1      -3.592   5.177  -5.212  1.00  0.00     0.023 A 
ATOM     70  C   UNL     1      -4.534   4.579  -4.345  1.00  0.00     0.031 A 
ATOM     71  C   UNL     1      -4.059   6.261  -5.976  1.00  0.00     0.131 A 
ATOM     72  C   UNL     1      -5.868   5.002  -4.295  1.00  0.00     0.055 A 
ATOM     73  C   UNL     1      -5.396   6.702  -5.914  1.00  0.00     0.041 A 
ATOM     74  F   UNL     1      -3.250   6.887  -6.844  1.00  0.00    -0.206 F 
ATOM     75  C   UNL     1      -6.312   6.061  -5.080  1.00  0.00     0.022 A 
BRANCH  72  76
ATOM     76  S   UNL     1      -7.057   4.109  -3.254  1.00  0.00     0.124 S 
ATOM     77  O   UNL     1      -7.793   5.197  -2.613  1.00  0.00    -0.237 OA
ATOM     78  O   UNL     1      -7.804   3.344  -4.246  1.00  0.00    -0.237 OA
ATOM     79  O   UNL     1      -6.210   3.331  -2.355  1.00  0.00    -0.744 OA
ENDBRANCH  72  76
ENDBRANCH  45  69
BRANCH  57  80
ATOM     80  C   UNL     1       2.356   4.424  -8.362  1.00  0.00     0.023 A 
ATOM     81  C   UNL     1       3.151   4.827  -9.443  1.00  0.00     0.031 A 
ATOM     82  C   UNL     1       2.984   4.537  -7.126  1.00  0.00     0.131 A 
ATOM     83  C   UNL     1       4.401   5.440  -9.205  1.00  0.00     0.055 A 
ATOM     84  C   UNL     1       4.060   5.387  -6.858  1.00  0.00     0.041 A 
ATOM     85  F   UNL     1       2.924   3.464  -6.338  1.00  0.00    -0.206 F 
ATOM     86  C   UNL     1       4.791   5.851  -7.928  1.00  0.00     0.022 A 
BRANCH  83  87
ATOM     87  S   UNL     1       5.738   5.326 -10.433  1.00  0.00     0.124 S 
ATOM     88  O   UNL     1       6.027   6.730 -10.709  1.00  0.00    -0.237 OA
ATOM     89  O   UNL     1       6.778   4.614  -9.688  1.00  0.00    -0.237 OA
ATOM     90  O   UNL     1       5.146   4.572 -11.532  1.00  0.00    -0.744 OA
ENDBRANCH  83  87
ENDBRANCH  57  80
ENDBRANCH  31  32
ENDBRANCH  24  26
ENDBRANCH  23  24
ENDBRANCH  22  23
ENDBRANCH   1  22
TORSDOF 18
