REMARK SMILES CCCOc1ccc(C[N@H+]2CC[C@H](C(=O)OCCOC(=O)c3ccc(-c4c5nc(c(-c6cc(S(=O)(=O)[O-])ccc6F)c6ccc([nH]6)c(-c6cc(S(=O)(=O)[O-])ccc6F)c6nc(c(-c7cc(S(=O)(=O)[O-])ccc7F)c7ccc4[nH]7)C=C6)C=C5)cc3)[C@@H]2C)cc1
REMARK SMILES IDX 17 1 16 2 14 3 15 4 13 5 10 6 11 7 85 8 12 10 86 11 9 12
REMARK SMILES IDX 8 13 5 14 6 15 88 16 7 17 87 18 4 19 3 20 2 21 1 22 18 23
REMARK SMILES IDX 19 24 20 25 21 26 22 27 23 28 84 29 24 30 83 31 25 32 26 33
REMARK SMILES IDX 27 34 77 35 28 36 82 37 76 38 78 39 29 40 81 41 75 42 74 43
REMARK SMILES IDX 30 45 62 46 42 47 61 48 43 49 46 50 60 51 79 52 44 53 45 54
REMARK SMILES IDX 59 56 80 57 47 58 31 59 32 60 40 61 33 62 39 63 41 64 38 65
REMARK SMILES IDX 34 66 35 67 36 68 37 69 63 70 64 71 72 72 65 73 71 74 73 75
REMARK SMILES IDX 70 76 66 77 67 78 68 79 69 80 48 81 49 82 57 83 50 84 56 85
REMARK SMILES IDX 58 86 55 87 51 88 52 89 53 90 54 91
REMARK H PARENT 10 9 78 44 46 55
REMARK Flexibility Score: inf
ROOT
ATOM      1  C   UNL     1      -3.586  -9.162   3.449  1.00  0.00     0.274 C 
ENDROOT
BRANCH   1   2
ATOM      2  O   UNL     1      -2.680  -8.079   3.168  1.00  0.00    -0.462 OA
BRANCH   2   3
ATOM      3  C   UNL     1      -1.939  -8.219   2.038  1.00  0.00     0.315 C 
ATOM      4  O   UNL     1      -1.944  -9.218   1.325  1.00  0.00    -0.252 OA
BRANCH   3   5
ATOM      5  C   UNL     1      -1.061  -7.025   1.731  1.00  0.00     0.162 C 
ATOM      6  N   UNL     1       0.832  -6.099   2.886  1.00  0.00    -0.328 N 
ATOM      7  C   UNL     1      -0.361  -5.412   3.371  1.00  0.00     0.263 C 
ATOM      8  C   UNL     1       0.416  -7.246   2.071  1.00  0.00     0.195 C 
ATOM      9  H   UNL     1       1.338  -6.442   3.703  1.00  0.00     0.348 HD
ATOM     10  C   UNL     1      -1.455  -5.695   2.362  1.00  0.00     0.083 C 
ATOM     11  C   UNL     1       0.760  -8.525   2.833  1.00  0.00     0.076 C 
BRANCH   6  12
ATOM     12  C   UNL     1       1.879  -5.259   2.298  1.00  0.00     0.299 C 
BRANCH  12  13
ATOM     13  C   UNL     1       1.502  -4.293   1.195  1.00  0.00     0.006 A 
ATOM     14  C   UNL     1       0.874  -2.425  -0.825  1.00  0.00     0.119 A 
ATOM     15  C   UNL     1       0.888  -3.789  -1.106  1.00  0.00     0.047 A 
ATOM     16  C   UNL     1       1.173  -1.991   0.462  1.00  0.00     0.047 A 
ATOM     17  C   UNL     1       1.222  -4.715  -0.112  1.00  0.00     0.013 A 
ATOM     18  C   UNL     1       1.476  -2.916   1.464  1.00  0.00     0.013 A 
BRANCH  14  19
ATOM     19  O   UNL     1       0.457  -1.602  -1.829  1.00  0.00    -0.494 OA
BRANCH  19  20
ATOM     20  C   UNL     1       1.201  -0.398  -2.029  1.00  0.00     0.229 C 
BRANCH  20  21
ATOM     21  C   UNL     1       0.304   0.830  -1.866  1.00  0.00     0.038 C 
ATOM     22  C   UNL     1       0.246   1.346  -0.436  1.00  0.00     0.007 C 
ENDBRANCH  20  21
ENDBRANCH  19  20
ENDBRANCH  14  19
ENDBRANCH  12  13
ENDBRANCH   6  12
ENDBRANCH   3   5
ENDBRANCH   2   3
ENDBRANCH   1   2
BRANCH   1  23
ATOM     23  C   UNL     1      -4.994  -8.850   2.945  1.00  0.00     0.275 C 
BRANCH  23  24
ATOM     24  O   UNL     1      -4.978  -8.566   1.535  1.00  0.00    -0.458 OA
BRANCH  24  25
ATOM     25  C   UNL     1      -5.272  -7.286   1.205  1.00  0.00     0.338 C 
ATOM     26  O   UNL     1      -5.591  -6.385   1.960  1.00  0.00    -0.246 OA
BRANCH  25  27
ATOM     27  C   UNL     1      -5.157  -7.099  -0.250  1.00  0.00     0.060 A 
ATOM     28  C   UNL     1      -3.901  -7.106  -0.857  1.00  0.00     0.016 A 
ATOM     29  C   UNL     1      -6.291  -6.754  -0.984  1.00  0.00     0.016 A 
ATOM     30  C   UNL     1      -3.760  -6.682  -2.178  1.00  0.00     0.010 A 
ATOM     31  C   UNL     1      -6.157  -6.401  -2.329  1.00  0.00     0.010 A 
ATOM     32  C   UNL     1      -4.886  -6.317  -2.927  1.00  0.00    -0.014 A 
BRANCH  32  33
ATOM     33  C   UNL     1      -4.741  -5.755  -4.297  1.00  0.00     0.031 A 
ATOM     34  C   UNL     1      -5.182  -4.339  -4.564  1.00  0.00     0.074 A 
ATOM     35  C   UNL     1      -4.223  -6.494  -5.296  1.00  0.00     0.049 A 
ATOM     36  N   UNL     1      -5.354  -3.720  -5.704  1.00  0.00    -0.248 NA
ATOM     37  C   UNL     1      -5.492  -3.520  -3.383  1.00  0.00     0.031 C 
ATOM     38  C   UNL     1      -3.703  -7.856  -5.162  1.00  0.00     0.029 A 
ATOM     39  N   UNL     1      -4.055  -6.203  -6.627  1.00  0.00    -0.354 N 
ATOM     40  C   UNL     1      -5.845  -2.458  -5.381  1.00  0.00     0.074 A 
ATOM     41  C   UNL     1      -5.953  -2.409  -3.938  1.00  0.00     0.031 C 
ATOM     42  C   UNL     1      -3.265  -8.277  -6.359  1.00  0.00     0.029 A 
ATOM     43  C   UNL     1      -3.541  -7.249  -7.358  1.00  0.00     0.049 A 
ATOM     44  H   UNL     1      -4.281  -5.330  -7.022  1.00  0.00     0.167 HD
ATOM     45  C   UNL     1      -6.179  -1.440  -6.213  1.00  0.00     0.034 A 
ATOM     46  C   UNL     1      -3.353  -7.382  -8.685  1.00  0.00     0.034 A 
ATOM     47  C   UNL     1      -6.028  -1.495  -7.649  1.00  0.00     0.049 A 
ATOM     48  C   UNL     1      -3.743  -6.245  -9.595  1.00  0.00     0.074 A 
ATOM     49  C   UNL     1      -6.349  -0.534  -8.592  1.00  0.00     0.029 A 
ATOM     50  N   UNL     1      -5.495  -2.571  -8.348  1.00  0.00    -0.354 N 
ATOM     51  N   UNL     1      -4.287  -5.091  -9.287  1.00  0.00    -0.248 NA
ATOM     52  C   UNL     1      -3.494  -6.433 -11.029  1.00  0.00     0.031 C 
ATOM     53  C   UNL     1      -6.049  -1.044  -9.862  1.00  0.00     0.029 A 
ATOM     54  C   UNL     1      -5.484  -2.300  -9.708  1.00  0.00     0.049 A 
ATOM     55  H   UNL     1      -5.173  -3.406  -7.938  1.00  0.00     0.167 HD
ATOM     56  C   UNL     1      -4.429  -4.408 -10.492  1.00  0.00     0.074 A 
ATOM     57  C   UNL     1      -3.895  -5.272 -11.524  1.00  0.00     0.031 C 
ATOM     58  C   UNL     1      -4.955  -3.178 -10.725  1.00  0.00     0.034 A 
BRANCH  45  59
ATOM     59  C   UNL     1      -6.803  -0.214  -5.589  1.00  0.00     0.023 A 
ATOM     60  C   UNL     1      -6.097   0.618  -4.703  1.00  0.00     0.031 A 
ATOM     61  C   UNL     1      -8.150   0.098  -5.851  1.00  0.00     0.131 A 
ATOM     62  C   UNL     1      -6.760   1.672  -4.053  1.00  0.00     0.055 A 
ATOM     63  C   UNL     1      -8.782   1.195  -5.261  1.00  0.00     0.041 A 
ATOM     64  F   UNL     1      -8.883  -0.672  -6.671  1.00  0.00    -0.206 F 
ATOM     65  C   UNL     1      -8.091   1.980  -4.345  1.00  0.00     0.022 A 
BRANCH  62  66
ATOM     66  S   UNL     1      -5.901   2.550  -2.718  1.00  0.00     0.124 S 
ATOM     67  O   UNL     1      -5.645   1.469  -1.770  1.00  0.00    -0.237 OA
ATOM     68  O   UNL     1      -4.731   3.095  -3.397  1.00  0.00    -0.237 OA
ATOM     69  O   UNL     1      -6.880   3.540  -2.272  1.00  0.00    -0.744 OA
ENDBRANCH  62  66
ENDBRANCH  45  59
BRANCH  46  70
ATOM     70  C   UNL     1      -2.827  -8.658  -9.246  1.00  0.00     0.023 A 
ATOM     71  C   UNL     1      -1.576  -8.710  -9.881  1.00  0.00     0.031 A 
ATOM     72  C   UNL     1      -3.587  -9.840  -9.184  1.00  0.00     0.131 A 
ATOM     73  C   UNL     1      -1.138  -9.910 -10.463  1.00  0.00     0.055 A 
ATOM     74  C   UNL     1      -3.126 -11.042  -9.720  1.00  0.00     0.041 A 
ATOM     75  F   UNL     1      -4.788  -9.843  -8.585  1.00  0.00    -0.206 F 
ATOM     76  C   UNL     1      -1.899 -11.079 -10.375  1.00  0.00     0.022 A 
BRANCH  73  77
ATOM     77  S   UNL     1       0.415  -9.906 -11.399  1.00  0.00     0.124 S 
ATOM     78  O   UNL     1       0.140  -8.909 -12.428  1.00  0.00    -0.237 OA
ATOM     79  O   UNL     1       1.384  -9.524 -10.378  1.00  0.00    -0.237 OA
ATOM     80  O   UNL     1       0.527 -11.282 -11.878  1.00  0.00    -0.744 OA
ENDBRANCH  73  77
ENDBRANCH  46  70
BRANCH  58  81
ATOM     81  C   UNL     1      -4.921  -2.688 -12.150  1.00  0.00     0.023 A 
ATOM     82  C   UNL     1      -5.712  -3.274 -13.153  1.00  0.00     0.031 A 
ATOM     83  C   UNL     1      -4.053  -1.644 -12.514  1.00  0.00     0.131 A 
ATOM     84  C   UNL     1      -5.575  -2.854 -14.485  1.00  0.00     0.055 A 
ATOM     85  C   UNL     1      -3.958  -1.194 -13.832  1.00  0.00     0.041 A 
ATOM     86  F   UNL     1      -3.274  -1.051 -11.595  1.00  0.00    -0.206 F 
ATOM     87  C   UNL     1      -4.711  -1.810 -14.828  1.00  0.00     0.022 A 
BRANCH  84  88
ATOM     88  S   UNL     1      -6.465  -3.759 -15.781  1.00  0.00     0.124 S 
ATOM     89  O   UNL     1      -6.010  -5.128 -15.566  1.00  0.00    -0.237 OA
ATOM     90  O   UNL     1      -7.859  -3.490 -15.447  1.00  0.00    -0.237 OA
ATOM     91  O   UNL     1      -5.994  -3.137 -17.018  1.00  0.00    -0.744 OA
ENDBRANCH  84  88
ENDBRANCH  58  81
ENDBRANCH  32  33
ENDBRANCH  25  27
ENDBRANCH  24  25
ENDBRANCH  23  24
ENDBRANCH   1  23
TORSDOF 19
