REMARK SMILES Cc1cc(C(=O)OCCOC(=O)c2ccc(-c3c4nc(c(-c5cc(S(=O)(=O)[O-])ccc5F)c5ccc([nH]5)c(-c5cc(S(=O)(=O)[O-])ccc5F)c5nc(c(-c6cc(S(=O)(=O)[O-])ccc6F)c6ccc3[nH]6)C=C5)C=C4)cc2)ccc1NS(=O)(=O)c1ccc2c(c1)CCC2
REMARK SMILES IDX 8 1 7 2 5 3 6 4 4 5 1 6 2 7 3 8 78 9 77 10 76 11 79 12 80 14
REMARK SMILES IDX 81 15 82 16 83 17 84 18 88 19 85 20 87 21 86 22 89 23 91 24
REMARK SMILES IDX 90 25 9 26 10 27 11 28 12 29 13 30 14 31 75 32 15 33 74 34
REMARK SMILES IDX 16 35 17 36 18 37 68 38 19 39 73 40 67 41 69 42 20 43 72 44
REMARK SMILES IDX 66 45 65 46 21 48 53 49 33 50 52 51 34 52 37 53 51 54 70 55
REMARK SMILES IDX 35 56 36 57 50 59 71 60 38 61 22 62 23 63 31 64 24 65 30 66
REMARK SMILES IDX 32 67 29 68 25 69 26 70 27 71 28 72 54 73 55 74 63 75 56 76
REMARK SMILES IDX 62 77 64 78 61 79 57 80 58 81 59 82 60 83 39 84 40 85 48 86
REMARK SMILES IDX 41 87 47 88 49 89 46 90 42 91 43 92 44 93 45 94
REMARK H PARENT 79 13 69 47 37 58
REMARK Flexibility Score: inf
ROOT
ATOM      1  C   UNL     1      -3.805  -2.768  -2.208  1.00  0.00     0.275 C 
ENDROOT
BRANCH   1   2
ATOM      2  O   UNL     1      -2.644  -1.955  -1.942  1.00  0.00    -0.458 OA
BRANCH   2   3
ATOM      3  C   UNL     1      -2.868  -1.085  -0.918  1.00  0.00     0.338 C 
ATOM      4  O   UNL     1      -3.976  -0.872  -0.436  1.00  0.00    -0.246 OA
BRANCH   3   5
ATOM      5  C   UNL     1      -1.679  -0.323  -0.428  1.00  0.00     0.060 A 
ATOM      6  C   UNL     1       2.027   0.357  -0.862  1.00  0.00     0.046 C 
ATOM      7  C   UNL     1       0.568   0.618  -0.584  1.00  0.00    -0.026 A 
ATOM      8  C   UNL     1      -0.392  -0.351  -0.977  1.00  0.00     0.021 A 
ATOM      9  C   UNL     1       0.164   1.665   0.266  1.00  0.00     0.052 A 
ATOM     10  C   UNL     1      -1.002   1.524   1.002  1.00  0.00     0.028 A 
ATOM     11  C   UNL     1      -1.914   0.531   0.660  1.00  0.00     0.018 A 
BRANCH   9  12
ATOM     12  N   UNL     1       0.788   2.963   0.303  1.00  0.00    -0.279 N 
ATOM     13  H   UNL     1       1.575   3.126   0.872  1.00  0.00     0.180 HD
BRANCH  12  14
ATOM     14  S   UNL     1       0.123   4.235  -0.676  1.00  0.00     0.261 S 
ATOM     15  O   UNL     1       0.594   5.469  -0.048  1.00  0.00    -0.201 OA
ATOM     16  O   UNL     1       0.475   3.958  -2.042  1.00  0.00    -0.201 OA
BRANCH  14  17
ATOM     17  C   UNL     1      -1.666   4.258  -0.579  1.00  0.00     0.088 A 
ATOM     18  C   UNL     1      -2.399   3.152  -1.036  1.00  0.00     0.022 A 
ATOM     19  C   UNL     1      -2.348   5.388  -0.106  1.00  0.00     0.026 A 
ATOM     20  C   UNL     1      -3.755   3.018  -0.717  1.00  0.00     0.005 A 
ATOM     21  C   UNL     1      -3.721   5.291   0.085  1.00  0.00    -0.043 A 
ATOM     22  C   UNL     1      -4.388   4.076  -0.098  1.00  0.00    -0.045 A 
ATOM     23  C   UNL     1      -4.714   6.351   0.445  1.00  0.00     0.036 C 
ATOM     24  C   UNL     1      -5.789   4.138   0.428  1.00  0.00     0.036 C 
ATOM     25  C   UNL     1      -5.795   5.508   1.131  1.00  0.00     0.010 C 
ENDBRANCH  14  17
ENDBRANCH  12  14
ENDBRANCH   9  12
ENDBRANCH   3   5
ENDBRANCH   2   3
ENDBRANCH   1   2
BRANCH   1  26
ATOM     26  C   UNL     1      -3.570  -4.065  -3.011  1.00  0.00     0.275 C 
BRANCH  26  27
ATOM     27  O   UNL     1      -2.372  -4.863  -2.861  1.00  0.00    -0.458 OA
BRANCH  27  28
ATOM     28  C   UNL     1      -1.317  -4.420  -2.137  1.00  0.00     0.338 C 
ATOM     29  O   UNL     1      -0.304  -3.959  -2.644  1.00  0.00    -0.246 OA
BRANCH  28  30
ATOM     30  C   UNL     1      -1.610  -4.363  -0.686  1.00  0.00     0.060 A 
ATOM     31  C   UNL     1      -0.805  -3.545   0.123  1.00  0.00     0.016 A 
ATOM     32  C   UNL     1      -2.814  -4.881  -0.209  1.00  0.00     0.016 A 
ATOM     33  C   UNL     1      -1.248  -3.169   1.383  1.00  0.00     0.010 A 
ATOM     34  C   UNL     1      -3.333  -4.377   0.955  1.00  0.00     0.010 A 
ATOM     35  C   UNL     1      -2.525  -3.573   1.770  1.00  0.00    -0.014 A 
BRANCH  35  36
ATOM     36  C   UNL     1      -2.956  -3.581   3.154  1.00  0.00     0.031 A 
ATOM     37  C   UNL     1      -3.551  -2.403   3.792  1.00  0.00     0.074 A 
ATOM     38  C   UNL     1      -2.809  -4.812   3.689  1.00  0.00     0.049 A 
ATOM     39  N   UNL     1      -3.497  -2.153   5.051  1.00  0.00    -0.248 NA
ATOM     40  C   UNL     1      -4.216  -1.340   3.042  1.00  0.00     0.031 C 
ATOM     41  C   UNL     1      -3.283  -5.404   4.921  1.00  0.00     0.029 A 
ATOM     42  N   UNL     1      -1.960  -5.788   3.170  1.00  0.00    -0.354 N 
ATOM     43  C   UNL     1      -4.407  -1.145   5.309  1.00  0.00     0.074 A 
ATOM     44  C   UNL     1      -4.673  -0.553   4.024  1.00  0.00     0.031 C 
ATOM     45  C   UNL     1      -2.508  -6.477   5.197  1.00  0.00     0.029 A 
ATOM     46  C   UNL     1      -1.425  -6.515   4.212  1.00  0.00     0.049 A 
ATOM     47  H   UNL     1      -1.772  -5.933   2.215  1.00  0.00     0.167 HD
ATOM     48  C   UNL     1      -4.987  -1.095   6.545  1.00  0.00     0.034 A 
ATOM     49  C   UNL     1      -0.097  -6.317   4.472  1.00  0.00     0.034 A 
ATOM     50  C   UNL     1      -4.430  -2.164   7.374  1.00  0.00     0.049 A 
ATOM     51  C   UNL     1       0.051  -5.584   5.784  1.00  0.00     0.074 A 
ATOM     52  C   UNL     1      -4.879  -3.449   7.631  1.00  0.00     0.029 A 
ATOM     53  N   UNL     1      -3.085  -2.134   7.714  1.00  0.00    -0.354 N 
ATOM     54  N   UNL     1      -0.785  -4.682   6.232  1.00  0.00    -0.248 NA
ATOM     55  C   UNL     1       1.084  -5.944   6.744  1.00  0.00     0.031 C 
ATOM     56  C   UNL     1      -3.750  -4.226   8.008  1.00  0.00     0.029 A 
ATOM     57  C   UNL     1      -2.632  -3.407   7.998  1.00  0.00     0.049 A 
ATOM     58  H   UNL     1      -2.532  -1.320   7.748  1.00  0.00     0.167 HD
ATOM     59  C   UNL     1      -0.491  -4.425   7.547  1.00  0.00     0.074 A 
ATOM     60  C   UNL     1       0.696  -5.228   7.811  1.00  0.00     0.031 C 
ATOM     61  C   UNL     1      -1.244  -3.624   8.362  1.00  0.00     0.034 A 
BRANCH  48  62
ATOM     62  C   UNL     1      -6.260  -0.365   6.934  1.00  0.00     0.023 A 
ATOM     63  C   UNL     1      -6.967  -0.820   8.073  1.00  0.00     0.031 A 
ATOM     64  C   UNL     1      -6.856   0.715   6.257  1.00  0.00     0.131 A 
ATOM     65  C   UNL     1      -8.212  -0.280   8.446  1.00  0.00     0.055 A 
ATOM     66  C   UNL     1      -8.107   1.246   6.619  1.00  0.00     0.041 A 
ATOM     67  F   UNL     1      -6.252   1.338   5.239  1.00  0.00    -0.206 F 
ATOM     68  C   UNL     1      -8.797   0.743   7.713  1.00  0.00     0.022 A 
BRANCH  65  69
ATOM     69  S   UNL     1      -9.060  -0.955   9.902  1.00  0.00     0.124 S 
ATOM     70  O   UNL     1      -9.279  -2.344   9.514  1.00  0.00    -0.237 OA
ATOM     71  O   UNL     1      -8.086  -0.724  10.964  1.00  0.00    -0.237 OA
ATOM     72  O   UNL     1     -10.273  -0.143   9.994  1.00  0.00    -0.744 OA
ENDBRANCH  65  69
ENDBRANCH  48  62
BRANCH  49  73
ATOM     73  C   UNL     1       0.778  -6.143   3.254  1.00  0.00     0.023 A 
ATOM     74  C   UNL     1       0.620  -7.070   2.193  1.00  0.00     0.031 A 
ATOM     75  C   UNL     1       1.552  -5.007   2.980  1.00  0.00     0.131 A 
ATOM     76  C   UNL     1       1.088  -6.792   0.898  1.00  0.00     0.055 A 
ATOM     77  C   UNL     1       2.082  -4.762   1.697  1.00  0.00     0.041 A 
ATOM     78  F   UNL     1       1.747  -4.067   3.916  1.00  0.00    -0.206 F 
ATOM     79  C   UNL     1       1.823  -5.638   0.640  1.00  0.00     0.022 A 
BRANCH  76  80
ATOM     80  S   UNL     1       0.491  -7.831  -0.472  1.00  0.00     0.124 S 
ATOM     81  O   UNL     1       1.372  -8.990  -0.384  1.00  0.00    -0.237 OA
ATOM     82  O   UNL     1      -0.906  -8.059  -0.105  1.00  0.00    -0.237 OA
ATOM     83  O   UNL     1       0.676  -6.988  -1.648  1.00  0.00    -0.744 OA
ENDBRANCH  76  80
ENDBRANCH  49  73
BRANCH  61  84
ATOM     84  C   UNL     1      -0.748  -3.048   9.663  1.00  0.00     0.023 A 
ATOM     85  C   UNL     1       0.612  -3.014   9.979  1.00  0.00     0.031 A 
ATOM     86  C   UNL     1      -1.612  -2.419  10.591  1.00  0.00     0.131 A 
ATOM     87  C   UNL     1       1.056  -2.535  11.214  1.00  0.00     0.055 A 
ATOM     88  C   UNL     1      -1.150  -1.813  11.761  1.00  0.00     0.041 A 
ATOM     89  F   UNL     1      -2.938  -2.351  10.400  1.00  0.00    -0.206 F 
ATOM     90  C   UNL     1       0.192  -1.898  12.098  1.00  0.00     0.022 A 
BRANCH  87  91
ATOM     91  S   UNL     1       2.761  -2.910  11.674  1.00  0.00     0.124 S 
ATOM     92  O   UNL     1       2.752  -4.372  11.668  1.00  0.00    -0.237 OA
ATOM     93  O   UNL     1       3.523  -2.281  10.600  1.00  0.00    -0.237 OA
ATOM     94  O   UNL     1       2.905  -2.294  12.990  1.00  0.00    -0.744 OA
ENDBRANCH  87  91
ENDBRANCH  61  84
ENDBRANCH  35  36
ENDBRANCH  28  30
ENDBRANCH  27  28
ENDBRANCH  26  27
ENDBRANCH   1  26
TORSDOF 17
