REMARK SMILES CC(=O)Oc1ccc([C@H]2Nc3c(C(=O)OCCOC(=O)c4ccc(-c5c6nc(c(-c7cc(S(=O)(=O)[O-])ccc7F)c7ccc([nH]7)c(-c7cc(S(=O)(=O)[O-])ccc7F)c7nc(c(-c8cc(S(=O)(=O)[O-])ccc8F)c8ccc5[nH]8)C=C7)C=C6)cc4)ccc([N+](=O)[O-])c3[C@H]3C=CC[C@@H]32)cc1
REMARK SMILES IDX 16 1 15 2 13 3 14 4 12 5 9 6 10 7 95 8 11 9 91 11 94 12
REMARK SMILES IDX 90 13 92 14 93 15 84 16 86 17 85 18 8 19 5 20 6 21 97 22
REMARK SMILES IDX 7 23 96 24 4 25 2 26 1 27 3 28 87 29 88 30 89 31 17 32 18 33
REMARK SMILES IDX 19 34 20 35 21 36 22 37 83 38 23 39 82 40 24 41 25 42 26 43
REMARK SMILES IDX 76 44 27 45 81 46 75 47 77 48 28 49 80 50 74 51 73 52 29 54
REMARK SMILES IDX 61 55 41 56 60 57 42 58 45 59 59 60 78 61 43 62 44 63 58 65
REMARK SMILES IDX 79 66 46 67 30 68 31 69 39 70 32 71 38 72 40 73 37 74 33 75
REMARK SMILES IDX 34 76 35 77 36 78 62 79 63 80 71 81 64 82 70 83 72 84 69 85
REMARK SMILES IDX 65 86 66 87 67 88 68 89 47 90 48 91 56 92 49 93 55 94 57 95
REMARK SMILES IDX 54 96 50 97 51 98 52 99 53 100
REMARK H PARENT 10 10 77 53 45 64
REMARK Flexibility Score: inf
ROOT
ATOM      1  C   UNL     1       1.877  -1.408  14.278  1.00  0.00     0.275 C 
ENDROOT
BRANCH   1   2
ATOM      2  O   UNL     1       1.067  -2.233  13.408  1.00  0.00    -0.458 OA
BRANCH   2   3
ATOM      3  C   UNL     1       0.001  -1.612  12.832  1.00  0.00     0.340 C 
ATOM      4  O   UNL     1      -0.310  -0.440  12.999  1.00  0.00    -0.246 OA
BRANCH   3   5
ATOM      5  C   UNL     1      -0.960  -2.620  12.337  1.00  0.00     0.084 A 
ATOM      6  C   UNL     1      -1.165  -2.993   8.456  1.00  0.00     0.114 C 
ATOM      7  N   UNL     1      -0.675  -2.518   9.799  1.00  0.00    -0.377 N 
ATOM      8  C   UNL     1      -2.662  -3.253   8.618  1.00  0.00     0.031 C 
ATOM      9  C   UNL     1      -1.260  -3.056  11.003  1.00  0.00     0.060 A 
ATOM     10  H   UNL     1       0.040  -1.845   9.854  1.00  0.00     0.161 HD
ATOM     11  C   UNL     1      -2.671  -4.511   9.492  1.00  0.00     0.056 C 
ATOM     12  C   UNL     1      -3.606  -3.517   7.447  1.00  0.00     0.034 C 
ATOM     13  C   UNL     1      -2.356  -4.003  10.881  1.00  0.00     0.061 A 
ATOM     14  C   UNL     1      -3.939  -5.173   9.077  1.00  0.00    -0.022 C 
ATOM     15  C   UNL     1      -4.436  -4.645   7.955  1.00  0.00    -0.030 C 
ATOM     16  C   UNL     1      -1.725  -3.057  13.447  1.00  0.00     0.025 A 
ATOM     17  C   UNL     1      -3.057  -4.420  12.031  1.00  0.00     0.275 A 
ATOM     18  C   UNL     1      -2.769  -3.944  13.303  1.00  0.00     0.087 A 
BRANCH   6  19
ATOM     19  C   UNL     1      -0.812  -2.308   7.119  1.00  0.00    -0.025 A 
ATOM     20  C   UNL     1      -0.817  -2.037   4.283  1.00  0.00     0.130 A 
ATOM     21  C   UNL     1       0.120  -2.856   4.911  1.00  0.00     0.047 A 
ATOM     22  C   UNL     1      -1.671  -1.255   5.048  1.00  0.00     0.047 A 
ATOM     23  C   UNL     1       0.141  -2.968   6.309  1.00  0.00     0.010 A 
ATOM     24  C   UNL     1      -1.656  -1.380   6.463  1.00  0.00     0.010 A 
BRANCH  20  25
ATOM     25  O   UNL     1      -0.778  -2.055   2.857  1.00  0.00    -0.427 OA
BRANCH  25  26
ATOM     26  C   UNL     1      -1.676  -1.598   1.881  1.00  0.00     0.308 C 
ATOM     27  C   UNL     1      -1.085  -1.815   0.506  1.00  0.00     0.139 C 
ATOM     28  O   UNL     1      -2.780  -1.119   2.100  1.00  0.00    -0.252 OA
ENDBRANCH  25  26
ENDBRANCH  20  25
ENDBRANCH   6  19
BRANCH  17  29
ATOM     29  N   UNL     1      -4.140  -5.373  11.975  1.00  0.00     0.063 N 
ATOM     30  O   UNL     1      -5.292  -4.922  12.005  1.00  0.00    -0.258 OA
ATOM     31  O   UNL     1      -3.826  -6.572  11.982  1.00  0.00    -0.258 OA
ENDBRANCH  17  29
ENDBRANCH   3   5
ENDBRANCH   2   3
ENDBRANCH   1   2
BRANCH   1  32
ATOM     32  C   UNL     1       3.158  -0.933  13.593  1.00  0.00     0.275 C 
BRANCH  32  33
ATOM     33  O   UNL     1       2.859  -0.054  12.497  1.00  0.00    -0.458 OA
BRANCH  33  34
ATOM     34  C   UNL     1       2.635  -0.701  11.331  1.00  0.00     0.338 C 
ATOM     35  O   UNL     1       2.750  -1.891  11.102  1.00  0.00    -0.246 OA
BRANCH  34  36
ATOM     36  C   UNL     1       2.084   0.223  10.340  1.00  0.00     0.060 A 
ATOM     37  C   UNL     1       0.706   0.236  10.160  1.00  0.00     0.016 A 
ATOM     38  C   UNL     1       2.921   0.862   9.435  1.00  0.00     0.016 A 
ATOM     39  C   UNL     1       0.153   0.752   9.011  1.00  0.00     0.010 A 
ATOM     40  C   UNL     1       2.351   1.492   8.328  1.00  0.00     0.010 A 
ATOM     41  C   UNL     1       0.969   1.391   8.083  1.00  0.00    -0.014 A 
BRANCH  41  42
ATOM     42  C   UNL     1       0.360   1.864   6.822  1.00  0.00     0.031 A 
ATOM     43  C   UNL     1       0.867   1.300   5.521  1.00  0.00     0.074 A 
ATOM     44  C   UNL     1      -0.648   2.756   6.892  1.00  0.00     0.049 A 
ATOM     45  N   UNL     1       0.625   1.681   4.296  1.00  0.00    -0.248 NA
ATOM     46  C   UNL     1       1.815   0.175   5.614  1.00  0.00     0.031 C 
ATOM     47  C   UNL     1      -1.190   3.325   8.136  1.00  0.00     0.029 A 
ATOM     48  N   UNL     1      -1.386   3.362   5.913  1.00  0.00    -0.354 N 
ATOM     49  C   UNL     1       1.389   0.848   3.480  1.00  0.00     0.074 A 
ATOM     50  C   UNL     1       2.174   0.006   4.351  1.00  0.00     0.031 C 
ATOM     51  C   UNL     1      -2.150   4.212   7.841  1.00  0.00     0.029 A 
ATOM     52  C   UNL     1      -2.235   4.334   6.396  1.00  0.00     0.049 A 
ATOM     53  H   UNL     1      -1.317   3.127   4.960  1.00  0.00     0.167 HD
ATOM     54  C   UNL     1       1.382   0.767   2.125  1.00  0.00     0.034 A 
ATOM     55  C   UNL     1      -2.941   5.269   5.736  1.00  0.00     0.034 A 
ATOM     56  C   UNL     1       0.518   1.619   1.325  1.00  0.00     0.049 A 
ATOM     57  C   UNL     1      -2.875   5.229   4.234  1.00  0.00     0.074 A 
ATOM     58  C   UNL     1       0.369   1.675  -0.049  1.00  0.00     0.029 A 
ATOM     59  N   UNL     1      -0.380   2.555   1.850  1.00  0.00    -0.354 N 
ATOM     60  N   UNL     1      -2.171   4.425   3.466  1.00  0.00    -0.248 NA
ATOM     61  C   UNL     1      -3.700   6.196   3.509  1.00  0.00     0.031 C 
ATOM     62  C   UNL     1      -0.586   2.655  -0.353  1.00  0.00     0.029 A 
ATOM     63  C   UNL     1      -1.060   3.203   0.829  1.00  0.00     0.049 A 
ATOM     64  H   UNL     1      -0.512   2.729   2.810  1.00  0.00     0.167 HD
ATOM     65  C   UNL     1      -2.504   4.761   2.162  1.00  0.00     0.074 A 
ATOM     66  C   UNL     1      -3.480   5.834   2.255  1.00  0.00     0.031 C 
ATOM     67  C   UNL     1      -2.053   4.245   0.989  1.00  0.00     0.034 A 
BRANCH  54  68
ATOM     68  C   UNL     1       2.253  -0.293   1.452  1.00  0.00     0.023 A 
ATOM     69  C   UNL     1       2.097  -1.665   1.733  1.00  0.00     0.031 A 
ATOM     70  C   UNL     1       3.192   0.026   0.462  1.00  0.00     0.131 A 
ATOM     71  C   UNL     1       2.783  -2.660   1.023  1.00  0.00     0.055 A 
ATOM     72  C   UNL     1       3.888  -0.965  -0.252  1.00  0.00     0.041 A 
ATOM     73  F   UNL     1       3.450   1.306   0.154  1.00  0.00    -0.206 F 
ATOM     74  C   UNL     1       3.675  -2.317   0.016  1.00  0.00     0.022 A 
BRANCH  71  75
ATOM     75  S   UNL     1       2.467  -4.399   1.443  1.00  0.00     0.124 S 
ATOM     76  O   UNL     1       2.843  -4.445   2.854  1.00  0.00    -0.237 OA
ATOM     77  O   UNL     1       1.040  -4.531   1.168  1.00  0.00    -0.237 OA
ATOM     78  O   UNL     1       3.346  -5.137   0.540  1.00  0.00    -0.744 OA
ENDBRANCH  71  75
ENDBRANCH  54  68
BRANCH  55  79
ATOM     79  C   UNL     1      -3.667   6.348   6.471  1.00  0.00     0.023 A 
ATOM     80  C   UNL     1      -5.050   6.535   6.334  1.00  0.00     0.031 A 
ATOM     81  C   UNL     1      -2.963   7.257   7.286  1.00  0.00     0.131 A 
ATOM     82  C   UNL     1      -5.672   7.639   6.942  1.00  0.00     0.055 A 
ATOM     83  C   UNL     1      -3.597   8.312   7.944  1.00  0.00     0.041 A 
ATOM     84  F   UNL     1      -1.637   7.131   7.460  1.00  0.00    -0.206 F 
ATOM     85  C   UNL     1      -4.958   8.520   7.757  1.00  0.00     0.022 A 
BRANCH  82  86
ATOM     86  S   UNL     1      -7.410   7.982   6.548  1.00  0.00     0.124 S 
ATOM     87  O   UNL     1      -7.376   8.043   5.091  1.00  0.00    -0.237 OA
ATOM     88  O   UNL     1      -8.085   6.826   7.127  1.00  0.00    -0.237 OA
ATOM     89  O   UNL     1      -7.667   9.254   7.220  1.00  0.00    -0.744 OA
ENDBRANCH  82  86
ENDBRANCH  55  79
BRANCH  67  90
ATOM     90  C   UNL     1      -2.695   4.808  -0.252  1.00  0.00     0.023 A 
ATOM     91  C   UNL     1      -2.441   6.123  -0.678  1.00  0.00     0.031 A 
ATOM     92  C   UNL     1      -3.615   4.035  -0.979  1.00  0.00     0.131 A 
ATOM     93  C   UNL     1      -3.149   6.648  -1.769  1.00  0.00     0.055 A 
ATOM     94  C   UNL     1      -4.274   4.545  -2.098  1.00  0.00     0.041 A 
ATOM     95  F   UNL     1      -3.895   2.776  -0.606  1.00  0.00    -0.206 F 
ATOM     96  C   UNL     1      -4.051   5.862  -2.490  1.00  0.00     0.022 A 
BRANCH  93  97
ATOM     97  S   UNL     1      -2.940   8.402  -2.177  1.00  0.00     0.124 S 
ATOM     98  O   UNL     1      -3.404   9.055  -0.957  1.00  0.00    -0.237 OA
ATOM     99  O   UNL     1      -1.508   8.493  -2.442  1.00  0.00    -0.237 OA
ATOM    100  O   UNL     1      -3.798   8.587  -3.346  1.00  0.00    -0.744 OA
ENDBRANCH  93  97
ENDBRANCH  67  90
ENDBRANCH  41  42
ENDBRANCH  34  36
ENDBRANCH  33  34
ENDBRANCH  32  33
ENDBRANCH   1  32
TORSDOF 18
