REMARK SMILES CC1(C)CCC[C@@]1(CC(=O)OCCOC(=O)c1ccc(-c2c3nc(c(-c4cc(S(=O)(=O)[O-])ccc4F)c4ccc([nH]4)c(-c4cc(S(=O)(=O)[O-])ccc4F)c4nc(c(-c5cc(S(=O)(=O)[O-])ccc5F)c5ccc2[nH]5)C=C4)C=C3)cc1)[NH+]1CCCCC1
REMARK SMILES IDX 13 1 12 2 11 3 9 4 10 5 8 6 7 7 1 8 2 9 3 10 4 11 5 12 6 13
REMARK SMILES IDX 80 14 81 15 85 16 82 18 84 19 83 20 14 21 15 22 16 23 17 24
REMARK SMILES IDX 18 25 79 26 19 27 78 28 20 29 21 30 22 31 72 32 23 33 77 34
REMARK SMILES IDX 71 35 73 36 24 37 76 38 70 39 69 40 25 42 57 43 37 44 56 45
REMARK SMILES IDX 38 46 41 47 55 48 74 49 39 50 40 51 54 53 75 54 42 55 26 56
REMARK SMILES IDX 27 57 35 58 28 59 34 60 36 61 33 62 29 63 30 64 31 65 32 66
REMARK SMILES IDX 58 67 59 68 67 69 60 70 66 71 68 72 65 73 61 74 62 75 63 76
REMARK SMILES IDX 64 77 43 78 44 79 52 80 45 81 51 82 53 83 50 84 46 85 47 86
REMARK SMILES IDX 48 87 49 88
REMARK H PARENT 80 17 73 41 41 52
REMARK Flexibility Score: inf
ROOT
ATOM      1  C   UNL     1      -3.290   4.663  -1.904  1.00  0.00     0.275 C 
ENDROOT
BRANCH   1   2
ATOM      2  C   UNL     1      -2.447   3.556  -2.527  1.00  0.00     0.274 C 
BRANCH   2   3
ATOM      3  O   UNL     1      -1.725   2.889  -1.476  1.00  0.00    -0.462 OA
BRANCH   3   4
ATOM      4  C   UNL     1      -0.424   2.592  -1.734  1.00  0.00     0.312 C 
ATOM      5  O   UNL     1       0.137   2.779  -2.806  1.00  0.00    -0.252 OA
BRANCH   4   6
ATOM      6  C   UNL     1       0.284   2.079  -0.503  1.00  0.00     0.191 C 
BRANCH   6   7
ATOM      7  C   UNL     1      -0.266   0.772   0.177  1.00  0.00     0.113 C 
ATOM      8  C   UNL     1       2.056  -0.410   0.618  1.00  0.00     0.018 C 
ATOM      9  C   UNL     1       0.748  -0.422  -0.191  1.00  0.00     0.020 C 
ATOM     10  C   UNL     1       1.164  -0.432  -1.699  1.00  0.00     0.018 C 
ATOM     11  C   UNL     1      -0.069  -1.711   0.020  1.00  0.00     0.013 C 
ATOM     12  C   UNL     1      -1.502  -1.342  -0.337  1.00  0.00     0.007 C 
ATOM     13  C   UNL     1      -1.568   0.185  -0.442  1.00  0.00     0.070 C 
BRANCH   7  14
ATOM     14  N   UNL     1      -0.469   1.086   1.632  1.00  0.00    -0.329 N 
ATOM     15  C   UNL     1      -0.592   0.078   2.681  1.00  0.00     0.262 C 
ATOM     16  C   UNL     1      -1.257   2.285   1.992  1.00  0.00     0.262 C 
ATOM     17  H   UNL     1       0.534   1.272   1.645  1.00  0.00     0.348 HD
ATOM     18  C   UNL     1      -2.029  -0.269   3.075  1.00  0.00     0.062 C 
ATOM     19  C   UNL     1      -2.698   2.047   2.445  1.00  0.00     0.062 C 
ATOM     20  C   UNL     1      -2.796   0.969   3.509  1.00  0.00     0.012 C 
ENDBRANCH   7  14
ENDBRANCH   6   7
ENDBRANCH   4   6
ENDBRANCH   3   4
ENDBRANCH   2   3
ENDBRANCH   1   2
BRANCH   1  21
ATOM     21  O   UNL     1      -2.435   5.460  -1.066  1.00  0.00    -0.458 OA
BRANCH  21  22
ATOM     22  C   UNL     1      -2.773   5.488   0.245  1.00  0.00     0.338 C 
ATOM     23  O   UNL     1      -3.808   5.083   0.746  1.00  0.00    -0.246 OA
BRANCH  22  24
ATOM     24  C   UNL     1      -1.678   6.090   1.031  1.00  0.00     0.060 A 
ATOM     25  C   UNL     1      -0.349   5.712   0.820  1.00  0.00     0.016 A 
ATOM     26  C   UNL     1      -1.999   6.973   2.060  1.00  0.00     0.016 A 
ATOM     27  C   UNL     1       0.652   6.172   1.676  1.00  0.00     0.010 A 
ATOM     28  C   UNL     1      -0.982   7.508   2.854  1.00  0.00     0.010 A 
ATOM     29  C   UNL     1       0.354   7.104   2.682  1.00  0.00    -0.014 A 
BRANCH  29  30
ATOM     30  C   UNL     1       1.421   7.697   3.536  1.00  0.00     0.031 A 
ATOM     31  C   UNL     1       1.363   7.556   5.035  1.00  0.00     0.074 A 
ATOM     32  C   UNL     1       2.404   8.424   2.969  1.00  0.00     0.049 A 
ATOM     33  N   UNL     1       2.039   8.197   5.954  1.00  0.00    -0.248 NA
ATOM     34  C   UNL     1       0.402   6.579   5.567  1.00  0.00     0.031 C 
ATOM     35  C   UNL     1       2.591   8.620   1.529  1.00  0.00     0.029 A 
ATOM     36  N   UNL     1       3.421   9.153   3.534  1.00  0.00    -0.354 N 
ATOM     37  C   UNL     1       1.558   7.734   7.175  1.00  0.00     0.074 A 
ATOM     38  C   UNL     1       0.524   6.765   6.875  1.00  0.00     0.031 C 
ATOM     39  C   UNL     1       3.658   9.406   1.325  1.00  0.00     0.029 A 
ATOM     40  C   UNL     1       4.178   9.842   2.615  1.00  0.00     0.049 A 
ATOM     41  H   UNL     1       3.592   9.179   4.504  1.00  0.00     0.167 HD
ATOM     42  C   UNL     1       1.943   8.090   8.427  1.00  0.00     0.034 A 
ATOM     43  C   UNL     1       5.143  10.767   2.783  1.00  0.00     0.034 A 
ATOM     44  C   UNL     1       2.994   9.042   8.707  1.00  0.00     0.049 A 
ATOM     45  C   UNL     1       5.525  11.176   4.178  1.00  0.00     0.074 A 
ATOM     46  C   UNL     1       3.475   9.460   9.936  1.00  0.00     0.029 A 
ATOM     47  N   UNL     1       3.729   9.723   7.745  1.00  0.00    -0.354 N 
ATOM     48  N   UNL     1       5.027  10.769   5.322  1.00  0.00    -0.248 NA
ATOM     49  C   UNL     1       6.592  12.176   4.304  1.00  0.00     0.031 C 
ATOM     50  C   UNL     1       4.463  10.429   9.719  1.00  0.00     0.029 A 
ATOM     51  C   UNL     1       4.643  10.571   8.353  1.00  0.00     0.049 A 
ATOM     52  H   UNL     1       3.618   9.618   6.772  1.00  0.00     0.167 HD
ATOM     53  C   UNL     1       5.729  11.458   6.305  1.00  0.00     0.074 A 
ATOM     54  C   UNL     1       6.699  12.288   5.619  1.00  0.00     0.031 C 
ATOM     55  C   UNL     1       5.586  11.410   7.654  1.00  0.00     0.034 A 
BRANCH  42  56
ATOM     56  C   UNL     1       1.188   7.489   9.588  1.00  0.00     0.023 A 
ATOM     57  C   UNL     1       1.256   6.120   9.894  1.00  0.00     0.031 A 
ATOM     58  C   UNL     1       0.384   8.308  10.402  1.00  0.00     0.131 A 
ATOM     59  C   UNL     1       0.492   5.601  10.952  1.00  0.00     0.055 A 
ATOM     60  C   UNL     1      -0.321   7.797  11.494  1.00  0.00     0.041 A 
ATOM     61  F   UNL     1       0.265   9.620  10.146  1.00  0.00    -0.206 F 
ATOM     62  C   UNL     1      -0.278   6.434  11.768  1.00  0.00     0.022 A 
BRANCH  59  63
ATOM     63  S   UNL     1       0.432   3.802  11.183  1.00  0.00     0.124 S 
ATOM     64  O   UNL     1      -0.123   3.358   9.907  1.00  0.00    -0.237 OA
ATOM     65  O   UNL     1       1.831   3.467  11.423  1.00  0.00    -0.237 OA
ATOM     66  O   UNL     1      -0.455   3.633  12.333  1.00  0.00    -0.744 OA
ENDBRANCH  59  63
ENDBRANCH  42  56
BRANCH  43  67
ATOM     67  C   UNL     1       5.764  11.422   1.598  1.00  0.00     0.023 A 
ATOM     68  C   UNL     1       7.119  11.228   1.291  1.00  0.00     0.031 A 
ATOM     69  C   UNL     1       5.011  12.270   0.766  1.00  0.00     0.131 A 
ATOM     70  C   UNL     1       7.688  11.898   0.198  1.00  0.00     0.055 A 
ATOM     71  C   UNL     1       5.569  12.895  -0.349  1.00  0.00     0.041 A 
ATOM     72  F   UNL     1       3.709  12.486   1.015  1.00  0.00    -0.206 F 
ATOM     73  C   UNL     1       6.920  12.719  -0.632  1.00  0.00     0.022 A 
BRANCH  70  74
ATOM     74  S   UNL     1       9.473  11.739  -0.083  1.00  0.00     0.124 S 
ATOM     75  O   UNL     1      10.018  12.205   1.187  1.00  0.00    -0.237 OA
ATOM     76  O   UNL     1       9.609  10.312  -0.355  1.00  0.00    -0.237 OA
ATOM     77  O   UNL     1       9.716  12.616  -1.226  1.00  0.00    -0.744 OA
ENDBRANCH  70  74
ENDBRANCH  43  67
BRANCH  55  78
ATOM     78  C   UNL     1       6.532  12.262   8.460  1.00  0.00     0.023 A 
ATOM     79  C   UNL     1       6.443  13.665   8.455  1.00  0.00     0.031 A 
ATOM     80  C   UNL     1       7.560  11.663   9.207  1.00  0.00     0.131 A 
ATOM     81  C   UNL     1       7.404  14.426   9.137  1.00  0.00     0.055 A 
ATOM     82  C   UNL     1       8.482  12.424   9.926  1.00  0.00     0.041 A 
ATOM     83  F   UNL     1       7.690  10.327   9.242  1.00  0.00    -0.206 F 
ATOM     84  C   UNL     1       8.415  13.814   9.882  1.00  0.00     0.022 A 
BRANCH  81  85
ATOM     85  S   UNL     1       7.369  16.231   8.963  1.00  0.00     0.124 S 
ATOM     86  O   UNL     1       7.515  16.401   7.521  1.00  0.00    -0.237 OA
ATOM     87  O   UNL     1       6.062  16.573   9.515  1.00  0.00    -0.237 OA
ATOM     88  O   UNL     1       8.512  16.675   9.758  1.00  0.00    -0.744 OA
ENDBRANCH  81  85
ENDBRANCH  55  78
ENDBRANCH  29  30
ENDBRANCH  22  24
ENDBRANCH  21  22
ENDBRANCH   1  21
TORSDOF 16
