REMARK SMILES CCC[NH2+][C@]1(C(=O)OCCOC(=O)c2ccc(-c3c4nc(c(-c5cc(S(=O)(=O)[O-])ccc5F)c5ccc([nH]5)c(-c5cc(S(=O)(=O)[O-])ccc5F)c5nc(c(-c6cc(S(=O)(=O)[O-])ccc6F)c6ccc3[nH]6)C=C5)C=C4)cc2)CCC[C@H](n2ccc(C)n2)C1
REMARK SMILES IDX 9 1 8 2 6 3 7 4 5 5 77 6 87 7 78 8 80 9 79 10 4 11 3 14 2 15
REMARK SMILES IDX 1 16 81 17 82 18 86 19 83 20 84 21 85 22 10 23 11 24 12 25
REMARK SMILES IDX 13 26 14 27 15 28 76 29 16 30 75 31 17 32 18 33 19 34 69 35
REMARK SMILES IDX 20 36 74 37 68 38 70 39 21 40 73 41 67 42 66 43 22 45 54 46
REMARK SMILES IDX 34 47 53 48 35 49 38 50 52 51 71 52 36 53 37 54 51 56 72 57
REMARK SMILES IDX 39 58 23 59 24 60 32 61 25 62 31 63 33 64 30 65 26 66 27 67
REMARK SMILES IDX 28 68 29 69 55 70 56 71 64 72 57 73 63 74 65 75 62 76 58 77
REMARK SMILES IDX 59 78 60 79 61 80 40 81 41 82 49 83 42 84 48 85 50 86 47 87
REMARK SMILES IDX 43 88 44 89 45 90 46 91
REMARK H PARENT 4 12 4 13 70 44 38 55
REMARK Flexibility Score: inf
ROOT
ATOM      1  C   UNL     1      -0.602  -1.618  -0.436  1.00  0.00     0.274 C 
ENDROOT
BRANCH   1   2
ATOM      2  O   UNL     1      -0.067  -2.215  -1.635  1.00  0.00    -0.457 OA
BRANCH   2   3
ATOM      3  C   UNL     1       0.079  -1.360  -2.693  1.00  0.00     0.368 C 
ATOM      4  O   UNL     1      -0.135  -0.157  -2.594  1.00  0.00    -0.245 OA
BRANCH   3   5
ATOM      5  C   UNL     1       0.563  -2.082  -4.003  1.00  0.00     0.196 C 
ATOM      6  C   UNL     1       2.094  -1.980  -4.155  1.00  0.00     0.081 C 
ATOM      7  C   UNL     1       0.183  -3.593  -3.933  1.00  0.00     0.108 C 
ATOM      8  C   UNL     1       2.657  -2.818  -5.304  1.00  0.00     0.009 C 
ATOM      9  C   UNL     1       0.713  -4.455  -5.102  1.00  0.00     0.114 C 
ATOM     10  C   UNL     1       2.242  -4.281  -5.188  1.00  0.00     0.028 C 
BRANCH   5  11
ATOM     11  N   UNL     1      -0.114  -1.499  -5.183  1.00  0.00    -0.332 N 
ATOM     12  H   UNL     1       0.184  -2.043  -5.993  1.00  0.00     0.347 HD
ATOM     13  H   UNL     1      -1.102  -1.537  -4.932  1.00  0.00     0.347 HD
BRANCH  11  14
ATOM     14  C   UNL     1       0.094  -0.097  -5.518  1.00  0.00     0.261 C 
BRANCH  14  15
ATOM     15  C   UNL     1      -0.901   0.376  -6.587  1.00  0.00     0.058 C 
ATOM     16  C   UNL     1      -2.345   0.415  -6.098  1.00  0.00     0.010 C 
ENDBRANCH  14  15
ENDBRANCH  11  14
ENDBRANCH   5  11
BRANCH   9  17
ATOM     17  N   UNL     1      -0.001  -4.253  -6.363  1.00  0.00    -0.269 N 
ATOM     18  C   UNL     1       0.467  -4.451  -7.634  1.00  0.00     0.109 A 
ATOM     19  N   UNL     1      -1.313  -3.906  -6.353  1.00  0.00    -0.178 NA
ATOM     20  C   UNL     1      -0.512  -3.988  -8.479  1.00  0.00     0.045 A 
ATOM     21  C   UNL     1      -1.575  -3.611  -7.632  1.00  0.00     0.059 A 
ATOM     22  C   UNL     1      -2.845  -2.954  -8.013  1.00  0.00     0.069 C 
ENDBRANCH   9  17
ENDBRANCH   3   5
ENDBRANCH   2   3
ENDBRANCH   1   2
BRANCH   1  23
ATOM     23  C   UNL     1       0.506  -1.263   0.551  1.00  0.00     0.275 C 
BRANCH  23  24
ATOM     24  O   UNL     1       1.443  -0.362  -0.061  1.00  0.00    -0.458 OA
BRANCH  24  25
ATOM     25  C   UNL     1       2.747  -0.697   0.078  1.00  0.00     0.338 C 
ATOM     26  O   UNL     1       3.196  -1.619   0.737  1.00  0.00    -0.246 OA
BRANCH  25  27
ATOM     27  C   UNL     1       3.603   0.203  -0.722  1.00  0.00     0.060 A 
ATOM     28  C   UNL     1       3.304   0.451  -2.058  1.00  0.00     0.016 A 
ATOM     29  C   UNL     1       4.807   0.660  -0.189  1.00  0.00     0.016 A 
ATOM     30  C   UNL     1       4.267   1.004  -2.902  1.00  0.00     0.010 A 
ATOM     31  C   UNL     1       5.720   1.334  -1.011  1.00  0.00     0.010 A 
ATOM     32  C   UNL     1       5.495   1.452  -2.395  1.00  0.00    -0.014 A 
BRANCH  32  33
ATOM     33  C   UNL     1       6.574   1.938  -3.312  1.00  0.00     0.031 A 
ATOM     34  C   UNL     1       7.941   1.292  -3.272  1.00  0.00     0.074 A 
ATOM     35  C   UNL     1       6.346   2.917  -4.213  1.00  0.00     0.049 A 
ATOM     36  N   UNL     1       9.068   1.689  -3.808  1.00  0.00    -0.248 NA
ATOM     37  C   UNL     1       8.056   0.044  -2.502  1.00  0.00     0.031 C 
ATOM     38  C   UNL     1       5.069   3.602  -4.422  1.00  0.00     0.029 A 
ATOM     39  N   UNL     1       7.182   3.497  -5.138  1.00  0.00    -0.354 N 
ATOM     40  C   UNL     1      10.039   0.791  -3.369  1.00  0.00     0.074 A 
ATOM     41  C   UNL     1       9.363  -0.172  -2.526  1.00  0.00     0.031 C 
ATOM     42  C   UNL     1       5.189   4.458  -5.448  1.00  0.00     0.029 A 
ATOM     43  C   UNL     1       6.574   4.466  -5.904  1.00  0.00     0.049 A 
ATOM     44  H   UNL     1       8.127   3.243  -5.243  1.00  0.00     0.167 HD
ATOM     45  C   UNL     1      11.369   0.775  -3.640  1.00  0.00     0.034 A 
ATOM     46  C   UNL     1       7.077   5.300  -6.836  1.00  0.00     0.034 A 
ATOM     47  C   UNL     1      12.018   1.694  -4.545  1.00  0.00     0.049 A 
ATOM     48  C   UNL     1       8.552   5.257  -7.135  1.00  0.00     0.074 A 
ATOM     49  C   UNL     1      13.358   1.777  -4.882  1.00  0.00     0.029 A 
ATOM     50  N   UNL     1      11.365   2.671  -5.285  1.00  0.00    -0.354 N 
ATOM     51  N   UNL     1       9.479   4.488  -6.613  1.00  0.00    -0.248 NA
ATOM     52  C   UNL     1       9.051   6.212  -8.134  1.00  0.00     0.031 C 
ATOM     53  C   UNL     1      13.521   2.827  -5.795  1.00  0.00     0.029 A 
ATOM     54  C   UNL     1      12.274   3.363  -6.072  1.00  0.00     0.049 A 
ATOM     55  H   UNL     1      10.397   2.848  -5.255  1.00  0.00     0.167 HD
ATOM     56  C   UNL     1      10.672   4.872  -7.217  1.00  0.00     0.074 A 
ATOM     57  C   UNL     1      10.341   5.914  -8.168  1.00  0.00     0.031 C 
ATOM     58  C   UNL     1      11.931   4.415  -6.997  1.00  0.00     0.034 A 
BRANCH  45  59
ATOM     59  C   UNL     1      12.216  -0.223  -2.886  1.00  0.00     0.023 A 
ATOM     60  C   UNL     1      12.091  -1.610  -3.071  1.00  0.00     0.031 A 
ATOM     61  C   UNL     1      13.137   0.232  -1.923  1.00  0.00     0.131 A 
ATOM     62  C   UNL     1      12.815  -2.493  -2.253  1.00  0.00     0.055 A 
ATOM     63  C   UNL     1      13.912  -0.650  -1.168  1.00  0.00     0.041 A 
ATOM     64  F   UNL     1      13.287   1.545  -1.688  1.00  0.00    -0.206 F 
ATOM     65  C   UNL     1      13.741  -2.022  -1.319  1.00  0.00     0.022 A 
BRANCH  62  66
ATOM     66  S   UNL     1      12.422  -4.263  -2.324  1.00  0.00     0.124 S 
ATOM     67  O   UNL     1      11.003  -4.264  -1.976  1.00  0.00    -0.237 OA
ATOM     68  O   UNL     1      12.741  -4.601  -3.706  1.00  0.00    -0.237 OA
ATOM     69  O   UNL     1      13.304  -4.851  -1.318  1.00  0.00    -0.744 OA
ENDBRANCH  62  66
ENDBRANCH  45  59
BRANCH  46  70
ATOM     70  C   UNL     1       6.199   6.306  -7.500  1.00  0.00     0.023 A 
ATOM     71  C   UNL     1       5.945   6.250  -8.880  1.00  0.00     0.031 A 
ATOM     72  C   UNL     1       5.629   7.361  -6.765  1.00  0.00     0.131 A 
ATOM     73  C   UNL     1       5.168   7.250  -9.487  1.00  0.00     0.055 A 
ATOM     74  C   UNL     1       4.815   8.323  -7.364  1.00  0.00     0.041 A 
ATOM     75  F   UNL     1       5.844   7.462  -5.444  1.00  0.00    -0.206 F 
ATOM     76  C   UNL     1       4.589   8.276  -8.736  1.00  0.00     0.022 A 
BRANCH  73  77
ATOM     77  S   UNL     1       4.978   7.230 -11.291  1.00  0.00     0.124 S 
ATOM     78  O   UNL     1       6.362   7.332 -11.738  1.00  0.00    -0.237 OA
ATOM     79  O   UNL     1       4.324   5.944 -11.514  1.00  0.00    -0.237 OA
ATOM     80  O   UNL     1       4.147   8.402 -11.559  1.00  0.00    -0.744 OA
ENDBRANCH  73  77
ENDBRANCH  46  70
BRANCH  58  81
ATOM     81  C   UNL     1      13.027   5.036  -7.825  1.00  0.00     0.023 A 
ATOM     82  C   UNL     1      13.425   6.370  -7.630  1.00  0.00     0.031 A 
ATOM     83  C   UNL     1      13.649   4.297  -8.845  1.00  0.00     0.131 A 
ATOM     84  C   UNL     1      14.378   6.945  -8.485  1.00  0.00     0.055 A 
ATOM     85  C   UNL     1      14.632   4.860  -9.661  1.00  0.00     0.041 A 
ATOM     86  F   UNL     1      13.303   3.020  -9.073  1.00  0.00    -0.206 F 
ATOM     87  C   UNL     1      14.991   6.195  -9.492  1.00  0.00     0.022 A 
BRANCH  84  88
ATOM     88  S   UNL     1      14.737   8.716  -8.325  1.00  0.00     0.124 S 
ATOM     89  O   UNL     1      13.413   9.311  -8.481  1.00  0.00    -0.237 OA
ATOM     90  O   UNL     1      15.318   8.796  -6.989  1.00  0.00    -0.237 OA
ATOM     91  O   UNL     1      15.667   8.978  -9.421  1.00  0.00    -0.744 OA
ENDBRANCH  84  88
ENDBRANCH  58  81
ENDBRANCH  32  33
ENDBRANCH  25  27
ENDBRANCH  24  25
ENDBRANCH  23  24
ENDBRANCH   1  23
TORSDOF 18
