REMARK SMILES CC[C@H]1Sc2ccc(S(=O)(=O)N3CCC(C(=O)OCCOC(=O)c4ccc(-c5c6nc(c(-c7cc(S(=O)(=O)[O-])ccc7F)c7ccc([nH]7)c(-c7cc(S(=O)(=O)[O-])ccc7F)c7nc(c(-c8cc(S(=O)(=O)[O-])ccc8F)c8ccc5[nH]8)C=C7)C=C6)cc4)CC3)cc2NC1=O
REMARK SMILES IDX 19 1 18 2 16 3 17 4 15 5 12 6 13 7 88 8 14 9 87 10 9 11
REMARK SMILES IDX 10 12 11 13 8 14 3 15 4 16 92 17 5 18 91 19 93 20 6 21 90 22
REMARK SMILES IDX 7 24 89 25 2 26 1 27 20 28 21 29 22 30 23 31 24 32 25 33
REMARK SMILES IDX 86 34 26 35 85 36 27 37 28 38 29 39 79 40 30 41 84 42 78 43
REMARK SMILES IDX 80 44 31 45 83 46 77 47 76 48 32 50 64 51 44 52 63 53 45 54
REMARK SMILES IDX 48 55 62 56 81 57 46 58 47 59 61 61 82 62 49 63 33 64 34 65
REMARK SMILES IDX 42 66 35 67 41 68 43 69 40 70 36 71 37 72 38 73 39 74 65 75
REMARK SMILES IDX 66 76 74 77 67 78 73 79 75 80 72 81 68 82 69 83 70 84 71 85
REMARK SMILES IDX 50 86 51 87 59 88 52 89 58 90 60 91 57 92 53 93 54 94 55 95
REMARK SMILES IDX 56 96
REMARK H PARENT 91 23 80 49 48 60
REMARK Flexibility Score: inf
ROOT
ATOM      1  C   UNL     1       4.195  10.244  -4.543  1.00  0.00     0.274 C 
ENDROOT
BRANCH   1   2
ATOM      2  O   UNL     1       3.033   9.395  -4.548  1.00  0.00    -0.462 OA
BRANCH   2   3
ATOM      3  C   UNL     1       3.192   8.182  -5.131  1.00  0.00     0.309 C 
ATOM      4  O   UNL     1       4.207   7.810  -5.711  1.00  0.00    -0.252 OA
BRANCH   3   5
ATOM      5  C   UNL     1       1.971   7.298  -5.022  1.00  0.00     0.102 C 
ATOM      6  N   UNL     1      -0.703   6.269  -5.118  1.00  0.00    -0.198 NA
ATOM      7  C   UNL     1      -0.088   6.581  -3.801  1.00  0.00     0.103 C 
ATOM      8  C   UNL     1       0.185   6.134  -6.299  1.00  0.00     0.103 C 
ATOM      9  C   UNL     1       0.985   7.657  -3.917  1.00  0.00     0.032 C 
ATOM     10  C   UNL     1       1.228   7.241  -6.347  1.00  0.00     0.032 C 
BRANCH   6  11
ATOM     11  S   UNL     1      -2.080   5.259  -5.094  1.00  0.00     0.243 S 
ATOM     12  O   UNL     1      -2.609   5.210  -6.442  1.00  0.00    -0.207 OA
ATOM     13  O   UNL     1      -2.908   5.679  -3.983  1.00  0.00    -0.207 OA
BRANCH  11  14
ATOM     14  C   UNL     1      -1.548   3.598  -4.713  1.00  0.00     0.084 A 
ATOM     15  C   UNL     1       0.920  -0.349  -2.440  1.00  0.00     0.141 C 
ATOM     16  S   UNL     1      -0.522  -0.702  -3.517  1.00  0.00    -0.111 SA
ATOM     17  C   UNL     1       1.918   0.540  -3.177  1.00  0.00     0.237 C 
ATOM     18  C   UNL     1      -0.904   0.973  -3.976  1.00  0.00     0.032 A 
ATOM     19  N   UNL     1       1.448   1.645  -3.841  1.00  0.00    -0.324 N 
ATOM     20  O   UNL     1       3.135   0.387  -3.086  1.00  0.00    -0.273 OA
ATOM     21  C   UNL     1      -2.229   1.318  -4.250  1.00  0.00     0.018 A 
ATOM     22  C   UNL     1       0.102   1.941  -4.099  1.00  0.00     0.056 A 
ATOM     23  H   UNL     1       2.118   2.290  -4.166  1.00  0.00     0.170 HD
ATOM     24  C   UNL     1      -2.554   2.630  -4.603  1.00  0.00     0.023 A 
ATOM     25  C   UNL     1      -0.216   3.244  -4.491  1.00  0.00     0.049 A 
BRANCH  15  26
ATOM     26  C   UNL     1       0.467   0.324  -1.130  1.00  0.00     0.021 C 
ATOM     27  C   UNL     1       1.203  -0.234   0.081  1.00  0.00     0.005 C 
ENDBRANCH  15  26
ENDBRANCH  11  14
ENDBRANCH   6  11
ENDBRANCH   3   5
ENDBRANCH   2   3
ENDBRANCH   1   2
BRANCH   1  28
ATOM     28  C   UNL     1       4.904  10.215  -3.186  1.00  0.00     0.275 C 
BRANCH  28  29
ATOM     29  O   UNL     1       5.468   8.922  -2.897  1.00  0.00    -0.458 OA
BRANCH  29  30
ATOM     30  C   UNL     1       4.689   8.113  -2.141  1.00  0.00     0.338 C 
ATOM     31  O   UNL     1       3.588   8.370  -1.685  1.00  0.00    -0.246 OA
BRANCH  30  32
ATOM     32  C   UNL     1       5.299   6.779  -2.032  1.00  0.00     0.060 A 
ATOM     33  C   UNL     1       4.677   5.718  -2.693  1.00  0.00     0.016 A 
ATOM     34  C   UNL     1       6.399   6.550  -1.205  1.00  0.00     0.016 A 
ATOM     35  C   UNL     1       5.144   4.418  -2.527  1.00  0.00     0.010 A 
ATOM     36  C   UNL     1       6.878   5.243  -1.051  1.00  0.00     0.010 A 
ATOM     37  C   UNL     1       6.248   4.167  -1.703  1.00  0.00    -0.014 A 
BRANCH  37  38
ATOM     38  C   UNL     1       6.715   2.770  -1.511  1.00  0.00     0.031 A 
ATOM     39  C   UNL     1       6.512   2.082  -0.190  1.00  0.00     0.074 A 
ATOM     40  C   UNL     1       7.296   2.115  -2.534  1.00  0.00     0.049 A 
ATOM     41  N   UNL     1       6.917   0.902   0.202  1.00  0.00    -0.248 NA
ATOM     42  C   UNL     1       5.761   2.831   0.828  1.00  0.00     0.031 C 
ATOM     43  C   UNL     1       7.503   2.665  -3.876  1.00  0.00     0.029 A 
ATOM     44  N   UNL     1       7.815   0.848  -2.611  1.00  0.00    -0.354 N 
ATOM     45  C   UNL     1       6.484   0.767   1.517  1.00  0.00     0.074 A 
ATOM     46  C   UNL     1       5.816   2.006   1.864  1.00  0.00     0.031 C 
ATOM     47  C   UNL     1       8.091   1.734  -4.644  1.00  0.00     0.029 A 
ATOM     48  C   UNL     1       8.360   0.548  -3.837  1.00  0.00     0.049 A 
ATOM     49  H   UNL     1       7.798   0.212  -1.859  1.00  0.00     0.167 HD
ATOM     50  C   UNL     1       6.628  -0.293   2.351  1.00  0.00     0.034 A 
ATOM     51  C   UNL     1       9.030  -0.544  -4.255  1.00  0.00     0.034 A 
ATOM     52  C   UNL     1       7.295  -1.520   1.982  1.00  0.00     0.049 A 
ATOM     53  C   UNL     1       9.244  -1.679  -3.285  1.00  0.00     0.074 A 
ATOM     54  C   UNL     1       7.492  -2.659   2.745  1.00  0.00     0.029 A 
ATOM     55  N   UNL     1       7.879  -1.770   0.745  1.00  0.00    -0.354 N 
ATOM     56  N   UNL     1       8.853  -1.784  -2.035  1.00  0.00    -0.248 NA
ATOM     57  C   UNL     1       9.992  -2.840  -3.781  1.00  0.00     0.031 C 
ATOM     58  C   UNL     1       8.255  -3.564   1.998  1.00  0.00     0.029 A 
ATOM     59  C   UNL     1       8.467  -3.027   0.739  1.00  0.00     0.049 A 
ATOM     60  H   UNL     1       7.876  -1.145  -0.016  1.00  0.00     0.167 HD
ATOM     61  C   UNL     1       9.287  -3.035  -1.606  1.00  0.00     0.074 A 
ATOM     62  C   UNL     1       9.953  -3.652  -2.735  1.00  0.00     0.031 C 
ATOM     63  C   UNL     1       9.147  -3.622  -0.389  1.00  0.00     0.034 A 
BRANCH  50  64
ATOM     64  C   UNL     1       6.106  -0.143   3.761  1.00  0.00     0.023 A 
ATOM     65  C   UNL     1       4.738   0.033   4.033  1.00  0.00     0.031 A 
ATOM     66  C   UNL     1       6.997  -0.146   4.850  1.00  0.00     0.131 A 
ATOM     67  C   UNL     1       4.311   0.271   5.349  1.00  0.00     0.055 A 
ATOM     68  C   UNL     1       6.556   0.010   6.165  1.00  0.00     0.041 A 
ATOM     69  F   UNL     1       8.318  -0.287   4.652  1.00  0.00    -0.206 F 
ATOM     70  C   UNL     1       5.207   0.236   6.420  1.00  0.00     0.022 A 
BRANCH  67  71
ATOM     71  S   UNL     1       2.589   0.773   5.623  1.00  0.00     0.124 S 
ATOM     72  O   UNL     1       2.498   1.977   4.800  1.00  0.00    -0.237 OA
ATOM     73  O   UNL     1       1.842  -0.385   5.144  1.00  0.00    -0.237 OA
ATOM     74  O   UNL     1       2.525   1.006   7.064  1.00  0.00    -0.744 OA
ENDBRANCH  67  71
ENDBRANCH  50  64
BRANCH  51  75
ATOM     75  C   UNL     1       9.597  -0.600  -5.633  1.00  0.00     0.023 A 
ATOM     76  C   UNL     1       9.169  -1.564  -6.559  1.00  0.00     0.031 A 
ATOM     77  C   UNL     1      10.613   0.289  -6.030  1.00  0.00     0.131 A 
ATOM     78  C   UNL     1       9.782  -1.643  -7.820  1.00  0.00     0.055 A 
ATOM     79  C   UNL     1      11.179   0.244  -7.305  1.00  0.00     0.041 A 
ATOM     80  F   UNL     1      11.062   1.230  -5.184  1.00  0.00    -0.206 F 
ATOM     81  C   UNL     1      10.773  -0.736  -8.204  1.00  0.00     0.022 A 
BRANCH  78  82
ATOM     82  S   UNL     1       9.328  -3.008  -8.925  1.00  0.00     0.124 S 
ATOM     83  O   UNL     1       9.643  -4.173  -8.105  1.00  0.00    -0.237 OA
ATOM     84  O   UNL     1       7.911  -2.751  -9.159  1.00  0.00    -0.237 OA
ATOM     85  O   UNL     1      10.194  -2.809 -10.085  1.00  0.00    -0.744 OA
ENDBRANCH  78  82
ENDBRANCH  51  75
BRANCH  63  86
ATOM     86  C   UNL     1       9.698  -5.020  -0.240  1.00  0.00     0.023 A 
ATOM     87  C   UNL     1      11.078  -5.282  -0.307  1.00  0.00     0.031 A 
ATOM     88  C   UNL     1       8.827  -6.108  -0.053  1.00  0.00     0.131 A 
ATOM     89  C   UNL     1      11.542  -6.605  -0.251  1.00  0.00     0.055 A 
ATOM     90  C   UNL     1       9.300  -7.416   0.066  1.00  0.00     0.041 A 
ATOM     91  F   UNL     1       7.500  -5.917   0.017  1.00  0.00    -0.206 F 
ATOM     92  C   UNL     1      10.663  -7.672  -0.048  1.00  0.00     0.022 A 
BRANCH  89  93
ATOM     93  S   UNL     1      13.303  -6.925  -0.547  1.00  0.00     0.124 S 
ATOM     94  O   UNL     1      13.495  -6.359  -1.878  1.00  0.00    -0.237 OA
ATOM     95  O   UNL     1      13.941  -6.205   0.551  1.00  0.00    -0.237 OA
ATOM     96  O   UNL     1      13.405  -8.381  -0.472  1.00  0.00    -0.744 OA
ENDBRANCH  89  93
ENDBRANCH  63  86
ENDBRANCH  37  38
ENDBRANCH  30  32
ENDBRANCH  29  30
ENDBRANCH  28  29
ENDBRANCH   1  28
TORSDOF 17
