REMARK SMILES CC[C@H]1CCCC[N@H+]1[C@@H]1CC(=O)N(c2nc(CC(=O)OCCOC(=O)c3ccc(-c4c5nc(c(-c6cc(S(=O)(=O)[O-])ccc6F)c6ccc([nH]6)c(-c6cc(S(=O)(=O)[O-])ccc6F)c6nc(c(-c7cc(S(=O)(=O)[O-])ccc7F)c7ccc4[nH]7)C=C6)C=C5)cc3)cs2)C1=O
REMARK SMILES IDX 21 1 20 2 18 3 19 4 17 5 16 6 14 7 15 8 90 9 89 10 13 11
REMARK SMILES IDX 9 12 10 13 91 14 11 15 92 16 12 17 8 18 3 19 4 20 5 21 7 22
REMARK SMILES IDX 6 24 2 25 1 26 22 27 23 28 24 29 25 30 26 31 27 32 88 33
REMARK SMILES IDX 28 34 87 35 29 36 30 37 31 38 81 39 32 40 86 41 80 42 82 43
REMARK SMILES IDX 33 44 85 45 79 46 78 47 34 49 66 50 46 51 65 52 47 53 50 54
REMARK SMILES IDX 64 55 83 56 48 57 49 58 63 60 84 61 51 62 35 63 36 64 44 65
REMARK SMILES IDX 37 66 43 67 45 68 42 69 38 70 39 71 40 72 41 73 67 74 68 75
REMARK SMILES IDX 76 76 69 77 75 78 77 79 74 80 70 81 71 82 72 83 73 84 52 85
REMARK SMILES IDX 53 86 61 87 54 88 60 89 62 90 59 91 55 92 56 93 57 94 58 95
REMARK H PARENT 8 23 82 48 50 59
REMARK Flexibility Score: inf
ROOT
ATOM      1  C   UNL     1      -8.011   7.790   3.375  1.00  0.00     0.274 C 
ENDROOT
BRANCH   1   2
ATOM      2  O   UNL     1      -7.300   7.319   2.215  1.00  0.00    -0.462 OA
BRANCH   2   3
ATOM      3  C   UNL     1      -7.911   7.514   1.015  1.00  0.00     0.312 C 
ATOM      4  O   UNL     1      -9.050   7.950   0.880  1.00  0.00    -0.252 OA
BRANCH   3   5
ATOM      5  C   UNL     1      -7.058   7.120  -0.168  1.00  0.00     0.179 C 
BRANCH   5   6
ATOM      6  C   UNL     1      -5.603   6.994   0.129  1.00  0.00     0.065 A 
ATOM      7  C   UNL     1      -3.754   5.785   0.260  1.00  0.00     0.199 A 
ATOM      8  N   UNL     1      -5.014   5.766  -0.103  1.00  0.00    -0.224 NA
ATOM      9  S   UNL     1      -3.191   7.275   0.886  1.00  0.00    -0.104 S 
ATOM     10  C   UNL     1      -4.726   7.969   0.569  1.00  0.00     0.093 A 
BRANCH   7  11
ATOM     11  N   UNL     1      -2.854   4.779   0.038  1.00  0.00    -0.219 N 
ATOM     12  C   UNL     1      -1.076   3.282   0.240  1.00  0.00     0.285 C 
ATOM     13  C   UNL     1      -1.742   3.119  -1.119  1.00  0.00     0.176 C 
ATOM     14  C   UNL     1      -1.842   4.434   0.892  1.00  0.00     0.294 C 
ATOM     15  C   UNL     1      -2.970   3.965  -1.051  1.00  0.00     0.242 C 
ATOM     16  O   UNL     1      -1.615   4.861   2.017  1.00  0.00    -0.267 OA
ATOM     17  O   UNL     1      -3.829   3.920  -1.920  1.00  0.00    -0.274 OA
BRANCH  12  18
ATOM     18  N   UNL     1       0.379   3.506   0.268  1.00  0.00    -0.322 N 
ATOM     19  C   UNL     1       1.219   2.346  -0.101  1.00  0.00     0.184 C 
ATOM     20  C   UNL     1       2.656   2.632   0.383  1.00  0.00     0.065 C 
ATOM     21  C   UNL     1       3.211   3.927  -0.200  1.00  0.00     0.012 C 
ATOM     22  C   UNL     1       0.835   4.782  -0.296  1.00  0.00     0.263 C 
ATOM     23  H   UNL     1       0.548   3.607   1.269  1.00  0.00     0.349 HD
ATOM     24  C   UNL     1       2.275   5.084   0.121  1.00  0.00     0.062 C 
BRANCH  19  25
ATOM     25  C   UNL     1       1.148   1.945  -1.596  1.00  0.00     0.061 C 
ATOM     26  C   UNL     1       2.112   0.842  -2.012  1.00  0.00     0.010 C 
ENDBRANCH  19  25
ENDBRANCH  12  18
ENDBRANCH   7  11
ENDBRANCH   5   6
ENDBRANCH   3   5
ENDBRANCH   2   3
ENDBRANCH   1   2
BRANCH   1  27
ATOM     27  C   UNL     1      -7.481   9.159   3.795  1.00  0.00     0.275 C 
BRANCH  27  28
ATOM     28  O   UNL     1      -7.669  10.098   2.722  1.00  0.00    -0.458 OA
BRANCH  28  29
ATOM     29  C   UNL     1      -6.564  10.768   2.322  1.00  0.00     0.338 C 
ATOM     30  O   UNL     1      -5.444  10.705   2.794  1.00  0.00    -0.246 OA
BRANCH  29  31
ATOM     31  C   UNL     1      -6.910  11.623   1.177  1.00  0.00     0.060 A 
ATOM     32  C   UNL     1      -7.267  11.052  -0.047  1.00  0.00     0.016 A 
ATOM     33  C   UNL     1      -6.810  13.006   1.312  1.00  0.00     0.016 A 
ATOM     34  C   UNL     1      -7.517  11.866  -1.150  1.00  0.00     0.010 A 
ATOM     35  C   UNL     1      -7.113  13.822   0.220  1.00  0.00     0.010 A 
ATOM     36  C   UNL     1      -7.463  13.259  -1.020  1.00  0.00    -0.014 A 
BRANCH  36  37
ATOM     37  C   UNL     1      -7.779  14.149  -2.165  1.00  0.00     0.031 A 
ATOM     38  C   UNL     1      -6.705  15.018  -2.754  1.00  0.00     0.074 A 
ATOM     39  C   UNL     1      -9.041  14.216  -2.632  1.00  0.00     0.049 A 
ATOM     40  N   UNL     1      -6.813  16.015  -3.592  1.00  0.00    -0.248 NA
ATOM     41  C   UNL     1      -5.327  14.728  -2.332  1.00  0.00     0.031 C 
ATOM     42  C   UNL     1     -10.157  13.386  -2.174  1.00  0.00     0.029 A 
ATOM     43  N   UNL     1      -9.603  15.037  -3.577  1.00  0.00    -0.354 N 
ATOM     44  C   UNL     1      -5.521  16.494  -3.780  1.00  0.00     0.074 A 
ATOM     45  C   UNL     1      -4.650  15.685  -2.952  1.00  0.00     0.031 C 
ATOM     46  C   UNL     1     -11.270  13.748  -2.830  1.00  0.00     0.029 A 
ATOM     47  C   UNL     1     -10.965  14.883  -3.694  1.00  0.00     0.049 A 
ATOM     48  H   UNL     1      -9.082  15.673  -4.119  1.00  0.00     0.167 HD
ATOM     49  C   UNL     1      -5.107  17.516  -4.569  1.00  0.00     0.034 A 
ATOM     50  C   UNL     1     -11.874  15.613  -4.369  1.00  0.00     0.034 A 
ATOM     51  C   UNL     1      -5.995  18.305  -5.389  1.00  0.00     0.049 A 
ATOM     52  C   UNL     1     -11.407  16.812  -5.151  1.00  0.00     0.074 A 
ATOM     53  C   UNL     1      -5.682  19.338  -6.256  1.00  0.00     0.029 A 
ATOM     54  N   UNL     1      -7.376  18.156  -5.434  1.00  0.00    -0.354 N 
ATOM     55  N   UNL     1     -10.187  17.273  -5.304  1.00  0.00    -0.248 NA
ATOM     56  C   UNL     1     -12.441  17.599  -5.836  1.00  0.00     0.031 C 
ATOM     57  C   UNL     1      -6.877  19.855  -6.772  1.00  0.00     0.029 A 
ATOM     58  C   UNL     1      -7.932  19.105  -6.279  1.00  0.00     0.049 A 
ATOM     59  H   UNL     1      -7.886  17.476  -4.938  1.00  0.00     0.167 HD
ATOM     60  C   UNL     1     -10.307  18.401  -6.110  1.00  0.00     0.074 A 
ATOM     61  C   UNL     1     -11.715  18.538  -6.425  1.00  0.00     0.031 C 
ATOM     62  C   UNL     1      -9.342  19.246  -6.553  1.00  0.00     0.034 A 
BRANCH  49  63
ATOM     63  C   UNL     1      -3.642  17.872  -4.532  1.00  0.00     0.023 A 
ATOM     64  C   UNL     1      -2.651  16.994  -5.004  1.00  0.00     0.031 A 
ATOM     65  C   UNL     1      -3.229  19.101  -3.989  1.00  0.00     0.131 A 
ATOM     66  C   UNL     1      -1.295  17.330  -4.865  1.00  0.00     0.055 A 
ATOM     67  C   UNL     1      -1.882  19.460  -3.917  1.00  0.00     0.041 A 
ATOM     68  F   UNL     1      -4.130  19.970  -3.503  1.00  0.00    -0.206 F 
ATOM     69  C   UNL     1      -0.905  18.566  -4.345  1.00  0.00     0.022 A 
BRANCH  66  70
ATOM     70  S   UNL     1      -0.044  16.075  -5.255  1.00  0.00     0.124 S 
ATOM     71  O   UNL     1      -0.419  14.992  -4.349  1.00  0.00    -0.237 OA
ATOM     72  O   UNL     1      -0.275  15.830  -6.673  1.00  0.00    -0.237 OA
ATOM     73  O   UNL     1       1.218  16.737  -4.933  1.00  0.00    -0.744 OA
ENDBRANCH  66  70
ENDBRANCH  49  63
BRANCH  50  74
ATOM     74  C   UNL     1     -13.325  15.288  -4.265  1.00  0.00     0.023 A 
ATOM     75  C   UNL     1     -14.053  14.858  -5.383  1.00  0.00     0.031 A 
ATOM     76  C   UNL     1     -14.011  15.438  -3.045  1.00  0.00     0.131 A 
ATOM     77  C   UNL     1     -15.432  14.620  -5.268  1.00  0.00     0.055 A 
ATOM     78  C   UNL     1     -15.371  15.153  -2.925  1.00  0.00     0.041 A 
ATOM     79  F   UNL     1     -13.360  15.850  -1.946  1.00  0.00    -0.206 F 
ATOM     80  C   UNL     1     -16.092  14.751  -4.044  1.00  0.00     0.022 A 
BRANCH  77  81
ATOM     81  S   UNL     1     -16.369  14.200  -6.763  1.00  0.00     0.124 S 
ATOM     82  O   UNL     1     -16.116  15.362  -7.608  1.00  0.00    -0.237 OA
ATOM     83  O   UNL     1     -15.734  12.954  -7.179  1.00  0.00    -0.237 OA
ATOM     84  O   UNL     1     -17.741  14.067  -6.279  1.00  0.00    -0.744 OA
ENDBRANCH  77  81
ENDBRANCH  50  74
BRANCH  62  85
ATOM     85  C   UNL     1      -9.790  20.379  -7.439  1.00  0.00     0.023 A 
ATOM     86  C   UNL     1     -10.533  21.458  -6.929  1.00  0.00     0.031 A 
ATOM     87  C   UNL     1      -9.482  20.371  -8.810  1.00  0.00     0.131 A 
ATOM     88  C   UNL     1     -10.982  22.465  -7.795  1.00  0.00     0.055 A 
ATOM     89  C   UNL     1      -9.889  21.402  -9.658  1.00  0.00     0.041 A 
ATOM     90  F   UNL     1      -8.778  19.362  -9.346  1.00  0.00    -0.206 F 
ATOM     91  C   UNL     1     -10.652  22.451  -9.153  1.00  0.00     0.022 A 
BRANCH  88  92
ATOM     92  S   UNL     1     -12.061  23.766  -7.137  1.00  0.00     0.124 S 
ATOM     93  O   UNL     1     -13.230  23.003  -6.712  1.00  0.00    -0.237 OA
ATOM     94  O   UNL     1     -11.249  24.337  -6.067  1.00  0.00    -0.237 OA
ATOM     95  O   UNL     1     -12.278  24.645  -8.284  1.00  0.00    -0.744 OA
ENDBRANCH  88  92
ENDBRANCH  62  85
ENDBRANCH  36  37
ENDBRANCH  29  31
ENDBRANCH  28  29
ENDBRANCH  27  28
ENDBRANCH   1  27
TORSDOF 18
