REMARK SMILES CC(=O)n1cc2c3c(cccc31)C(=O)C[C@@H]2C(=O)OCCOC(=O)c1ccc(-c2c3nc(c(-c4cc(S(=O)(=O)[O-])ccc4F)c4ccc([nH]4)c(-c4cc(S(=O)(=O)[O-])ccc4F)c4nc(c(-c5cc(S(=O)(=O)[O-])ccc5F)c5ccc2[nH]5)C=C4)C=C3)cc1
REMARK SMILES IDX 21 1 20 2 19 3 17 4 18 5 16 6 4 7 5 8 12 9 6 10 7 11 11 12
REMARK SMILES IDX 8 13 10 14 15 15 9 16 13 17 14 18 2 19 1 20 3 21 22 22 23 23
REMARK SMILES IDX 24 24 25 25 26 26 87 27 27 28 86 29 28 30 29 31 30 32 80 33
REMARK SMILES IDX 31 34 85 35 79 36 81 37 32 38 84 39 78 40 77 41 33 43 65 44
REMARK SMILES IDX 45 45 64 46 46 47 49 48 63 49 82 50 47 51 48 52 62 54 83 55
REMARK SMILES IDX 50 56 34 57 35 58 43 59 36 60 42 61 44 62 41 63 37 64 38 65
REMARK SMILES IDX 39 66 40 67 66 68 67 69 75 70 68 71 74 72 76 73 73 74 69 75
REMARK SMILES IDX 70 76 71 77 72 78 51 79 52 80 60 81 53 82 59 83 61 84 58 85
REMARK SMILES IDX 54 86 55 87 56 88 57 89
REMARK H PARENT 81 42 49 53
REMARK Flexibility Score: inf
ROOT
ATOM      1  C   UNL     1       6.489   2.238  -5.172  1.00  0.00     0.275 C 
ENDROOT
BRANCH   1   2
ATOM      2  C   UNL     1       5.301   1.472  -4.590  1.00  0.00     0.274 C 
BRANCH   2   3
ATOM      3  O   UNL     1       4.162   2.315  -4.314  1.00  0.00    -0.462 OA
BRANCH   3   4
ATOM      4  C   UNL     1       4.131   2.896  -3.080  1.00  0.00     0.314 C 
ATOM      5  O   UNL     1       4.924   2.639  -2.178  1.00  0.00    -0.252 OA
BRANCH   4   6
ATOM      6  C   UNL     1       2.929   3.814  -2.872  1.00  0.00     0.139 C 
ATOM      7  N   UNL     1       0.305   1.420  -1.740  1.00  0.00    -0.287 N 
ATOM      8  C   UNL     1       1.626   1.859  -1.706  1.00  0.00     0.100 A 
ATOM      9  C   UNL     1      -0.418   2.316  -2.537  1.00  0.00     0.057 A 
ATOM     10  C   UNL     1       1.756   2.967  -2.506  1.00  0.00    -0.006 A 
ATOM     11  C   UNL     1       0.481   3.272  -2.983  1.00  0.00     0.015 A 
ATOM     12  C   UNL     1      -1.774   2.417  -2.897  1.00  0.00     0.027 A 
ATOM     13  C   UNL     1       0.082   4.345  -3.775  1.00  0.00     0.027 A 
ATOM     14  C   UNL     1      -2.173   3.522  -3.675  1.00  0.00     0.003 A 
ATOM     15  C   UNL     1       2.611   4.759  -4.063  1.00  0.00     0.101 C 
ATOM     16  C   UNL     1      -1.261   4.489  -4.106  1.00  0.00     0.012 A 
ATOM     17  C   UNL     1       1.164   5.262  -4.187  1.00  0.00     0.164 C 
ATOM     18  O   UNL     1       0.878   6.345  -4.688  1.00  0.00    -0.294 OA
BRANCH   7  19
ATOM     19  C   UNL     1      -0.210   0.288  -1.075  1.00  0.00     0.227 C 
ATOM     20  C   UNL     1       0.700  -0.308  -0.040  1.00  0.00     0.115 C 
ATOM     21  O   UNL     1      -1.335  -0.123  -1.325  1.00  0.00    -0.274 OA
ENDBRANCH   7  19
ENDBRANCH   4   6
ENDBRANCH   3   4
ENDBRANCH   2   3
ENDBRANCH   1   2
BRANCH   1  22
ATOM     22  O   UNL     1       6.993   3.204  -4.249  1.00  0.00    -0.458 OA
BRANCH  22  23
ATOM     23  C   UNL     1       6.345   4.386  -4.324  1.00  0.00     0.338 C 
ATOM     24  O   UNL     1       5.376   4.644  -5.019  1.00  0.00    -0.246 OA
BRANCH  23  25
ATOM     25  C   UNL     1       6.994   5.404  -3.509  1.00  0.00     0.060 A 
ATOM     26  C   UNL     1       6.216   6.518  -3.161  1.00  0.00     0.016 A 
ATOM     27  C   UNL     1       8.390   5.419  -3.487  1.00  0.00     0.016 A 
ATOM     28  C   UNL     1       6.846   7.731  -3.020  1.00  0.00     0.010 A 
ATOM     29  C   UNL     1       9.011   6.638  -3.370  1.00  0.00     0.010 A 
ATOM     30  C   UNL     1       8.223   7.783  -3.232  1.00  0.00    -0.014 A 
BRANCH  30  31
ATOM     31  C   UNL     1       8.818   9.085  -3.407  1.00  0.00     0.031 A 
ATOM     32  C   UNL     1       9.259   9.751  -2.167  1.00  0.00     0.074 A 
ATOM     33  C   UNL     1       9.091   9.560  -4.634  1.00  0.00     0.049 A 
ATOM     34  N   UNL     1       8.821  10.844  -1.634  1.00  0.00    -0.248 NA
ATOM     35  C   UNL     1      10.240   9.021  -1.352  1.00  0.00     0.031 C 
ATOM     36  C   UNL     1       9.059   8.834  -5.909  1.00  0.00     0.029 A 
ATOM     37  N   UNL     1       9.602  10.769  -4.974  1.00  0.00    -0.354 N 
ATOM     38  C   UNL     1       9.596  11.029  -0.494  1.00  0.00     0.074 A 
ATOM     39  C   UNL     1      10.304   9.793  -0.272  1.00  0.00     0.031 C 
ATOM     40  C   UNL     1       9.757   9.540  -6.827  1.00  0.00     0.029 A 
ATOM     41  C   UNL     1      10.159  10.807  -6.238  1.00  0.00     0.049 A 
ATOM     42  H   UNL     1       9.578  11.550  -4.374  1.00  0.00     0.167 HD
ATOM     43  C   UNL     1       9.793  12.248   0.077  1.00  0.00     0.034 A 
ATOM     44  C   UNL     1      11.004  11.760  -6.696  1.00  0.00     0.034 A 
ATOM     45  C   UNL     1       8.878  13.238  -0.413  1.00  0.00     0.049 A 
ATOM     46  C   UNL     1      10.890  12.945  -5.803  1.00  0.00     0.074 A 
ATOM     47  C   UNL     1       7.510  13.403  -0.370  1.00  0.00     0.029 A 
ATOM     48  N   UNL     1       9.336  14.096  -1.383  1.00  0.00    -0.354 N 
ATOM     49  N   UNL     1       9.835  13.707  -5.708  1.00  0.00    -0.248 NA
ATOM     50  C   UNL     1      11.831  13.050  -4.697  1.00  0.00     0.031 C 
ATOM     51  C   UNL     1       7.168  14.027  -1.604  1.00  0.00     0.029 A 
ATOM     52  C   UNL     1       8.349  14.216  -2.328  1.00  0.00     0.049 A 
ATOM     53  H   UNL     1      10.212  14.544  -1.398  1.00  0.00     0.167 HD
ATOM     54  C   UNL     1       9.774  14.070  -4.368  1.00  0.00     0.074 A 
ATOM     55  C   UNL     1      11.087  13.737  -3.826  1.00  0.00     0.031 C 
ATOM     56  C   UNL     1       8.585  14.348  -3.754  1.00  0.00     0.034 A 
BRANCH  43  57
ATOM     57  C   UNL     1      11.033  12.589   0.854  1.00  0.00     0.023 A 
ATOM     58  C   UNL     1      12.240  11.884   0.676  1.00  0.00     0.031 A 
ATOM     59  C   UNL     1      11.100  13.740   1.656  1.00  0.00     0.131 A 
ATOM     60  C   UNL     1      13.413  12.254   1.338  1.00  0.00     0.055 A 
ATOM     61  C   UNL     1      12.296  14.162   2.252  1.00  0.00     0.041 A 
ATOM     62  F   UNL     1      10.016  14.506   1.852  1.00  0.00    -0.206 F 
ATOM     63  C   UNL     1      13.457  13.409   2.109  1.00  0.00     0.022 A 
BRANCH  60  64
ATOM     64  S   UNL     1      14.885  11.201   1.229  1.00  0.00     0.124 S 
ATOM     65  O   UNL     1      15.811  12.060   0.501  1.00  0.00    -0.237 OA
ATOM     66  O   UNL     1      15.198  10.978   2.639  1.00  0.00    -0.237 OA
ATOM     67  O   UNL     1      14.406  10.022   0.513  1.00  0.00    -0.744 OA
ENDBRANCH  60  64
ENDBRANCH  43  57
BRANCH  44  68
ATOM     68  C   UNL     1      12.197  11.510  -7.539  1.00  0.00     0.023 A 
ATOM     69  C   UNL     1      12.844  10.258  -7.506  1.00  0.00     0.031 A 
ATOM     70  C   UNL     1      12.869  12.564  -8.176  1.00  0.00     0.131 A 
ATOM     71  C   UNL     1      14.117  10.092  -8.064  1.00  0.00     0.055 A 
ATOM     72  C   UNL     1      14.141  12.398  -8.736  1.00  0.00     0.041 A 
ATOM     73  F   UNL     1      12.327  13.791  -8.216  1.00  0.00    -0.206 F 
ATOM     74  C   UNL     1      14.775  11.158  -8.675  1.00  0.00     0.022 A 
BRANCH  71  75
ATOM     75  S   UNL     1      14.944   8.480  -7.972  1.00  0.00     0.124 S 
ATOM     76  O   UNL     1      15.595   8.382  -9.277  1.00  0.00    -0.237 OA
ATOM     77  O   UNL     1      15.838   8.666  -6.836  1.00  0.00    -0.237 OA
ATOM     78  O   UNL     1      13.840   7.545  -7.767  1.00  0.00    -0.744 OA
ENDBRANCH  71  75
ENDBRANCH  44  68
BRANCH  56  79
ATOM     79  C   UNL     1       7.349  14.519  -4.608  1.00  0.00     0.023 A 
ATOM     80  C   UNL     1       6.571  15.675  -4.415  1.00  0.00     0.031 A 
ATOM     81  C   UNL     1       6.807  13.494  -5.406  1.00  0.00     0.131 A 
ATOM     82  C   UNL     1       5.293  15.767  -4.983  1.00  0.00     0.055 A 
ATOM     83  C   UNL     1       5.558  13.616  -6.022  1.00  0.00     0.041 A 
ATOM     84  F   UNL     1       7.426  12.315  -5.538  1.00  0.00    -0.206 F 
ATOM     85  C   UNL     1       4.788  14.752  -5.801  1.00  0.00     0.022 A 
BRANCH  82  86
ATOM     86  S   UNL     1       4.199  17.150  -4.569  1.00  0.00     0.124 S 
ATOM     87  O   UNL     1       3.911  17.724  -5.881  1.00  0.00    -0.237 OA
ATOM     88  O   UNL     1       3.077  16.473  -3.924  1.00  0.00    -0.237 OA
ATOM     89  O   UNL     1       5.006  17.989  -3.688  1.00  0.00    -0.744 OA
ENDBRANCH  82  86
ENDBRANCH  56  79
ENDBRANCH  30  31
ENDBRANCH  23  25
ENDBRANCH  22  23
ENDBRANCH   1  22
TORSDOF 15
