REMARK SMILES COc1cc([C@@H]2CC(=O)Nc3c(C(=O)OCCOC(=O)c4ccc(-c5c6nc(c(-c7cc(S(=O)(=O)[O-])ccc7F)c7ccc([nH]7)c(-c7cc(S(=O)(=O)[O-])ccc7F)c7nc(c(-c8cc(S(=O)(=O)[O-])ccc8F)c8ccc5[nH]8)C=C7)C=C6)cc4)cn(-c4ccc(F)cc4)c32)c(OC)c2c1OCO2
REMARK SMILES IDX 17 1 16 2 15 3 13 4 14 5 12 6 6 7 7 8 93 9 8 10 11 11 85 12
REMARK SMILES IDX 9 13 10 14 84 15 5 17 3 18 4 19 98 20 97 21 99 22 94 23
REMARK SMILES IDX 101 24 100 25 2 26 1 27 95 28 96 29 86 30 87 31 92 32 88 33
REMARK SMILES IDX 91 34 89 35 90 36 18 37 19 38 20 39 21 40 22 41 83 42 23 43
REMARK SMILES IDX 82 44 24 45 25 46 26 47 76 48 27 49 81 50 75 51 77 52 28 53
REMARK SMILES IDX 80 54 74 55 73 56 29 58 61 59 41 60 60 61 42 62 45 63 59 64
REMARK SMILES IDX 78 65 43 66 44 67 58 69 79 70 46 71 30 72 31 73 39 74 32 75
REMARK SMILES IDX 38 76 40 77 37 78 33 79 34 80 35 81 36 82 62 83 63 84 71 85
REMARK SMILES IDX 64 86 70 87 72 88 69 89 65 90 66 91 67 92 68 93 47 94 48 95
REMARK SMILES IDX 56 96 49 97 55 98 57 99 54 100 50 101 51 102 52 103 53 104
REMARK H PARENT 10 16 77 57 45 68
REMARK Flexibility Score: inf
ROOT
ATOM      1  C   UNL     1       0.100   4.213 -11.839  1.00  0.00     0.275 C 
ENDROOT
BRANCH   1   2
ATOM      2  C   UNL     1       1.304   3.950 -10.942  1.00  0.00     0.275 C 
BRANCH   2   3
ATOM      3  O   UNL     1       0.940   3.204  -9.765  1.00  0.00    -0.458 OA
BRANCH   3   4
ATOM      4  C   UNL     1       0.468   3.924  -8.697  1.00  0.00     0.341 C 
ATOM      5  O   UNL     1       0.566   5.144  -8.587  1.00  0.00    -0.246 OA
BRANCH   4   6
ATOM      6  C   UNL     1      -0.201   3.086  -7.713  1.00  0.00     0.102 A 
ATOM      7  C   UNL     1      -0.583  -0.043  -5.807  1.00  0.00     0.082 C 
ATOM      8  C   UNL     1      -0.416  -1.064  -6.949  1.00  0.00     0.115 C 
ATOM      9  C   UNL     1      -0.701   1.333  -6.386  1.00  0.00     0.055 A 
ATOM     10  C   UNL     1       0.433  -0.591  -8.123  1.00  0.00     0.225 C 
ATOM     11  C   UNL     1      -0.177   1.681  -7.607  1.00  0.00     0.078 A 
ATOM     12  N   UNL     1      -1.320   2.447  -5.860  1.00  0.00    -0.317 N 
ATOM     13  O   UNL     1       1.069  -1.384  -8.821  1.00  0.00    -0.275 OA
ATOM     14  N   UNL     1       0.392   0.743  -8.435  1.00  0.00    -0.324 N 
ATOM     15  C   UNL     1      -1.022   3.520  -6.678  1.00  0.00     0.109 A 
ATOM     16  H   UNL     1       0.787   1.041  -9.287  1.00  0.00     0.170 HD
BRANCH   7  17
ATOM     17  C   UNL     1       0.538  -0.156  -4.758  1.00  0.00     0.012 A 
ATOM     18  C   UNL     1       1.091  -0.656  -2.417  1.00  0.00     0.165 A 
ATOM     19  C   UNL     1       0.181  -0.652  -3.476  1.00  0.00     0.059 A 
ATOM     20  C   UNL     1       2.386  -0.254  -2.677  1.00  0.00     0.211 A 
ATOM     21  C   UNL     1       2.769   0.186  -3.928  1.00  0.00     0.211 A 
ATOM     22  O   UNL     1       3.423  -0.246  -1.791  1.00  0.00    -0.449 OA
ATOM     23  C   UNL     1       1.875   0.258  -4.985  1.00  0.00     0.168 A 
ATOM     24  O   UNL     1       4.089   0.534  -3.952  1.00  0.00    -0.449 OA
ATOM     25  C   UNL     1       4.508   0.172  -2.631  1.00  0.00     0.468 C 
BRANCH  18  26
ATOM     26  O   UNL     1       0.625  -1.085  -1.209  1.00  0.00    -0.493 OA
ATOM     27  C   UNL     1       0.954  -0.202  -0.138  1.00  0.00     0.278 C 
ENDBRANCH  18  26
BRANCH  23  28
ATOM     28  O   UNL     1       2.170   0.706  -6.232  1.00  0.00    -0.492 OA
ATOM     29  C   UNL     1       3.486   1.107  -6.568  1.00  0.00     0.278 C 
ENDBRANCH  23  28
ENDBRANCH   7  17
BRANCH  12  30
ATOM     30  C   UNL     1      -2.071   2.524  -4.667  1.00  0.00     0.046 A 
ATOM     31  C   UNL     1      -1.457   2.225  -3.448  1.00  0.00     0.029 A 
ATOM     32  C   UNL     1      -3.427   2.869  -4.716  1.00  0.00     0.029 A 
ATOM     33  C   UNL     1      -2.212   2.196  -2.278  1.00  0.00     0.041 A 
ATOM     34  C   UNL     1      -4.180   2.837  -3.538  1.00  0.00     0.041 A 
ATOM     35  C   UNL     1      -3.570   2.489  -2.335  1.00  0.00     0.123 A 
ATOM     36  F   UNL     1      -4.297   2.438  -1.210  1.00  0.00    -0.207 F 
ENDBRANCH  12  30
ENDBRANCH   4   6
ENDBRANCH   3   4
ENDBRANCH   2   3
ENDBRANCH   1   2
BRANCH   1  37
ATOM     37  O   UNL     1      -0.783   5.130 -11.205  1.00  0.00    -0.458 OA
BRANCH  37  38
ATOM     38  C   UNL     1      -1.745   4.553 -10.450  1.00  0.00     0.338 C 
ATOM     39  O   UNL     1      -1.854   3.368 -10.184  1.00  0.00    -0.246 OA
BRANCH  38  40
ATOM     40  C   UNL     1      -2.748   5.556 -10.098  1.00  0.00     0.060 A 
ATOM     41  C   UNL     1      -3.822   5.102  -9.325  1.00  0.00     0.016 A 
ATOM     42  C   UNL     1      -2.815   6.708 -10.889  1.00  0.00     0.016 A 
ATOM     43  C   UNL     1      -5.062   5.628  -9.588  1.00  0.00     0.010 A 
ATOM     44  C   UNL     1      -4.053   7.205 -11.176  1.00  0.00     0.010 A 
ATOM     45  C   UNL     1      -5.160   6.583 -10.601  1.00  0.00    -0.014 A 
BRANCH  45  46
ATOM     46  C   UNL     1      -6.468   6.996 -11.042  1.00  0.00     0.031 A 
ATOM     47  C   UNL     1      -7.102   7.945 -10.103  1.00  0.00     0.074 A 
ATOM     48  C   UNL     1      -6.919   6.649 -12.263  1.00  0.00     0.049 A 
ATOM     49  N   UNL     1      -8.188   7.774  -9.430  1.00  0.00    -0.248 NA
ATOM     50  C   UNL     1      -6.326   9.130  -9.693  1.00  0.00     0.031 C 
ATOM     51  C   UNL     1      -6.227   5.908 -13.322  1.00  0.00     0.029 A 
ATOM     52  N   UNL     1      -8.075   7.011 -12.867  1.00  0.00    -0.354 N 
ATOM     53  C   UNL     1      -8.349   8.933  -8.682  1.00  0.00     0.074 A 
ATOM     54  C   UNL     1      -7.082   9.606  -8.706  1.00  0.00     0.031 C 
ATOM     55  C   UNL     1      -6.869   6.109 -14.497  1.00  0.00     0.029 A 
ATOM     56  C   UNL     1      -8.063   6.901 -14.252  1.00  0.00     0.049 A 
ATOM     57  H   UNL     1      -8.861   7.327 -12.365  1.00  0.00     0.167 HD
ATOM     58  C   UNL     1      -9.583   9.362  -8.309  1.00  0.00     0.034 A 
ATOM     59  C   UNL     1      -8.913   7.536 -15.109  1.00  0.00     0.034 A 
ATOM     60  C   UNL     1     -10.551   8.296  -8.426  1.00  0.00     0.049 A 
ATOM     61  C   UNL     1     -10.119   7.890 -14.301  1.00  0.00     0.074 A 
ATOM     62  C   UNL     1     -10.676   7.056  -7.828  1.00  0.00     0.029 A 
ATOM     63  N   UNL     1     -11.327   8.242  -9.564  1.00  0.00    -0.354 N 
ATOM     64  N   UNL     1     -10.898   6.986 -13.761  1.00  0.00    -0.248 NA
ATOM     65  C   UNL     1     -10.142   9.188 -13.634  1.00  0.00     0.031 C 
ATOM     66  C   UNL     1     -11.083   6.184  -8.880  1.00  0.00     0.029 A 
ATOM     67  C   UNL     1     -11.285   6.947 -10.033  1.00  0.00     0.049 A 
ATOM     68  H   UNL     1     -11.822   8.991  -9.968  1.00  0.00     0.167 HD
ATOM     69  C   UNL     1     -11.158   7.443 -12.475  1.00  0.00     0.074 A 
ATOM     70  C   UNL     1     -10.733   8.845 -12.482  1.00  0.00     0.031 C 
ATOM     71  C   UNL     1     -11.389   6.580 -11.437  1.00  0.00     0.034 A 
BRANCH  58  72
ATOM     72  C   UNL     1      -9.975  10.812  -8.168  1.00  0.00     0.023 A 
ATOM     73  C   UNL     1     -11.293  11.079  -7.759  1.00  0.00     0.031 A 
ATOM     74  C   UNL     1      -9.248  11.921  -8.660  1.00  0.00     0.131 A 
ATOM     75  C   UNL     1     -11.858  12.352  -7.933  1.00  0.00     0.055 A 
ATOM     76  C   UNL     1      -9.792  13.203  -8.766  1.00  0.00     0.041 A 
ATOM     77  F   UNL     1      -8.009  11.822  -9.156  1.00  0.00    -0.206 F 
ATOM     78  C   UNL     1     -11.116  13.418  -8.433  1.00  0.00     0.022 A 
BRANCH  75  79
ATOM     79  S   UNL     1     -13.637  12.541  -7.664  1.00  0.00     0.124 S 
ATOM     80  O   UNL     1     -14.179  11.475  -8.499  1.00  0.00    -0.237 OA
ATOM     81  O   UNL     1     -13.743  12.348  -6.222  1.00  0.00    -0.237 OA
ATOM     82  O   UNL     1     -13.907  13.898  -8.134  1.00  0.00    -0.744 OA
ENDBRANCH  75  79
ENDBRANCH  58  72
BRANCH  59  83
ATOM     83  C   UNL     1      -8.521   8.197 -16.397  1.00  0.00     0.023 A 
ATOM     84  C   UNL     1      -9.448   8.598 -17.386  1.00  0.00     0.031 A 
ATOM     85  C   UNL     1      -7.187   8.639 -16.583  1.00  0.00     0.131 A 
ATOM     86  C   UNL     1      -9.023   9.382 -18.494  1.00  0.00     0.055 A 
ATOM     87  C   UNL     1      -6.774   9.402 -17.678  1.00  0.00     0.041 A 
ATOM     88  F   UNL     1      -6.240   8.419 -15.659  1.00  0.00    -0.206 F 
ATOM     89  C   UNL     1      -7.694   9.784 -18.636  1.00  0.00     0.022 A 
BRANCH  86  90
ATOM     90  S   UNL     1     -10.217   9.976 -19.742  1.00  0.00     0.124 S 
ATOM     91  O   UNL     1     -10.553   8.750 -20.457  1.00  0.00    -0.237 OA
ATOM     92  O   UNL     1     -11.271  10.558 -18.919  1.00  0.00    -0.237 OA
ATOM     93  O   UNL     1      -9.445  10.947 -20.519  1.00  0.00    -0.744 OA
ENDBRANCH  86  90
ENDBRANCH  59  83
BRANCH  71  94
ATOM     94  C   UNL     1     -11.546   5.096 -11.741  1.00  0.00     0.023 A 
ATOM     95  C   UNL     1     -10.581   4.296 -12.400  1.00  0.00     0.031 A 
ATOM     96  C   UNL     1     -12.661   4.437 -11.193  1.00  0.00     0.131 A 
ATOM     97  C   UNL     1     -10.759   2.899 -12.495  1.00  0.00     0.055 A 
ATOM     98  C   UNL     1     -12.820   3.053 -11.265  1.00  0.00     0.041 A 
ATOM     99  F   UNL     1     -13.601   5.130 -10.529  1.00  0.00    -0.206 F 
ATOM    100  C   UNL     1     -11.872   2.278 -11.921  1.00  0.00     0.022 A 
BRANCH  97 101
ATOM    101  S   UNL     1      -9.551   1.860 -13.384  1.00  0.00     0.124 S 
ATOM    102  O   UNL     1      -9.360   2.566 -14.645  1.00  0.00    -0.237 OA
ATOM    103  O   UNL     1      -8.409   1.853 -12.473  1.00  0.00    -0.237 OA
ATOM    104  O   UNL     1     -10.236   0.572 -13.506  1.00  0.00    -0.744 OA
ENDBRANCH  97 101
ENDBRANCH  71  94
ENDBRANCH  45  46
ENDBRANCH  38  40
ENDBRANCH  37  38
ENDBRANCH   1  37
TORSDOF 18
