REMARK SMILES CCCCCCNC(=O)Oc1cccc(-c2ccc([C@@H](C)C(=O)OCCOC(=O)c3ccc(-c4c5nc(c(-c6cc(S(=O)(=O)[O-])ccc6F)c6ccc([nH]6)c(-c6cc(S(=O)(=O)[O-])ccc6F)c6nc(c(-c7cc(S(=O)(=O)[O-])ccc7F)c7ccc4[nH]7)C=C6)C=C5)cc3)cc2N)c1
REMARK SMILES IDX 20 1 21 2 19 3 16 4 17 5 94 6 18 7 93 8 15 9 11 10 12 11
REMARK SMILES IDX 96 12 13 13 14 14 10 15 8 16 7 17 9 19 6 20 5 21 4 22 3 23
REMARK SMILES IDX 2 24 1 25 95 26 22 29 23 30 24 31 25 32 26 33 27 34 28 35
REMARK SMILES IDX 29 36 30 37 31 38 92 39 32 40 91 41 33 42 34 43 35 44 85 45
REMARK SMILES IDX 36 46 90 47 84 48 86 49 37 50 89 51 83 52 82 53 38 55 70 56
REMARK SMILES IDX 50 57 69 58 51 59 54 60 68 61 87 62 52 63 53 64 67 66 88 67
REMARK SMILES IDX 55 68 39 69 40 70 48 71 41 72 47 73 49 74 46 75 42 76 43 77
REMARK SMILES IDX 44 78 45 79 71 80 72 81 80 82 73 83 79 84 81 85 78 86 74 87
REMARK SMILES IDX 75 88 76 89 77 90 56 91 57 92 65 93 58 94 64 95 66 96 63 97
REMARK SMILES IDX 59 98 60 99 61 100 62 101
REMARK H PARENT 7 18 95 27 95 28 86 54 54 65
REMARK Flexibility Score: inf
ROOT
ATOM      1  C   UNL     1      -5.245  13.223   4.319  1.00  0.00     0.126 C 
ATOM      2  C   UNL     1      -6.577  13.820   4.769  1.00  0.00     0.025 C 
ENDROOT
BRANCH   1   3
ATOM      3  C   UNL     1      -5.191  11.716   4.518  1.00  0.00    -0.032 A 
ATOM      4  C   UNL     1      -5.161   8.883   4.799  1.00  0.00     0.005 A 
ATOM      5  C   UNL     1      -5.322   9.735   5.910  1.00  0.00     0.011 A 
ATOM      6  C   UNL     1      -4.978   9.470   3.527  1.00  0.00     0.040 A 
ATOM      7  C   UNL     1      -5.345  11.124   5.774  1.00  0.00     0.005 A 
ATOM      8  C   UNL     1      -5.015  10.871   3.408  1.00  0.00     0.030 A 
BRANCH   4   9
ATOM      9  C   UNL     1      -5.215   7.420   5.012  1.00  0.00    -0.013 A 
ATOM     10  C   UNL     1      -4.265   5.197   4.812  1.00  0.00     0.133 A 
ATOM     11  C   UNL     1      -5.407   4.628   5.373  1.00  0.00     0.047 A 
ATOM     12  C   UNL     1      -4.156   6.577   4.633  1.00  0.00     0.056 A 
ATOM     13  C   UNL     1      -6.451   5.452   5.778  1.00  0.00     0.004 A 
ATOM     14  C   UNL     1      -6.356   6.834   5.593  1.00  0.00     0.009 A 
BRANCH  10  15
ATOM     15  O   UNL     1      -3.314   4.300   4.294  1.00  0.00    -0.410 OA
BRANCH  15  16
ATOM     16  C   UNL     1      -1.971   4.474   4.591  1.00  0.00     0.412 C 
ATOM     17  N   UNL     1      -1.161   3.587   3.935  1.00  0.00    -0.321 N 
ATOM     18  H   UNL     1      -0.193   3.671   4.096  1.00  0.00     0.167 HD
ATOM     19  O   UNL     1      -1.508   5.295   5.373  1.00  0.00    -0.224 OA
BRANCH  17  20
ATOM     20  C   UNL     1      -1.578   2.535   3.027  1.00  0.00     0.119 C 
BRANCH  20  21
ATOM     21  C   UNL     1      -0.950   2.672   1.641  1.00  0.00     0.021 C 
BRANCH  21  22
ATOM     22  C   UNL     1       0.577   2.543   1.603  1.00  0.00     0.002 C 
BRANCH  22  23
ATOM     23  C   UNL     1       1.149   1.234   2.159  1.00  0.00    -0.000 C 
BRANCH  23  24
ATOM     24  C   UNL     1       0.655  -0.045   1.478  1.00  0.00    -0.003 C 
ATOM     25  C   UNL     1       1.032  -0.131   0.007  1.00  0.00     0.004 C 
ENDBRANCH  23  24
ENDBRANCH  22  23
ENDBRANCH  21  22
ENDBRANCH  20  21
ENDBRANCH  17  20
ENDBRANCH  15  16
ENDBRANCH  10  15
ENDBRANCH   4   9
BRANCH   6  26
ATOM     26  N   UNL     1      -4.938   8.718   2.352  1.00  0.00    -0.398 N 
ATOM     27  H   UNL     1      -4.911   7.735   2.397  1.00  0.00     0.156 HD
ATOM     28  H   UNL     1      -4.937   9.171   1.478  1.00  0.00     0.156 HD
ENDBRANCH   6  26
ENDBRANCH   1   3
BRANCH   1  29
ATOM     29  C   UNL     1      -4.093  14.024   4.916  1.00  0.00     0.313 C 
ATOM     30  O   UNL     1      -3.750  15.110   4.459  1.00  0.00    -0.252 OA
BRANCH  29  31
ATOM     31  O   UNL     1      -3.538  13.453   6.016  1.00  0.00    -0.462 OA
BRANCH  31  32
ATOM     32  C   UNL     1      -2.394  14.116   6.585  1.00  0.00     0.274 C 
BRANCH  32  33
ATOM     33  C   UNL     1      -1.095  13.418   6.181  1.00  0.00     0.275 C 
BRANCH  33  34
ATOM     34  O   UNL     1      -0.823  13.599   4.780  1.00  0.00    -0.458 OA
BRANCH  34  35
ATOM     35  C   UNL     1      -1.207  12.573   3.985  1.00  0.00     0.338 C 
ATOM     36  O   UNL     1      -1.704  11.517   4.328  1.00  0.00    -0.246 OA
BRANCH  35  37
ATOM     37  C   UNL     1      -1.026  12.959   2.579  1.00  0.00     0.060 A 
ATOM     38  C   UNL     1      -2.159  13.222   1.807  1.00  0.00     0.016 A 
ATOM     39  C   UNL     1       0.247  12.985   2.009  1.00  0.00     0.016 A 
ATOM     40  C   UNL     1      -2.029  13.505   0.451  1.00  0.00     0.010 A 
ATOM     41  C   UNL     1       0.378  13.280   0.649  1.00  0.00     0.010 A 
ATOM     42  C   UNL     1      -0.759  13.531  -0.140  1.00  0.00    -0.014 A 
BRANCH  42  43
ATOM     43  C   UNL     1      -0.621  13.770  -1.597  1.00  0.00     0.031 A 
ATOM     44  C   UNL     1      -0.263  12.628  -2.504  1.00  0.00     0.074 A 
ATOM     45  C   UNL     1      -0.814  15.004  -2.097  1.00  0.00     0.049 A 
ATOM     46  N   UNL     1       0.031  12.641  -3.778  1.00  0.00    -0.248 NA
ATOM     47  C   UNL     1      -0.228  11.293  -1.889  1.00  0.00     0.031 C 
ATOM     48  C   UNL     1      -1.219  16.175  -1.318  1.00  0.00     0.029 A 
ATOM     49  N   UNL     1      -0.687  15.481  -3.377  1.00  0.00    -0.354 N 
ATOM     50  C   UNL     1       0.304  11.320  -4.117  1.00  0.00     0.074 A 
ATOM     51  C   UNL     1       0.163  10.539  -2.906  1.00  0.00     0.031 C 
ATOM     52  C   UNL     1      -1.297  17.238  -2.135  1.00  0.00     0.029 A 
ATOM     53  C   UNL     1      -0.895  16.837  -3.480  1.00  0.00     0.049 A 
ATOM     54  H   UNL     1      -0.467  14.909  -4.147  1.00  0.00     0.167 HD
ATOM     55  C   UNL     1       0.642  10.811  -5.329  1.00  0.00     0.034 A 
ATOM     56  C   UNL     1      -0.737  17.666  -4.531  1.00  0.00     0.034 A 
ATOM     57  C   UNL     1       0.785  11.611  -6.522  1.00  0.00     0.049 A 
ATOM     58  C   UNL     1      -0.276  17.093  -5.846  1.00  0.00     0.074 A 
ATOM     59  C   UNL     1       1.123  11.204  -7.801  1.00  0.00     0.029 A 
ATOM     60  N   UNL     1       0.606  12.989  -6.580  1.00  0.00    -0.354 N 
ATOM     61  N   UNL     1       0.008  15.847  -6.150  1.00  0.00    -0.248 NA
ATOM     62  C   UNL     1      -0.109  18.038  -6.958  1.00  0.00     0.031 C 
ATOM     63  C   UNL     1       1.206  12.339  -8.617  1.00  0.00     0.029 A 
ATOM     64  C   UNL     1       0.855  13.449  -7.865  1.00  0.00     0.049 A 
ATOM     65  H   UNL     1       0.342  13.555  -5.820  1.00  0.00     0.167 HD
ATOM     66  C   UNL     1       0.365  15.857  -7.495  1.00  0.00     0.074 A 
ATOM     67  C   UNL     1       0.250  17.229  -7.946  1.00  0.00     0.031 C 
ATOM     68  C   UNL     1       0.748  14.825  -8.290  1.00  0.00     0.034 A 
BRANCH  55  69
ATOM     69  C   UNL     1       0.939   9.333  -5.397  1.00  0.00     0.023 A 
ATOM     70  C   UNL     1      -0.051   8.364  -5.154  1.00  0.00     0.031 A 
ATOM     71  C   UNL     1       2.244   8.887  -5.670  1.00  0.00     0.131 A 
ATOM     72  C   UNL     1       0.295   7.004  -5.119  1.00  0.00     0.055 A 
ATOM     73  C   UNL     1       2.566   7.529  -5.708  1.00  0.00     0.041 A 
ATOM     74  F   UNL     1       3.235   9.766  -5.887  1.00  0.00    -0.206 F 
ATOM     75  C   UNL     1       1.591   6.578  -5.417  1.00  0.00     0.022 A 
BRANCH  72  76
ATOM     76  S   UNL     1      -0.941   5.807  -4.541  1.00  0.00     0.124 S 
ATOM     77  O   UNL     1      -1.244   6.313  -3.205  1.00  0.00    -0.237 OA
ATOM     78  O   UNL     1      -2.001   5.944  -5.532  1.00  0.00    -0.237 OA
ATOM     79  O   UNL     1      -0.224   4.533  -4.566  1.00  0.00    -0.744 OA
ENDBRANCH  72  76
ENDBRANCH  55  69
BRANCH  56  80
ATOM     80  C   UNL     1      -0.955  19.132  -4.371  1.00  0.00     0.023 A 
ATOM     81  C   UNL     1      -1.982  19.794  -5.060  1.00  0.00     0.031 A 
ATOM     82  C   UNL     1      -0.106  19.900  -3.554  1.00  0.00     0.131 A 
ATOM     83  C   UNL     1      -2.114  21.187  -4.947  1.00  0.00     0.055 A 
ATOM     84  C   UNL     1      -0.271  21.277  -3.406  1.00  0.00     0.041 A 
ATOM     85  F   UNL     1       0.895  19.315  -2.875  1.00  0.00    -0.206 F 
ATOM     86  C   UNL     1      -1.274  21.931  -4.115  1.00  0.00     0.022 A 
BRANCH  83  87
ATOM     87  S   UNL     1      -3.356  22.028  -5.966  1.00  0.00     0.124 S 
ATOM     88  O   UNL     1      -2.946  21.646  -7.312  1.00  0.00    -0.237 OA
ATOM     89  O   UNL     1      -4.598  21.436  -5.481  1.00  0.00    -0.237 OA
ATOM     90  O   UNL     1      -3.170  23.439  -5.634  1.00  0.00    -0.744 OA
ENDBRANCH  83  87
ENDBRANCH  56  80
BRANCH  68  91
ATOM     91  C   UNL     1       1.024  15.147  -9.737  1.00  0.00     0.023 A 
ATOM     92  C   UNL     1       2.146  15.898 -10.126  1.00  0.00     0.031 A 
ATOM     93  C   UNL     1       0.141  14.704 -10.737  1.00  0.00     0.131 A 
ATOM     94  C   UNL     1       2.332  16.223 -11.478  1.00  0.00     0.055 A 
ATOM     95  C   UNL     1       0.357  14.988 -12.085  1.00  0.00     0.041 A 
ATOM     96  F   UNL     1      -0.947  13.984 -10.417  1.00  0.00    -0.206 F 
ATOM     97  C   UNL     1       1.452  15.761 -12.461  1.00  0.00     0.022 A 
BRANCH  94  98
ATOM     98  S   UNL     1       3.703  17.321 -11.933  1.00  0.00     0.124 S 
ATOM     99  O   UNL     1       3.377  18.535 -11.192  1.00  0.00    -0.237 OA
ATOM    100  O   UNL     1       4.867  16.579 -11.461  1.00  0.00    -0.237 OA
ATOM    101  O   UNL     1       3.588  17.431 -13.386  1.00  0.00    -0.744 OA
ENDBRANCH  94  98
ENDBRANCH  68  91
ENDBRANCH  42  43
ENDBRANCH  35  37
ENDBRANCH  34  35
ENDBRANCH  33  34
ENDBRANCH  32  33
ENDBRANCH  31  32
ENDBRANCH  29  31
ENDBRANCH   1  29
TORSDOF 24
