REMARK SMILES O=C(OCCOC(=O)c1cc2nn[nH]n2n1)c1ccc(-c2c3nc(c(-c4cc(S(=O)(=O)[O-])ccc4F)c4ccc([nH]4)c(-c4cc(S(=O)(=O)[O-])ccc4F)c4nc(c(-c5cc(S(=O)(=O)[O-])ccc5F)c5ccc2[nH]5)C=C4)C=C3)cc1
REMARK SMILES IDX 3 1 2 2 1 3 17 4 18 5 79 6 19 7 78 8 20 9 21 10 22 11 72 12
REMARK SMILES IDX 23 13 77 14 71 15 73 16 24 17 76 18 70 19 69 20 25 22 57 23
REMARK SMILES IDX 37 24 56 25 38 26 41 27 55 28 74 29 39 30 40 31 54 33 75 34
REMARK SMILES IDX 42 35 26 36 27 37 35 38 28 39 34 40 36 41 33 42 29 43 30 44
REMARK SMILES IDX 31 45 32 46 58 47 59 48 67 49 60 50 66 51 68 52 65 53 61 54
REMARK SMILES IDX 62 55 63 56 64 57 43 58 44 59 52 60 45 61 51 62 53 63 50 64
REMARK SMILES IDX 46 65 47 66 48 67 49 68 4 69 5 70 6 71 7 72 8 73 9 74 10 75
REMARK SMILES IDX 16 76 11 77 15 78 12 79 14 80 13 81
REMARK H PARENT 73 21 41 32 14 82
REMARK Flexibility Score: inf
ROOT
ATOM      1  O   UNL     1       3.369   1.318  -0.056  1.00  0.00    -0.458 OA
ENDROOT
BRANCH   1   2
ATOM      2  C   UNL     1       2.278   0.537  -0.221  1.00  0.00     0.338 C 
ATOM      3  O   UNL     1       1.382   0.458   0.604  1.00  0.00    -0.246 OA
BRANCH   2   4
ATOM      4  C   UNL     1       2.184  -0.044  -1.586  1.00  0.00     0.060 A 
ATOM      5  C   UNL     1       3.309  -0.225  -2.396  1.00  0.00     0.016 A 
ATOM      6  C   UNL     1       0.919  -0.409  -2.068  1.00  0.00     0.016 A 
ATOM      7  C   UNL     1       3.167  -0.707  -3.690  1.00  0.00     0.010 A 
ATOM      8  C   UNL     1       0.775  -0.888  -3.370  1.00  0.00     0.010 A 
ATOM      9  C   UNL     1       1.897  -1.006  -4.192  1.00  0.00    -0.014 A 
BRANCH   9  10
ATOM     10  C   UNL     1       1.819  -1.489  -5.572  1.00  0.00     0.031 A 
ATOM     11  C   UNL     1       2.523  -2.774  -5.860  1.00  0.00     0.074 A 
ATOM     12  C   UNL     1       1.097  -0.889  -6.539  1.00  0.00     0.049 A 
ATOM     13  N   UNL     1       3.502  -2.992  -6.677  1.00  0.00    -0.248 NA
ATOM     14  C   UNL     1       2.131  -3.954  -5.077  1.00  0.00     0.031 C 
ATOM     15  C   UNL     1       0.142   0.212  -6.404  1.00  0.00     0.029 A 
ATOM     16  N   UNL     1       1.007  -1.218  -7.861  1.00  0.00    -0.354 N 
ATOM     17  C   UNL     1       3.737  -4.367  -6.656  1.00  0.00     0.074 A 
ATOM     18  C   UNL     1       2.949  -4.887  -5.568  1.00  0.00     0.031 C 
ATOM     19  C   UNL     1      -0.586   0.313  -7.540  1.00  0.00     0.029 A 
ATOM     20  C   UNL     1      -0.050  -0.611  -8.527  1.00  0.00     0.049 A 
ATOM     21  H   UNL     1       1.636  -1.831  -8.303  1.00  0.00     0.167 HD
ATOM     22  C   UNL     1       4.446  -5.001  -7.635  1.00  0.00     0.034 A 
ATOM     23  C   UNL     1      -0.493  -0.879  -9.783  1.00  0.00     0.034 A 
ATOM     24  C   UNL     1       5.264  -4.075  -8.378  1.00  0.00     0.049 A 
ATOM     25  C   UNL     1       0.629  -1.498 -10.525  1.00  0.00     0.074 A 
ATOM     26  C   UNL     1       6.293  -3.214  -8.046  1.00  0.00     0.029 A 
ATOM     27  N   UNL     1       4.845  -3.670  -9.624  1.00  0.00    -0.354 N 
ATOM     28  N   UNL     1       1.730  -0.864 -10.821  1.00  0.00    -0.248 NA
ATOM     29  C   UNL     1       0.727  -2.949 -10.553  1.00  0.00     0.031 C 
ATOM     30  C   UNL     1       6.064  -2.050  -8.837  1.00  0.00     0.029 A 
ATOM     31  C   UNL     1       4.954  -2.300  -9.647  1.00  0.00     0.049 A 
ATOM     32  H   UNL     1       4.529  -4.248 -10.355  1.00  0.00     0.167 HD
ATOM     33  C   UNL     1       2.740  -1.795 -10.648  1.00  0.00     0.074 A 
ATOM     34  C   UNL     1       2.055  -3.084 -10.589  1.00  0.00     0.031 C 
ATOM     35  C   UNL     1       4.006  -1.417 -10.297  1.00  0.00     0.034 A 
BRANCH  22  36
ATOM     36  C   UNL     1       4.216  -6.423  -8.096  1.00  0.00     0.023 A 
ATOM     37  C   UNL     1       5.087  -6.965  -9.065  1.00  0.00     0.031 A 
ATOM     38  C   UNL     1       3.045  -7.171  -7.840  1.00  0.00     0.131 A 
ATOM     39  C   UNL     1       4.756  -8.143  -9.762  1.00  0.00     0.055 A 
ATOM     40  C   UNL     1       2.752  -8.376  -8.488  1.00  0.00     0.041 A 
ATOM     41  F   UNL     1       2.077  -6.732  -7.026  1.00  0.00    -0.206 F 
ATOM     42  C   UNL     1       3.596  -8.856  -9.474  1.00  0.00     0.022 A 
BRANCH  39  43
ATOM     43  S   UNL     1       5.777  -8.637 -11.178  1.00  0.00     0.124 S 
ATOM     44  O   UNL     1       5.826  -7.405 -11.958  1.00  0.00    -0.237 OA
ATOM     45  O   UNL     1       7.021  -9.037 -10.527  1.00  0.00    -0.237 OA
ATOM     46  O   UNL     1       5.014  -9.726 -11.784  1.00  0.00    -0.744 OA
ENDBRANCH  39  43
ENDBRANCH  22  36
BRANCH  23  47
ATOM     47  C   UNL     1      -1.912  -0.937 -10.225  1.00  0.00     0.023 A 
ATOM     48  C   UNL     1      -2.303  -0.820 -11.573  1.00  0.00     0.031 A 
ATOM     49  C   UNL     1      -2.904  -1.353  -9.308  1.00  0.00     0.131 A 
ATOM     50  C   UNL     1      -3.636  -1.104 -11.952  1.00  0.00     0.055 A 
ATOM     51  C   UNL     1      -4.219  -1.626  -9.686  1.00  0.00     0.041 A 
ATOM     52  F   UNL     1      -2.604  -1.593  -8.021  1.00  0.00    -0.206 F 
ATOM     53  C   UNL     1      -4.590  -1.509 -11.014  1.00  0.00     0.022 A 
BRANCH  50  54
ATOM     54  S   UNL     1      -4.131  -1.042 -13.705  1.00  0.00     0.124 S 
ATOM     55  O   UNL     1      -4.067   0.386 -13.995  1.00  0.00    -0.237 OA
ATOM     56  O   UNL     1      -3.123  -1.880 -14.345  1.00  0.00    -0.237 OA
ATOM     57  O   UNL     1      -5.481  -1.607 -13.700  1.00  0.00    -0.744 OA
ENDBRANCH  50  54
ENDBRANCH  23  47
BRANCH  35  58
ATOM     58  C   UNL     1       4.365   0.057 -10.356  1.00  0.00     0.023 A 
ATOM     59  C   UNL     1       3.677   1.078  -9.660  1.00  0.00     0.031 A 
ATOM     60  C   UNL     1       5.536   0.418 -11.046  1.00  0.00     0.131 A 
ATOM     61  C   UNL     1       4.161   2.401  -9.684  1.00  0.00     0.055 A 
ATOM     62  C   UNL     1       6.024   1.726 -11.050  1.00  0.00     0.041 A 
ATOM     63  F   UNL     1       6.255  -0.509 -11.701  1.00  0.00    -0.206 F 
ATOM     64  C   UNL     1       5.334   2.724 -10.374  1.00  0.00     0.022 A 
BRANCH  61  65
ATOM     65  S   UNL     1       3.267   3.733  -8.818  1.00  0.00     0.124 S 
ATOM     66  O   UNL     1       1.884   3.547  -9.239  1.00  0.00    -0.237 OA
ATOM     67  O   UNL     1       3.555   3.445  -7.415  1.00  0.00    -0.237 OA
ATOM     68  O   UNL     1       3.900   4.952  -9.328  1.00  0.00    -0.744 OA
ENDBRANCH  61  65
ENDBRANCH  35  58
ENDBRANCH   9  10
ENDBRANCH   2   4
ENDBRANCH   1   2
BRANCH   1  69
ATOM     69  C   UNL     1       4.573   0.770   0.523  1.00  0.00     0.275 C 
BRANCH  69  70
ATOM     70  C   UNL     1       4.418  -0.343   1.560  1.00  0.00     0.275 C 
BRANCH  70  71
ATOM     71  O   UNL     1       3.934  -1.541   0.933  1.00  0.00    -0.457 OA
BRANCH  71  72
ATOM     72  C   UNL     1       2.833  -2.120   1.509  1.00  0.00     0.359 C 
ATOM     73  O   UNL     1       2.353  -1.800   2.582  1.00  0.00    -0.244 OA
BRANCH  72  74
ATOM     74  C   UNL     1       2.318  -3.200   0.663  1.00  0.00     0.174 A 
ATOM     75  C   UNL     1       3.054  -4.349   0.203  1.00  0.00     0.091 A 
ATOM     76  N   UNL     1       1.047  -3.198   0.183  1.00  0.00    -0.142 NA
ATOM     77  C   UNL     1       2.159  -5.013  -0.586  1.00  0.00     0.199 A 
ATOM     78  N   UNL     1       1.049  -4.274  -0.577  1.00  0.00    -0.135 N 
ATOM     79  N   UNL     1       1.970  -6.091  -1.379  1.00  0.00    -0.109 NA
ATOM     80  N   UNL     1       0.178  -4.886  -1.355  1.00  0.00    -0.177 N 
ATOM     81  N   UNL     1       0.800  -6.001  -1.895  1.00  0.00    -0.050 NA
ATOM     82  H   UNL     1      -0.749  -4.601  -1.523  1.00  0.00     0.216 HD
ENDBRANCH  72  74
ENDBRANCH  71  72
ENDBRANCH  70  71
ENDBRANCH  69  70
ENDBRANCH   1  69
TORSDOF 14
