REMARK SMILES O=C(OCCOC(=O)[C@@H]1CCCN(c2ccc3cc(S(=O)(=O)N4CCCCC4)ccc3n2)C1)c1ccc(-c2c3nc(c(-c4cc(S(=O)(=O)[O-])ccc4F)c4ccc([nH]4)c(-c4cc(S(=O)(=O)[O-])ccc4F)c4nc(c(-c5cc(S(=O)(=O)[O-])ccc5F)c5ccc2[nH]5)C=C4)C=C3)cc1
REMARK SMILES IDX 4 1 3 2 2 3 1 4 34 5 35 6 96 7 36 8 95 9 37 10 38 11 39 12
REMARK SMILES IDX 89 13 40 14 94 15 88 16 90 17 41 18 93 19 87 20 86 21 42 23
REMARK SMILES IDX 74 24 54 25 73 26 55 27 58 28 72 29 91 30 56 31 57 32 71 34
REMARK SMILES IDX 92 35 59 36 43 37 44 38 52 39 45 40 51 41 53 42 50 43 46 44
REMARK SMILES IDX 47 45 48 46 49 47 75 48 76 49 84 50 77 51 83 52 85 53 82 54
REMARK SMILES IDX 78 55 79 56 80 57 81 58 60 59 61 60 69 61 62 62 68 63 70 64
REMARK SMILES IDX 67 65 63 66 64 67 65 68 66 69 5 70 6 71 7 72 8 73 9 74 10 75
REMARK SMILES IDX 33 76 11 77 13 78 12 79 14 80 15 81 32 82 16 83 31 84 17 85
REMARK SMILES IDX 30 86 18 87 29 88 19 89 20 90 21 91 22 92 23 93 24 94 28 95
REMARK SMILES IDX 25 96 27 97 26 98
REMARK H PARENT 90 22 58 33
REMARK Flexibility Score: inf
ROOT
ATOM      1  C   UNL     1       4.873   1.910   2.074  1.00  0.00     0.275 C 
ENDROOT
BRANCH   1   2
ATOM      2  O   UNL     1       5.574   1.250   1.034  1.00  0.00    -0.458 OA
BRANCH   2   3
ATOM      3  C   UNL     1       4.795   0.532   0.199  1.00  0.00     0.338 C 
ATOM      4  O   UNL     1       3.754   0.903  -0.282  1.00  0.00    -0.246 OA
BRANCH   3   5
ATOM      5  C   UNL     1       5.338  -0.853   0.266  1.00  0.00     0.060 A 
ATOM      6  C   UNL     1       6.542  -1.151   0.909  1.00  0.00     0.016 A 
ATOM      7  C   UNL     1       4.516  -1.893  -0.137  1.00  0.00     0.016 A 
ATOM      8  C   UNL     1       6.898  -2.473   1.135  1.00  0.00     0.010 A 
ATOM      9  C   UNL     1       4.874  -3.212   0.033  1.00  0.00     0.010 A 
ATOM     10  C   UNL     1       6.059  -3.499   0.692  1.00  0.00    -0.014 A 
BRANCH  10  11
ATOM     11  C   UNL     1       6.357  -4.900   0.974  1.00  0.00     0.031 A 
ATOM     12  C   UNL     1       6.783  -5.781  -0.149  1.00  0.00     0.074 A 
ATOM     13  C   UNL     1       6.117  -5.349   2.217  1.00  0.00     0.049 A 
ATOM     14  N   UNL     1       7.222  -7.005  -0.107  1.00  0.00    -0.248 NA
ATOM     15  C   UNL     1       6.637  -5.234  -1.510  1.00  0.00     0.031 C 
ATOM     16  C   UNL     1       5.490  -4.570   3.293  1.00  0.00     0.029 A 
ATOM     17  N   UNL     1       6.373  -6.559   2.789  1.00  0.00    -0.354 N 
ATOM     18  C   UNL     1       7.433  -7.364  -1.432  1.00  0.00     0.074 A 
ATOM     19  C   UNL     1       6.936  -6.285  -2.253  1.00  0.00     0.031 C 
ATOM     20  C   UNL     1       5.471  -5.308   4.414  1.00  0.00     0.029 A 
ATOM     21  C   UNL     1       6.100  -6.591   4.136  1.00  0.00     0.049 A 
ATOM     22  H   UNL     1       6.718  -7.333   2.287  1.00  0.00     0.167 HD
ATOM     23  C   UNL     1       8.060  -8.470  -1.894  1.00  0.00     0.034 A 
ATOM     24  C   UNL     1       6.404  -7.542   5.038  1.00  0.00     0.034 A 
ATOM     25  C   UNL     1       8.545  -9.488  -0.998  1.00  0.00     0.049 A 
ATOM     26  C   UNL     1       7.212  -8.711   4.532  1.00  0.00     0.074 A 
ATOM     27  C   UNL     1       9.272 -10.628  -1.275  1.00  0.00     0.029 A 
ATOM     28  N   UNL     1       8.341  -9.465   0.381  1.00  0.00    -0.354 N 
ATOM     29  N   UNL     1       7.575  -8.987   3.296  1.00  0.00    -0.248 NA
ATOM     30  C   UNL     1       7.701  -9.659   5.534  1.00  0.00     0.031 C 
ATOM     31  C   UNL     1       9.483 -11.306  -0.066  1.00  0.00     0.029 A 
ATOM     32  C   UNL     1       8.931 -10.565   0.971  1.00  0.00     0.049 A 
ATOM     33  H   UNL     1       7.847  -8.765   0.865  1.00  0.00     0.167 HD
ATOM     34  C   UNL     1       8.364 -10.126   3.376  1.00  0.00     0.074 A 
ATOM     35  C   UNL     1       8.443 -10.463   4.788  1.00  0.00     0.031 C 
ATOM     36  C   UNL     1       8.968 -10.841   2.390  1.00  0.00     0.034 A 
BRANCH  23  37
ATOM     37  C   UNL     1       8.261  -8.574  -3.386  1.00  0.00     0.023 A 
ATOM     38  C   UNL     1       8.951  -7.570  -4.095  1.00  0.00     0.031 A 
ATOM     39  C   UNL     1       7.694  -9.621  -4.130  1.00  0.00     0.131 A 
ATOM     40  C   UNL     1       8.951  -7.566  -5.497  1.00  0.00     0.055 A 
ATOM     41  C   UNL     1       7.783  -9.665  -5.525  1.00  0.00     0.041 A 
ATOM     42  F   UNL     1       7.009 -10.601  -3.520  1.00  0.00    -0.206 F 
ATOM     43  C   UNL     1       8.394  -8.622  -6.219  1.00  0.00     0.022 A 
BRANCH  40  44
ATOM     44  S   UNL     1       9.531  -6.076  -6.355  1.00  0.00     0.124 S 
ATOM     45  O   UNL     1       8.565  -5.080  -5.895  1.00  0.00    -0.237 OA
ATOM     46  O   UNL     1      10.890  -5.926  -5.848  1.00  0.00    -0.237 OA
ATOM     47  O   UNL     1       9.427  -6.431  -7.768  1.00  0.00    -0.744 OA
ENDBRANCH  40  44
ENDBRANCH  23  37
BRANCH  24  48
ATOM     48  C   UNL     1       6.069  -7.361   6.477  1.00  0.00     0.023 A 
ATOM     49  C   UNL     1       7.077  -7.204   7.441  1.00  0.00     0.031 A 
ATOM     50  C   UNL     1       4.733  -7.340   6.917  1.00  0.00     0.131 A 
ATOM     51  C   UNL     1       6.742  -7.092   8.800  1.00  0.00     0.055 A 
ATOM     52  C   UNL     1       4.402  -7.183   8.266  1.00  0.00     0.041 A 
ATOM     53  F   UNL     1       3.727  -7.454   6.036  1.00  0.00    -0.206 F 
ATOM     54  C   UNL     1       5.411  -7.075   9.218  1.00  0.00     0.022 A 
BRANCH  51  55
ATOM     55  S   UNL     1       8.081  -7.056  10.024  1.00  0.00     0.124 S 
ATOM     56  O   UNL     1       8.851  -8.241   9.662  1.00  0.00    -0.237 OA
ATOM     57  O   UNL     1       8.711  -5.770   9.741  1.00  0.00    -0.237 OA
ATOM     58  O   UNL     1       7.375  -7.136  11.301  1.00  0.00    -0.744 OA
ENDBRANCH  51  55
ENDBRANCH  24  48
BRANCH  36  59
ATOM     59  C   UNL     1       9.767 -12.032   2.834  1.00  0.00     0.023 A 
ATOM     60  C   UNL     1       9.138 -13.156   3.390  1.00  0.00     0.031 A 
ATOM     61  C   UNL     1      11.166 -12.038   2.705  1.00  0.00     0.131 A 
ATOM     62  C   UNL     1       9.914 -14.221   3.859  1.00  0.00     0.055 A 
ATOM     63  C   UNL     1      11.928 -13.131   3.112  1.00  0.00     0.041 A 
ATOM     64  F   UNL     1      11.809 -10.983   2.178  1.00  0.00    -0.206 F 
ATOM     65  C   UNL     1      11.303 -14.225   3.707  1.00  0.00     0.022 A 
BRANCH  62  66
ATOM     66  S   UNL     1       9.083 -15.555   4.759  1.00  0.00     0.124 S 
ATOM     67  O   UNL     1       8.487 -14.836   5.881  1.00  0.00    -0.237 OA
ATOM     68  O   UNL     1       8.149 -16.069   3.764  1.00  0.00    -0.237 OA
ATOM     69  O   UNL     1      10.175 -16.460   5.111  1.00  0.00    -0.744 OA
ENDBRANCH  62  66
ENDBRANCH  36  59
ENDBRANCH  10  11
ENDBRANCH   3   5
ENDBRANCH   2   3
ENDBRANCH   1   2
BRANCH   1  70
ATOM     70  C   UNL     1       3.757   1.144   2.843  1.00  0.00     0.274 C 
BRANCH  70  71
ATOM     71  O   UNL     1       3.115   0.023   2.181  1.00  0.00    -0.462 OA
BRANCH  71  72
ATOM     72  C   UNL     1       1.776  -0.114   2.394  1.00  0.00     0.310 C 
ATOM     73  O   UNL     1       1.138   0.623   3.144  1.00  0.00    -0.252 OA
BRANCH  72  74
ATOM     74  C   UNL     1       1.067  -1.212   1.587  1.00  0.00     0.118 C 
ATOM     75  C   UNL     1       1.725  -2.593   1.559  1.00  0.00     0.019 C 
ATOM     76  C   UNL     1       0.614  -0.663   0.222  1.00  0.00     0.133 C 
ATOM     77  C   UNL     1       1.254  -3.504   0.409  1.00  0.00     0.022 C 
ATOM     78  N   UNL     1       1.196  -1.412  -0.889  1.00  0.00    -0.356 N 
ATOM     79  C   UNL     1       0.957  -2.838  -0.946  1.00  0.00     0.118 C 
BRANCH  78  80
ATOM     80  C   UNL     1       1.381  -0.713  -2.085  1.00  0.00     0.129 A 
ATOM     81  C   UNL     1       2.679  -0.591  -2.569  1.00  0.00     0.047 A 
ATOM     82  N   UNL     1       0.383  -0.011  -2.658  1.00  0.00    -0.231 NA
ATOM     83  C   UNL     1       3.047   0.521  -3.297  1.00  0.00     0.014 A 
ATOM     84  C   UNL     1       0.721   0.905  -3.597  1.00  0.00     0.073 A 
ATOM     85  C   UNL     1       2.051   1.310  -3.809  1.00  0.00     0.002 A 
ATOM     86  C   UNL     1      -0.216   1.457  -4.456  1.00  0.00     0.030 A 
ATOM     87  C   UNL     1       2.400   2.393  -4.611  1.00  0.00     0.032 A 
ATOM     88  C   UNL     1       0.144   2.425  -5.411  1.00  0.00     0.024 A 
ATOM     89  C   UNL     1       1.437   2.957  -5.428  1.00  0.00     0.083 A 
BRANCH  89  90
ATOM     90  S   UNL     1       2.006   4.243  -6.529  1.00  0.00     0.243 S 
ATOM     91  O   UNL     1       1.777   5.502  -5.853  1.00  0.00    -0.207 OA
ATOM     92  O   UNL     1       3.330   3.856  -6.974  1.00  0.00    -0.207 OA
BRANCH  90  93
ATOM     93  N   UNL     1       0.989   4.177  -7.897  1.00  0.00    -0.198 NA
ATOM     94  C   UNL     1       1.147   2.949  -8.712  1.00  0.00     0.102 C 
ATOM     95  C   UNL     1      -0.334   4.814  -7.715  1.00  0.00     0.102 C 
ATOM     96  C   UNL     1       0.149   2.858  -9.849  1.00  0.00     0.017 C 
ATOM     97  C   UNL     1      -1.343   4.517  -8.809  1.00  0.00     0.017 C 
ATOM     98  C   UNL     1      -1.257   3.095  -9.331  1.00  0.00     0.003 C 
ENDBRANCH  90  93
ENDBRANCH  89  90
ENDBRANCH  78  80
ENDBRANCH  72  74
ENDBRANCH  71  72
ENDBRANCH  70  71
ENDBRANCH   1  70
TORSDOF 17
