REMARK SMILES Cc1c(CC(=O)N[C@@H](CCO)C(=O)OCCOC(=O)c2ccc(-c3c4nc(c(-c5cc(S(=O)(=O)[O-])ccc5F)c5ccc([nH]5)c(-c5cc(S(=O)(=O)[O-])ccc5F)c5nc(c(-c6cc(S(=O)(=O)[O-])ccc6F)c6ccc3[nH]6)C=C5)C=C4)cc2)cc(-c2ccc(S(C)(=O)=O)cc2)n1-c1ccc(F)cc1
REMARK SMILES IDX 15 1 14 2 12 3 13 4 8 5 7 6 5 7 6 8 4 10 3 11 1 12 2 13
REMARK SMILES IDX 95 14 83 15 84 16 96 17 97 18 102 19 98 20 101 21 99 22
REMARK SMILES IDX 100 23 85 24 86 25 94 26 87 27 93 28 88 29 89 30 90 31 91 32
REMARK SMILES IDX 92 33 9 34 10 35 11 36 16 38 17 39 18 40 19 41 20 42 21 43
REMARK SMILES IDX 82 44 22 45 81 46 23 47 24 48 25 49 75 50 26 51 80 52 74 53
REMARK SMILES IDX 76 54 27 55 79 56 73 57 72 58 28 60 60 61 40 62 59 63 41 64
REMARK SMILES IDX 44 65 58 66 77 67 42 68 43 69 57 71 78 72 45 73 29 74 30 75
REMARK SMILES IDX 38 76 31 77 37 78 39 79 36 80 32 81 33 82 34 83 35 84 61 85
REMARK SMILES IDX 62 86 70 87 63 88 69 89 71 90 68 91 64 92 65 93 66 94 67 95
REMARK SMILES IDX 46 96 47 97 55 98 48 99 54 100 56 101 53 102 49 103 50 104
REMARK SMILES IDX 51 105 52 106
REMARK H PARENT 7 9 11 37 76 59 44 70
REMARK Flexibility Score: inf
ROOT
ATOM      1  C   UNL     1      -2.614  -7.224   1.846  1.00  0.00     0.274 C 
ENDROOT
BRANCH   1   2
ATOM      2  O   UNL     1      -2.189  -5.914   1.369  1.00  0.00    -0.461 OA
BRANCH   2   3
ATOM      3  C   UNL     1      -2.691  -4.821   2.023  1.00  0.00     0.328 C 
ATOM      4  O   UNL     1      -3.459  -4.881   2.976  1.00  0.00    -0.250 OA
BRANCH   3   5
ATOM      5  C   UNL     1      -2.090  -3.493   1.499  1.00  0.00     0.194 C 
BRANCH   5   6
ATOM      6  N   UNL     1      -1.360  -3.574   0.232  1.00  0.00    -0.342 N 
ATOM      7  C   UNL     1      -0.048  -3.297  -0.032  1.00  0.00     0.225 C 
ATOM      8  O   UNL     1       0.301  -3.342  -1.215  1.00  0.00    -0.275 OA
ATOM      9  H   UNL     1      -1.892  -3.869  -0.542  1.00  0.00     0.164 HD
BRANCH   7  10
ATOM     10  C   UNL     1       0.928  -2.964   1.093  1.00  0.00     0.137 C 
BRANCH  10  11
ATOM     11  C   UNL     1       0.606  -1.671   1.794  1.00  0.00    -0.017 A 
ATOM     12  C   UNL     1       1.022   0.016  -0.114  1.00  0.00     0.065 C 
ATOM     13  C   UNL     1       0.570  -0.392   1.252  1.00  0.00     0.024 A 
ATOM     14  N   UNL     1       0.154   0.490   2.245  1.00  0.00    -0.314 N 
ATOM     15  C   UNL     1       0.318  -1.533   3.179  1.00  0.00     0.033 A 
ATOM     16  C   UNL     1      -0.033  -0.221   3.434  1.00  0.00     0.053 A 
BRANCH  14  17
ATOM     17  C   UNL     1      -0.073   1.884   2.087  1.00  0.00     0.046 A 
ATOM     18  C   UNL     1       0.505   2.785   2.993  1.00  0.00     0.029 A 
ATOM     19  C   UNL     1      -0.939   2.336   1.083  1.00  0.00     0.029 A 
ATOM     20  C   UNL     1       0.215   4.144   2.891  1.00  0.00     0.041 A 
ATOM     21  C   UNL     1      -1.233   3.697   0.996  1.00  0.00     0.041 A 
ATOM     22  C   UNL     1      -0.655   4.585   1.899  1.00  0.00     0.123 A 
ATOM     23  F   UNL     1      -0.950   5.890   1.818  1.00  0.00    -0.207 F 
ENDBRANCH  14  17
BRANCH  16  24
ATOM     24  C   UNL     1      -0.578   0.334   4.681  1.00  0.00    -0.001 A 
ATOM     25  C   UNL     1      -1.795   1.036   4.686  1.00  0.00     0.011 A 
ATOM     26  C   UNL     1       0.118   0.176   5.887  1.00  0.00     0.011 A 
ATOM     27  C   UNL     1      -2.268   1.639   5.854  1.00  0.00     0.021 A 
ATOM     28  C   UNL     1      -0.351   0.771   7.062  1.00  0.00     0.021 A 
ATOM     29  C   UNL     1      -1.525   1.525   7.031  1.00  0.00     0.067 A 
BRANCH  29  30
ATOM     30  S   UNL     1      -2.110   2.353   8.490  1.00  0.00     0.175 S 
ATOM     31  C   UNL     1      -1.918   4.074   8.102  1.00  0.00     0.163 C 
ATOM     32  O   UNL     1      -3.509   2.069   8.625  1.00  0.00    -0.224 OA
ATOM     33  O   UNL     1      -1.171   2.056   9.576  1.00  0.00    -0.224 OA
ENDBRANCH  29  30
ENDBRANCH  16  24
ENDBRANCH  10  11
ENDBRANCH   7  10
ENDBRANCH   5   6
BRANCH   5  34
ATOM     34  C   UNL     1      -3.075  -2.305   1.477  1.00  0.00     0.065 C 
BRANCH  34  35
ATOM     35  C   UNL     1      -4.120  -2.321   0.365  1.00  0.00     0.159 C 
BRANCH  35  36
ATOM     36  O   UNL     1      -5.027  -3.398   0.511  1.00  0.00    -0.396 OA
ATOM     37  H   UNL     1      -4.543  -4.238   0.466  1.00  0.00     0.210 HD
ENDBRANCH  35  36
ENDBRANCH  34  35
ENDBRANCH   5  34
ENDBRANCH   3   5
ENDBRANCH   2   3
ENDBRANCH   1   2
BRANCH   1  38
ATOM     38  C   UNL     1      -1.586  -8.334   1.470  1.00  0.00     0.275 C 
BRANCH  38  39
ATOM     39  O   UNL     1      -0.878  -9.059   2.545  1.00  0.00    -0.458 OA
BRANCH  39  40
ATOM     40  C   UNL     1       0.429  -8.707   2.777  1.00  0.00     0.338 C 
ATOM     41  O   UNL     1       0.879  -7.630   2.405  1.00  0.00    -0.246 OA
BRANCH  40  42
ATOM     42  C   UNL     1       1.276  -9.686   3.622  1.00  0.00     0.060 A 
ATOM     43  C   UNL     1       1.980  -9.149   4.682  1.00  0.00     0.016 A 
ATOM     44  C   UNL     1       1.585 -11.046   3.375  1.00  0.00     0.016 A 
ATOM     45  C   UNL     1       2.885  -9.945   5.466  1.00  0.00     0.010 A 
ATOM     46  C   UNL     1       2.602 -11.838   4.150  1.00  0.00     0.010 A 
ATOM     47  C   UNL     1       3.321 -11.314   5.240  1.00  0.00    -0.014 A 
BRANCH  47  48
ATOM     48  C   UNL     1       4.680 -11.859   6.109  1.00  0.00     0.031 A 
ATOM     49  C   UNL     1       5.362 -10.575   6.429  1.00  0.00     0.074 A 
ATOM     50  C   UNL     1       5.504 -12.942   6.518  1.00  0.00     0.049 A 
ATOM     51  N   UNL     1       5.715  -9.810   5.438  1.00  0.00    -0.248 NA
ATOM     52  C   UNL     1       5.282  -9.896   7.724  1.00  0.00     0.031 C 
ATOM     53  C   UNL     1       5.410 -14.370   6.156  1.00  0.00     0.029 A 
ATOM     54  N   UNL     1       6.694 -13.027   7.369  1.00  0.00    -0.354 N 
ATOM     55  C   UNL     1       6.166  -8.638   5.976  1.00  0.00     0.074 A 
ATOM     56  C   UNL     1       5.703  -8.676   7.361  1.00  0.00     0.031 C 
ATOM     57  C   UNL     1       6.303 -15.153   6.845  1.00  0.00     0.029 A 
ATOM     58  C   UNL     1       7.176 -14.365   7.725  1.00  0.00     0.049 A 
ATOM     59  H   UNL     1       7.152 -12.216   7.690  1.00  0.00     0.167 HD
ATOM     60  C   UNL     1       7.345  -8.187   5.463  1.00  0.00     0.034 A 
ATOM     61  C   UNL     1       8.228 -14.816   8.557  1.00  0.00     0.034 A 
ATOM     62  C   UNL     1       8.438  -8.548   6.323  1.00  0.00     0.049 A 
ATOM     63  C   UNL     1       9.271 -13.796   8.498  1.00  0.00     0.074 A 
ATOM     64  C   UNL     1       8.599  -8.501   7.693  1.00  0.00     0.029 A 
ATOM     65  N   UNL     1       9.318  -9.498   5.848  1.00  0.00    -0.354 N 
ATOM     66  N   UNL     1      10.058 -13.695   7.474  1.00  0.00    -0.248 NA
ATOM     67  C   UNL     1       9.578 -12.925   9.626  1.00  0.00     0.031 C 
ATOM     68  C   UNL     1       9.154  -9.756   8.022  1.00  0.00     0.029 A 
ATOM     69  C   UNL     1       9.692 -10.334   6.877  1.00  0.00     0.049 A 
ATOM     70  H   UNL     1       9.631  -9.568   4.917  1.00  0.00     0.167 HD
ATOM     71  C   UNL     1      10.551 -12.435   7.606  1.00  0.00     0.074 A 
ATOM     72  C   UNL     1      10.477 -12.142   9.027  1.00  0.00     0.031 C 
ATOM     73  C   UNL     1      10.313 -11.605   6.560  1.00  0.00     0.034 A 
BRANCH  60  74
ATOM     74  C   UNL     1       7.390  -8.229   3.953  1.00  0.00     0.023 A 
ATOM     75  C   UNL     1       7.331  -7.025   3.243  1.00  0.00     0.031 A 
ATOM     76  C   UNL     1       7.328  -9.431   3.209  1.00  0.00     0.131 A 
ATOM     77  C   UNL     1       7.135  -7.045   1.851  1.00  0.00     0.055 A 
ATOM     78  C   UNL     1       7.061  -9.446   1.841  1.00  0.00     0.041 A 
ATOM     79  F   UNL     1       7.514 -10.620   3.806  1.00  0.00    -0.206 F 
ATOM     80  C   UNL     1       6.953  -8.244   1.154  1.00  0.00     0.022 A 
BRANCH  77  81
ATOM     81  S   UNL     1       7.148  -5.471   0.955  1.00  0.00     0.124 S 
ATOM     82  O   UNL     1       5.981  -4.787   1.506  1.00  0.00    -0.237 OA
ATOM     83  O   UNL     1       8.443  -4.911   1.335  1.00  0.00    -0.237 OA
ATOM     84  O   UNL     1       7.035  -5.866  -0.447  1.00  0.00    -0.744 OA
ENDBRANCH  77  81
ENDBRANCH  60  74
BRANCH  61  85
ATOM     85  C   UNL     1       8.858 -16.042   9.363  1.00  0.00     0.023 A 
ATOM     86  C   UNL     1      10.296 -16.187   9.627  1.00  0.00     0.031 A 
ATOM     87  C   UNL     1       8.058 -16.785  10.241  1.00  0.00     0.131 A 
ATOM     88  C   UNL     1      10.826 -16.969  10.709  1.00  0.00     0.055 A 
ATOM     89  C   UNL     1       8.591 -17.564  11.305  1.00  0.00     0.041 A 
ATOM     90  F   UNL     1       6.723 -16.690  10.177  1.00  0.00    -0.206 F 
ATOM     91  C   UNL     1       9.961 -17.646  11.555  1.00  0.00     0.022 A 
BRANCH  88  92
ATOM     92  S   UNL     1      12.627 -16.991  11.177  1.00  0.00     0.124 S 
ATOM     93  O   UNL     1      13.229 -17.819  10.139  1.00  0.00    -0.237 OA
ATOM     94  O   UNL     1      12.985 -15.576  11.175  1.00  0.00    -0.237 OA
ATOM     95  O   UNL     1      12.630 -17.601  12.510  1.00  0.00    -0.744 OA
ENDBRANCH  88  92
ENDBRANCH  61  85
BRANCH  73  96
ATOM     96  C   UNL     1      10.547 -12.162   5.156  1.00  0.00     0.023 A 
ATOM     97  C   UNL     1      10.148 -13.437   4.667  1.00  0.00     0.031 A 
ATOM     98  C   UNL     1      11.304 -11.371   4.276  1.00  0.00     0.131 A 
ATOM     99  C   UNL     1      10.530 -13.877   3.382  1.00  0.00     0.055 A 
ATOM    100  C   UNL     1      11.646 -11.788   2.989  1.00  0.00     0.041 A 
ATOM    101  F   UNL     1      11.741 -10.162   4.663  1.00  0.00    -0.206 F 
ATOM    102  C   UNL     1      11.273 -13.049   2.541  1.00  0.00     0.022 A 
BRANCH  99 103
ATOM    103  S   UNL     1      10.139 -15.570   2.817  1.00  0.00     0.124 S 
ATOM    104  O   UNL     1      10.545 -16.406   3.941  1.00  0.00    -0.237 OA
ATOM    105  O   UNL     1       8.703 -15.500   2.561  1.00  0.00    -0.237 OA
ATOM    106  O   UNL     1      10.964 -15.728   1.617  1.00  0.00    -0.744 OA
ENDBRANCH  99 103
ENDBRANCH  73  96
ENDBRANCH  47  48
ENDBRANCH  40  42
ENDBRANCH  39  40
ENDBRANCH  38  39
ENDBRANCH   1  38
TORSDOF 23
