REMARK SMILES CN1C(=O)C[C@@H](C(=O)OCCOC(=O)c2ccc(-c3c4nc(c(-c5cc(S(=O)(=O)[O-])ccc5F)c5ccc([nH]5)c(-c5cc(S(=O)(=O)[O-])ccc5F)c5nc(c(-c6cc(S(=O)(=O)[O-])ccc6F)c6ccc3[nH]6)C=C5)C=C4)cc2)C12CCN(c1ccc(Cl)cn1)CC2
REMARK SMILES IDX 11 1 10 2 9 3 7 4 8 5 6 6 1 7 2 8 3 9 78 10 4 11 5 12 79 13
REMARK SMILES IDX 90 14 80 15 89 16 81 17 82 18 83 19 88 20 84 21 87 22 85 23
REMARK SMILES IDX 86 24 12 25 13 26 14 27 15 28 16 29 77 30 17 31 76 32 18 33
REMARK SMILES IDX 19 34 20 35 70 36 21 37 75 38 69 39 71 40 22 41 74 42 68 43
REMARK SMILES IDX 67 44 23 46 55 47 35 48 54 49 36 50 39 51 53 52 72 53 37 54
REMARK SMILES IDX 38 55 52 57 73 58 40 59 24 60 25 61 33 62 26 63 32 64 34 65
REMARK SMILES IDX 31 66 27 67 28 68 29 69 30 70 56 71 57 72 65 73 58 74 64 75
REMARK SMILES IDX 66 76 63 77 59 78 60 79 61 80 62 81 41 82 42 83 50 84 43 85
REMARK SMILES IDX 49 86 51 87 48 88 44 89 45 90 46 91 47 92
REMARK H PARENT 71 45 39 56
REMARK Flexibility Score: inf
ROOT
ATOM      1  C   UNL     1      -3.670   1.389   4.166  1.00  0.00     0.275 C 
ENDROOT
BRANCH   1   2
ATOM      2  C   UNL     1      -3.531   0.873   2.733  1.00  0.00     0.274 C 
BRANCH   2   3
ATOM      3  O   UNL     1      -2.255   1.238   2.165  1.00  0.00    -0.462 OA
BRANCH   3   4
ATOM      4  C   UNL     1      -2.249   2.390   1.463  1.00  0.00     0.311 C 
ATOM      5  O   UNL     1      -3.255   3.068   1.262  1.00  0.00    -0.252 OA
BRANCH   4   6
ATOM      6  C   UNL     1      -0.903   2.818   0.899  1.00  0.00     0.134 C 
ATOM      7  C   UNL     1       1.177  -0.143   0.002  1.00  0.00     0.147 C 
ATOM      8  N   UNL     1       0.360   1.053   0.052  1.00  0.00    -0.339 N 
ATOM      9  C   UNL     1      -0.472   1.434  -0.988  1.00  0.00     0.223 C 
ATOM     10  C   UNL     1       0.421   2.045   1.142  1.00  0.00     0.060 C 
ATOM     11  O   UNL     1      -0.667   0.827  -2.029  1.00  0.00    -0.275 OA
ATOM     12  C   UNL     1      -1.083   2.760  -0.631  1.00  0.00     0.118 C 
ATOM     13  C   UNL     1       0.632   1.371   2.518  1.00  0.00     0.051 C 
ATOM     14  C   UNL     1       1.631   3.018   0.879  1.00  0.00     0.051 C 
ATOM     15  C   UNL     1       0.929   2.363   3.629  1.00  0.00     0.120 C 
ATOM     16  C   UNL     1       1.983   3.934   2.067  1.00  0.00     0.120 C 
ATOM     17  N   UNL     1       2.126   3.096   3.245  1.00  0.00    -0.356 N 
BRANCH  17  18
ATOM     18  C   UNL     1       2.898   3.559   4.306  1.00  0.00     0.128 A 
ATOM     19  C   UNL     1       3.539   2.617   5.119  1.00  0.00     0.048 A 
ATOM     20  N   UNL     1       2.999   4.880   4.555  1.00  0.00    -0.238 NA
ATOM     21  C   UNL     1       4.233   3.023   6.255  1.00  0.00     0.026 A 
ATOM     22  C   UNL     1       3.704   5.260   5.663  1.00  0.00     0.134 A 
ATOM     23  C   UNL     1       4.292   4.374   6.552  1.00  0.00     0.059 A 
ATOM     24  Cl  UNL     1       5.018   4.891   8.016  1.00  0.00    -0.083 Cl
ENDBRANCH  17  18
ENDBRANCH   4   6
ENDBRANCH   3   4
ENDBRANCH   2   3
ENDBRANCH   1   2
BRANCH   1  25
ATOM     25  O   UNL     1      -3.422   2.805   4.223  1.00  0.00    -0.458 OA
BRANCH  25  26
ATOM     26  C   UNL     1      -2.401   3.188   5.025  1.00  0.00     0.338 C 
ATOM     27  O   UNL     1      -1.723   2.462   5.735  1.00  0.00    -0.246 OA
BRANCH  26  28
ATOM     28  C   UNL     1      -2.162   4.642   4.920  1.00  0.00     0.060 A 
ATOM     29  C   UNL     1      -1.991   5.256   3.678  1.00  0.00     0.016 A 
ATOM     30  C   UNL     1      -1.972   5.378   6.088  1.00  0.00     0.016 A 
ATOM     31  C   UNL     1      -1.559   6.581   3.602  1.00  0.00     0.010 A 
ATOM     32  C   UNL     1      -1.636   6.732   6.009  1.00  0.00     0.010 A 
ATOM     33  C   UNL     1      -1.400   7.345   4.765  1.00  0.00    -0.014 A 
BRANCH  33  34
ATOM     34  C   UNL     1      -1.000   8.780   4.699  1.00  0.00     0.031 A 
ATOM     35  C   UNL     1       0.247   9.256   5.396  1.00  0.00     0.074 A 
ATOM     36  C   UNL     1      -1.779   9.671   4.053  1.00  0.00     0.049 A 
ATOM     37  N   UNL     1       0.647  10.479   5.638  1.00  0.00    -0.248 NA
ATOM     38  C   UNL     1       1.153   8.216   5.903  1.00  0.00     0.031 C 
ATOM     39  C   UNL     1      -2.997   9.348   3.307  1.00  0.00     0.029 A 
ATOM     40  N   UNL     1      -1.672  11.035   3.935  1.00  0.00    -0.354 N 
ATOM     41  C   UNL     1       1.833  10.358   6.355  1.00  0.00     0.074 A 
ATOM     42  C   UNL     1       2.067   8.940   6.534  1.00  0.00     0.031 C 
ATOM     43  C   UNL     1      -3.517  10.477   2.803  1.00  0.00     0.029 A 
ATOM     44  C   UNL     1      -2.723  11.611   3.259  1.00  0.00     0.049 A 
ATOM     45  H   UNL     1      -0.916  11.551   4.298  1.00  0.00     0.167 HD
ATOM     46  C   UNL     1       2.654  11.338   6.814  1.00  0.00     0.034 A 
ATOM     47  C   UNL     1      -3.048  12.905   3.071  1.00  0.00     0.034 A 
ATOM     48  C   UNL     1       2.422  12.748   6.613  1.00  0.00     0.049 A 
ATOM     49  C   UNL     1      -2.167  13.976   3.656  1.00  0.00     0.074 A 
ATOM     50  C   UNL     1       3.202  13.817   7.020  1.00  0.00     0.029 A 
ATOM     51  N   UNL     1       1.330  13.289   5.947  1.00  0.00    -0.354 N 
ATOM     52  N   UNL     1      -1.068  13.848   4.362  1.00  0.00    -0.248 NA
ATOM     53  C   UNL     1      -2.575  15.367   3.422  1.00  0.00     0.031 C 
ATOM     54  C   UNL     1       2.552  15.002   6.657  1.00  0.00     0.029 A 
ATOM     55  C   UNL     1       1.401  14.675   5.959  1.00  0.00     0.049 A 
ATOM     56  H   UNL     1       0.610  12.765   5.528  1.00  0.00     0.167 HD
ATOM     57  C   UNL     1      -0.643  15.144   4.637  1.00  0.00     0.074 A 
ATOM     58  C   UNL     1      -1.594  16.037   4.008  1.00  0.00     0.031 C 
ATOM     59  C   UNL     1       0.440  15.558   5.343  1.00  0.00     0.034 A 
BRANCH  46  60
ATOM     60  C   UNL     1       3.860  10.913   7.615  1.00  0.00     0.023 A 
ATOM     61  C   UNL     1       4.908  10.178   7.037  1.00  0.00     0.031 A 
ATOM     62  C   UNL     1       3.957  11.236   8.980  1.00  0.00     0.131 A 
ATOM     63  C   UNL     1       5.975   9.734   7.832  1.00  0.00     0.055 A 
ATOM     64  C   UNL     1       5.054  10.850   9.753  1.00  0.00     0.041 A 
ATOM     65  F   UNL     1       2.979  11.925   9.590  1.00  0.00    -0.206 F 
ATOM     66  C   UNL     1       6.064  10.079   9.183  1.00  0.00     0.022 A 
BRANCH  63  67
ATOM     67  S   UNL     1       7.160   8.564   7.114  1.00  0.00     0.124 S 
ATOM     68  O   UNL     1       6.275   7.602   6.460  1.00  0.00    -0.237 OA
ATOM     69  O   UNL     1       7.940   9.418   6.226  1.00  0.00    -0.237 OA
ATOM     70  O   UNL     1       7.878   8.050   8.279  1.00  0.00    -0.744 OA
ENDBRANCH  63  67
ENDBRANCH  46  60
BRANCH  47  71
ATOM     71  C   UNL     1      -4.302  13.262   2.349  1.00  0.00     0.023 A 
ATOM     72  C   UNL     1      -4.261  13.941   1.123  1.00  0.00     0.031 A 
ATOM     73  C   UNL     1      -5.562  12.948   2.891  1.00  0.00     0.131 A 
ATOM     74  C   UNL     1      -5.457  14.317   0.494  1.00  0.00     0.055 A 
ATOM     75  C   UNL     1      -6.748  13.276   2.235  1.00  0.00     0.041 A 
ATOM     76  F   UNL     1      -5.655  12.297   4.061  1.00  0.00    -0.206 F 
ATOM     77  C   UNL     1      -6.700  13.976   1.034  1.00  0.00     0.022 A 
BRANCH  74  78
ATOM     78  S   UNL     1      -5.366  15.328  -1.008  1.00  0.00     0.124 S 
ATOM     79  O   UNL     1      -4.642  16.502  -0.534  1.00  0.00    -0.237 OA
ATOM     80  O   UNL     1      -4.639  14.450  -1.920  1.00  0.00    -0.237 OA
ATOM     81  O   UNL     1      -6.768  15.555  -1.351  1.00  0.00    -0.744 OA
ENDBRANCH  74  78
ENDBRANCH  47  71
BRANCH  59  82
ATOM     82  C   UNL     1       0.671  17.046   5.428  1.00  0.00     0.023 A 
ATOM     83  C   UNL     1      -0.195  17.889   6.146  1.00  0.00     0.031 A 
ATOM     84  C   UNL     1       1.759  17.631   4.757  1.00  0.00     0.131 A 
ATOM     85  C   UNL     1       0.010  19.277   6.131  1.00  0.00     0.055 A 
ATOM     86  C   UNL     1       1.991  19.007   4.792  1.00  0.00     0.041 A 
ATOM     87  F   UNL     1       2.616  16.873   4.054  1.00  0.00    -0.206 F 
ATOM     88  C   UNL     1       1.105  19.840   5.471  1.00  0.00     0.022 A 
BRANCH  85  89
ATOM     89  S   UNL     1      -1.228  20.350   6.910  1.00  0.00     0.124 S 
ATOM     90  O   UNL     1      -2.439  20.001   6.175  1.00  0.00    -0.237 OA
ATOM     91  O   UNL     1      -1.181  19.919   8.304  1.00  0.00    -0.237 OA
ATOM     92  O   UNL     1      -0.719  21.698   6.662  1.00  0.00    -0.744 OA
ENDBRANCH  85  89
ENDBRANCH  59  82
ENDBRANCH  33  34
ENDBRANCH  26  28
ENDBRANCH  25  26
ENDBRANCH   1  25
TORSDOF 15
