REMARK SMILES O=C(OCCOC(=O)c1ccc(-c2c3nc(c(-c4cc(S(=O)(=O)[O-])ccc4F)c4ccc([nH]4)c(-c4cc(S(=O)(=O)[O-])ccc4F)c4nc(c(-c5cc(S(=O)(=O)[O-])ccc5F)c5ccc2[nH]5)C=C4)C=C3)cc1)C1=C[C@H]2C=C[C@@H]1[C@@H]1C=C[C@H]21
REMARK SMILES IDX 6 1 5 2 4 3 3 4 2 5 1 6 72 7 73 8 77 9 74 10 76 11 78 12
REMARK SMILES IDX 75 13 81 14 79 15 80 16 7 17 8 18 9 19 10 20 71 21 11 22
REMARK SMILES IDX 70 23 12 24 13 25 14 26 64 27 15 28 69 29 63 30 65 31 16 32
REMARK SMILES IDX 68 33 62 34 61 35 17 37 49 38 29 39 48 40 30 41 33 42 47 43
REMARK SMILES IDX 66 44 31 45 32 46 46 48 67 49 34 50 18 51 19 52 27 53 20 54
REMARK SMILES IDX 26 55 28 56 25 57 21 58 22 59 23 60 24 61 50 62 51 63 59 64
REMARK SMILES IDX 52 65 58 66 60 67 57 68 53 69 54 70 55 71 56 72 35 73 36 74
REMARK SMILES IDX 44 75 37 76 43 77 45 78 42 79 38 80 39 81 40 82 41 83
REMARK H PARENT 65 36 33 47
REMARK Flexibility Score: inf
ROOT
ATOM      1  O   UNL     1       3.860  -1.712  -1.529  1.00  0.00    -0.458 OA
ENDROOT
BRANCH   1   2
ATOM      2  C   UNL     1       4.232  -1.950  -0.152  1.00  0.00     0.275 C 
BRANCH   2   3
ATOM      3  C   UNL     1       4.739  -0.650   0.502  1.00  0.00     0.275 C 
BRANCH   3   4
ATOM      4  O   UNL     1       3.656   0.071   1.135  1.00  0.00    -0.459 OA
BRANCH   4   5
ATOM      5  C   UNL     1       3.769   1.427   1.173  1.00  0.00     0.334 C 
ATOM      6  O   UNL     1       3.884   2.063   2.211  1.00  0.00    -0.247 OA
BRANCH   5   7
ATOM      7  C   UNL     1       3.534   2.060  -0.134  1.00  0.00     0.041 C 
ATOM      8  C   UNL     1       3.944   3.291  -0.541  1.00  0.00    -0.007 C 
ATOM      9  C   UNL     1       2.670   1.345  -1.156  1.00  0.00     0.056 C 
ATOM     10  C   UNL     1       3.512   3.659  -1.992  1.00  0.00     0.042 C 
ATOM     11  C   UNL     1       3.511   1.313  -2.429  1.00  0.00    -0.022 C 
ATOM     12  C   UNL     1       1.471   2.330  -1.295  1.00  0.00     0.031 C 
ATOM     13  C   UNL     1       3.954   2.504  -2.864  1.00  0.00    -0.022 C 
ATOM     14  C   UNL     1       1.950   3.669  -1.951  1.00  0.00     0.030 C 
ATOM     15  C   UNL     1       0.513   2.207  -2.447  1.00  0.00    -0.026 C 
ATOM     16  C   UNL     1       1.060   3.238  -3.121  1.00  0.00    -0.026 C 
ENDBRANCH   5   7
ENDBRANCH   4   5
ENDBRANCH   3   4
ENDBRANCH   2   3
ENDBRANCH   1   2
BRANCH   1  17
ATOM     17  C   UNL     1       2.703  -2.281  -1.977  1.00  0.00     0.338 C 
ATOM     18  O   UNL     1       1.970  -3.011  -1.348  1.00  0.00    -0.246 OA
BRANCH  17  19
ATOM     19  C   UNL     1       2.377  -1.708  -3.317  1.00  0.00     0.060 A 
ATOM     20  C   UNL     1       1.097  -1.181  -3.515  1.00  0.00     0.016 A 
ATOM     21  C   UNL     1       3.347  -1.560  -4.320  1.00  0.00     0.016 A 
ATOM     22  C   UNL     1       0.809  -0.448  -4.676  1.00  0.00     0.010 A 
ATOM     23  C   UNL     1       3.056  -0.819  -5.479  1.00  0.00     0.010 A 
ATOM     24  C   UNL     1       1.789  -0.242  -5.661  1.00  0.00    -0.014 A 
BRANCH  24  25
ATOM     25  C   UNL     1       1.425   0.430  -6.944  1.00  0.00     0.031 A 
ATOM     26  C   UNL     1       0.775  -0.399  -8.010  1.00  0.00     0.074 A 
ATOM     27  C   UNL     1       1.633   1.742  -7.173  1.00  0.00     0.049 A 
ATOM     28  N   UNL     1       0.326  -0.038  -9.183  1.00  0.00    -0.248 NA
ATOM     29  C   UNL     1       0.625  -1.829  -7.710  1.00  0.00     0.031 C 
ATOM     30  C   UNL     1       2.254   2.659  -6.230  1.00  0.00     0.029 A 
ATOM     31  N   UNL     1       1.334   2.541  -8.255  1.00  0.00    -0.354 N 
ATOM     32  C   UNL     1      -0.171  -1.196  -9.762  1.00  0.00     0.074 A 
ATOM     33  C   UNL     1       0.053  -2.272  -8.817  1.00  0.00     0.031 C 
ATOM     34  C   UNL     1       2.241   3.903  -6.740  1.00  0.00     0.029 A 
ATOM     35  C   UNL     1       1.682   3.866  -8.090  1.00  0.00     0.049 A 
ATOM     36  H   UNL     1       0.910   2.196  -9.074  1.00  0.00     0.167 HD
ATOM     37  C   UNL     1      -0.751  -1.357 -10.975  1.00  0.00     0.034 A 
ATOM     38  C   UNL     1       1.589   4.920  -8.934  1.00  0.00     0.034 A 
ATOM     39  C   UNL     1      -0.904  -0.307 -11.947  1.00  0.00     0.049 A 
ATOM     40  C   UNL     1       1.046   4.687 -10.327  1.00  0.00     0.074 A 
ATOM     41  C   UNL     1      -1.456  -0.382 -13.213  1.00  0.00     0.029 A 
ATOM     42  N   UNL     1      -0.467   1.000 -11.779  1.00  0.00    -0.354 N 
ATOM     43  N   UNL     1       0.540   3.590 -10.844  1.00  0.00    -0.248 NA
ATOM     44  C   UNL     1       1.089   5.822 -11.262  1.00  0.00     0.031 C 
ATOM     45  C   UNL     1      -1.284   0.859 -13.838  1.00  0.00     0.029 A 
ATOM     46  C   UNL     1      -0.688   1.728 -12.938  1.00  0.00     0.049 A 
ATOM     47  H   UNL     1      -0.060   1.358 -10.957  1.00  0.00     0.167 HD
ATOM     48  C   UNL     1       0.197   3.909 -12.156  1.00  0.00     0.074 A 
ATOM     49  C   UNL     1       0.529   5.306 -12.346  1.00  0.00     0.031 C 
ATOM     50  C   UNL     1      -0.339   3.117 -13.120  1.00  0.00     0.034 A 
BRANCH  37  51
ATOM     51  C   UNL     1      -1.168  -2.758 -11.325  1.00  0.00     0.023 A 
ATOM     52  C   UNL     1      -2.215  -3.401 -10.641  1.00  0.00     0.031 A 
ATOM     53  C   UNL     1      -0.442  -3.491 -12.277  1.00  0.00     0.131 A 
ATOM     54  C   UNL     1      -2.454  -4.764 -10.865  1.00  0.00     0.055 A 
ATOM     55  C   UNL     1      -0.733  -4.828 -12.547  1.00  0.00     0.041 A 
ATOM     56  F   UNL     1       0.588  -2.931 -12.929  1.00  0.00    -0.206 F 
ATOM     57  C   UNL     1      -1.734  -5.477 -11.827  1.00  0.00     0.022 A 
BRANCH  54  58
ATOM     58  S   UNL     1      -3.614  -5.630  -9.772  1.00  0.00     0.124 S 
ATOM     59  O   UNL     1      -2.975  -5.458  -8.469  1.00  0.00    -0.237 OA
ATOM     60  O   UNL     1      -4.854  -4.892  -9.979  1.00  0.00    -0.237 OA
ATOM     61  O   UNL     1      -3.609  -6.999 -10.284  1.00  0.00    -0.744 OA
ENDBRANCH  54  58
ENDBRANCH  37  51
BRANCH  38  62
ATOM     62  C   UNL     1       2.095   6.277  -8.544  1.00  0.00     0.023 A 
ATOM     63  C   UNL     1       1.261   7.411  -8.559  1.00  0.00     0.031 A 
ATOM     64  C   UNL     1       3.454   6.477  -8.234  1.00  0.00     0.131 A 
ATOM     65  C   UNL     1       1.799   8.687  -8.307  1.00  0.00     0.055 A 
ATOM     66  C   UNL     1       3.971   7.737  -7.925  1.00  0.00     0.041 A 
ATOM     67  F   UNL     1       4.309   5.442  -8.227  1.00  0.00    -0.206 F 
ATOM     68  C   UNL     1       3.144   8.854  -7.974  1.00  0.00     0.022 A 
BRANCH  65  69
ATOM     69  S   UNL     1       0.743  10.149  -8.527  1.00  0.00     0.124 S 
ATOM     70  O   UNL     1       0.271   9.975  -9.895  1.00  0.00    -0.237 OA
ATOM     71  O   UNL     1      -0.250   9.965  -7.474  1.00  0.00    -0.237 OA
ATOM     72  O   UNL     1       1.663  11.267  -8.323  1.00  0.00    -0.744 OA
ENDBRANCH  65  69
ENDBRANCH  38  62
BRANCH  50  73
ATOM     73  C   UNL     1      -0.623   3.754 -14.459  1.00  0.00     0.023 A 
ATOM     74  C   UNL     1       0.413   4.159 -15.319  1.00  0.00     0.031 A 
ATOM     75  C   UNL     1      -1.950   3.949 -14.882  1.00  0.00     0.131 A 
ATOM     76  C   UNL     1       0.105   4.777 -16.541  1.00  0.00     0.055 A 
ATOM     77  C   UNL     1      -2.250   4.516 -16.122  1.00  0.00     0.041 A 
ATOM     78  F   UNL     1      -2.977   3.580 -14.101  1.00  0.00    -0.206 F 
ATOM     79  C   UNL     1      -1.219   4.942 -16.955  1.00  0.00     0.022 A 
BRANCH  76  80
ATOM     80  S   UNL     1       1.460   5.413 -17.567  1.00  0.00     0.124 S 
ATOM     81  O   UNL     1       2.032   6.444 -16.707  1.00  0.00    -0.237 OA
ATOM     82  O   UNL     1       2.284   4.226 -17.773  1.00  0.00    -0.237 OA
ATOM     83  O   UNL     1       0.782   5.908 -18.764  1.00  0.00    -0.744 OA
ENDBRANCH  76  80
ENDBRANCH  50  73
ENDBRANCH  24  25
ENDBRANCH  17  19
ENDBRANCH   1  17
TORSDOF 14
