REMARK SMILES Cc1nc(-c2ccccc2Cl)nc2sc(C(=O)OCCOC(=O)c3ccc(-c4c5nc(c(-c6cc(S(=O)(=O)[O-])ccc6F)c6ccc([nH]6)c(-c6cc(S(=O)(=O)[O-])ccc6F)c6nc(c(-c7cc(S(=O)(=O)[O-])ccc7F)c7ccc4[nH]7)C=C6)C=C5)cc3)c(N)c12
REMARK SMILES IDX 20 1 19 2 18 3 16 4 17 5 15 6 1 7 2 8 3 9 89 10 4 11 13 12
REMARK SMILES IDX 87 13 12 14 14 15 5 16 6 17 10 18 7 19 9 20 11 21 8 22 88 23
REMARK SMILES IDX 21 26 22 27 23 28 24 29 25 30 86 31 26 32 85 33 27 34 28 35
REMARK SMILES IDX 29 36 79 37 30 38 84 39 78 40 80 41 31 42 83 43 77 44 76 45
REMARK SMILES IDX 32 47 64 48 44 49 63 50 45 51 48 52 62 53 81 54 46 55 47 56
REMARK SMILES IDX 61 58 82 59 49 60 33 61 34 62 42 63 35 64 41 65 43 66 40 67
REMARK SMILES IDX 36 68 37 69 38 70 39 71 65 72 66 73 74 74 67 75 73 76 75 77
REMARK SMILES IDX 72 78 68 79 69 80 70 81 71 82 50 83 51 84 59 85 52 86 58 87
REMARK SMILES IDX 60 88 57 89 53 90 54 91 55 92 56 93
REMARK H PARENT 88 24 88 25 80 46 48 57
REMARK Flexibility Score: inf
ROOT
ATOM      1  C   UNL     1      -1.248   5.338   6.681  1.00  0.00     0.275 C 
ENDROOT
BRANCH   1   2
ATOM      2  C   UNL     1      -2.478   4.560   6.239  1.00  0.00     0.275 C 
BRANCH   2   3
ATOM      3  O   UNL     1      -2.114   3.337   5.587  1.00  0.00    -0.458 OA
BRANCH   3   4
ATOM      4  C   UNL     1      -1.905   3.362   4.236  1.00  0.00     0.350 C 
ATOM      5  O   UNL     1      -2.159   4.332   3.520  1.00  0.00    -0.245 OA
BRANCH   4   6
ATOM      6  C   UNL     1      -1.328   2.109   3.780  1.00  0.00     0.138 A 
ATOM      7  C   UNL     1       0.792   0.023   0.140  1.00  0.00     0.067 C 
ATOM      8  C   UNL     1       0.326  -0.397   1.501  1.00  0.00     0.052 A 
ATOM      9  N   UNL     1       0.528  -1.721   1.788  1.00  0.00    -0.233 NA
ATOM     10  C   UNL     1      -0.285   0.424   2.480  1.00  0.00     0.057 A 
ATOM     11  C   UNL     1       0.177  -2.203   2.991  1.00  0.00     0.162 A 
ATOM     12  C   UNL     1      -0.602  -0.226   3.664  1.00  0.00     0.130 A 
ATOM     13  C   UNL     1      -0.705   1.810   2.574  1.00  0.00     0.069 A 
ATOM     14  N   UNL     1      -0.405  -1.511   3.966  1.00  0.00    -0.217 NA
ATOM     15  S   UNL     1      -1.354   0.750   4.814  1.00  0.00    -0.106 S 
BRANCH  11  16
ATOM     16  C   UNL     1       0.288  -3.637   3.248  1.00  0.00     0.038 A 
ATOM     17  C   UNL     1      -0.877  -4.342   3.631  1.00  0.00     0.013 A 
ATOM     18  C   UNL     1       1.499  -4.342   3.222  1.00  0.00     0.052 A 
ATOM     19  C   UNL     1      -0.837  -5.691   3.981  1.00  0.00     0.001 A 
ATOM     20  C   UNL     1       1.539  -5.698   3.576  1.00  0.00     0.021 A 
ATOM     21  Cl  UNL     1       3.005  -3.587   2.829  1.00  0.00    -0.084 Cl
ATOM     22  C   UNL     1       0.376  -6.369   3.956  1.00  0.00     0.002 A 
ENDBRANCH  11  16
BRANCH  13  23
ATOM     23  N   UNL     1      -0.527   2.741   1.608  1.00  0.00    -0.397 N 
ATOM     24  H   UNL     1      -0.842   3.663   1.750  1.00  0.00     0.156 HD
ATOM     25  H   UNL     1      -0.084   2.497   0.764  1.00  0.00     0.156 HD
ENDBRANCH  13  23
ENDBRANCH   4   6
ENDBRANCH   3   4
ENDBRANCH   2   3
ENDBRANCH   1   2
BRANCH   1  26
ATOM     26  O   UNL     1      -0.636   6.011   5.582  1.00  0.00    -0.458 OA
BRANCH  26  27
ATOM     27  C   UNL     1       0.395   5.352   5.005  1.00  0.00     0.338 C 
ATOM     28  O   UNL     1       0.638   4.161   5.090  1.00  0.00    -0.246 OA
BRANCH  27  29
ATOM     29  C   UNL     1       1.302   6.330   4.390  1.00  0.00     0.060 A 
ATOM     30  C   UNL     1       2.387   5.841   3.661  1.00  0.00     0.016 A 
ATOM     31  C   UNL     1       1.191   7.692   4.712  1.00  0.00     0.016 A 
ATOM     32  C   UNL     1       3.426   6.704   3.369  1.00  0.00     0.010 A 
ATOM     33  C   UNL     1       2.231   8.550   4.423  1.00  0.00     0.010 A 
ATOM     34  C   UNL     1       3.366   8.039   3.804  1.00  0.00    -0.014 A 
BRANCH  34  35
ATOM     35  C   UNL     1       4.422   8.947   3.385  1.00  0.00     0.031 A 
ATOM     36  C   UNL     1       4.409   9.120   1.915  1.00  0.00     0.074 A 
ATOM     37  C   UNL     1       5.247   9.617   4.217  1.00  0.00     0.049 A 
ATOM     38  N   UNL     1       5.176   8.518   1.071  1.00  0.00    -0.248 NA
ATOM     39  C   UNL     1       3.272   9.815   1.287  1.00  0.00     0.031 C 
ATOM     40  C   UNL     1       5.183   9.683   5.679  1.00  0.00     0.029 A 
ATOM     41  N   UNL     1       6.296  10.444   3.925  1.00  0.00    -0.354 N 
ATOM     42  C   UNL     1       4.829   9.035  -0.170  1.00  0.00     0.074 A 
ATOM     43  C   UNL     1       3.517   9.595  -0.008  1.00  0.00     0.031 C 
ATOM     44  C   UNL     1       5.999  10.668   6.126  1.00  0.00     0.029 A 
ATOM     45  C   UNL     1       6.756  11.203   5.005  1.00  0.00     0.049 A 
ATOM     46  H   UNL     1       6.696  10.501   3.027  1.00  0.00     0.167 HD
ATOM     47  C   UNL     1       5.809   9.285  -1.081  1.00  0.00     0.034 A 
ATOM     48  C   UNL     1       7.703  12.184   4.978  1.00  0.00     0.034 A 
ATOM     49  C   UNL     1       7.032   8.620  -0.689  1.00  0.00     0.049 A 
ATOM     50  C   UNL     1       8.583  11.870   3.829  1.00  0.00     0.074 A 
ATOM     51  C   UNL     1       7.527   7.336  -0.668  1.00  0.00     0.029 A 
ATOM     52  N   UNL     1       7.797   9.367   0.170  1.00  0.00    -0.354 N 
ATOM     53  N   UNL     1       9.319  10.793   3.777  1.00  0.00    -0.248 NA
ATOM     54  C   UNL     1       8.357  12.539   2.554  1.00  0.00     0.031 C 
ATOM     55  C   UNL     1       8.520   7.310   0.359  1.00  0.00     0.029 A 
ATOM     56  C   UNL     1       8.650   8.588   0.899  1.00  0.00     0.049 A 
ATOM     57  H   UNL     1       7.738  10.346   0.252  1.00  0.00     0.167 HD
ATOM     58  C   UNL     1       9.282  10.419   2.449  1.00  0.00     0.074 A 
ATOM     59  C   UNL     1       8.828  11.603   1.726  1.00  0.00     0.031 C 
ATOM     60  C   UNL     1       9.297   9.103   2.090  1.00  0.00     0.034 A 
BRANCH  47  61
ATOM     61  C   UNL     1       5.875  10.529  -1.954  1.00  0.00     0.023 A 
ATOM     62  C   UNL     1       7.007  10.661  -2.787  1.00  0.00     0.031 A 
ATOM     63  C   UNL     1       5.106  11.701  -1.779  1.00  0.00     0.131 A 
ATOM     64  C   UNL     1       7.376  11.910  -3.317  1.00  0.00     0.055 A 
ATOM     65  C   UNL     1       5.456  12.932  -2.341  1.00  0.00     0.041 A 
ATOM     66  F   UNL     1       4.029  11.758  -0.989  1.00  0.00    -0.206 F 
ATOM     67  C   UNL     1       6.611  13.049  -3.092  1.00  0.00     0.022 A 
BRANCH  64  68
ATOM     68  S   UNL     1       8.945  12.048  -4.212  1.00  0.00     0.124 S 
ATOM     69  O   UNL     1       9.908  11.653  -3.191  1.00  0.00    -0.237 OA
ATOM     70  O   UNL     1       8.746  11.108  -5.311  1.00  0.00    -0.237 OA
ATOM     71  O   UNL     1       8.987  13.455  -4.602  1.00  0.00    -0.744 OA
ENDBRANCH  64  68
ENDBRANCH  47  61
BRANCH  48  72
ATOM     72  C   UNL     1       7.706  13.518   5.659  1.00  0.00     0.023 A 
ATOM     73  C   UNL     1       8.831  14.382   5.638  1.00  0.00     0.031 A 
ATOM     74  C   UNL     1       6.492  14.088   6.096  1.00  0.00     0.131 A 
ATOM     75  C   UNL     1       8.704  15.744   6.010  1.00  0.00     0.055 A 
ATOM     76  C   UNL     1       6.370  15.435   6.452  1.00  0.00     0.041 A 
ATOM     77  F   UNL     1       5.354  13.378   6.106  1.00  0.00    -0.206 F 
ATOM     78  C   UNL     1       7.472  16.274   6.395  1.00  0.00     0.022 A 
BRANCH  75  79
ATOM     79  S   UNL     1      10.117  16.896   5.882  1.00  0.00     0.124 S 
ATOM     80  O   UNL     1      10.896  16.557   7.068  1.00  0.00    -0.237 OA
ATOM     81  O   UNL     1      10.705  16.541   4.597  1.00  0.00    -0.237 OA
ATOM     82  O   UNL     1       9.483  18.215   5.921  1.00  0.00    -0.744 OA
ENDBRANCH  75  79
ENDBRANCH  48  72
BRANCH  60  83
ATOM     83  C   UNL     1       9.964   8.118   3.008  1.00  0.00     0.023 A 
ATOM     84  C   UNL     1       9.480   7.688   4.261  1.00  0.00     0.031 A 
ATOM     85  C   UNL     1      11.123   7.507   2.498  1.00  0.00     0.131 A 
ATOM     86  C   UNL     1      10.159   6.659   4.947  1.00  0.00     0.055 A 
ATOM     87  C   UNL     1      11.776   6.479   3.167  1.00  0.00     0.041 A 
ATOM     88  F   UNL     1      11.614   7.877   1.303  1.00  0.00    -0.206 F 
ATOM     89  C   UNL     1      11.294   6.049   4.396  1.00  0.00     0.022 A 
BRANCH  86  90
ATOM     90  S   UNL     1       9.562   6.066   6.564  1.00  0.00     0.124 S 
ATOM     91  O   UNL     1       9.605   7.265   7.393  1.00  0.00    -0.237 OA
ATOM     92  O   UNL     1       8.232   5.553   6.247  1.00  0.00    -0.237 OA
ATOM     93  O   UNL     1      10.536   5.037   6.934  1.00  0.00    -0.744 OA
ENDBRANCH  86  90
ENDBRANCH  60  83
ENDBRANCH  34  35
ENDBRANCH  27  29
ENDBRANCH  26  27
ENDBRANCH   1  26
TORSDOF 16
