REMARK SMILES O=C(OCCOC(=O)c1ccc(-c2c3nc(c(-c4cc(S(=O)(=O)[O-])ccc4F)c4ccc([nH]4)c(-c4cc(S(=O)(=O)[O-])ccc4F)c4nc(c(-c5cc(S(=O)(=O)[O-])ccc5F)c5ccc2[nH]5)C=C4)C=C3)cc1)C1=Cc2cc(S(F)(F)(F)(F)F)ccc2O[C@@H]1C(F)(F)F
REMARK SMILES IDX 5 1 4 2 3 3 2 4 1 5 72 6 73 7 87 8 74 9 86 10 75 11 85 12
REMARK SMILES IDX 76 13 84 14 83 15 88 16 89 17 90 18 91 19 77 20 78 21 79 22
REMARK SMILES IDX 80 23 81 24 82 25 6 26 7 27 8 28 9 29 10 30 71 31 11 32
REMARK SMILES IDX 70 33 12 34 13 35 14 36 64 37 15 38 69 39 63 40 65 41 16 42
REMARK SMILES IDX 68 43 62 44 61 45 17 47 49 48 29 49 48 50 30 51 33 52 47 53
REMARK SMILES IDX 66 54 31 55 32 56 46 58 67 59 34 60 18 61 19 62 27 63 20 64
REMARK SMILES IDX 26 65 28 66 25 67 21 68 22 69 23 70 24 71 50 72 51 73 59 74
REMARK SMILES IDX 52 75 58 76 60 77 57 78 53 79 54 80 55 81 56 82 35 83 36 84
REMARK SMILES IDX 44 85 37 86 43 87 45 88 42 89 38 90 39 91 40 92 41 93
REMARK H PARENT 65 46 33 57
REMARK Flexibility Score: inf
ROOT
ATOM      1  C   UNL     1       4.840  -1.325   0.162  1.00  0.00     0.275 C 
ENDROOT
BRANCH   1   2
ATOM      2  C   UNL     1       4.333  -0.377   1.238  1.00  0.00     0.275 C 
BRANCH   2   3
ATOM      3  O   UNL     1       2.913  -0.377   1.238  1.00  0.00    -0.459 OA
BRANCH   3   4
ATOM      4  C   UNL     1       2.203   0.015   0.072  1.00  0.00     0.338 C 
ATOM      5  O   UNL     1       0.932   0.015   0.072  1.00  0.00    -0.246 OA
BRANCH   4   6
ATOM      6  C   UNL     1       2.963   0.435  -1.175  1.00  0.00     0.087 C 
ATOM      7  C   UNL     1       4.324   0.435  -1.175  1.00  0.00     0.027 C 
ATOM      8  C   UNL     1       2.203   0.855  -2.423  1.00  0.00     0.316 C 
ATOM      9  C   UNL     1       5.084   0.015   0.072  1.00  0.00     0.019 A 
ATOM     10  O   UNL     1       3.475  -1.697   0.429  1.00  0.00    -0.475 OA
ATOM     11  C   UNL     1       6.200   0.743   0.449  1.00  0.00     0.036 A 
ATOM     12  C   UNL     1       4.710  -1.069   0.741  1.00  0.00     0.128 A 
ATOM     13  C   UNL     1       7.031   0.077   1.381  1.00  0.00     0.107 A 
ATOM     14  C   UNL     1       5.506  -1.588   1.733  1.00  0.00     0.048 A 
ATOM     15  C   UNL     1       6.655  -0.953   2.117  1.00  0.00     0.028 A 
BRANCH   8  16
ATOM     16  C   UNL     1       2.570  -0.067  -3.575  1.00  0.00     0.430 C 
ATOM     17  F   UNL     1       2.249  -1.318  -3.260  1.00  0.00    -0.167 F 
ATOM     18  F   UNL     1       1.905   0.301  -4.666  1.00  0.00    -0.167 F 
ATOM     19  F   UNL     1       3.878   0.011  -3.805  1.00  0.00    -0.167 F 
ENDBRANCH   8  16
BRANCH  13  20
ATOM     20  S   UNL     1       8.727   0.678   1.577  1.00  0.00     0.310 S 
ATOM     21  F   UNL     1       8.608   0.679   3.159  1.00  0.00    -0.094 F 
ATOM     22  F   UNL     1       8.169   2.151   1.603  1.00  0.00    -0.094 F 
ATOM     23  F   UNL     1      10.183   1.196   1.747  1.00  0.00    -0.094 F 
ATOM     24  F   UNL     1       9.252  -0.808   1.691  1.00  0.00    -0.094 F 
ATOM     25  F   UNL     1       7.244   0.134   1.519  1.00  0.00    -0.094 F 
ENDBRANCH  13  20
ENDBRANCH   4   6
ENDBRANCH   3   4
ENDBRANCH   2   3
ENDBRANCH   1   2
BRANCH   1  26
ATOM     26  O   UNL     1       4.367  -0.897  -1.106  1.00  0.00    -0.458 OA
BRANCH  26  27
ATOM     27  C   UNL     1       2.970  -0.815  -1.352  1.00  0.00     0.338 C 
ATOM     28  O   UNL     1       2.145  -1.123  -0.437  1.00  0.00    -0.246 OA
BRANCH  27  29
ATOM     29  C   UNL     1       2.464  -0.357  -2.711  1.00  0.00     0.060 A 
ATOM     30  C   UNL     1       1.499   0.636  -2.737  1.00  0.00     0.016 A 
ATOM     31  C   UNL     1       2.997  -0.831  -3.831  1.00  0.00     0.016 A 
ATOM     32  C   UNL     1       0.949   0.867  -4.020  1.00  0.00     0.010 A 
ATOM     33  C   UNL     1       2.497  -0.458  -5.055  1.00  0.00     0.010 A 
ATOM     34  C   UNL     1       1.503   0.476  -5.154  1.00  0.00    -0.014 A 
BRANCH  34  35
ATOM     35  C   UNL     1       1.059   1.034  -6.496  1.00  0.00     0.031 A 
ATOM     36  C   UNL     1       0.555   0.163  -7.463  1.00  0.00     0.074 A 
ATOM     37  C   UNL     1       1.304   2.378  -6.718  1.00  0.00     0.049 A 
ATOM     38  N   UNL     1       0.199   0.455  -8.715  1.00  0.00    -0.248 NA
ATOM     39  C   UNL     1       0.326  -1.273  -7.240  1.00  0.00     0.031 C 
ATOM     40  C   UNL     1       1.804   3.266  -5.745  1.00  0.00     0.029 A 
ATOM     41  N   UNL     1       1.119   3.091  -7.882  1.00  0.00    -0.354 N 
ATOM     42  C   UNL     1      -0.256  -0.638  -9.332  1.00  0.00     0.074 A 
ATOM     43  C   UNL     1      -0.175  -1.766  -8.394  1.00  0.00     0.031 C 
ATOM     44  C   UNL     1       1.929   4.492  -6.317  1.00  0.00     0.029 A 
ATOM     45  C   UNL     1       1.509   4.392  -7.657  1.00  0.00     0.049 A 
ATOM     46  H   UNL     1       0.768   2.731  -8.729  1.00  0.00     0.167 HD
ATOM     47  C   UNL     1      -0.737  -0.737 -10.639  1.00  0.00     0.034 A 
ATOM     48  C   UNL     1       1.508   5.446  -8.557  1.00  0.00     0.034 A 
ATOM     49  C   UNL     1      -0.779   0.327 -11.525  1.00  0.00     0.049 A 
ATOM     50  C   UNL     1       1.081   5.333  -9.883  1.00  0.00     0.074 A 
ATOM     51  C   UNL     1      -1.268   0.245 -12.843  1.00  0.00     0.029 A 
ATOM     52  N   UNL     1      -0.365   1.623 -11.308  1.00  0.00    -0.354 N 
ATOM     53  N   UNL     1       0.590   4.250 -10.486  1.00  0.00    -0.248 NA
ATOM     54  C   UNL     1       1.106   6.435 -10.854  1.00  0.00     0.031 C 
ATOM     55  C   UNL     1      -1.142   1.472 -13.416  1.00  0.00     0.029 A 
ATOM     56  C   UNL     1      -0.572   2.340 -12.465  1.00  0.00     0.049 A 
ATOM     57  H   UNL     1       0.013   1.975 -10.470  1.00  0.00     0.167 HD
ATOM     58  C   UNL     1       0.273   4.534 -11.751  1.00  0.00     0.074 A 
ATOM     59  C   UNL     1       0.607   5.941 -12.008  1.00  0.00     0.031 C 
ATOM     60  C   UNL     1      -0.286   3.676 -12.701  1.00  0.00     0.034 A 
BRANCH  47  61
ATOM     61  C   UNL     1      -1.243  -2.089 -11.116  1.00  0.00     0.023 A 
ATOM     62  C   UNL     1      -2.326  -2.732 -10.538  1.00  0.00     0.031 A 
ATOM     63  C   UNL     1      -0.613  -2.607 -12.163  1.00  0.00     0.131 A 
ATOM     64  C   UNL     1      -2.490  -4.072 -10.962  1.00  0.00     0.055 A 
ATOM     65  C   UNL     1      -0.919  -3.871 -12.608  1.00  0.00     0.041 A 
ATOM     66  F   UNL     1       0.323  -1.897 -12.787  1.00  0.00    -0.206 F 
ATOM     67  C   UNL     1      -1.938  -4.587 -12.045  1.00  0.00     0.022 A 
BRANCH  64  68
ATOM     68  S   UNL     1      -3.528  -5.154  -9.949  1.00  0.00     0.124 S 
ATOM     69  O   UNL     1      -2.943  -5.248  -8.538  1.00  0.00    -0.237 OA
ATOM     70  O   UNL     1      -4.945  -4.580  -9.876  1.00  0.00    -0.237 OA
ATOM     71  O   UNL     1      -3.580  -6.713 -10.650  1.00  0.00    -0.744 OA
ENDBRANCH  64  68
ENDBRANCH  47  61
BRANCH  48  72
ATOM     72  C   UNL     1       1.999   6.801  -8.075  1.00  0.00     0.023 A 
ATOM     73  C   UNL     1       1.204   7.931  -8.174  1.00  0.00     0.031 A 
ATOM     74  C   UNL     1       3.248   6.875  -7.632  1.00  0.00     0.131 A 
ATOM     75  C   UNL     1       1.918   9.147  -8.054  1.00  0.00     0.055 A 
ATOM     76  C   UNL     1       3.840   8.095  -7.405  1.00  0.00     0.041 A 
ATOM     77  F   UNL     1       3.934   5.758  -7.405  1.00  0.00    -0.206 F 
ATOM     78  C   UNL     1       3.131   9.256  -7.542  1.00  0.00     0.022 A 
BRANCH  75  79
ATOM     79  S   UNL     1       1.114  10.658  -8.642  1.00  0.00     0.124 S 
ATOM     80  O   UNL     1       0.802  10.522 -10.134  1.00  0.00    -0.237 OA
ATOM     81  O   UNL     1      -0.187  10.878  -7.867  1.00  0.00    -0.237 OA
ATOM     82  O   UNL     1       2.156  11.991  -8.397  1.00  0.00    -0.744 OA
ENDBRANCH  75  79
ENDBRANCH  48  72
BRANCH  60  83
ATOM     83  C   UNL     1      -0.599   4.241 -14.077  1.00  0.00     0.023 A 
ATOM     84  C   UNL     1       0.477   4.645 -14.850  1.00  0.00     0.031 A 
ATOM     85  C   UNL     1      -1.835   4.240 -14.562  1.00  0.00     0.131 A 
ATOM     86  C   UNL     1       0.107   5.309 -16.044  1.00  0.00     0.055 A 
ATOM     87  C   UNL     1      -2.102   4.784 -15.795  1.00  0.00     0.041 A 
ATOM     88  F   UNL     1      -2.823   3.707 -13.849  1.00  0.00    -0.206 F 
ATOM     89  C   UNL     1      -1.094   5.256 -16.589  1.00  0.00     0.022 A 
BRANCH  86  90
ATOM     90  S   UNL     1       1.369   6.301 -16.881  1.00  0.00     0.124 S 
ATOM     91  O   UNL     1       1.856   7.406 -15.941  1.00  0.00    -0.237 OA
ATOM     92  O   UNL     1       2.547   5.404 -17.269  1.00  0.00    -0.237 OA
ATOM     93  O   UNL     1       0.700   7.004 -18.289  1.00  0.00    -0.744 OA
ENDBRANCH  86  90
ENDBRANCH  60  83
ENDBRANCH  34  35
ENDBRANCH  27  29
ENDBRANCH  26  27
ENDBRANCH   1  26
TORSDOF 16
