REMARK SMILES COc1ccc(N[C@H](C)[C@H](C)C(=O)OCCOC(=O)c2ccc(-c3c4nc(c(-c5cc(S(=O)(=O)[O-])ccc5F)c5ccc([nH]5)c(-c5cc(S(=O)(=O)[O-])ccc5F)c5nc(c(-c6cc(S(=O)(=O)[O-])ccc6F)c6ccc3[nH]6)C=C5)C=C4)cc2)c(OC)c1
REMARK SMILES IDX 15 1 14 2 12 3 13 4 10 5 11 6 8 7 9 8 7 9 6 11 3 12 4 13
REMARK SMILES IDX 86 14 5 15 83 16 2 17 1 18 84 19 85 20 16 21 17 22 18 23
REMARK SMILES IDX 19 24 20 25 21 26 82 27 22 28 81 29 23 30 24 31 25 32 75 33
REMARK SMILES IDX 26 34 80 35 74 36 76 37 27 38 79 39 73 40 72 41 28 43 60 44
REMARK SMILES IDX 40 45 59 46 41 47 44 48 58 49 77 50 42 51 43 52 57 54 78 55
REMARK SMILES IDX 45 56 29 57 30 58 38 59 31 60 37 61 39 62 36 63 32 64 33 65
REMARK SMILES IDX 34 66 35 67 61 68 62 69 70 70 63 71 69 72 71 73 68 74 64 75
REMARK SMILES IDX 65 76 66 77 67 78 46 79 47 80 55 81 48 82 54 83 56 84 53 85
REMARK SMILES IDX 49 86 50 87 51 88 52 89
REMARK H PARENT 7 10 76 42 44 53
REMARK Flexibility Score: inf
ROOT
ATOM      1  C   UNL     1      -1.537   8.775  -5.676  1.00  0.00     0.274 C 
ENDROOT
BRANCH   1   2
ATOM      2  O   UNL     1      -0.689   7.763  -5.104  1.00  0.00    -0.462 OA
BRANCH   2   3
ATOM      3  C   UNL     1       0.525   7.636  -5.704  1.00  0.00     0.310 C 
ATOM      4  O   UNL     1       0.818   8.260  -6.716  1.00  0.00    -0.252 OA
BRANCH   3   5
ATOM      5  C   UNL     1       1.470   6.660  -4.987  1.00  0.00     0.118 C 
ATOM      6  C   UNL     1       0.799   5.974  -3.786  1.00  0.00     0.022 C 
BRANCH   5   7
ATOM      7  C   UNL     1       2.064   5.623  -5.967  1.00  0.00     0.090 C 
ATOM      8  C   UNL     1       1.082   5.172  -7.053  1.00  0.00     0.031 C 
BRANCH   7   9
ATOM      9  N   UNL     1       3.387   5.896  -6.558  1.00  0.00    -0.379 N 
ATOM     10  H   UNL     1       3.921   5.078  -6.682  1.00  0.00     0.160 HD
BRANCH   9  11
ATOM     11  C   UNL     1       4.053   7.035  -6.979  1.00  0.00     0.077 A 
ATOM     12  C   UNL     1       5.414   9.308  -7.965  1.00  0.00     0.122 A 
ATOM     13  C   UNL     1       4.346   9.461  -7.108  1.00  0.00     0.049 A 
ATOM     14  C   UNL     1       5.884   8.046  -8.272  1.00  0.00     0.095 A 
ATOM     15  C   UNL     1       3.706   8.331  -6.606  1.00  0.00     0.033 A 
ATOM     16  C   UNL     1       5.195   6.911  -7.818  1.00  0.00     0.145 A 
BRANCH  12  17
ATOM     17  O   UNL     1       6.067  10.382  -8.480  1.00  0.00    -0.497 OA
ATOM     18  C   UNL     1       5.337  10.986  -9.544  1.00  0.00     0.278 C 
ENDBRANCH  12  17
BRANCH  16  19
ATOM     19  O   UNL     1       5.559   5.624  -8.169  1.00  0.00    -0.494 OA
ATOM     20  C   UNL     1       6.682   5.524  -9.046  1.00  0.00     0.278 C 
ENDBRANCH  16  19
ENDBRANCH   9  11
ENDBRANCH   7   9
ENDBRANCH   5   7
ENDBRANCH   3   5
ENDBRANCH   2   3
ENDBRANCH   1   2
BRANCH   1  21
ATOM     21  C   UNL     1      -1.504  10.068  -4.855  1.00  0.00     0.275 C 
BRANCH  21  22
ATOM     22  O   UNL     1      -0.196  10.674  -4.787  1.00  0.00    -0.458 OA
BRANCH  22  23
ATOM     23  C   UNL     1       0.573  10.281  -3.740  1.00  0.00     0.338 C 
ATOM     24  O   UNL     1       0.268   9.446  -2.897  1.00  0.00    -0.246 OA
BRANCH  23  25
ATOM     25  C   UNL     1       1.909  10.916  -3.789  1.00  0.00     0.060 A 
ATOM     26  C   UNL     1       3.030  10.114  -3.549  1.00  0.00     0.016 A 
ATOM     27  C   UNL     1       2.075  12.288  -4.006  1.00  0.00     0.016 A 
ATOM     28  C   UNL     1       4.315  10.664  -3.579  1.00  0.00     0.010 A 
ATOM     29  C   UNL     1       3.364  12.847  -3.990  1.00  0.00     0.010 A 
ATOM     30  C   UNL     1       4.495  12.039  -3.784  1.00  0.00    -0.014 A 
BRANCH  30  31
ATOM     31  C   UNL     1       5.864  12.617  -3.687  1.00  0.00     0.031 A 
ATOM     32  C   UNL     1       6.424  12.969  -2.346  1.00  0.00     0.074 A 
ATOM     33  C   UNL     1       6.629  12.796  -4.780  1.00  0.00     0.049 A 
ATOM     34  N   UNL     1       7.593  13.470  -2.048  1.00  0.00    -0.248 NA
ATOM     35  C   UNL     1       5.536  12.757  -1.197  1.00  0.00     0.031 C 
ATOM     36  C   UNL     1       6.190  12.514  -6.134  1.00  0.00     0.029 A 
ATOM     37  N   UNL     1       7.928  13.224  -4.934  1.00  0.00    -0.354 N 
ATOM     38  C   UNL     1       7.579  13.666  -0.675  1.00  0.00     0.074 A 
ATOM     39  C   UNL     1       6.279  13.226  -0.206  1.00  0.00     0.031 C 
ATOM     40  C   UNL     1       7.219  12.697  -6.973  1.00  0.00     0.029 A 
ATOM     41  C   UNL     1       8.378  13.171  -6.237  1.00  0.00     0.049 A 
ATOM     42  H   UNL     1       8.484  13.540  -4.185  1.00  0.00     0.167 HD
ATOM     43  C   UNL     1       8.553  14.190   0.110  1.00  0.00     0.034 A 
ATOM     44  C   UNL     1       9.569  13.478  -6.795  1.00  0.00     0.034 A 
ATOM     45  C   UNL     1       9.824  14.667  -0.384  1.00  0.00     0.049 A 
ATOM     46  C   UNL     1      10.628  14.067  -5.903  1.00  0.00     0.074 A 
ATOM     47  C   UNL     1      10.861  15.244   0.328  1.00  0.00     0.029 A 
ATOM     48  N   UNL     1      10.228  14.644  -1.715  1.00  0.00    -0.354 N 
ATOM     49  N   UNL     1      10.590  14.272  -4.607  1.00  0.00    -0.248 NA
ATOM     50  C   UNL     1      11.871  14.507  -6.548  1.00  0.00     0.031 C 
ATOM     51  C   UNL     1      11.855  15.635  -0.577  1.00  0.00     0.029 A 
ATOM     52  C   UNL     1      11.483  15.224  -1.846  1.00  0.00     0.049 A 
ATOM     53  H   UNL     1       9.700  14.271  -2.458  1.00  0.00     0.167 HD
ATOM     54  C   UNL     1      11.799  14.877  -4.284  1.00  0.00     0.074 A 
ATOM     55  C   UNL     1      12.563  14.959  -5.513  1.00  0.00     0.031 C 
ATOM     56  C   UNL     1      12.227  15.337  -3.081  1.00  0.00     0.034 A 
BRANCH  43  57
ATOM     57  C   UNL     1       8.213  14.361   1.569  1.00  0.00     0.023 A 
ATOM     58  C   UNL     1       7.929  13.261   2.397  1.00  0.00     0.031 A 
ATOM     59  C   UNL     1       8.077  15.650   2.114  1.00  0.00     0.131 A 
ATOM     60  C   UNL     1       7.426  13.473   3.688  1.00  0.00     0.055 A 
ATOM     61  C   UNL     1       7.669  15.852   3.432  1.00  0.00     0.041 A 
ATOM     62  F   UNL     1       8.306  16.738   1.362  1.00  0.00    -0.206 F 
ATOM     63  C   UNL     1       7.319  14.760   4.222  1.00  0.00     0.022 A 
BRANCH  60  64
ATOM     64  S   UNL     1       6.732  12.059   4.587  1.00  0.00     0.124 S 
ATOM     65  O   UNL     1       5.671  11.626   3.680  1.00  0.00    -0.237 OA
ATOM     66  O   UNL     1       7.878  11.165   4.704  1.00  0.00    -0.237 OA
ATOM     67  O   UNL     1       6.266  12.645   5.842  1.00  0.00    -0.744 OA
ENDBRANCH  60  64
ENDBRANCH  43  57
BRANCH  44  68
ATOM     68  C   UNL     1       9.813  13.304  -8.265  1.00  0.00     0.023 A 
ATOM     69  C   UNL     1      10.854  12.489  -8.747  1.00  0.00     0.031 A 
ATOM     70  C   UNL     1       9.035  13.988  -9.219  1.00  0.00     0.131 A 
ATOM     71  C   UNL     1      11.102  12.402 -10.130  1.00  0.00     0.055 A 
ATOM     72  C   UNL     1       9.236  13.839 -10.593  1.00  0.00     0.041 A 
ATOM     73  F   UNL     1       8.045  14.808  -8.830  1.00  0.00    -0.206 F 
ATOM     74  C   UNL     1      10.283  13.050 -11.055  1.00  0.00     0.022 A 
BRANCH  71  75
ATOM     75  S   UNL     1      12.579  11.516 -10.710  1.00  0.00     0.124 S 
ATOM     76  O   UNL     1      13.646  12.230 -10.019  1.00  0.00    -0.237 OA
ATOM     77  O   UNL     1      12.318  10.153 -10.258  1.00  0.00    -0.237 OA
ATOM     78  O   UNL     1      12.541  11.704 -12.160  1.00  0.00    -0.744 OA
ENDBRANCH  71  75
ENDBRANCH  44  68
BRANCH  56  79
ATOM     79  C   UNL     1      13.604  15.956  -3.046  1.00  0.00     0.023 A 
ATOM     80  C   UNL     1      13.899  17.148  -3.733  1.00  0.00     0.031 A 
ATOM     81  C   UNL     1      14.645  15.322  -2.346  1.00  0.00     0.131 A 
ATOM     82  C   UNL     1      15.215  17.635  -3.757  1.00  0.00     0.055 A 
ATOM     83  C   UNL     1      15.938  15.848  -2.317  1.00  0.00     0.041 A 
ATOM     84  F   UNL     1      14.424  14.177  -1.681  1.00  0.00    -0.206 F 
ATOM     85  C   UNL     1      16.232  17.002  -3.038  1.00  0.00     0.022 A 
BRANCH  82  86
ATOM     86  S   UNL     1      15.606  19.046  -4.828  1.00  0.00     0.124 S 
ATOM     87  O   UNL     1      15.232  18.539  -6.145  1.00  0.00    -0.237 OA
ATOM     88  O   UNL     1      14.754  20.098  -4.285  1.00  0.00    -0.237 OA
ATOM     89  O   UNL     1      17.040  19.244  -4.625  1.00  0.00    -0.744 OA
ENDBRANCH  82  86
ENDBRANCH  56  79
ENDBRANCH  30  31
ENDBRANCH  23  25
ENDBRANCH  22  23
ENDBRANCH  21  22
ENDBRANCH   1  21
TORSDOF 19
