REMARK SMILES Cc1ccc(-c2cc(Cl)cc3c2O[C@H](C(F)(F)F)C(C(=O)OCCOC(=O)c2ccc(-c4c5nc(c(-c6cc(S(=O)(=O)[O-])ccc6F)c6ccc([nH]6)c(-c6cc(S(=O)(=O)[O-])ccc6F)c6nc(c(-c7cc(S(=O)(=O)[O-])ccc7F)c7ccc4[nH]7)C=C6)C=C5)cc2)=C3)cc1
REMARK SMILES IDX 24 1 23 2 22 3 20 4 21 5 19 6 6 7 7 8 12 9 8 10 11 11 13 12
REMARK SMILES IDX 9 13 10 14 91 15 14 16 5 17 1 18 2 19 3 20 93 21 4 22 92 23
REMARK SMILES IDX 15 24 16 25 17 26 18 27 25 28 26 29 27 30 28 31 29 32 90 33
REMARK SMILES IDX 30 34 89 35 31 36 32 37 33 38 83 39 34 40 88 41 82 42 84 43
REMARK SMILES IDX 35 44 87 45 81 46 80 47 36 49 68 50 48 51 67 52 49 53 52 54
REMARK SMILES IDX 66 55 85 56 50 57 51 58 65 60 86 61 53 62 37 63 38 64 46 65
REMARK SMILES IDX 39 66 45 67 47 68 44 69 40 70 41 71 42 72 43 73 69 74 70 75
REMARK SMILES IDX 78 76 71 77 77 78 79 79 76 80 72 81 73 82 74 83 75 84 54 85
REMARK SMILES IDX 55 86 63 87 56 88 62 89 64 90 61 91 57 92 58 93 59 94 60 95
REMARK H PARENT 84 48 52 59
REMARK Flexibility Score: inf
ROOT
ATOM      1  C   UNL     1      -1.583  -4.467   3.965  1.00  0.00     0.275 C 
ENDROOT
BRANCH   1   2
ATOM      2  C   UNL     1      -2.174  -3.397   4.972  1.00  0.00     0.275 C 
BRANCH   2   3
ATOM      3  O   UNL     1      -3.204  -2.060   4.432  1.00  0.00    -0.459 OA
BRANCH   3   4
ATOM      4  C   UNL     1      -3.460  -0.798   2.919  1.00  0.00     0.338 C 
ATOM      5  O   UNL     1      -2.559  -0.191   2.266  1.00  0.00    -0.246 OA
BRANCH   4   6
ATOM      6  C   UNL     1      -4.828  -0.020   2.703  1.00  0.00     0.087 C 
ATOM      7  C   UNL     1      -3.446  -1.071  -0.626  1.00  0.00     0.026 A 
ATOM      8  C   UNL     1      -3.978  -0.578  -1.835  1.00  0.00     0.033 A 
ATOM      9  C   UNL     1      -4.398  -1.092   0.385  1.00  0.00     0.135 A 
ATOM     10  C   UNL     1      -5.306  -0.064  -1.927  1.00  0.00     0.042 A 
ATOM     11  C   UNL     1      -5.538  -0.322   0.390  1.00  0.00     0.019 A 
ATOM     12  O   UNL     1      -4.480  -1.984   1.407  1.00  0.00    -0.475 OA
ATOM     13  Cl  UNL     1      -5.857   0.670  -3.389  1.00  0.00    -0.084 Cl
ATOM     14  C   UNL     1      -6.095   0.101  -0.791  1.00  0.00     0.032 A 
ATOM     15  C   UNL     1      -5.726   0.240   1.712  1.00  0.00     0.027 C 
ATOM     16  C   UNL     1      -4.369  -1.470   3.178  1.00  0.00     0.316 C 
BRANCH   7  17
ATOM     17  C   UNL     1      -1.946  -1.077  -0.329  1.00  0.00    -0.015 A 
ATOM     18  C   UNL     1       2.410  -0.574   0.150  1.00  0.00     0.044 C 
ATOM     19  C   UNL     1       0.923  -0.798   0.118  1.00  0.00    -0.051 A 
ATOM     20  C   UNL     1       0.329  -2.025  -0.228  1.00  0.00     0.004 A 
ATOM     21  C   UNL     1       0.070   0.256   0.376  1.00  0.00     0.004 A 
ATOM     22  C   UNL     1      -1.079  -2.162  -0.447  1.00  0.00     0.009 A 
ATOM     23  C   UNL     1      -1.308   0.101   0.141  1.00  0.00     0.009 A 
ENDBRANCH   7  17
BRANCH  16  24
ATOM     24  C   UNL     1      -4.973  -2.462   5.054  1.00  0.00     0.430 C 
ATOM     25  F   UNL     1      -5.946  -1.865   5.920  1.00  0.00    -0.167 F 
ATOM     26  F   UNL     1      -5.568  -3.748   4.926  1.00  0.00    -0.167 F 
ATOM     27  F   UNL     1      -4.074  -2.693   6.090  1.00  0.00    -0.167 F 
ENDBRANCH  16  24
ENDBRANCH   4   6
ENDBRANCH   3   4
ENDBRANCH   2   3
ENDBRANCH   1   2
BRANCH   1  28
ATOM     28  O   UNL     1      -2.349  -5.042   2.841  1.00  0.00    -0.458 OA
BRANCH  28  29
ATOM     29  C   UNL     1      -3.386  -4.529   2.131  1.00  0.00     0.338 C 
ATOM     30  O   UNL     1      -3.962  -5.077   1.212  1.00  0.00    -0.246 OA
BRANCH  29  31
ATOM     31  C   UNL     1      -3.765  -3.245   2.671  1.00  0.00     0.060 A 
ATOM     32  C   UNL     1      -5.662  -2.676   3.023  1.00  0.00     0.016 A 
ATOM     33  C   UNL     1      -2.139  -2.213   3.051  1.00  0.00     0.016 A 
ATOM     34  C   UNL     1      -5.804  -1.045   4.163  1.00  0.00     0.010 A 
ATOM     35  C   UNL     1      -2.226  -0.695   4.320  1.00  0.00     0.010 A 
ATOM     36  C   UNL     1      -4.082  -0.247   4.805  1.00  0.00    -0.014 A 
BRANCH  36  37
ATOM     37  C   UNL     1      -3.889   1.130   5.374  1.00  0.00     0.031 A 
ATOM     38  C   UNL     1      -4.308   1.220   6.777  1.00  0.00     0.074 A 
ATOM     39  C   UNL     1      -2.921   1.929   4.808  1.00  0.00     0.049 A 
ATOM     40  N   UNL     1      -4.823   2.253   7.366  1.00  0.00    -0.248 NA
ATOM     41  C   UNL     1      -4.402  -0.014   7.577  1.00  0.00     0.031 C 
ATOM     42  C   UNL     1      -1.681   2.354   5.489  1.00  0.00     0.029 A 
ATOM     43  N   UNL     1      -2.599   2.215   3.461  1.00  0.00    -0.354 N 
ATOM     44  C   UNL     1      -4.887   1.842   8.689  1.00  0.00     0.074 A 
ATOM     45  C   UNL     1      -5.119   0.428   8.605  1.00  0.00     0.031 C 
ATOM     46  C   UNL     1      -0.857   2.985   4.624  1.00  0.00     0.029 A 
ATOM     47  C   UNL     1      -1.551   3.162   3.363  1.00  0.00     0.049 A 
ATOM     48  H   UNL     1      -3.048   1.806   2.686  1.00  0.00     0.167 HD
ATOM     49  C   UNL     1      -4.021   2.370   9.611  1.00  0.00     0.034 A 
ATOM     50  C   UNL     1      -1.687   4.374   2.730  1.00  0.00     0.034 A 
ATOM     51  C   UNL     1      -3.058   3.280   8.986  1.00  0.00     0.049 A 
ATOM     52  C   UNL     1      -1.983   5.461   3.735  1.00  0.00     0.074 A 
ATOM     53  C   UNL     1      -1.687   3.271   8.803  1.00  0.00     0.029 A 
ATOM     54  N   UNL     1      -3.529   4.321   8.220  1.00  0.00    -0.354 N 
ATOM     55  N   UNL     1      -1.985   5.269   5.020  1.00  0.00    -0.248 NA
ATOM     56  C   UNL     1      -2.447   6.790   3.356  1.00  0.00     0.031 C 
ATOM     57  C   UNL     1      -1.351   4.384   7.973  1.00  0.00     0.029 A 
ATOM     58  C   UNL     1      -2.515   5.073   7.686  1.00  0.00     0.049 A 
ATOM     59  H   UNL     1      -4.485   4.504   8.072  1.00  0.00     0.167 HD
ATOM     60  C   UNL     1      -2.607   6.314   5.631  1.00  0.00     0.074 A 
ATOM     61  C   UNL     1      -2.883   7.245   4.541  1.00  0.00     0.031 C 
ATOM     62  C   UNL     1      -2.886   6.280   6.970  1.00  0.00     0.034 A 
BRANCH  49  63
ATOM     63  C   UNL     1      -3.830   1.897  11.042  1.00  0.00     0.023 A 
ATOM     64  C   UNL     1      -2.971   2.675  11.841  1.00  0.00     0.031 A 
ATOM     65  C   UNL     1      -4.428   0.805  11.708  1.00  0.00     0.131 A 
ATOM     66  C   UNL     1      -2.711   2.359  13.182  1.00  0.00     0.055 A 
ATOM     67  C   UNL     1      -4.164   0.482  13.047  1.00  0.00     0.041 A 
ATOM     68  F   UNL     1      -5.319  -0.009  11.136  1.00  0.00    -0.206 F 
ATOM     69  C   UNL     1      -3.303   1.263  13.795  1.00  0.00     0.022 A 
BRANCH  66  70
ATOM     70  S   UNL     1      -1.589   3.429  14.108  1.00  0.00     0.124 S 
ATOM     71  O   UNL     1      -0.330   3.227  13.399  1.00  0.00    -0.237 OA
ATOM     72  O   UNL     1      -2.218   4.737  13.959  1.00  0.00    -0.237 OA
ATOM     73  O   UNL     1      -1.635   2.873  15.459  1.00  0.00    -0.744 OA
ENDBRANCH  66  70
ENDBRANCH  49  63
BRANCH  50  74
ATOM     74  C   UNL     1      -2.437   4.321   1.448  1.00  0.00     0.023 A 
ATOM     75  C   UNL     1      -1.757   4.028   0.249  1.00  0.00     0.031 A 
ATOM     76  C   UNL     1      -3.802   4.044   1.555  1.00  0.00     0.131 A 
ATOM     77  C   UNL     1      -2.382   3.227  -0.707  1.00  0.00     0.055 A 
ATOM     78  C   UNL     1      -4.368   3.142   0.683  1.00  0.00     0.041 A 
ATOM     79  F   UNL     1      -4.502   4.413   2.638  1.00  0.00    -0.206 F 
ATOM     80  C   UNL     1      -3.636   2.691  -0.415  1.00  0.00     0.022 A 
BRANCH  77  81
ATOM     81  S   UNL     1      -1.464   2.691  -2.202  1.00  0.00     0.124 S 
ATOM     82  O   UNL     1      -2.024   3.562  -3.227  1.00  0.00    -0.237 OA
ATOM     83  O   UNL     1      -0.072   2.944  -1.839  1.00  0.00    -0.237 OA
ATOM     84  O   UNL     1      -1.802   1.286  -2.373  1.00  0.00    -0.744 OA
ENDBRANCH  77  81
ENDBRANCH  50  74
BRANCH  62  85
ATOM     85  C   UNL     1      -3.606   7.382   7.701  1.00  0.00     0.023 A 
ATOM     86  C   UNL     1      -3.567   8.682   7.208  1.00  0.00     0.031 A 
ATOM     87  C   UNL     1      -4.320   7.212   8.912  1.00  0.00     0.131 A 
ATOM     88  C   UNL     1      -4.367   9.687   7.752  1.00  0.00     0.055 A 
ATOM     89  C   UNL     1      -5.022   8.247   9.530  1.00  0.00     0.041 A 
ATOM     90  F   UNL     1      -4.402   6.042   9.557  1.00  0.00    -0.206 F 
ATOM     91  C   UNL     1      -5.085   9.489   8.925  1.00  0.00     0.022 A 
BRANCH  88  92
ATOM     92  S   UNL     1      -4.502  11.215   6.808  1.00  0.00     0.124 S 
ATOM     93  O   UNL     1      -3.105  11.555   6.555  1.00  0.00    -0.237 OA
ATOM     94  O   UNL     1      -5.261  10.771   5.641  1.00  0.00    -0.237 OA
ATOM     95  O   UNL     1      -5.212  12.113   7.713  1.00  0.00    -0.744 OA
ENDBRANCH  88  92
ENDBRANCH  62  85
ENDBRANCH  36  37
ENDBRANCH  29  31
ENDBRANCH  28  29
ENDBRANCH   1  28
TORSDOF 16
