REMARK SMILES CN(CCS(C)(=O)=O)S(=O)(=O)c1cc(C(=O)OCCOC(=O)c2ccc(-c3c4nc(c(-c5cc(S(=O)(=O)[O-])ccc5F)c5ccc([nH]5)c(-c5cc(S(=O)(=O)[O-])ccc5F)c5nc(c(-c6cc(S(=O)(=O)[O-])ccc6F)c6ccc3[nH]6)C=C5)C=C4)cc2)ccc1F
REMARK SMILES IDX 18 1 17 2 15 3 16 4 14 5 12 6 13 7 88 8 87 9 89 10 86 11
REMARK SMILES IDX 9 12 10 13 11 14 2 15 1 16 3 17 4 18 5 19 6 20 7 21 8 22
REMARK SMILES IDX 19 23 20 24 21 25 22 26 23 27 24 28 85 29 25 30 84 31 26 32
REMARK SMILES IDX 27 33 28 34 78 35 29 36 83 37 77 38 79 39 30 40 82 41 76 42
REMARK SMILES IDX 75 43 31 45 63 46 43 47 62 48 44 49 47 50 61 51 80 52 45 53
REMARK SMILES IDX 46 54 60 56 81 57 48 58 32 59 33 60 41 61 34 62 40 63 42 64
REMARK SMILES IDX 39 65 35 66 36 67 37 68 38 69 64 70 65 71 73 72 66 73 72 74
REMARK SMILES IDX 74 75 71 76 67 77 68 78 69 79 70 80 49 81 50 82 58 83 51 84
REMARK SMILES IDX 57 85 59 86 56 87 52 88 53 89 54 90 55 91
REMARK H PARENT 79 44 47 55
REMARK Flexibility Score: inf
ROOT
ATOM      1  C   UNL     1       1.037  -8.403  -3.134  1.00  0.00     0.275 C 
ENDROOT
BRANCH   1   2
ATOM      2  O   UNL     1       0.702  -7.129  -3.719  1.00  0.00    -0.458 OA
BRANCH   2   3
ATOM      3  C   UNL     1       0.236  -6.175  -2.877  1.00  0.00     0.338 C 
ATOM      4  O   UNL     1      -0.031  -6.304  -1.695  1.00  0.00    -0.246 OA
BRANCH   3   5
ATOM      5  C   UNL     1       0.220  -4.866  -3.575  1.00  0.00     0.061 A 
ATOM      6  C   UNL     1       0.722  -2.493  -3.517  1.00  0.00     0.119 A 
ATOM      7  C   UNL     1       0.571  -3.716  -2.854  1.00  0.00     0.040 A 
ATOM      8  C   UNL     1       0.441  -2.401  -4.871  1.00  0.00     0.143 A 
ATOM      9  C   UNL     1       0.010  -3.526  -5.576  1.00  0.00     0.041 A 
ATOM     10  F   UNL     1       0.557  -1.251  -5.542  1.00  0.00    -0.206 F 
ATOM     11  C   UNL     1      -0.083  -4.765  -4.937  1.00  0.00     0.019 A 
BRANCH   6  12
ATOM     12  S   UNL     1       1.380  -1.114  -2.630  1.00  0.00     0.245 S 
ATOM     13  O   UNL     1       1.086   0.109  -3.331  1.00  0.00    -0.207 OA
ATOM     14  O   UNL     1       2.727  -1.490  -2.269  1.00  0.00    -0.207 OA
BRANCH  12  15
ATOM     15  N   UNL     1       0.439  -1.078  -1.198  1.00  0.00    -0.200 NA
ATOM     16  C   UNL     1       1.056  -0.256  -0.114  1.00  0.00     0.124 C 
BRANCH  15  17
ATOM     17  C   UNL     1      -1.040  -0.885  -1.312  1.00  0.00     0.118 C 
BRANCH  17  18
ATOM     18  C   UNL     1      -1.526   0.486  -1.758  1.00  0.00     0.153 C 
BRANCH  18  19
ATOM     19  S   UNL     1      -2.369   0.600  -3.345  1.00  0.00     0.148 S 
ATOM     20  C   UNL     1      -2.914  -1.022  -3.820  1.00  0.00     0.158 C 
ATOM     21  O   UNL     1      -3.586   1.366  -3.132  1.00  0.00    -0.229 OA
ATOM     22  O   UNL     1      -1.437   1.023  -4.367  1.00  0.00    -0.229 OA
ENDBRANCH  18  19
ENDBRANCH  17  18
ENDBRANCH  15  17
ENDBRANCH  12  15
ENDBRANCH   6  12
ENDBRANCH   3   5
ENDBRANCH   2   3
ENDBRANCH   1   2
BRANCH   1  23
ATOM     23  C   UNL     1       2.554  -8.575  -3.075  1.00  0.00     0.275 C 
BRANCH  23  24
ATOM     24  O   UNL     1       3.108  -7.678  -2.093  1.00  0.00    -0.458 OA
BRANCH  24  25
ATOM     25  C   UNL     1       3.873  -6.679  -2.591  1.00  0.00     0.338 C 
ATOM     26  O   UNL     1       4.176  -6.499  -3.759  1.00  0.00    -0.246 OA
BRANCH  25  27
ATOM     27  C   UNL     1       4.253  -5.743  -1.520  1.00  0.00     0.060 A 
ATOM     28  C   UNL     1       3.261  -4.960  -0.946  1.00  0.00     0.016 A 
ATOM     29  C   UNL     1       5.594  -5.471  -1.256  1.00  0.00     0.016 A 
ATOM     30  C   UNL     1       3.608  -3.790  -0.271  1.00  0.00     0.010 A 
ATOM     31  C   UNL     1       5.933  -4.368  -0.459  1.00  0.00     0.010 A 
ATOM     32  C   UNL     1       4.950  -3.454  -0.030  1.00  0.00    -0.014 A 
BRANCH  32  33
ATOM     33  C   UNL     1       5.324  -2.111   0.534  1.00  0.00     0.031 A 
ATOM     34  C   UNL     1       6.354  -1.251  -0.176  1.00  0.00     0.074 A 
ATOM     35  C   UNL     1       4.724  -1.600   1.632  1.00  0.00     0.049 A 
ATOM     36  N   UNL     1       6.998  -0.195   0.260  1.00  0.00    -0.248 NA
ATOM     37  C   UNL     1       6.732  -1.650  -1.540  1.00  0.00     0.031 C 
ATOM     38  C   UNL     1       3.661  -2.245   2.404  1.00  0.00     0.029 A 
ATOM     39  N   UNL     1       4.904  -0.396   2.277  1.00  0.00    -0.354 N 
ATOM     40  C   UNL     1       7.915   0.134  -0.737  1.00  0.00     0.074 A 
ATOM     41  C   UNL     1       7.746  -0.836  -1.796  1.00  0.00     0.031 C 
ATOM     42  C   UNL     1       3.228  -1.403   3.354  1.00  0.00     0.029 A 
ATOM     43  C   UNL     1       4.066  -0.207   3.352  1.00  0.00     0.049 A 
ATOM     44  H   UNL     1       5.573   0.269   1.994  1.00  0.00     0.167 HD
ATOM     45  C   UNL     1       8.810   1.153  -0.769  1.00  0.00     0.034 A 
ATOM     46  C   UNL     1       4.002   0.778   4.271  1.00  0.00     0.034 A 
ATOM     47  C   UNL     1       8.885   2.195   0.224  1.00  0.00     0.049 A 
ATOM     48  C   UNL     1       5.019   1.887   4.239  1.00  0.00     0.074 A 
ATOM     49  C   UNL     1       9.729   3.293   0.256  1.00  0.00     0.029 A 
ATOM     50  N   UNL     1       8.065   2.293   1.338  1.00  0.00    -0.354 N 
ATOM     51  N   UNL     1       5.976   2.099   3.369  1.00  0.00    -0.248 NA
ATOM     52  C   UNL     1       4.977   2.862   5.340  1.00  0.00     0.031 C 
ATOM     53  C   UNL     1       9.452   4.027   1.413  1.00  0.00     0.029 A 
ATOM     54  C   UNL     1       8.399   3.418   2.074  1.00  0.00     0.049 A 
ATOM     55  H   UNL     1       7.351   1.656   1.571  1.00  0.00     0.167 HD
ATOM     56  C   UNL     1       6.657   3.224   3.823  1.00  0.00     0.074 A 
ATOM     57  C   UNL     1       5.990   3.661   5.031  1.00  0.00     0.031 C 
ATOM     58  C   UNL     1       7.745   3.832   3.289  1.00  0.00     0.034 A 
BRANCH  45  59
ATOM     59  C   UNL     1       9.822   1.177  -1.889  1.00  0.00     0.023 A 
ATOM     60  C   UNL     1       9.474   1.454  -3.220  1.00  0.00     0.031 A 
ATOM     61  C   UNL     1      11.181   0.952  -1.593  1.00  0.00     0.131 A 
ATOM     62  C   UNL     1      10.467   1.456  -4.214  1.00  0.00     0.055 A 
ATOM     63  C   UNL     1      12.171   1.020  -2.574  1.00  0.00     0.041 A 
ATOM     64  F   UNL     1      11.569   0.671  -0.339  1.00  0.00    -0.206 F 
ATOM     65  C   UNL     1      11.815   1.266  -3.895  1.00  0.00     0.022 A 
BRANCH  62  66
ATOM     66  S   UNL     1       9.971   1.636  -5.949  1.00  0.00     0.124 S 
ATOM     67  O   UNL     1       9.203   0.413  -6.163  1.00  0.00    -0.237 OA
ATOM     68  O   UNL     1       9.208   2.878  -5.934  1.00  0.00    -0.237 OA
ATOM     69  O   UNL     1      11.244   1.698  -6.665  1.00  0.00    -0.744 OA
ENDBRANCH  62  66
ENDBRANCH  45  59
BRANCH  46  70
ATOM     70  C   UNL     1       2.987   0.713   5.360  1.00  0.00     0.023 A 
ATOM     71  C   UNL     1       1.934   1.639   5.423  1.00  0.00     0.031 A 
ATOM     72  C   UNL     1       3.052  -0.285   6.349  1.00  0.00     0.131 A 
ATOM     73  C   UNL     1       0.989   1.549   6.457  1.00  0.00     0.055 A 
ATOM     74  C   UNL     1       2.087  -0.395   7.351  1.00  0.00     0.041 A 
ATOM     75  F   UNL     1       4.040  -1.194   6.331  1.00  0.00    -0.206 F 
ATOM     76  C   UNL     1       1.049   0.528   7.410  1.00  0.00     0.022 A 
BRANCH  73  77
ATOM     77  S   UNL     1      -0.329   2.792   6.546  1.00  0.00     0.124 S 
ATOM     78  O   UNL     1       0.426   4.002   6.850  1.00  0.00    -0.237 OA
ATOM     79  O   UNL     1      -0.911   2.713   5.210  1.00  0.00    -0.237 OA
ATOM     80  O   UNL     1      -1.186   2.301   7.623  1.00  0.00    -0.744 OA
ENDBRANCH  73  77
ENDBRANCH  46  70
BRANCH  58  81
ATOM     81  C   UNL     1       8.286   5.042   4.000  1.00  0.00     0.023 A 
ATOM     82  C   UNL     1       9.029   4.915   5.186  1.00  0.00     0.031 A 
ATOM     83  C   UNL     1       8.110   6.325   3.455  1.00  0.00     0.131 A 
ATOM     84  C   UNL     1       9.557   6.060   5.801  1.00  0.00     0.055 A 
ATOM     85  C   UNL     1       8.670   7.456   4.050  1.00  0.00     0.041 A 
ATOM     86  F   UNL     1       7.410   6.494   2.322  1.00  0.00    -0.206 F 
ATOM     87  C   UNL     1       9.397   7.327   5.231  1.00  0.00     0.022 A 
BRANCH  84  88
ATOM     88  S   UNL     1      10.455   5.878   7.366  1.00  0.00     0.124 S 
ATOM     89  O   UNL     1       9.390   5.474   8.279  1.00  0.00    -0.237 OA
ATOM     90  O   UNL     1      11.444   4.853   7.049  1.00  0.00    -0.237 OA
ATOM     91  O   UNL     1      11.004   7.212   7.604  1.00  0.00    -0.744 OA
ENDBRANCH  84  88
ENDBRANCH  58  81
ENDBRANCH  32  33
ENDBRANCH  25  27
ENDBRANCH  24  25
ENDBRANCH  23  24
ENDBRANCH   1  23
TORSDOF 19
