REMARK SMILES C/C(=N\Nc1nc(-c2ccc(Cl)cc2)cs1)c1nnn(-c2ccc(C(=O)OCCOC(=O)c3ccc(-c4c5nc(c(-c6cc(S(=O)(=O)[O-])ccc6F)c6ccc([nH]6)c(-c6cc(S(=O)(=O)[O-])ccc6F)c6nc(c(-c7cc(S(=O)(=O)[O-])ccc7F)c7ccc4[nH]7)C=C6)C=C5)cc3)cc2)c1C
REMARK SMILES IDX 28 1 27 2 25 3 26 4 24 5 21 6 22 7 97 8 23 9 96 10 20 11
REMARK SMILES IDX 17 12 18 13 98 14 19 15 99 16 2 17 1 18 3 19 4 20 5 22 6 23
REMARK SMILES IDX 16 24 7 25 15 26 8 27 9 28 14 29 10 30 13 31 11 32 12 33
REMARK SMILES IDX 29 34 30 35 31 36 32 37 33 38 34 39 95 40 35 41 94 42 36 43
REMARK SMILES IDX 37 44 38 45 88 46 39 47 93 48 87 49 89 50 40 51 92 52 86 53
REMARK SMILES IDX 85 54 41 56 73 57 53 58 72 59 54 60 57 61 71 62 90 63 55 64
REMARK SMILES IDX 56 65 70 67 91 68 58 69 42 70 43 71 51 72 44 73 50 74 52 75
REMARK SMILES IDX 49 76 45 77 46 78 47 79 48 80 74 81 75 82 83 83 76 84 82 85
REMARK SMILES IDX 84 86 81 87 77 88 78 89 79 90 80 91 59 92 60 93 68 94 61 95
REMARK SMILES IDX 67 96 69 97 66 98 62 99 63 100 64 101 65 102
REMARK H PARENT 4 21 89 55 57 66
REMARK Flexibility Score: inf
ROOT
ATOM      1  C   UNL     1       9.251   6.930  -2.581  1.00  0.00     0.275 C 
ENDROOT
BRANCH   1   2
ATOM      2  O   UNL     1       8.024   6.184  -2.567  1.00  0.00    -0.458 OA
BRANCH   2   3
ATOM      3  C   UNL     1       7.074   6.600  -1.681  1.00  0.00     0.338 C 
ATOM      4  O   UNL     1       7.231   7.373  -0.765  1.00  0.00    -0.246 OA
BRANCH   3   5
ATOM      5  C   UNL     1       5.759   5.990  -2.034  1.00  0.00     0.060 A 
ATOM      6  C   UNL     1       3.334   4.691  -2.402  1.00  0.00     0.067 A 
ATOM      7  C   UNL     1       3.355   5.877  -1.665  1.00  0.00     0.029 A 
ATOM      8  C   UNL     1       4.472   4.248  -3.087  1.00  0.00     0.029 A 
ATOM      9  C   UNL     1       4.585   6.517  -1.468  1.00  0.00     0.018 A 
ATOM     10  C   UNL     1       5.685   4.896  -2.901  1.00  0.00     0.018 A 
BRANCH   6  11
ATOM     11  N   UNL     1       2.254   3.798  -2.258  1.00  0.00    -0.217 N 
ATOM     12  C   UNL     1       1.040   2.089  -1.657  1.00  0.00     0.132 A 
ATOM     13  N   UNL     1       0.209   3.108  -2.028  1.00  0.00    -0.128 NA
ATOM     14  C   UNL     1       2.357   2.500  -1.782  1.00  0.00     0.071 A 
ATOM     15  N   UNL     1       0.959   4.175  -2.291  1.00  0.00    -0.061 NA
ATOM     16  C   UNL     1       3.624   1.862  -1.328  1.00  0.00     0.069 C 
BRANCH  12  17
ATOM     17  C   UNL     1       0.604   0.845  -1.041  1.00  0.00     0.087 C 
ATOM     18  C   UNL     1       1.166   0.597   0.338  1.00  0.00     0.071 C 
ATOM     19  N   UNL     1      -0.139   0.065  -1.776  1.00  0.00    -0.176 NA
BRANCH  19  20
ATOM     20  N   UNL     1      -0.495  -1.222  -1.441  1.00  0.00    -0.252 N 
ATOM     21  H   UNL     1      -0.930  -1.730  -2.163  1.00  0.00     0.193 HD
BRANCH  20  22
ATOM     22  C   UNL     1      -0.346  -1.907  -0.279  1.00  0.00     0.203 A 
ATOM     23  N   UNL     1      -0.587  -1.446   0.924  1.00  0.00    -0.219 NA
ATOM     24  S   UNL     1       0.309  -3.509  -0.283  1.00  0.00    -0.103 S 
ATOM     25  C   UNL     1       0.077  -2.196   1.870  1.00  0.00     0.084 A 
ATOM     26  C   UNL     1       0.630  -3.368   1.403  1.00  0.00     0.097 A 
BRANCH  25  27
ATOM     27  C   UNL     1       0.253  -1.654   3.204  1.00  0.00     0.001 A 
ATOM     28  C   UNL     1      -0.866  -1.219   3.924  1.00  0.00     0.012 A 
ATOM     29  C   UNL     1       1.537  -1.407   3.710  1.00  0.00     0.012 A 
ATOM     30  C   UNL     1      -0.707  -0.567   5.149  1.00  0.00     0.021 A 
ATOM     31  C   UNL     1       1.696  -0.743   4.930  1.00  0.00     0.021 A 
ATOM     32  C   UNL     1       0.573  -0.330   5.646  1.00  0.00     0.041 A 
ATOM     33  Cl  UNL     1       0.770   0.497   7.141  1.00  0.00    -0.084 Cl
ENDBRANCH  25  27
ENDBRANCH  20  22
ENDBRANCH  19  20
ENDBRANCH  12  17
ENDBRANCH   6  11
ENDBRANCH   3   5
ENDBRANCH   2   3
ENDBRANCH   1   2
BRANCH   1  34
ATOM     34  C   UNL     1       9.163   8.107  -3.543  1.00  0.00     0.275 C 
BRANCH  34  35
ATOM     35  O   UNL     1       8.300   9.115  -3.024  1.00  0.00    -0.458 OA
BRANCH  35  36
ATOM     36  C   UNL     1       7.016   9.029  -3.437  1.00  0.00     0.338 C 
ATOM     37  O   UNL     1       6.489   8.087  -4.009  1.00  0.00    -0.246 OA
BRANCH  36  38
ATOM     38  C   UNL     1       6.369  10.330  -3.275  1.00  0.00     0.060 A 
ATOM     39  C   UNL     1       5.016  10.410  -3.615  1.00  0.00     0.016 A 
ATOM     40  C   UNL     1       7.174  11.469  -3.128  1.00  0.00     0.016 A 
ATOM     41  C   UNL     1       4.522  11.627  -4.025  1.00  0.00     0.010 A 
ATOM     42  C   UNL     1       6.684  12.677  -3.553  1.00  0.00     0.010 A 
ATOM     43  C   UNL     1       5.395  12.717  -4.079  1.00  0.00    -0.014 A 
BRANCH  43  44
ATOM     44  C   UNL     1       4.906  13.952  -4.649  1.00  0.00     0.031 A 
ATOM     45  C   UNL     1       3.951  14.655  -3.765  1.00  0.00     0.074 A 
ATOM     46  C   UNL     1       5.400  14.449  -5.798  1.00  0.00     0.049 A 
ATOM     47  N   UNL     1       2.703  14.903  -3.977  1.00  0.00    -0.248 NA
ATOM     48  C   UNL     1       4.398  14.952  -2.393  1.00  0.00     0.031 C 
ATOM     49  C   UNL     1       6.552  13.973  -6.570  1.00  0.00     0.029 A 
ATOM     50  N   UNL     1       5.043  15.581  -6.454  1.00  0.00    -0.354 N 
ATOM     51  C   UNL     1       2.264  15.591  -2.850  1.00  0.00     0.074 A 
ATOM     52  C   UNL     1       3.269  15.393  -1.844  1.00  0.00     0.031 C 
ATOM     53  C   UNL     1       6.941  14.945  -7.427  1.00  0.00     0.029 A 
ATOM     54  C   UNL     1       5.995  16.047  -7.352  1.00  0.00     0.049 A 
ATOM     55  H   UNL     1       4.182  16.035  -6.305  1.00  0.00     0.167 HD
ATOM     56  C   UNL     1       1.233  16.473  -2.922  1.00  0.00     0.034 A 
ATOM     57  C   UNL     1       6.044  17.291  -7.901  1.00  0.00     0.034 A 
ATOM     58  C   UNL     1       0.433  16.236  -4.103  1.00  0.00     0.049 A 
ATOM     59  C   UNL     1       4.677  17.868  -7.771  1.00  0.00     0.074 A 
ATOM     60  C   UNL     1      -0.283  15.150  -4.571  1.00  0.00     0.029 A 
ATOM     61  N   UNL     1       0.618  17.055  -5.195  1.00  0.00    -0.354 N 
ATOM     62  N   UNL     1       3.629  17.374  -8.376  1.00  0.00    -0.248 NA
ATOM     63  C   UNL     1       4.384  18.664  -6.586  1.00  0.00     0.031 C 
ATOM     64  C   UNL     1      -0.041  15.130  -5.976  1.00  0.00     0.029 A 
ATOM     65  C   UNL     1       0.737  16.244  -6.298  1.00  0.00     0.049 A 
ATOM     66  H   UNL     1       0.656  18.039  -5.187  1.00  0.00     0.167 HD
ATOM     67  C   UNL     1       2.606  17.434  -7.439  1.00  0.00     0.074 A 
ATOM     68  C   UNL     1       3.107  18.318  -6.388  1.00  0.00     0.031 C 
ATOM     69  C   UNL     1       1.569  16.543  -7.451  1.00  0.00     0.034 A 
BRANCH  56  70
ATOM     70  C   UNL     1       1.170  17.765  -2.137  1.00  0.00     0.023 A 
ATOM     71  C   UNL     1       0.057  18.594  -2.366  1.00  0.00     0.031 A 
ATOM     72  C   UNL     1       2.236  18.358  -1.420  1.00  0.00     0.131 A 
ATOM     73  C   UNL     1       0.081  19.951  -2.005  1.00  0.00     0.055 A 
ATOM     74  C   UNL     1       2.226  19.690  -1.000  1.00  0.00     0.041 A 
ATOM     75  F   UNL     1       3.386  17.726  -1.160  1.00  0.00    -0.206 F 
ATOM     76  C   UNL     1       1.159  20.507  -1.323  1.00  0.00     0.022 A 
BRANCH  73  77
ATOM     77  S   UNL     1      -1.244  21.021  -2.617  1.00  0.00     0.124 S 
ATOM     78  O   UNL     1      -1.230  20.720  -4.044  1.00  0.00    -0.237 OA
ATOM     79  O   UNL     1      -2.393  20.532  -1.864  1.00  0.00    -0.237 OA
ATOM     80  O   UNL     1      -0.787  22.362  -2.258  1.00  0.00    -0.744 OA
ENDBRANCH  73  77
ENDBRANCH  56  70
BRANCH  57  81
ATOM     81  C   UNL     1       7.278  18.099  -8.131  1.00  0.00     0.023 A 
ATOM     82  C   UNL     1       7.332  19.189  -9.025  1.00  0.00     0.031 A 
ATOM     83  C   UNL     1       8.398  17.926  -7.283  1.00  0.00     0.131 A 
ATOM     84  C   UNL     1       8.471  20.033  -9.053  1.00  0.00     0.055 A 
ATOM     85  C   UNL     1       9.521  18.755  -7.321  1.00  0.00     0.041 A 
ATOM     86  F   UNL     1       8.408  16.985  -6.325  1.00  0.00    -0.206 F 
ATOM     87  C   UNL     1       9.560  19.819  -8.204  1.00  0.00     0.022 A 
BRANCH  84  88
ATOM     88  S   UNL     1       8.524  21.485 -10.155  1.00  0.00     0.124 S 
ATOM     89  O   UNL     1       8.550  20.871 -11.477  1.00  0.00    -0.237 OA
ATOM     90  O   UNL     1       7.304  22.197  -9.793  1.00  0.00    -0.237 OA
ATOM     91  O   UNL     1       9.763  22.163  -9.770  1.00  0.00    -0.744 OA
ENDBRANCH  84  88
ENDBRANCH  57  81
BRANCH  69  92
ATOM     92  C   UNL     1       1.389  15.643  -8.658  1.00  0.00     0.023 A 
ATOM     93  C   UNL     1       2.330  14.684  -9.101  1.00  0.00     0.031 A 
ATOM     94  C   UNL     1       0.126  15.652  -9.276  1.00  0.00     0.131 A 
ATOM     95  C   UNL     1       1.981  13.780 -10.127  1.00  0.00     0.055 A 
ATOM     96  C   UNL     1      -0.221  14.743 -10.273  1.00  0.00     0.041 A 
ATOM     97  F   UNL     1      -0.818  16.521  -8.877  1.00  0.00    -0.206 F 
ATOM     98  C   UNL     1       0.707  13.803 -10.704  1.00  0.00     0.022 A 
BRANCH  95  99
ATOM     99  S   UNL     1       3.179  12.544 -10.730  1.00  0.00     0.124 S 
ATOM    100  O   UNL     1       4.364  13.339 -11.030  1.00  0.00    -0.237 OA
ATOM    101  O   UNL     1       3.291  11.628  -9.599  1.00  0.00    -0.237 OA
ATOM    102  O   UNL     1       2.519  11.973 -11.907  1.00  0.00    -0.744 OA
ENDBRANCH  95  99
ENDBRANCH  69  92
ENDBRANCH  43  44
ENDBRANCH  36  38
ENDBRANCH  35  36
ENDBRANCH  34  35
ENDBRANCH   1  34
TORSDOF 19
