REMARK SMILES C[NH2+][C@H](CC(=O)OCCOC(=O)c1ccc(-c2c3nc(c(-c4cc(S(=O)(=O)[O-])ccc4F)c4ccc([nH]4)c(-c4cc(S(=O)(=O)[O-])ccc4F)c4nc(c(-c5cc(S(=O)(=O)[O-])ccc5F)c5ccc2[nH]5)C=C4)C=C3)cc1)c1cccc(C2CC2)c1
REMARK SMILES IDX 8 1 7 2 5 3 6 4 4 5 3 6 2 7 1 8 76 11 77 12 84 13 78 14
REMARK SMILES IDX 80 15 79 16 81 17 82 18 83 19 9 20 10 21 11 22 12 23 13 24
REMARK SMILES IDX 14 25 75 26 15 27 74 28 16 29 17 30 18 31 68 32 19 33 73 34
REMARK SMILES IDX 67 35 69 36 20 37 72 38 66 39 65 40 21 42 53 43 33 44 52 45
REMARK SMILES IDX 34 46 37 47 51 48 70 49 35 50 36 51 50 53 71 54 38 55 22 56
REMARK SMILES IDX 23 57 31 58 24 59 30 60 32 61 29 62 25 63 26 64 27 65 28 66
REMARK SMILES IDX 54 67 55 68 63 69 56 70 62 71 64 72 61 73 57 74 58 75 59 76
REMARK SMILES IDX 60 77 39 78 40 79 48 80 41 81 47 82 49 83 46 84 42 85 43 86
REMARK SMILES IDX 44 87 45 88
REMARK H PARENT 2 9 2 10 69 41 37 52
REMARK Flexibility Score: inf
ROOT
ATOM      1  C   UNL     1       1.508  -2.936  -3.632  1.00  0.00     0.274 C 
ENDROOT
BRANCH   1   2
ATOM      2  O   UNL     1       0.676  -2.460  -2.560  1.00  0.00    -0.462 OA
BRANCH   2   3
ATOM      3  C   UNL     1       1.271  -2.126  -1.392  1.00  0.00     0.312 C 
ATOM      4  O   UNL     1       2.480  -2.182  -1.192  1.00  0.00    -0.252 OA
BRANCH   3   5
ATOM      5  C   UNL     1       0.304  -1.688  -0.308  1.00  0.00     0.192 C 
BRANCH   5   6
ATOM      6  C   UNL     1      -1.212  -1.664  -0.632  1.00  0.00     0.224 C 
BRANCH   6   7
ATOM      7  N   UNL     1      -1.451  -0.453  -1.425  1.00  0.00    -0.342 N 
ATOM      8  C   UNL     1      -2.762   0.158  -1.291  1.00  0.00     0.331 C 
ATOM      9  H   UNL     1      -0.756   0.241  -1.149  1.00  0.00     0.346 HD
ATOM     10  H   UNL     1      -1.389  -0.749  -2.399  1.00  0.00     0.346 HD
ENDBRANCH   6   7
BRANCH   6  11
ATOM     11  C   UNL     1      -1.734  -2.982  -1.205  1.00  0.00     0.010 A 
ATOM     12  C   UNL     1      -2.656  -3.060  -2.253  1.00  0.00     0.010 A 
ATOM     13  C   UNL     1      -1.229  -4.199  -0.697  1.00  0.00     0.014 A 
ATOM     14  C   UNL     1      -3.010  -4.293  -2.800  1.00  0.00     0.001 A 
ATOM     15  C   UNL     1      -1.497  -5.452  -1.276  1.00  0.00    -0.044 A 
ATOM     16  C   UNL     1      -2.421  -5.467  -2.330  1.00  0.00     0.004 A 
BRANCH  15  17
ATOM     17  C   UNL     1      -0.791  -6.725  -0.847  1.00  0.00     0.019 C 
ATOM     18  C   UNL     1       0.630  -6.678  -0.325  1.00  0.00     0.009 C 
ATOM     19  C   UNL     1      -0.501  -7.018   0.604  1.00  0.00     0.009 C 
ENDBRANCH  15  17
ENDBRANCH   6  11
ENDBRANCH   5   6
ENDBRANCH   3   5
ENDBRANCH   2   3
ENDBRANCH   1   2
BRANCH   1  20
ATOM     20  C   UNL     1       1.269  -2.085  -4.877  1.00  0.00     0.275 C 
BRANCH  20  21
ATOM     21  O   UNL     1       1.669  -0.728  -4.620  1.00  0.00    -0.458 OA
BRANCH  21  22
ATOM     22  C   UNL     1       0.669   0.098  -4.236  1.00  0.00     0.338 C 
ATOM     23  O   UNL     1      -0.529  -0.144  -4.211  1.00  0.00    -0.246 OA
BRANCH  22  24
ATOM     24  C   UNL     1       1.259   1.338  -3.722  1.00  0.00     0.060 A 
ATOM     25  C   UNL     1       1.471   1.458  -2.346  1.00  0.00     0.016 A 
ATOM     26  C   UNL     1       1.541   2.397  -4.582  1.00  0.00     0.016 A 
ATOM     27  C   UNL     1       1.952   2.651  -1.816  1.00  0.00     0.010 A 
ATOM     28  C   UNL     1       2.046   3.586  -4.051  1.00  0.00     0.010 A 
ATOM     29  C   UNL     1       2.243   3.725  -2.665  1.00  0.00    -0.014 A 
BRANCH  29  30
ATOM     30  C   UNL     1       2.711   5.015  -2.104  1.00  0.00     0.031 A 
ATOM     31  C   UNL     1       1.795   6.205  -2.121  1.00  0.00     0.074 A 
ATOM     32  C   UNL     1       3.954   5.116  -1.598  1.00  0.00     0.049 A 
ATOM     33  N   UNL     1       2.054   7.455  -1.840  1.00  0.00    -0.248 NA
ATOM     34  C   UNL     1       0.403   5.948  -2.518  1.00  0.00     0.031 C 
ATOM     35  C   UNL     1       4.909   4.013  -1.480  1.00  0.00     0.029 A 
ATOM     36  N   UNL     1       4.631   6.199  -1.101  1.00  0.00    -0.354 N 
ATOM     37  C   UNL     1       0.864   8.143  -2.050  1.00  0.00     0.074 A 
ATOM     38  C   UNL     1      -0.109   7.170  -2.502  1.00  0.00     0.031 C 
ATOM     39  C   UNL     1       6.053   4.479  -0.956  1.00  0.00     0.029 A 
ATOM     40  C   UNL     1       5.934   5.920  -0.758  1.00  0.00     0.049 A 
ATOM     41  H   UNL     1       4.225   7.090  -0.999  1.00  0.00     0.167 HD
ATOM     42  C   UNL     1       0.613   9.466  -1.880  1.00  0.00     0.034 A 
ATOM     43  C   UNL     1       6.930   6.742  -0.373  1.00  0.00     0.034 A 
ATOM     44  C   UNL     1       1.602  10.415  -1.427  1.00  0.00     0.049 A 
ATOM     45  C   UNL     1       6.649   8.218  -0.259  1.00  0.00     0.074 A 
ATOM     46  C   UNL     1       1.463  11.777  -1.221  1.00  0.00     0.029 A 
ATOM     47  N   UNL     1       2.919  10.101  -1.113  1.00  0.00    -0.354 N 
ATOM     48  N   UNL     1       5.533   8.867  -0.499  1.00  0.00    -0.248 NA
ATOM     49  C   UNL     1       7.763   9.071   0.174  1.00  0.00     0.031 C 
ATOM     50  C   UNL     1       2.708  12.294  -0.839  1.00  0.00     0.029 A 
ATOM     51  C   UNL     1       3.608  11.245  -0.739  1.00  0.00     0.049 A 
ATOM     52  H   UNL     1       3.307   9.197  -1.150  1.00  0.00     0.167 HD
ATOM     53  C   UNL     1       5.807  10.204  -0.227  1.00  0.00     0.074 A 
ATOM     54  C   UNL     1       7.188  10.264   0.209  1.00  0.00     0.031 C 
ATOM     55  C   UNL     1       4.992  11.285  -0.326  1.00  0.00     0.034 A 
BRANCH  42  56
ATOM     56  C   UNL     1      -0.764   9.960  -2.251  1.00  0.00     0.023 A 
ATOM     57  C   UNL     1      -1.915   9.548  -1.554  1.00  0.00     0.031 A 
ATOM     58  C   UNL     1      -0.933  10.824  -3.347  1.00  0.00     0.131 A 
ATOM     59  C   UNL     1      -3.184   9.944  -2.004  1.00  0.00     0.055 A 
ATOM     60  C   UNL     1      -2.194  11.275  -3.744  1.00  0.00     0.041 A 
ATOM     61  F   UNL     1       0.126  11.232  -4.064  1.00  0.00    -0.206 F 
ATOM     62  C   UNL     1      -3.330  10.822  -3.080  1.00  0.00     0.022 A 
BRANCH  59  63
ATOM     63  S   UNL     1      -4.650   9.184  -1.251  1.00  0.00     0.124 S 
ATOM     64  O   UNL     1      -4.420   7.766  -1.521  1.00  0.00    -0.237 OA
ATOM     65  O   UNL     1      -4.538   9.596   0.143  1.00  0.00    -0.237 OA
ATOM     66  O   UNL     1      -5.763   9.777  -1.990  1.00  0.00    -0.744 OA
ENDBRANCH  59  63
ENDBRANCH  42  56
BRANCH  43  67
ATOM     67  C   UNL     1       8.297   6.201  -0.131  1.00  0.00     0.023 A 
ATOM     68  C   UNL     1       8.876   6.231   1.147  1.00  0.00     0.031 A 
ATOM     69  C   UNL     1       9.057   5.671  -1.190  1.00  0.00     0.131 A 
ATOM     70  C   UNL     1      10.189   5.771   1.328  1.00  0.00     0.055 A 
ATOM     71  C   UNL     1      10.344   5.170  -0.994  1.00  0.00     0.041 A 
ATOM     72  F   UNL     1       8.549   5.619  -2.431  1.00  0.00    -0.206 F 
ATOM     73  C   UNL     1      10.922   5.228   0.270  1.00  0.00     0.022 A 
BRANCH  70  74
ATOM     74  S   UNL     1      10.957   5.955   2.961  1.00  0.00     0.124 S 
ATOM     75  O   UNL     1      10.878   7.396   3.167  1.00  0.00    -0.237 OA
ATOM     76  O   UNL     1      10.085   5.138   3.800  1.00  0.00    -0.237 OA
ATOM     77  O   UNL     1      12.305   5.425   2.766  1.00  0.00    -0.744 OA
ENDBRANCH  70  74
ENDBRANCH  43  67
BRANCH  55  78
ATOM     78  C   UNL     1       5.576  12.612   0.087  1.00  0.00     0.023 A 
ATOM     79  C   UNL     1       6.578  13.245  -0.668  1.00  0.00     0.031 A 
ATOM     80  C   UNL     1       5.137  13.239   1.267  1.00  0.00     0.131 A 
ATOM     81  C   UNL     1       7.148  14.441  -0.207  1.00  0.00     0.055 A 
ATOM     82  C   UNL     1       5.671  14.456   1.693  1.00  0.00     0.041 A 
ATOM     83  F   UNL     1       4.184  12.675   2.026  1.00  0.00    -0.206 F 
ATOM     84  C   UNL     1       6.691  15.057   0.961  1.00  0.00     0.022 A 
BRANCH  81  85
ATOM     85  S   UNL     1       8.555  15.143  -1.112  1.00  0.00     0.124 S 
ATOM     86  O   UNL     1       9.532  14.060  -1.040  1.00  0.00    -0.237 OA
ATOM     87  O   UNL     1       7.984  15.400  -2.429  1.00  0.00    -0.237 OA
ATOM     88  O   UNL     1       8.897  16.337  -0.342  1.00  0.00    -0.744 OA
ENDBRANCH  81  85
ENDBRANCH  55  78
ENDBRANCH  29  30
ENDBRANCH  22  24
ENDBRANCH  21  22
ENDBRANCH  20  21
ENDBRANCH   1  20
TORSDOF 18
