REMARK SMILES O=C(OCCOC(=O)[C@@H]1C[NH2+]CCN1C(=O)N[C@@H]1CCOC1)c1ccc(-c2c3nc(c(-c4cc(S(=O)(=O)[O-])ccc4F)c4ccc([nH]4)c(-c4cc(S(=O)(=O)[O-])ccc4F)c4nc(c(-c5cc(S(=O)(=O)[O-])ccc5F)c5ccc2[nH]5)C=C4)C=C3)cc1
REMARK SMILES IDX 4 1 3 2 2 3 1 4 23 5 24 6 85 7 25 8 84 9 26 10 27 11 28 12
REMARK SMILES IDX 78 13 29 14 83 15 77 16 79 17 30 18 82 19 76 20 75 21 31 23
REMARK SMILES IDX 63 24 43 25 62 26 44 27 47 28 61 29 80 30 45 31 46 32 60 34
REMARK SMILES IDX 81 35 48 36 32 37 33 38 41 39 34 40 40 41 42 42 39 43 35 44
REMARK SMILES IDX 36 45 37 46 38 47 64 48 65 49 73 50 66 51 72 52 74 53 71 54
REMARK SMILES IDX 67 55 68 56 69 57 70 58 49 59 50 60 58 61 51 62 57 63 59 64
REMARK SMILES IDX 56 65 52 66 53 67 54 68 55 69 5 70 6 71 7 72 8 73 9 74 10 75
REMARK SMILES IDX 14 76 11 77 13 78 12 79 15 82 16 83 17 84 18 86 19 87 22 88
REMARK SMILES IDX 20 89 21 90
REMARK H PARENT 79 22 47 33 11 80 11 81 17 85
REMARK Flexibility Score: inf
ROOT
ATOM      1  C   UNL     1       4.791  -0.704  -1.279  1.00  0.00     0.275 C 
ENDROOT
BRANCH   1   2
ATOM      2  O   UNL     1       3.929  -1.709  -0.722  1.00  0.00    -0.458 OA
BRANCH   2   3
ATOM      3  C   UNL     1       3.854  -2.184   0.552  1.00  0.00     0.338 C 
ATOM      4  O   UNL     1       3.213  -3.206   0.783  1.00  0.00    -0.246 OA
BRANCH   3   5
ATOM      5  C   UNL     1       4.345  -1.371   1.691  1.00  0.00     0.060 A 
ATOM      6  C   UNL     1       5.604  -0.772   1.722  1.00  0.00     0.016 A 
ATOM      7  C   UNL     1       3.450  -1.157   2.759  1.00  0.00     0.016 A 
ATOM      8  C   UNL     1       5.931   0.121   2.743  1.00  0.00     0.010 A 
ATOM      9  C   UNL     1       3.769  -0.254   3.781  1.00  0.00     0.010 A 
ATOM     10  C   UNL     1       5.025   0.376   3.784  1.00  0.00    -0.014 A 
BRANCH  10  11
ATOM     11  C   UNL     1       5.581   0.940   5.038  1.00  0.00     0.031 A 
ATOM     12  C   UNL     1       6.114  -0.077   6.005  1.00  0.00     0.074 A 
ATOM     13  C   UNL     1       5.737   2.258   5.263  1.00  0.00     0.049 A 
ATOM     14  N   UNL     1       6.842   0.096   7.071  1.00  0.00    -0.248 NA
ATOM     15  C   UNL     1       5.800  -1.486   5.706  1.00  0.00     0.031 C 
ATOM     16  C   UNL     1       5.289   3.323   4.378  1.00  0.00     0.029 A 
ATOM     17  N   UNL     1       6.338   2.933   6.296  1.00  0.00    -0.354 N 
ATOM     18  C   UNL     1       7.111  -1.184   7.537  1.00  0.00     0.074 A 
ATOM     19  C   UNL     1       6.391  -2.114   6.702  1.00  0.00     0.031 C 
ATOM     20  C   UNL     1       5.636   4.518   4.886  1.00  0.00     0.029 A 
ATOM     21  C   UNL     1       6.331   4.305   6.149  1.00  0.00     0.049 A 
ATOM     22  H   UNL     1       6.738   2.479   7.072  1.00  0.00     0.167 HD
ATOM     23  C   UNL     1       7.925  -1.557   8.548  1.00  0.00     0.034 A 
ATOM     24  C   UNL     1       6.840   5.270   6.943  1.00  0.00     0.034 A 
ATOM     25  C   UNL     1       8.567  -0.612   9.415  1.00  0.00     0.049 A 
ATOM     26  C   UNL     1       7.604   4.833   8.172  1.00  0.00     0.074 A 
ATOM     27  C   UNL     1       9.359  -0.855  10.518  1.00  0.00     0.029 A 
ATOM     28  N   UNL     1       8.451   0.768   9.292  1.00  0.00    -0.354 N 
ATOM     29  N   UNL     1       7.896   3.615   8.572  1.00  0.00    -0.248 NA
ATOM     30  C   UNL     1       8.129   5.894   9.039  1.00  0.00     0.031 C 
ATOM     31  C   UNL     1       9.650   0.377  11.113  1.00  0.00     0.029 A 
ATOM     32  C   UNL     1       9.126   1.392  10.325  1.00  0.00     0.049 A 
ATOM     33  H   UNL     1       7.961   1.233   8.576  1.00  0.00     0.167 HD
ATOM     34  C   UNL     1       8.682   3.767   9.711  1.00  0.00     0.074 A 
ATOM     35  C   UNL     1       8.823   5.194   9.924  1.00  0.00     0.031 C 
ATOM     36  C   UNL     1       9.246   2.820  10.505  1.00  0.00     0.034 A 
BRANCH  23  37
ATOM     37  C   UNL     1       8.063  -3.039   8.773  1.00  0.00     0.023 A 
ATOM     38  C   UNL     1       8.602  -3.881   7.780  1.00  0.00     0.031 A 
ATOM     39  C   UNL     1       7.515  -3.634   9.919  1.00  0.00     0.131 A 
ATOM     40  C   UNL     1       8.480  -5.271   7.904  1.00  0.00     0.055 A 
ATOM     41  C   UNL     1       7.486  -5.019  10.081  1.00  0.00     0.041 A 
ATOM     42  F   UNL     1       6.950  -2.881  10.876  1.00  0.00    -0.206 F 
ATOM     43  C   UNL     1       7.949  -5.847   9.061  1.00  0.00     0.022 A 
BRANCH  40  44
ATOM     44  S   UNL     1       8.829  -6.303   6.452  1.00  0.00     0.124 S 
ATOM     45  O   UNL     1       7.862  -5.787   5.485  1.00  0.00    -0.237 OA
ATOM     46  O   UNL     1      10.229  -5.999   6.177  1.00  0.00    -0.237 OA
ATOM     47  O   UNL     1       8.566  -7.660   6.925  1.00  0.00    -0.744 OA
ENDBRANCH  40  44
ENDBRANCH  23  37
BRANCH  24  48
ATOM     48  C   UNL     1       6.657   6.723   6.633  1.00  0.00     0.023 A 
ATOM     49  C   UNL     1       7.758   7.575   6.434  1.00  0.00     0.031 A 
ATOM     50  C   UNL     1       5.375   7.304   6.626  1.00  0.00     0.131 A 
ATOM     51  C   UNL     1       7.563   8.961   6.304  1.00  0.00     0.055 A 
ATOM     52  C   UNL     1       5.183   8.677   6.442  1.00  0.00     0.041 A 
ATOM     53  F   UNL     1       4.284   6.544   6.809  1.00  0.00    -0.206 F 
ATOM     54  C   UNL     1       6.282   9.517   6.297  1.00  0.00     0.022 A 
BRANCH  51  55
ATOM     55  S   UNL     1       9.019  10.046   6.255  1.00  0.00     0.124 S 
ATOM     56  O   UNL     1       9.685   9.705   7.506  1.00  0.00    -0.237 OA
ATOM     57  O   UNL     1       9.683   9.605   5.033  1.00  0.00    -0.237 OA
ATOM     58  O   UNL     1       8.443  11.388   6.199  1.00  0.00    -0.744 OA
ENDBRANCH  51  55
ENDBRANCH  24  48
BRANCH  36  59
ATOM     59  C   UNL     1      10.116   3.303  11.637  1.00  0.00     0.023 A 
ATOM     60  C   UNL     1       9.594   4.038  12.713  1.00  0.00     0.031 A 
ATOM     61  C   UNL     1      11.490   3.002  11.642  1.00  0.00     0.131 A 
ATOM     62  C   UNL     1      10.452   4.502  13.719  1.00  0.00     0.055 A 
ATOM     63  C   UNL     1      12.324   3.398  12.686  1.00  0.00     0.041 A 
ATOM     64  F   UNL     1      12.041   2.304  10.635  1.00  0.00    -0.206 F 
ATOM     65  C   UNL     1      11.809   4.165  13.725  1.00  0.00     0.022 A 
BRANCH  62  66
ATOM     66  S   UNL     1       9.792   5.644  14.961  1.00  0.00     0.124 S 
ATOM     67  O   UNL     1       9.287   6.734  14.131  1.00  0.00    -0.237 OA
ATOM     68  O   UNL     1       8.781   4.830  15.627  1.00  0.00    -0.237 OA
ATOM     69  O   UNL     1      10.959   5.975  15.776  1.00  0.00    -0.744 OA
ENDBRANCH  62  66
ENDBRANCH  36  59
ENDBRANCH  10  11
ENDBRANCH   3   5
ENDBRANCH   2   3
ENDBRANCH   1   2
BRANCH   1  70
ATOM     70  C   UNL     1       4.306   0.748  -1.546  1.00  0.00     0.274 C 
BRANCH  70  71
ATOM     71  O   UNL     1       3.289   1.511  -0.499  1.00  0.00    -0.460 OA
BRANCH  71  72
ATOM     72  C   UNL     1       1.859   2.335   0.424  1.00  0.00     0.334 C 
ATOM     73  O   UNL     1       0.695   2.531  -0.022  1.00  0.00    -0.250 OA
BRANCH  72  74
ATOM     74  C   UNL     1       1.999   2.822   1.925  1.00  0.00     0.252 C 
ATOM     75  C   UNL     1       0.793   2.206   2.713  1.00  0.00     0.298 C 
ATOM     76  N   UNL     1       1.927   4.296   1.890  1.00  0.00    -0.300 N 
ATOM     77  N   UNL     1       0.634   2.762   4.072  1.00  0.00    -0.343 N 
ATOM     78  C   UNL     1       1.647   4.908   3.199  1.00  0.00     0.183 C 
ATOM     79  C   UNL     1       0.489   4.225   3.957  1.00  0.00     0.282 C 
ATOM     80  H   UNL     1       1.455   2.540   4.635  1.00  0.00     0.346 HD
ATOM     81  H   UNL     1      -0.188   2.361   4.523  1.00  0.00     0.346 HD
BRANCH  76  82
ATOM     82  C   UNL     1       2.189   5.103   0.807  1.00  0.00     0.318 C 
ATOM     83  O   UNL     1       2.010   6.322   0.847  1.00  0.00    -0.249 OA
ATOM     84  N   UNL     1       2.654   4.615  -0.379  1.00  0.00    -0.333 N 
ATOM     85  H   UNL     1       2.579   5.270  -1.110  1.00  0.00     0.165 HD
BRANCH  84  86
ATOM     86  C   UNL     1       3.244   3.332  -0.827  1.00  0.00     0.112 C 
ATOM     87  C   UNL     1       1.979   2.016  -1.673  1.00  0.00     0.056 C 
ATOM     88  C   UNL     1       4.095   2.460   0.744  1.00  0.00     0.185 C 
ATOM     89  C   UNL     1       1.832   0.469  -0.365  1.00  0.00     0.162 C 
ATOM     90  O   UNL     1       3.034   0.887   1.095  1.00  0.00    -0.379 OA
ENDBRANCH  84  86
ENDBRANCH  76  82
ENDBRANCH  72  74
ENDBRANCH  71  72
ENDBRANCH  70  71
ENDBRANCH   1  70
TORSDOF 16
