REMARK SMILES C[C@H]1[C@H](C(=O)OCCOC(=O)c2ccc(-c3c4nc(c(-c5cc(S(=O)(=O)[O-])ccc5F)c5ccc([nH]5)c(-c5cc(S(=O)(=O)[O-])ccc5F)c5nc(c(-c6cc(S(=O)(=O)[O-])ccc6F)c6ccc3[nH]6)C=C5)C=C4)cc2)CCN1C(=O)Nc1ccc(F)cc1
REMARK SMILES IDX 8 1 7 2 6 3 4 4 5 5 3 6 1 7 2 8 77 9 75 10 76 11 78 12 79 13
REMARK SMILES IDX 80 14 81 16 82 17 87 18 83 19 86 20 84 21 85 22 9 23 10 24
REMARK SMILES IDX 11 25 12 26 13 27 74 28 14 29 73 30 15 31 16 32 17 33 67 34
REMARK SMILES IDX 18 35 72 36 66 37 68 38 19 39 71 40 65 41 64 42 20 44 52 45
REMARK SMILES IDX 32 46 51 47 33 48 36 49 50 50 69 51 34 52 35 53 49 55 70 56
REMARK SMILES IDX 37 57 21 58 22 59 30 60 23 61 29 62 31 63 28 64 24 65 25 66
REMARK SMILES IDX 26 67 27 68 53 69 54 70 62 71 55 72 61 73 63 74 60 75 56 76
REMARK SMILES IDX 57 77 58 78 59 79 38 80 39 81 47 82 40 83 46 84 48 85 45 86
REMARK SMILES IDX 41 87 42 88 43 89 44 90
REMARK H PARENT 80 15 68 43 36 54
REMARK Flexibility Score: inf
ROOT
ATOM      1  C   UNL     1       0.820   3.549   3.495  1.00  0.00     0.275 C 
ENDROOT
BRANCH   1   2
ATOM      2  C   UNL     1      -0.551   2.911   3.248  1.00  0.00     0.274 C 
BRANCH   2   3
ATOM      3  O   UNL     1      -0.483   1.837   2.289  1.00  0.00    -0.462 OA
BRANCH   3   4
ATOM      4  C   UNL     1      -0.833   2.148   1.014  1.00  0.00     0.311 C 
ATOM      5  O   UNL     1      -1.257   3.242   0.660  1.00  0.00    -0.252 OA
BRANCH   4   6
ATOM      6  C   UNL     1      -0.735   0.978   0.057  1.00  0.00     0.123 C 
ATOM      7  C   UNL     1       1.430   0.039  -0.862  1.00  0.00     0.032 C 
ATOM      8  C   UNL     1       0.442   0.009   0.310  1.00  0.00     0.098 C 
ATOM      9  N   UNL     1      -0.179  -1.315   0.464  1.00  0.00    -0.321 N 
ATOM     10  C   UNL     1      -2.003   0.134   0.153  1.00  0.00     0.039 C 
ATOM     11  C   UNL     1      -1.527  -1.282  -0.070  1.00  0.00     0.122 C 
BRANCH   9  12
ATOM     12  C   UNL     1       0.368  -2.533   0.767  1.00  0.00     0.322 C 
ATOM     13  O   UNL     1      -0.280  -3.575   0.610  1.00  0.00    -0.248 OA
ATOM     14  N   UNL     1       1.676  -2.677   1.087  1.00  0.00    -0.308 N 
ATOM     15  H   UNL     1       2.051  -3.536   0.784  1.00  0.00     0.171 HD
BRANCH  14  16
ATOM     16  C   UNL     1       2.614  -1.879   1.750  1.00  0.00     0.043 A 
ATOM     17  C   UNL     1       3.959  -2.046   1.393  1.00  0.00     0.029 A 
ATOM     18  C   UNL     1       2.278  -0.985   2.766  1.00  0.00     0.029 A 
ATOM     19  C   UNL     1       4.945  -1.244   1.967  1.00  0.00     0.041 A 
ATOM     20  C   UNL     1       3.268  -0.190   3.350  1.00  0.00     0.041 A 
ATOM     21  C   UNL     1       4.588  -0.312   2.932  1.00  0.00     0.123 A 
ATOM     22  F   UNL     1       5.529   0.470   3.476  1.00  0.00    -0.207 F 
ENDBRANCH  14  16
ENDBRANCH   9  12
ENDBRANCH   4   6
ENDBRANCH   3   4
ENDBRANCH   2   3
ENDBRANCH   1   2
BRANCH   1  23
ATOM     23  O   UNL     1       1.299   4.267   2.345  1.00  0.00    -0.458 OA
BRANCH  23  24
ATOM     24  C   UNL     1       2.047   3.531   1.491  1.00  0.00     0.338 C 
ATOM     25  O   UNL     1       2.360   2.360   1.610  1.00  0.00    -0.246 OA
BRANCH  24  26
ATOM     26  C   UNL     1       2.346   4.308   0.286  1.00  0.00     0.060 A 
ATOM     27  C   UNL     1       1.732   3.933  -0.912  1.00  0.00     0.016 A 
ATOM     28  C   UNL     1       3.303   5.321   0.314  1.00  0.00     0.016 A 
ATOM     29  C   UNL     1       2.087   4.556  -2.102  1.00  0.00     0.010 A 
ATOM     30  C   UNL     1       3.643   5.961  -0.878  1.00  0.00     0.010 A 
ATOM     31  C   UNL     1       3.046   5.574  -2.092  1.00  0.00    -0.014 A 
BRANCH  31  32
ATOM     32  C   UNL     1       3.453   6.228  -3.355  1.00  0.00     0.031 A 
ATOM     33  C   UNL     1       4.809   5.947  -3.927  1.00  0.00     0.074 A 
ATOM     34  C   UNL     1       2.612   7.087  -3.959  1.00  0.00     0.049 A 
ATOM     35  N   UNL     1       5.444   6.559  -4.891  1.00  0.00    -0.248 NA
ATOM     36  C   UNL     1       5.551   4.830  -3.325  1.00  0.00     0.031 C 
ATOM     37  C   UNL     1       1.244   7.373  -3.523  1.00  0.00     0.029 A 
ATOM     38  N   UNL     1       2.791   7.893  -5.053  1.00  0.00    -0.354 N 
ATOM     39  C   UNL     1       6.676   5.923  -4.995  1.00  0.00     0.074 A 
ATOM     40  C   UNL     1       6.698   4.883  -3.987  1.00  0.00     0.031 C 
ATOM     41  C   UNL     1       0.716   8.308  -4.328  1.00  0.00     0.029 A 
ATOM     42  C   UNL     1       1.729   8.734  -5.288  1.00  0.00     0.049 A 
ATOM     43  H   UNL     1       3.600   7.872  -5.614  1.00  0.00     0.167 HD
ATOM     44  C   UNL     1       7.692   6.196  -5.850  1.00  0.00     0.034 A 
ATOM     45  C   UNL     1       1.612   9.770  -6.142  1.00  0.00     0.034 A 
ATOM     46  C   UNL     1       7.637   7.245  -6.840  1.00  0.00     0.049 A 
ATOM     47  C   UNL     1       2.784  10.114  -7.023  1.00  0.00     0.074 A 
ATOM     48  C   UNL     1       8.604   7.623  -7.755  1.00  0.00     0.029 A 
ATOM     49  N   UNL     1       6.551   8.090  -7.038  1.00  0.00    -0.354 N 
ATOM     50  N   UNL     1       3.964   9.540  -7.084  1.00  0.00    -0.248 NA
ATOM     51  C   UNL     1       2.613  11.244  -7.944  1.00  0.00     0.031 C 
ATOM     52  C   UNL     1       8.125   8.730  -8.466  1.00  0.00     0.029 A 
ATOM     53  C   UNL     1       6.833   9.002  -8.042  1.00  0.00     0.049 A 
ATOM     54  H   UNL     1       5.705   8.048  -6.537  1.00  0.00     0.167 HD
ATOM     55  C   UNL     1       4.667  10.223  -8.072  1.00  0.00     0.074 A 
ATOM     56  C   UNL     1       3.778  11.251  -8.577  1.00  0.00     0.031 C 
ATOM     57  C   UNL     1       5.928  10.016  -8.527  1.00  0.00     0.034 A 
BRANCH  44  58
ATOM     58  C   UNL     1       8.961   5.396  -5.696  1.00  0.00     0.023 A 
ATOM     59  C   UNL     1       9.004   4.013  -5.943  1.00  0.00     0.031 A 
ATOM     60  C   UNL     1      10.140   6.023  -5.254  1.00  0.00     0.131 A 
ATOM     61  C   UNL     1      10.181   3.292  -5.684  1.00  0.00     0.055 A 
ATOM     62  C   UNL     1      11.328   5.313  -5.068  1.00  0.00     0.041 A 
ATOM     63  F   UNL     1      10.153   7.337  -4.978  1.00  0.00    -0.206 F 
ATOM     64  C   UNL     1      11.349   3.936  -5.270  1.00  0.00     0.022 A 
BRANCH  61  65
ATOM     65  S   UNL     1      10.125   1.480  -5.764  1.00  0.00     0.124 S 
ATOM     66  O   UNL     1       9.094   1.171  -4.776  1.00  0.00    -0.237 OA
ATOM     67  O   UNL     1       9.769   1.237  -7.157  1.00  0.00    -0.237 OA
ATOM     68  O   UNL     1      11.479   1.078  -5.387  1.00  0.00    -0.744 OA
ENDBRANCH  61  65
ENDBRANCH  44  58
BRANCH  45  69
ATOM     69  C   UNL     1       0.372  10.594  -6.150  1.00  0.00     0.023 A 
ATOM     70  C   UNL     1      -0.471  10.627  -7.270  1.00  0.00     0.031 A 
ATOM     71  C   UNL     1       0.022  11.379  -5.036  1.00  0.00     0.131 A 
ATOM     72  C   UNL     1      -1.608  11.451  -7.264  1.00  0.00     0.055 A 
ATOM     73  C   UNL     1      -1.134  12.160  -5.016  1.00  0.00     0.041 A 
ATOM     74  F   UNL     1       0.795  11.382  -3.938  1.00  0.00    -0.206 F 
ATOM     75  C   UNL     1      -1.952  12.207  -6.140  1.00  0.00     0.022 A 
BRANCH  72  76
ATOM     76  S   UNL     1      -2.600  11.573  -8.777  1.00  0.00     0.124 S 
ATOM     77  O   UNL     1      -1.613  12.044  -9.742  1.00  0.00    -0.237 OA
ATOM     78  O   UNL     1      -3.061  10.200  -8.948  1.00  0.00    -0.237 OA
ATOM     79  O   UNL     1      -3.639  12.539  -8.425  1.00  0.00    -0.744 OA
ENDBRANCH  72  76
ENDBRANCH  45  69
BRANCH  57  80
ATOM     80  C   UNL     1       6.389  10.878  -9.672  1.00  0.00     0.023 A 
ATOM     81  C   UNL     1       6.707  12.234  -9.496  1.00  0.00     0.031 A 
ATOM     82  C   UNL     1       6.524  10.319 -10.955  1.00  0.00     0.131 A 
ATOM     83  C   UNL     1       7.114  12.999 -10.600  1.00  0.00     0.055 A 
ATOM     84  C   UNL     1       6.971  11.074 -12.039  1.00  0.00     0.041 A 
ATOM     85  F   UNL     1       6.231   9.026 -11.170  1.00  0.00    -0.206 F 
ATOM     86  C   UNL     1       7.262  12.424 -11.866  1.00  0.00     0.022 A 
BRANCH  83  87
ATOM     87  S   UNL     1       7.410  14.774 -10.372  1.00  0.00     0.124 S 
ATOM     88  O   UNL     1       6.084  15.257 -10.002  1.00  0.00    -0.237 OA
ATOM     89  O   UNL     1       8.414  14.793  -9.313  1.00  0.00    -0.237 OA
ATOM     90  O   UNL     1       7.887  15.214 -11.682  1.00  0.00    -0.744 OA
ENDBRANCH  83  87
ENDBRANCH  57  80
ENDBRANCH  31  32
ENDBRANCH  24  26
ENDBRANCH  23  24
ENDBRANCH   1  23
TORSDOF 16
