REMARK SMILES Cc1ccc(Cl)c(Nc2ccccc2C(=O)NCC(=O)OCCOC(=O)c2ccc(-c3c4nc(c(-c5cc(S(=O)(=O)[O-])ccc5F)c5ccc([nH]5)c(-c5cc(S(=O)(=O)[O-])ccc5F)c5nc(c(-c6cc(S(=O)(=O)[O-])ccc6F)c6ccc3[nH]6)C=C5)C=C4)cc2)c1Cl
REMARK SMILES IDX 22 1 21 2 19 3 20 4 18 5 17 6 15 7 16 8 14 10 9 11 10 12
REMARK SMILES IDX 11 13 13 14 12 15 8 16 7 18 1 19 2 20 3 21 90 22 4 23 91 24
REMARK SMILES IDX 5 25 6 26 23 27 24 28 25 29 26 30 27 31 28 32 89 33 29 34
REMARK SMILES IDX 88 35 30 36 31 37 32 38 82 39 33 40 87 41 81 42 83 43 34 44
REMARK SMILES IDX 86 45 80 46 79 47 35 49 67 50 47 51 66 52 48 53 51 54 65 55
REMARK SMILES IDX 84 56 49 57 50 58 64 60 85 61 52 62 36 63 37 64 45 65 38 66
REMARK SMILES IDX 44 67 46 68 43 69 39 70 40 71 41 72 42 73 68 74 69 75 77 76
REMARK SMILES IDX 70 77 76 78 78 79 75 80 71 81 72 82 73 83 74 84 53 85 54 86
REMARK SMILES IDX 62 87 55 88 61 89 63 90 60 91 56 92 57 93 58 94 59 95
REMARK H PARENT 17 9 8 17 83 48 51 59
REMARK Flexibility Score: inf
ROOT
ATOM      1  C   UNL     1      -3.904  -2.442   3.309  1.00  0.00     0.274 C 
ENDROOT
BRANCH   1   2
ATOM      2  O   UNL     1      -2.510  -2.254   3.005  1.00  0.00    -0.461 OA
BRANCH   2   3
ATOM      3  C   UNL     1      -2.284  -1.957   1.701  1.00  0.00     0.325 C 
ATOM      4  O   UNL     1      -3.151  -1.947   0.829  1.00  0.00    -0.250 OA
BRANCH   3   5
ATOM      5  C   UNL     1      -0.893  -1.434   1.419  1.00  0.00     0.239 C 
BRANCH   5   6
ATOM      6  N   UNL     1       0.267  -1.731   2.227  1.00  0.00    -0.341 N 
ATOM      7  C   UNL     1       1.441  -2.362   1.892  1.00  0.00     0.253 C 
ATOM      8  O   UNL     1       2.385  -2.233   2.677  1.00  0.00    -0.269 OA
ATOM      9  H   UNL     1       0.207  -1.435   3.164  1.00  0.00     0.164 HD
BRANCH   7  10
ATOM     10  C   UNL     1       1.588  -3.336   0.761  1.00  0.00     0.063 A 
ATOM     11  C   UNL     1       1.192  -3.223  -0.589  1.00  0.00     0.051 A 
ATOM     12  C   UNL     1       1.343  -4.362  -1.419  1.00  0.00     0.027 A 
ATOM     13  C   UNL     1       1.948  -5.538  -0.976  1.00  0.00     0.002 A 
ATOM     14  C   UNL     1       2.231  -4.528   1.178  1.00  0.00     0.016 A 
ATOM     15  C   UNL     1       2.423  -5.610   0.321  1.00  0.00     0.001 A 
BRANCH  11  16
ATOM     16  N   UNL     1       0.767  -2.067  -1.277  1.00  0.00    -0.352 N 
ATOM     17  H   UNL     1       0.122  -2.266  -1.994  1.00  0.00     0.167 HD
BRANCH  16  18
ATOM     18  C   UNL     1       1.059  -0.685  -1.169  1.00  0.00     0.077 A 
ATOM     19  C   UNL     1       3.679   1.817   0.112  1.00  0.00     0.046 C 
ATOM     20  C   UNL     1       2.406   1.229  -0.432  1.00  0.00    -0.030 A 
ATOM     21  C   UNL     1       1.345   2.094  -0.728  1.00  0.00     0.006 A 
ATOM     22  C   UNL     1       2.271  -0.154  -0.685  1.00  0.00     0.069 A 
ATOM     23  C   UNL     1       0.177   1.603  -1.294  1.00  0.00     0.023 A 
ATOM     24  Cl  UNL     1       3.685  -1.159  -0.550  1.00  0.00    -0.082 Cl
ATOM     25  C   UNL     1       0.033   0.234  -1.504  1.00  0.00     0.066 A 
ATOM     26  Cl  UNL     1      -1.472  -0.320  -2.168  1.00  0.00    -0.082 Cl
ENDBRANCH  16  18
ENDBRANCH  11  16
ENDBRANCH   7  10
ENDBRANCH   5   6
ENDBRANCH   3   5
ENDBRANCH   2   3
ENDBRANCH   1   2
BRANCH   1  27
ATOM     27  C   UNL     1      -4.534  -1.137   3.799  1.00  0.00     0.275 C 
BRANCH  27  28
ATOM     28  O   UNL     1      -4.401  -0.079   2.825  1.00  0.00    -0.458 OA
BRANCH  28  29
ATOM     29  C   UNL     1      -3.639   0.973   3.206  1.00  0.00     0.338 C 
ATOM     30  O   UNL     1      -3.038   1.088   4.267  1.00  0.00    -0.246 OA
BRANCH  29  31
ATOM     31  C   UNL     1      -3.635   2.039   2.183  1.00  0.00     0.060 A 
ATOM     32  C   UNL     1      -3.282   1.779   0.861  1.00  0.00     0.016 A 
ATOM     33  C   UNL     1      -3.868   3.357   2.586  1.00  0.00     0.016 A 
ATOM     34  C   UNL     1      -3.079   2.848  -0.026  1.00  0.00     0.010 A 
ATOM     35  C   UNL     1      -3.740   4.411   1.670  1.00  0.00     0.010 A 
ATOM     36  C   UNL     1      -3.288   4.186   0.357  1.00  0.00    -0.014 A 
BRANCH  36  37
ATOM     37  C   UNL     1      -2.974   5.348  -0.551  1.00  0.00     0.031 A 
ATOM     38  C   UNL     1      -2.140   6.511  -0.043  1.00  0.00     0.074 A 
ATOM     39  C   UNL     1      -3.403   5.409  -1.831  1.00  0.00     0.049 A 
ATOM     40  N   UNL     1      -2.007   7.722  -0.528  1.00  0.00    -0.248 NA
ATOM     41  C   UNL     1      -1.375   6.279   1.190  1.00  0.00     0.031 C 
ATOM     42  C   UNL     1      -4.163   4.374  -2.529  1.00  0.00     0.029 A 
ATOM     43  N   UNL     1      -3.255   6.399  -2.780  1.00  0.00    -0.354 N 
ATOM     44  C   UNL     1      -1.232   8.425   0.394  1.00  0.00     0.074 A 
ATOM     45  C   UNL     1      -0.914   7.492   1.457  1.00  0.00     0.031 C 
ATOM     46  C   UNL     1      -4.365   4.753  -3.800  1.00  0.00     0.029 A 
ATOM     47  C   UNL     1      -3.868   6.113  -3.979  1.00  0.00     0.049 A 
ATOM     48  H   UNL     1      -2.757   7.232  -2.615  1.00  0.00     0.167 HD
ATOM     49  C   UNL     1      -0.835   9.725   0.365  1.00  0.00     0.034 A 
ATOM     50  C   UNL     1      -4.081   6.866  -5.079  1.00  0.00     0.034 A 
ATOM     51  C   UNL     1      -1.064  10.623  -0.745  1.00  0.00     0.049 A 
ATOM     52  C   UNL     1      -3.641   8.305  -5.100  1.00  0.00     0.074 A 
ATOM     53  C   UNL     1      -0.662  11.943  -0.883  1.00  0.00     0.029 A 
ATOM     54  N   UNL     1      -1.731  10.294  -1.917  1.00  0.00    -0.354 N 
ATOM     55  N   UNL     1      -3.033   8.996  -4.165  1.00  0.00    -0.248 NA
ATOM     56  C   UNL     1      -3.947   9.074  -6.315  1.00  0.00     0.031 C 
ATOM     57  C   UNL     1      -1.132  12.425  -2.111  1.00  0.00     0.029 A 
ATOM     58  C   UNL     1      -1.767  11.388  -2.771  1.00  0.00     0.049 A 
ATOM     59  H   UNL     1      -2.122   9.412  -2.113  1.00  0.00     0.167 HD
ATOM     60  C   UNL     1      -2.895  10.284  -4.677  1.00  0.00     0.074 A 
ATOM     61  C   UNL     1      -3.453  10.266  -6.013  1.00  0.00     0.031 C 
ATOM     62  C   UNL     1      -2.357  11.383  -4.089  1.00  0.00     0.034 A 
BRANCH  49  63
ATOM     63  C   UNL     1      -0.172  10.282   1.606  1.00  0.00     0.023 A 
ATOM     64  C   UNL     1       1.071   9.825   2.074  1.00  0.00     0.031 A 
ATOM     65  C   UNL     1      -0.824  11.285   2.350  1.00  0.00     0.131 A 
ATOM     66  C   UNL     1       1.581  10.309   3.291  1.00  0.00     0.055 A 
ATOM     67  C   UNL     1      -0.271  11.823   3.514  1.00  0.00     0.041 A 
ATOM     68  F   UNL     1      -2.022  11.753   1.963  1.00  0.00    -0.206 F 
ATOM     69  C   UNL     1       0.931  11.322   4.001  1.00  0.00     0.022 A 
BRANCH  66  70
ATOM     70  S   UNL     1       3.021   9.477   4.016  1.00  0.00     0.124 S 
ATOM     71  O   UNL     1       2.575   8.086   4.047  1.00  0.00    -0.237 OA
ATOM     72  O   UNL     1       4.077   9.789   3.060  1.00  0.00    -0.237 OA
ATOM     73  O   UNL     1       3.156  10.109   5.327  1.00  0.00    -0.744 OA
ENDBRANCH  66  70
ENDBRANCH  49  63
BRANCH  50  74
ATOM     74  C   UNL     1      -4.857   6.300  -6.221  1.00  0.00     0.023 A 
ATOM     75  C   UNL     1      -4.258   6.065  -7.468  1.00  0.00     0.031 A 
ATOM     76  C   UNL     1      -6.221   5.989  -6.071  1.00  0.00     0.131 A 
ATOM     77  C   UNL     1      -5.027   5.543  -8.521  1.00  0.00     0.055 A 
ATOM     78  C   UNL     1      -6.967   5.423  -7.104  1.00  0.00     0.041 A 
ATOM     79  F   UNL     1      -6.840   6.202  -4.899  1.00  0.00    -0.206 F 
ATOM     80  C   UNL     1      -6.370   5.201  -8.341  1.00  0.00     0.022 A 
BRANCH  77  81
ATOM     81  S   UNL     1      -4.258   5.345 -10.152  1.00  0.00     0.124 S 
ATOM     82  O   UNL     1      -3.966   6.728 -10.511  1.00  0.00    -0.237 OA
ATOM     83  O   UNL     1      -3.105   4.504  -9.847  1.00  0.00    -0.237 OA
ATOM     84  O   UNL     1      -5.302   4.700 -10.945  1.00  0.00    -0.744 OA
ENDBRANCH  77  81
ENDBRANCH  50  74
BRANCH  62  85
ATOM     85  C   UNL     1      -2.332  12.653  -4.903  1.00  0.00     0.023 A 
ATOM     86  C   UNL     1      -3.513  13.350  -5.219  1.00  0.00     0.031 A 
ATOM     87  C   UNL     1      -1.115  13.158  -5.394  1.00  0.00     0.131 A 
ATOM     88  C   UNL     1      -3.456  14.484  -6.045  1.00  0.00     0.055 A 
ATOM     89  C   UNL     1      -1.060  14.314  -6.174  1.00  0.00     0.041 A 
ATOM     90  F   UNL     1       0.041  12.531  -5.125  1.00  0.00    -0.206 F 
ATOM     91  C   UNL     1      -2.235  14.977  -6.514  1.00  0.00     0.022 A 
BRANCH  88  92
ATOM     92  S   UNL     1      -5.009  15.261  -6.573  1.00  0.00     0.124 S 
ATOM     93  O   UNL     1      -5.685  14.159  -7.251  1.00  0.00    -0.237 OA
ATOM     94  O   UNL     1      -5.593  15.685  -5.305  1.00  0.00    -0.237 OA
ATOM     95  O   UNL     1      -4.569  16.348  -7.446  1.00  0.00    -0.744 OA
ENDBRANCH  88  92
ENDBRANCH  62  85
ENDBRANCH  36  37
ENDBRANCH  29  31
ENDBRANCH  28  29
ENDBRANCH  27  28
ENDBRANCH   1  27
TORSDOF 18
