REMARK SMILES Cc1cccc(OC2(C(=O)OCCOC(=O)c3ccc(-c4c5nc(c(-c6cc(S(=O)(=O)[O-])ccc6F)c6ccc([nH]6)c(-c6cc(S(=O)(=O)[O-])ccc6F)c6nc(c(-c7cc(S(=O)(=O)[O-])ccc7F)c7ccc4[nH]7)C=C6)C=C5)cc3)CCN(C(=O)c3cnc[nH]c3=O)CC2)c1
REMARK SMILES IDX 13 1 12 2 11 3 9 4 10 5 8 6 80 7 93 8 81 9 92 10 82 11 83 12
REMARK SMILES IDX 84 13 7 14 6 15 1 16 2 17 3 18 94 19 4 20 5 21 85 22 86 23
REMARK SMILES IDX 90 24 87 25 89 26 91 27 88 28 14 30 15 31 16 32 17 33 18 34
REMARK SMILES IDX 79 35 19 36 78 37 20 38 21 39 22 40 72 41 23 42 77 43 71 44
REMARK SMILES IDX 73 45 24 46 76 47 70 48 69 49 25 51 57 52 37 53 56 54 38 55
REMARK SMILES IDX 41 56 55 57 74 58 39 59 40 60 54 62 75 63 42 64 26 65 27 66
REMARK SMILES IDX 35 67 28 68 34 69 36 70 33 71 29 72 30 73 31 74 32 75 58 76
REMARK SMILES IDX 59 77 67 78 60 79 66 80 68 81 65 82 61 83 62 84 63 85 64 86
REMARK SMILES IDX 43 87 44 88 52 89 45 90 51 91 53 92 50 93 46 94 47 95 48 96
REMARK SMILES IDX 49 97
REMARK H PARENT 89 29 73 50 41 61
REMARK Flexibility Score: inf
ROOT
ATOM      1  C   UNL     1       1.772   4.344  -4.053  1.00  0.00     0.275 C 
ENDROOT
BRANCH   1   2
ATOM      2  C   UNL     1       0.435   5.093  -4.430  1.00  0.00     0.274 C 
BRANCH   2   3
ATOM      3  O   UNL     1      -0.583   5.298  -3.448  1.00  0.00    -0.459 OA
BRANCH   3   4
ATOM      4  C   UNL     1      -0.215   5.615  -2.210  1.00  0.00     0.350 C 
ATOM      5  O   UNL     1       0.392   6.676  -2.056  1.00  0.00    -0.247 OA
BRANCH   4   6
ATOM      6  C   UNL     1      -0.504   4.501  -0.941  1.00  0.00     0.209 C 
ATOM      7  C   UNL     1       1.248   4.813  -0.374  1.00  0.00     0.082 C 
ATOM      8  C   UNL     1      -0.979   5.550   0.491  1.00  0.00     0.082 C 
ATOM      9  C   UNL     1       1.772   4.592   1.049  1.00  0.00     0.124 C 
ATOM     10  C   UNL     1      -0.458   5.203   1.937  1.00  0.00     0.124 C 
ATOM     11  N   UNL     1       0.985   5.333   2.018  1.00  0.00    -0.338 N 
ATOM     12  C   UNL     1       1.614   6.266   2.823  1.00  0.00     0.261 C 
ATOM     13  O   UNL     1       2.621   6.887   2.497  1.00  0.00    -0.269 OA
BRANCH   6  14
ATOM     14  O   UNL     1      -1.308   2.598  -1.133  1.00  0.00    -0.475 OA
BRANCH  14  15
ATOM     15  C   UNL     1      -1.010   1.020  -0.710  1.00  0.00     0.121 A 
ATOM     16  C   UNL     1       2.041  -1.128   0.255  1.00  0.00     0.044 C 
ATOM     17  C   UNL     1       0.594  -0.813   0.000  1.00  0.00    -0.047 A 
ATOM     18  C   UNL     1      -0.453  -1.704   0.054  1.00  0.00     0.003 A 
ATOM     19  C   UNL     1       0.288   0.493  -0.373  1.00  0.00     0.050 A 
ATOM     20  C   UNL     1      -1.762  -1.229  -0.164  1.00  0.00     0.004 A 
ATOM     21  C   UNL     1      -2.050   0.130  -0.502  1.00  0.00     0.046 A 
ENDBRANCH  14  15
ENDBRANCH   6  14
BRANCH  12  22
ATOM     22  C   UNL     1       1.079   6.394   4.190  1.00  0.00     0.123 A 
ATOM     23  C   UNL     1       0.367   7.464   4.566  1.00  0.00     0.132 A 
ATOM     24  C   UNL     1       1.369   5.376   5.217  1.00  0.00     0.263 A 
ATOM     25  N   UNL     1      -0.150   7.663   5.826  1.00  0.00    -0.246 NA
ATOM     26  N   UNL     1       0.829   5.627   6.447  1.00  0.00    -0.312 N 
ATOM     27  O   UNL     1       2.046   4.374   5.012  1.00  0.00    -0.269 OA
ATOM     28  C   UNL     1       0.097   6.748   6.700  1.00  0.00     0.199 A 
ATOM     29  H   UNL     1       0.973   4.977   7.173  1.00  0.00     0.171 HD
ENDBRANCH  12  22
ENDBRANCH   4   6
ENDBRANCH   3   4
ENDBRANCH   2   3
ENDBRANCH   1   2
BRANCH   1  30
ATOM     30  O   UNL     1       1.931   2.989  -3.428  1.00  0.00    -0.458 OA
BRANCH  30  31
ATOM     31  C   UNL     1       1.890   2.573  -2.104  1.00  0.00     0.338 C 
ATOM     32  O   UNL     1       2.837   2.062  -1.529  1.00  0.00    -0.246 OA
BRANCH  31  33
ATOM     33  C   UNL     1       0.545   2.753  -1.474  1.00  0.00     0.060 A 
ATOM     34  C   UNL     1      -0.208   2.930   0.273  1.00  0.00     0.016 A 
ATOM     35  C   UNL     1      -0.490   2.925  -2.854  1.00  0.00     0.016 A 
ATOM     36  C   UNL     1      -1.998   3.491   0.331  1.00  0.00     0.010 A 
ATOM     37  C   UNL     1      -2.021   3.553  -2.709  1.00  0.00     0.010 A 
ATOM     38  C   UNL     1      -2.792   3.971  -1.221  1.00  0.00    -0.014 A 
BRANCH  38  39
ATOM     39  C   UNL     1      -3.800   5.110  -1.647  1.00  0.00     0.031 A 
ATOM     40  C   UNL     1      -3.886   6.543  -1.140  1.00  0.00     0.074 A 
ATOM     41  C   UNL     1      -4.389   5.020  -2.886  1.00  0.00     0.049 A 
ATOM     42  N   UNL     1      -4.982   7.200  -0.872  1.00  0.00    -0.248 NA
ATOM     43  C   UNL     1      -2.722   7.427  -1.046  1.00  0.00     0.031 C 
ATOM     44  C   UNL     1      -4.955   6.073  -3.744  1.00  0.00     0.029 A 
ATOM     45  N   UNL     1      -4.547   3.919  -3.712  1.00  0.00    -0.354 N 
ATOM     46  C   UNL     1      -4.645   8.559  -0.776  1.00  0.00     0.074 A 
ATOM     47  C   UNL     1      -3.217   8.601  -0.650  1.00  0.00     0.031 C 
ATOM     48  C   UNL     1      -5.597   5.516  -4.794  1.00  0.00     0.029 A 
ATOM     49  C   UNL     1      -5.590   4.078  -4.606  1.00  0.00     0.049 A 
ATOM     50  H   UNL     1      -3.980   3.115  -3.668  1.00  0.00     0.167 HD
ATOM     51  C   UNL     1      -5.441   9.590  -1.204  1.00  0.00     0.034 A 
ATOM     52  C   UNL     1      -6.647   3.206  -4.593  1.00  0.00     0.034 A 
ATOM     53  C   UNL     1      -6.467   9.091  -2.098  1.00  0.00     0.049 A 
ATOM     54  C   UNL     1      -7.863   3.920  -4.044  1.00  0.00     0.074 A 
ATOM     55  C   UNL     1      -6.606   9.178  -3.474  1.00  0.00     0.029 A 
ATOM     56  N   UNL     1      -7.404   8.187  -1.650  1.00  0.00    -0.354 N 
ATOM     57  N   UNL     1      -7.804   5.123  -3.551  1.00  0.00    -0.248 NA
ATOM     58  C   UNL     1      -9.209   3.367  -3.979  1.00  0.00     0.031 C 
ATOM     59  C   UNL     1      -7.623   8.275  -3.857  1.00  0.00     0.029 A 
ATOM     60  C   UNL     1      -8.112   7.671  -2.711  1.00  0.00     0.049 A 
ATOM     61  H   UNL     1      -7.547   7.944  -0.707  1.00  0.00     0.167 HD
ATOM     62  C   UNL     1      -9.022   5.509  -3.092  1.00  0.00     0.074 A 
ATOM     63  C   UNL     1      -9.882   4.384  -3.409  1.00  0.00     0.031 C 
ATOM     64  C   UNL     1      -9.178   6.718  -2.478  1.00  0.00     0.034 A 
BRANCH  51  65
ATOM     65  C   UNL     1      -5.149  11.094  -1.139  1.00  0.00     0.023 A 
ATOM     66  C   UNL     1      -5.881  11.987  -1.964  1.00  0.00     0.031 A 
ATOM     67  C   UNL     1      -4.271  11.718  -0.231  1.00  0.00     0.131 A 
ATOM     68  C   UNL     1      -5.691  13.383  -1.926  1.00  0.00     0.055 A 
ATOM     69  C   UNL     1      -4.066  13.113  -0.202  1.00  0.00     0.041 A 
ATOM     70  F   UNL     1      -3.607  11.012   0.698  1.00  0.00    -0.206 F 
ATOM     71  C   UNL     1      -4.772  13.953  -1.055  1.00  0.00     0.022 A 
BRANCH  68  72
ATOM     72  S   UNL     1      -6.686  14.440  -3.021  1.00  0.00     0.124 S 
ATOM     73  O   UNL     1      -6.273  13.987  -4.345  1.00  0.00    -0.237 OA
ATOM     74  O   UNL     1      -8.050  14.110  -2.622  1.00  0.00    -0.237 OA
ATOM     75  O   UNL     1      -6.256  15.794  -2.672  1.00  0.00    -0.744 OA
ENDBRANCH  68  72
ENDBRANCH  51  65
BRANCH  52  76
ATOM     76  C   UNL     1      -6.210   1.817  -4.195  1.00  0.00     0.023 A 
ATOM     77  C   UNL     1      -5.324   1.160  -5.091  1.00  0.00     0.031 A 
ATOM     78  C   UNL     1      -6.073   1.564  -2.821  1.00  0.00     0.131 A 
ATOM     79  C   UNL     1      -4.180   0.514  -4.595  1.00  0.00     0.055 A 
ATOM     80  C   UNL     1      -4.929   0.929  -2.343  1.00  0.00     0.041 A 
ATOM     81  F   UNL     1      -6.852   2.182  -1.921  1.00  0.00    -0.206 F 
ATOM     82  C   UNL     1      -3.957   0.440  -3.224  1.00  0.00     0.022 A 
BRANCH  79  83
ATOM     83  S   UNL     1      -2.836   0.066  -5.747  1.00  0.00     0.124 S 
ATOM     84  O   UNL     1      -3.424  -1.053  -6.475  1.00  0.00    -0.237 OA
ATOM     85  O   UNL     1      -2.654   1.300  -6.504  1.00  0.00    -0.237 OA
ATOM     86  O   UNL     1      -1.718  -0.278  -4.871  1.00  0.00    -0.744 OA
ENDBRANCH  79  83
ENDBRANCH  52  76
BRANCH  64  87
ATOM     87  C   UNL     1     -10.383   7.143  -1.694  1.00  0.00     0.023 A 
ATOM     88  C   UNL     1     -11.342   6.221  -1.282  1.00  0.00     0.031 A 
ATOM     89  C   UNL     1     -10.592   8.482  -1.284  1.00  0.00     0.131 A 
ATOM     90  C   UNL     1     -12.524   6.639  -0.664  1.00  0.00     0.055 A 
ATOM     91  C   UNL     1     -11.712   8.880  -0.554  1.00  0.00     0.041 A 
ATOM     92  F   UNL     1      -9.718   9.460  -1.567  1.00  0.00    -0.206 F 
ATOM     93  C   UNL     1     -12.711   7.960  -0.272  1.00  0.00     0.022 A 
BRANCH  90  94
ATOM     94  S   UNL     1     -13.845   5.416  -0.531  1.00  0.00     0.124 S 
ATOM     95  O   UNL     1     -14.087   5.088  -1.934  1.00  0.00    -0.237 OA
ATOM     96  O   UNL     1     -13.219   4.363   0.262  1.00  0.00    -0.237 OA
ATOM     97  O   UNL     1     -14.921   6.145   0.134  1.00  0.00    -0.744 OA
ENDBRANCH  90  94
ENDBRANCH  64  87
ENDBRANCH  38  39
ENDBRANCH  31  33
ENDBRANCH  30  31
ENDBRANCH   1  30
TORSDOF 17
