REMARK SMILES O=C(OCCOC(=O)[C@@H]1C=C[C@H](NC(=O)[C@@H]2Cc3ccccc3O2)C1)c1ccc(-c2c3nc(c(-c4cc(S(=O)(=O)[O-])ccc4F)c4ccc([nH]4)c(-c4cc(S(=O)(=O)[O-])ccc4F)c4nc(c(-c5cc(S(=O)(=O)[O-])ccc5F)c5ccc2[nH]5)C=C4)C=C3)cc1
REMARK SMILES IDX 4 1 3 2 2 3 1 4 26 5 27 6 88 7 28 8 87 9 29 10 30 11 31 12
REMARK SMILES IDX 81 13 32 14 86 15 80 16 82 17 33 18 85 19 79 20 78 21 34 23
REMARK SMILES IDX 66 24 46 25 65 26 47 27 50 28 64 29 83 30 48 31 49 32 63 34
REMARK SMILES IDX 84 35 51 36 35 37 36 38 44 39 37 40 43 41 45 42 42 43 38 44
REMARK SMILES IDX 39 45 40 46 41 47 67 48 68 49 76 50 69 51 75 52 77 53 74 54
REMARK SMILES IDX 70 55 71 56 72 57 73 58 52 59 53 60 61 61 54 62 60 63 62 64
REMARK SMILES IDX 59 65 55 66 56 67 57 68 58 69 5 70 6 71 7 72 8 73 9 74 10 75
REMARK SMILES IDX 25 76 11 77 12 78 13 79 14 80 15 82 16 83 17 84 24 85 18 86
REMARK SMILES IDX 23 87 19 88 22 89 20 90 21 91
REMARK H PARENT 82 22 50 33 13 81
REMARK Flexibility Score: inf
ROOT
ATOM      1  C   UNL     1      11.992  -1.211  13.200  1.00  0.00     0.275 C 
ENDROOT
BRANCH   1   2
ATOM      2  O   UNL     1      12.864  -0.762  12.144  1.00  0.00    -0.458 OA
BRANCH   2   3
ATOM      3  C   UNL     1      13.082  -1.260  10.902  1.00  0.00     0.338 C 
ATOM      4  O   UNL     1      13.958  -0.726  10.219  1.00  0.00    -0.246 OA
BRANCH   3   5
ATOM      5  C   UNL     1      12.252  -2.330  10.245  1.00  0.00     0.060 A 
ATOM      6  C   UNL     1      11.384  -3.213  10.888  1.00  0.00     0.016 A 
ATOM      7  C   UNL     1      12.337  -2.419   8.838  1.00  0.00     0.016 A 
ATOM      8  C   UNL     1      10.584  -4.103  10.169  1.00  0.00     0.010 A 
ATOM      9  C   UNL     1      11.540  -3.314   8.108  1.00  0.00     0.010 A 
ATOM     10  C   UNL     1      10.649  -4.160   8.777  1.00  0.00    -0.014 A 
BRANCH  10  11
ATOM     11  C   UNL     1       9.919  -5.251   8.089  1.00  0.00     0.031 A 
ATOM     12  C   UNL     1      10.706  -6.465   7.688  1.00  0.00     0.074 A 
ATOM     13  C   UNL     1       8.574  -5.238   7.982  1.00  0.00     0.049 A 
ATOM     14  N   UNL     1      10.293  -7.574   7.137  1.00  0.00    -0.248 NA
ATOM     15  C   UNL     1      12.149  -6.437   7.985  1.00  0.00     0.031 C 
ATOM     16  C   UNL     1       7.695  -4.169   8.457  1.00  0.00     0.029 A 
ATOM     17  N   UNL     1       7.703  -6.163   7.463  1.00  0.00    -0.354 N 
ATOM     18  C   UNL     1      11.411  -8.397   7.077  1.00  0.00     0.074 A 
ATOM     19  C   UNL     1      12.535  -7.629   7.563  1.00  0.00     0.031 C 
ATOM     20  C   UNL     1       6.417  -4.487   8.189  1.00  0.00     0.029 A 
ATOM     21  C   UNL     1       6.384  -5.765   7.491  1.00  0.00     0.049 A 
ATOM     22  H   UNL     1       7.995  -7.031   7.102  1.00  0.00     0.167 HD
ATOM     23  C   UNL     1      11.481  -9.694   6.693  1.00  0.00     0.034 A 
ATOM     24  C   UNL     1       5.285  -6.347   6.970  1.00  0.00     0.034 A 
ATOM     25  C   UNL     1      10.359 -10.423   6.163  1.00  0.00     0.049 A 
ATOM     26  C   UNL     1       5.447  -7.671   6.283  1.00  0.00     0.074 A 
ATOM     27  C   UNL     1      10.318 -11.717   5.679  1.00  0.00     0.029 A 
ATOM     28  N   UNL     1       9.075  -9.907   6.031  1.00  0.00    -0.354 N 
ATOM     29  N   UNL     1       6.524  -8.412   6.168  1.00  0.00    -0.248 NA
ATOM     30  C   UNL     1       4.246  -8.235   5.659  1.00  0.00     0.031 C 
ATOM     31  C   UNL     1       9.030 -11.958   5.189  1.00  0.00     0.029 A 
ATOM     32  C   UNL     1       8.244 -10.845   5.443  1.00  0.00     0.049 A 
ATOM     33  H   UNL     1       8.797  -9.006   6.314  1.00  0.00     0.167 HD
ATOM     34  C   UNL     1       6.116  -9.560   5.502  1.00  0.00     0.074 A 
ATOM     35  C   UNL     1       4.700  -9.402   5.230  1.00  0.00     0.031 C 
ATOM     36  C   UNL     1       6.840 -10.659   5.171  1.00  0.00     0.034 A 
BRANCH  23  37
ATOM     37  C   UNL     1      12.828 -10.360   6.800  1.00  0.00     0.023 A 
ATOM     38  C   UNL     1      13.452 -10.550   8.047  1.00  0.00     0.031 A 
ATOM     39  C   UNL     1      13.529 -10.743   5.645  1.00  0.00     0.131 A 
ATOM     40  C   UNL     1      14.766 -11.037   8.104  1.00  0.00     0.055 A 
ATOM     41  C   UNL     1      14.805 -11.304   5.714  1.00  0.00     0.041 A 
ATOM     42  F   UNL     1      12.995 -10.553   4.428  1.00  0.00    -0.206 F 
ATOM     43  C   UNL     1      15.438 -11.440   6.947  1.00  0.00     0.022 A 
BRANCH  40  44
ATOM     44  S   UNL     1      15.640 -10.989   9.693  1.00  0.00     0.124 S 
ATOM     45  O   UNL     1      15.627  -9.558   9.992  1.00  0.00    -0.237 OA
ATOM     46  O   UNL     1      14.800 -11.825  10.542  1.00  0.00    -0.237 OA
ATOM     47  O   UNL     1      16.955 -11.541   9.378  1.00  0.00    -0.744 OA
ENDBRANCH  40  44
ENDBRANCH  23  37
BRANCH  24  48
ATOM     48  C   UNL     1       3.986  -5.621   6.873  1.00  0.00     0.023 A 
ATOM     49  C   UNL     1       2.800  -6.036   7.494  1.00  0.00     0.031 A 
ATOM     50  C   UNL     1       3.908  -4.557   5.963  1.00  0.00     0.131 A 
ATOM     51  C   UNL     1       1.589  -5.392   7.170  1.00  0.00     0.055 A 
ATOM     52  C   UNL     1       2.719  -3.885   5.685  1.00  0.00     0.041 A 
ATOM     53  F   UNL     1       5.013  -4.182   5.309  1.00  0.00    -0.206 F 
ATOM     54  C   UNL     1       1.545  -4.304   6.293  1.00  0.00     0.022 A 
BRANCH  51  55
ATOM     55  S   UNL     1       0.032  -6.078   7.804  1.00  0.00     0.124 S 
ATOM     56  O   UNL     1       0.023  -7.399   7.185  1.00  0.00    -0.237 OA
ATOM     57  O   UNL     1       0.248  -6.045   9.246  1.00  0.00    -0.237 OA
ATOM     58  O   UNL     1      -0.979  -5.147   7.306  1.00  0.00    -0.744 OA
ENDBRANCH  51  55
ENDBRANCH  24  48
BRANCH  36  59
ATOM     59  C   UNL     1       6.070 -11.800   4.565  1.00  0.00     0.023 A 
ATOM     60  C   UNL     1       5.469 -11.700   3.301  1.00  0.00     0.031 A 
ATOM     61  C   UNL     1       5.879 -12.980   5.305  1.00  0.00     0.131 A 
ATOM     62  C   UNL     1       4.635 -12.731   2.849  1.00  0.00     0.055 A 
ATOM     63  C   UNL     1       5.115 -14.036   4.814  1.00  0.00     0.041 A 
ATOM     64  F   UNL     1       6.423 -13.117   6.525  1.00  0.00    -0.206 F 
ATOM     65  C   UNL     1       4.471 -13.907   3.587  1.00  0.00     0.022 A 
BRANCH  62  66
ATOM     66  S   UNL     1       3.656 -12.452   1.349  1.00  0.00     0.124 S 
ATOM     67  O   UNL     1       2.873 -11.277   1.717  1.00  0.00    -0.237 OA
ATOM     68  O   UNL     1       4.687 -12.239   0.339  1.00  0.00    -0.237 OA
ATOM     69  O   UNL     1       2.892 -13.690   1.205  1.00  0.00    -0.744 OA
ENDBRANCH  62  66
ENDBRANCH  36  59
ENDBRANCH  10  11
ENDBRANCH   3   5
ENDBRANCH   2   3
ENDBRANCH   1   2
BRANCH   1  70
ATOM     70  C   UNL     1      10.550  -0.711  13.068  1.00  0.00     0.274 C 
BRANCH  70  71
ATOM     71  O   UNL     1      10.124  -0.685  11.698  1.00  0.00    -0.462 OA
BRANCH  71  72
ATOM     72  C   UNL     1      10.124   0.531  11.079  1.00  0.00     0.312 C 
ATOM     73  O   UNL     1      10.293   1.600  11.659  1.00  0.00    -0.252 OA
BRANCH  72  74
ATOM     74  C   UNL     1      10.065   0.367   9.561  1.00  0.00     0.124 C 
ATOM     75  C   UNL     1       9.558   1.595   8.876  1.00  0.00    -0.014 C 
ATOM     76  C   UNL     1       9.112  -0.726   9.058  1.00  0.00     0.048 C 
ATOM     77  C   UNL     1       8.408   1.375   8.234  1.00  0.00    -0.006 C 
ATOM     78  C   UNL     1       7.939  -0.032   8.362  1.00  0.00     0.106 C 
BRANCH  78  79
ATOM     79  N   UNL     1       6.748  -0.053   9.175  1.00  0.00    -0.347 N 
ATOM     80  C   UNL     1       5.443  -0.000   8.782  1.00  0.00     0.261 C 
ATOM     81  H   UNL     1       6.897  -0.114  10.146  1.00  0.00     0.164 HD
ATOM     82  O   UNL     1       4.583  -0.025   9.667  1.00  0.00    -0.271 OA
BRANCH  80  83
ATOM     83  C   UNL     1       5.053   0.050   7.299  1.00  0.00     0.266 C 
ATOM     84  C   UNL     1       5.224  -1.305   6.607  1.00  0.00     0.095 C 
ATOM     85  O   UNL     1       5.761   1.063   6.552  1.00  0.00    -0.480 OA
ATOM     86  C   UNL     1       5.635  -0.845   5.261  1.00  0.00    -0.002 A 
ATOM     87  C   UNL     1       5.947   0.501   5.316  1.00  0.00     0.123 A 
ATOM     88  C   UNL     1       5.800  -1.556   4.085  1.00  0.00     0.008 A 
ATOM     89  C   UNL     1       6.440   1.181   4.221  1.00  0.00     0.047 A 
ATOM     90  C   UNL     1       6.281  -0.887   2.958  1.00  0.00     0.001 A 
ATOM     91  C   UNL     1       6.604   0.475   3.027  1.00  0.00     0.004 A 
ENDBRANCH  80  83
ENDBRANCH  78  79
ENDBRANCH  72  74
ENDBRANCH  71  72
ENDBRANCH  70  71
ENDBRANCH   1  70
TORSDOF 16
