REMARK SMILES O=C(OCCOC(=O)[C@H]1CCCN(C(=O)c2cc(Br)ccc2Cl)C1)c1ccc(-c2c3nc(c(-c4cc(S(=O)(=O)[O-])ccc4F)c4ccc([nH]4)c(-c4cc(S(=O)(=O)[O-])ccc4F)c4nc(c(-c5cc(S(=O)(=O)[O-])ccc5F)c5ccc2[nH]5)C=C4)C=C3)cc1
REMARK SMILES IDX 4 1 3 2 2 3 1 4 25 5 26 6 87 7 27 8 86 9 28 10 29 11 30 12
REMARK SMILES IDX 80 13 31 14 85 15 79 16 81 17 32 18 84 19 78 20 77 21 33 23
REMARK SMILES IDX 65 24 45 25 64 26 46 27 49 28 63 29 82 30 47 31 48 32 62 34
REMARK SMILES IDX 83 35 50 36 34 37 35 38 43 39 36 40 42 41 44 42 41 43 37 44
REMARK SMILES IDX 38 45 39 46 40 47 66 48 67 49 75 50 68 51 74 52 76 53 73 54
REMARK SMILES IDX 69 55 70 56 71 57 72 58 51 59 52 60 60 61 53 62 59 63 61 64
REMARK SMILES IDX 58 65 54 66 55 67 56 68 57 69 5 70 6 71 7 72 8 73 9 74 10 75
REMARK SMILES IDX 24 76 11 77 13 78 12 79 14 80 15 81 16 82 17 83 22 84 18 85
REMARK SMILES IDX 21 86 23 87 19 88 20 89
REMARK H PARENT 81 22 49 33
REMARK Flexibility Score: inf
ROOT
ATOM      1  C   UNL     1       5.432   1.169  -5.896  1.00  0.00     0.275 C 
ENDROOT
BRANCH   1   2
ATOM      2  O   UNL     1       6.142   0.854  -4.689  1.00  0.00    -0.458 OA
BRANCH   2   3
ATOM      3  C   UNL     1       6.111   1.470  -3.483  1.00  0.00     0.338 C 
ATOM      4  O   UNL     1       6.927   1.106  -2.635  1.00  0.00    -0.246 OA
BRANCH   3   5
ATOM      5  C   UNL     1       5.059   2.458  -3.062  1.00  0.00     0.060 A 
ATOM      6  C   UNL     1       4.299   3.296  -3.889  1.00  0.00     0.016 A 
ATOM      7  C   UNL     1       4.794   2.500  -1.683  1.00  0.00     0.016 A 
ATOM      8  C   UNL     1       3.230   4.059  -3.383  1.00  0.00     0.010 A 
ATOM      9  C   UNL     1       3.717   3.234  -1.180  1.00  0.00     0.010 A 
ATOM     10  C   UNL     1       2.906   4.008  -2.029  1.00  0.00    -0.014 A 
BRANCH  10  11
ATOM     11  C   UNL     1       1.856   4.865  -1.416  1.00  0.00     0.031 A 
ATOM     12  C   UNL     1       2.326   5.910  -0.446  1.00  0.00     0.074 A 
ATOM     13  C   UNL     1       0.535   4.665  -1.604  1.00  0.00     0.049 A 
ATOM     14  N   UNL     1       1.654   6.603   0.432  1.00  0.00    -0.248 NA
ATOM     15  C   UNL     1       3.777   6.157  -0.440  1.00  0.00     0.031 C 
ATOM     16  C   UNL     1      -0.069   3.716  -2.538  1.00  0.00     0.029 A 
ATOM     17  N   UNL     1      -0.548   5.212  -0.954  1.00  0.00    -0.354 N 
ATOM     18  C   UNL     1       2.605   7.381   1.079  1.00  0.00     0.074 A 
ATOM     19  C   UNL     1       3.901   6.941   0.613  1.00  0.00     0.031 C 
ATOM     20  C   UNL     1      -1.399   3.671  -2.328  1.00  0.00     0.029 A 
ATOM     21  C   UNL     1      -1.742   4.586  -1.246  1.00  0.00     0.049 A 
ATOM     22  H   UNL     1      -0.477   5.977  -0.338  1.00  0.00     0.167 HD
ATOM     23  C   UNL     1       2.419   8.429   1.918  1.00  0.00     0.034 A 
ATOM     24  C   UNL     1      -2.956   4.710  -0.672  1.00  0.00     0.034 A 
ATOM     25  C   UNL     1       1.125   8.838   2.385  1.00  0.00     0.049 A 
ATOM     26  C   UNL     1      -3.140   5.727   0.427  1.00  0.00     0.074 A 
ATOM     27  C   UNL     1       0.786   9.902   3.199  1.00  0.00     0.029 A 
ATOM     28  N   UNL     1      -0.057   8.170   2.084  1.00  0.00    -0.354 N 
ATOM     29  N   UNL     1      -2.244   6.505   0.990  1.00  0.00    -0.248 NA
ATOM     30  C   UNL     1      -4.503   5.903   0.948  1.00  0.00     0.031 C 
ATOM     31  C   UNL     1      -0.593   9.843   3.435  1.00  0.00     0.029 A 
ATOM     32  C   UNL     1      -1.123   8.781   2.716  1.00  0.00     0.049 A 
ATOM     33  H   UNL     1      -0.124   7.377   1.505  1.00  0.00     0.167 HD
ATOM     34  C   UNL     1      -2.950   7.321   1.869  1.00  0.00     0.074 A 
ATOM     35  C   UNL     1      -4.335   6.899   1.808  1.00  0.00     0.031 C 
ATOM     36  C   UNL     1      -2.499   8.357   2.620  1.00  0.00     0.034 A 
BRANCH  23  37
ATOM     37  C   UNL     1       3.669   9.164   2.337  1.00  0.00     0.023 A 
ATOM     38  C   UNL     1       4.521   9.724   1.365  1.00  0.00     0.031 A 
ATOM     39  C   UNL     1       4.106   9.155   3.670  1.00  0.00     0.131 A 
ATOM     40  C   UNL     1       5.831  10.082   1.708  1.00  0.00     0.055 A 
ATOM     41  C   UNL     1       5.371   9.630   4.025  1.00  0.00     0.041 A 
ATOM     42  F   UNL     1       3.342   8.626   4.638  1.00  0.00    -0.206 F 
ATOM     43  C   UNL     1       6.256  10.063   3.037  1.00  0.00     0.022 A 
BRANCH  40  44
ATOM     44  S   UNL     1       7.031  10.305   0.364  1.00  0.00     0.124 S 
ATOM     45  O   UNL     1       6.973   9.005  -0.301  1.00  0.00    -0.237 OA
ATOM     46  O   UNL     1       6.469  11.426  -0.380  1.00  0.00    -0.237 OA
ATOM     47  O   UNL     1       8.283  10.582   1.065  1.00  0.00    -0.744 OA
ENDBRANCH  40  44
ENDBRANCH  23  37
BRANCH  24  48
ATOM     48  C   UNL     1      -4.087   3.809  -1.040  1.00  0.00     0.023 A 
ATOM     49  C   UNL     1      -5.183   4.255  -1.798  1.00  0.00     0.031 A 
ATOM     50  C   UNL     1      -4.128   2.502  -0.525  1.00  0.00     0.131 A 
ATOM     51  C   UNL     1      -6.293   3.412  -1.984  1.00  0.00     0.055 A 
ATOM     52  C   UNL     1      -5.228   1.667  -0.729  1.00  0.00     0.041 A 
ATOM     53  F   UNL     1      -3.106   2.031   0.207  1.00  0.00    -0.206 F 
ATOM     54  C   UNL     1      -6.320   2.120  -1.458  1.00  0.00     0.022 A 
BRANCH  51  55
ATOM     55  S   UNL     1      -7.744   4.037  -2.878  1.00  0.00     0.124 S 
ATOM     56  O   UNL     1      -8.228   5.068  -1.968  1.00  0.00    -0.237 OA
ATOM     57  O   UNL     1      -7.153   4.506  -4.127  1.00  0.00    -0.237 OA
ATOM     58  O   UNL     1      -8.601   2.859  -3.003  1.00  0.00    -0.744 OA
ENDBRANCH  51  55
ENDBRANCH  24  48
BRANCH  36  59
ATOM     59  C   UNL     1      -3.529   9.196   3.326  1.00  0.00     0.023 A 
ATOM     60  C   UNL     1      -4.200   8.759   4.477  1.00  0.00     0.031 A 
ATOM     61  C   UNL     1      -3.796  10.491   2.844  1.00  0.00     0.131 A 
ATOM     62  C   UNL     1      -5.124   9.611   5.102  1.00  0.00     0.055 A 
ATOM     63  C   UNL     1      -4.678  11.349   3.497  1.00  0.00     0.041 A 
ATOM     64  F   UNL     1      -3.180  10.948   1.741  1.00  0.00    -0.206 F 
ATOM     65  C   UNL     1      -5.350  10.909   4.632  1.00  0.00     0.022 A 
BRANCH  62  66
ATOM     66  S   UNL     1      -6.057   8.993   6.529  1.00  0.00     0.124 S 
ATOM     67  O   UNL     1      -6.840   7.916   5.932  1.00  0.00    -0.237 OA
ATOM     68  O   UNL     1      -4.997   8.579   7.443  1.00  0.00    -0.237 OA
ATOM     69  O   UNL     1      -6.829  10.156   6.963  1.00  0.00    -0.744 OA
ENDBRANCH  62  66
ENDBRANCH  36  59
ENDBRANCH  10  11
ENDBRANCH   3   5
ENDBRANCH   2   3
ENDBRANCH   1   2
BRANCH   1  70
ATOM     70  C   UNL     1       4.062   0.496  -6.011  1.00  0.00     0.274 C 
BRANCH  70  71
ATOM     71  O   UNL     1       3.400   0.387  -4.742  1.00  0.00    -0.462 OA
BRANCH  71  72
ATOM     72  C   UNL     1       2.690  -0.757  -4.511  1.00  0.00     0.310 C 
ATOM     73  O   UNL     1       2.575  -1.666  -5.324  1.00  0.00    -0.252 OA
BRANCH  72  74
ATOM     74  C   UNL     1       2.071  -0.798  -3.115  1.00  0.00     0.119 C 
ATOM     75  C   UNL     1       2.201   0.538  -2.378  1.00  0.00     0.019 C 
ATOM     76  C   UNL     1       0.606  -1.232  -3.211  1.00  0.00     0.135 C 
ATOM     77  C   UNL     1       1.357   0.673  -1.115  1.00  0.00     0.022 C 
ATOM     78  N   UNL     1      -0.080  -1.060  -1.928  1.00  0.00    -0.338 N 
ATOM     79  C   UNL     1      -0.082   0.309  -1.421  1.00  0.00     0.120 C 
BRANCH  78  80
ATOM     80  C   UNL     1      -0.444  -2.161  -1.162  1.00  0.00     0.255 C 
ATOM     81  O   UNL     1      -0.163  -3.324  -1.435  1.00  0.00    -0.269 OA
BRANCH  80  82
ATOM     82  C   UNL     1      -1.187  -1.895   0.085  1.00  0.00     0.059 A 
ATOM     83  C   UNL     1      -0.499  -1.988   1.301  1.00  0.00     0.031 A 
ATOM     84  C   UNL     1      -2.521  -1.475   0.047  1.00  0.00     0.053 A 
ATOM     85  C   UNL     1      -1.145  -1.612   2.476  1.00  0.00     0.018 A 
ATOM     86  C   UNL     1      -3.151  -1.092   1.233  1.00  0.00     0.022 A 
ATOM     87  Cl  UNL     1      -3.415  -1.399  -1.427  1.00  0.00    -0.083 Cl
ATOM     88  Br  UNL     1      -0.229  -1.714   4.126  1.00  0.00    -0.051 Br
ATOM     89  C   UNL     1      -2.461  -1.148   2.447  1.00  0.00     0.017 A 
ENDBRANCH  80  82
ENDBRANCH  78  80
ENDBRANCH  72  74
ENDBRANCH  71  72
ENDBRANCH  70  71
ENDBRANCH   1  70
TORSDOF 16
