REMARK SMILES CC(C)N1C[C@@H](C(=O)N2CCC(C(=O)OCCOC(=O)c3ccc(-c4c5nc(c(-c6cc(S(=O)(=O)[O-])ccc6F)c6ccc([nH]6)c(-c6cc(S(=O)(=O)[O-])ccc6F)c6nc(c(-c7cc(S(=O)(=O)[O-])ccc7F)c7ccc4[nH]7)C=C6)C=C5)cc3)CC2)CC1=O
REMARK SMILES IDX 17 1 16 2 15 3 13 4 14 5 12 6 7 7 8 8 9 9 10 10 85 11 11 12
REMARK SMILES IDX 84 13 6 14 4 15 5 16 87 17 86 18 88 19 2 20 1 21 3 22 18 23
REMARK SMILES IDX 19 24 20 25 21 26 22 27 83 28 23 29 82 30 24 31 25 32 26 33
REMARK SMILES IDX 76 34 27 35 81 36 75 37 77 38 28 39 80 40 74 41 73 42 29 44
REMARK SMILES IDX 61 45 41 46 60 47 42 48 45 49 59 50 78 51 43 52 44 53 58 55
REMARK SMILES IDX 79 56 46 57 30 58 31 59 39 60 32 61 38 62 40 63 37 64 33 65
REMARK SMILES IDX 34 66 35 67 36 68 62 69 63 70 71 71 64 72 70 73 72 74 69 75
REMARK SMILES IDX 65 76 66 77 67 78 68 79 47 80 48 81 56 82 49 83 55 84 57 85
REMARK SMILES IDX 54 86 50 87 51 88 52 89 53 90
REMARK H PARENT 77 43 45 54
REMARK Flexibility Score: inf
ROOT
ATOM      1  C   UNL     1      -9.864  -5.136   5.867  1.00  0.00     0.275 C 
ENDROOT
BRANCH   1   2
ATOM      2  C   UNL     1      -9.743  -3.840   5.062  1.00  0.00     0.274 C 
BRANCH   2   3
ATOM      3  O   UNL     1      -8.459  -3.742   4.420  1.00  0.00    -0.462 OA
BRANCH   3   4
ATOM      4  C   UNL     1      -7.560  -2.908   5.000  1.00  0.00     0.309 C 
ATOM      5  O   UNL     1      -7.799  -2.182   5.958  1.00  0.00    -0.252 OA
BRANCH   4   6
ATOM      6  C   UNL     1      -6.188  -2.965   4.358  1.00  0.00     0.103 C 
ATOM      7  C   UNL     1      -4.139  -2.565   0.931  1.00  0.00     0.227 C 
ATOM      8  O   UNL     1      -4.828  -3.264   0.181  1.00  0.00    -0.274 OA
ATOM      9  N   UNL     1      -4.196  -2.734   2.303  1.00  0.00    -0.342 N 
ATOM     10  C   UNL     1      -4.549  -4.058   2.817  1.00  0.00     0.120 C 
ATOM     11  C   UNL     1      -4.355  -1.654   3.271  1.00  0.00     0.120 C 
ATOM     12  C   UNL     1      -5.981  -4.089   3.337  1.00  0.00     0.037 C 
ATOM     13  C   UNL     1      -5.808  -1.610   3.757  1.00  0.00     0.037 C 
BRANCH   7  14
ATOM     14  C   UNL     1      -3.066  -1.681   0.309  1.00  0.00     0.107 C 
ATOM     15  N   UNL     1      -0.859  -0.954   0.570  1.00  0.00    -0.339 N 
ATOM     16  C   UNL     1      -1.688  -2.114   0.777  1.00  0.00     0.133 C 
ATOM     17  C   UNL     1      -1.614   0.206   0.498  1.00  0.00     0.223 C 
ATOM     18  C   UNL     1      -3.079  -0.168   0.457  1.00  0.00     0.115 C 
ATOM     19  O   UNL     1      -1.204   1.355   0.479  1.00  0.00    -0.275 OA
BRANCH  15  20
ATOM     20  C   UNL     1       0.594  -1.036   0.731  1.00  0.00     0.078 C 
ATOM     21  C   UNL     1       1.353  -0.101  -0.210  1.00  0.00     0.031 C 
ATOM     22  C   UNL     1       1.007  -0.810   2.183  1.00  0.00     0.031 C 
ENDBRANCH  15  20
ENDBRANCH   7  14
ENDBRANCH   4   6
ENDBRANCH   3   4
ENDBRANCH   2   3
ENDBRANCH   1   2
BRANCH   1  23
ATOM     23  O   UNL     1      -8.956  -5.162   6.985  1.00  0.00    -0.458 OA
BRANCH  23  24
ATOM     24  C   UNL     1      -7.779  -5.790   6.749  1.00  0.00     0.338 C 
ATOM     25  O   UNL     1      -7.427  -6.330   5.715  1.00  0.00    -0.246 OA
BRANCH  24  26
ATOM     26  C   UNL     1      -6.887  -5.636   7.907  1.00  0.00     0.060 A 
ATOM     27  C   UNL     1      -5.783  -4.793   7.774  1.00  0.00     0.016 A 
ATOM     28  C   UNL     1      -7.059  -6.395   9.063  1.00  0.00     0.016 A 
ATOM     29  C   UNL     1      -4.830  -4.714   8.782  1.00  0.00     0.010 A 
ATOM     30  C   UNL     1      -6.109  -6.302  10.088  1.00  0.00     0.010 A 
ATOM     31  C   UNL     1      -4.981  -5.472   9.948  1.00  0.00    -0.014 A 
BRANCH  31  32
ATOM     32  C   UNL     1      -3.922  -5.437  10.987  1.00  0.00     0.031 A 
ATOM     33  C   UNL     1      -3.033  -6.633  11.184  1.00  0.00     0.074 A 
ATOM     34  C   UNL     1      -3.735  -4.324  11.721  1.00  0.00     0.049 A 
ATOM     35  N   UNL     1      -2.132  -6.854  12.105  1.00  0.00    -0.248 NA
ATOM     36  C   UNL     1      -3.183  -7.725  10.210  1.00  0.00     0.031 C 
ATOM     37  C   UNL     1      -4.486  -3.076  11.567  1.00  0.00     0.029 A 
ATOM     38  N   UNL     1      -2.858  -4.061  12.742  1.00  0.00    -0.354 N 
ATOM     39  C   UNL     1      -1.617  -8.118  11.837  1.00  0.00     0.074 A 
ATOM     40  C   UNL     1      -2.329  -8.622  10.680  1.00  0.00     0.031 C 
ATOM     41  C   UNL     1      -4.036  -2.182  12.461  1.00  0.00     0.029 A 
ATOM     42  C   UNL     1      -3.015  -2.810  13.293  1.00  0.00     0.049 A 
ATOM     43  H   UNL     1      -2.181  -4.706  13.052  1.00  0.00     0.167 HD
ATOM     44  C   UNL     1      -0.639  -8.790  12.494  1.00  0.00     0.034 A 
ATOM     45  C   UNL     1      -2.431  -2.252  14.372  1.00  0.00     0.034 A 
ATOM     46  C   UNL     1       0.055  -8.270  13.648  1.00  0.00     0.049 A 
ATOM     47  C   UNL     1      -1.419  -3.057  15.147  1.00  0.00     0.074 A 
ATOM     48  C   UNL     1       1.041  -8.873  14.409  1.00  0.00     0.029 A 
ATOM     49  N   UNL     1      -0.167  -7.019  14.210  1.00  0.00    -0.354 N 
ATOM     50  N   UNL     1      -0.978  -4.272  14.917  1.00  0.00    -0.248 NA
ATOM     51  C   UNL     1      -0.828  -2.416  16.328  1.00  0.00     0.031 C 
ATOM     52  C   UNL     1       1.375  -8.012  15.461  1.00  0.00     0.029 A 
ATOM     53  C   UNL     1       0.648  -6.841  15.318  1.00  0.00     0.049 A 
ATOM     54  H   UNL     1      -0.809  -6.354  13.871  1.00  0.00     0.167 HD
ATOM     55  C   UNL     1      -0.039  -4.529  15.912  1.00  0.00     0.074 A 
ATOM     56  C   UNL     1       0.033  -3.337  16.732  1.00  0.00     0.031 C 
ATOM     57  C   UNL     1       0.699  -5.648  16.129  1.00  0.00     0.034 A 
BRANCH  44  58
ATOM     58  C   UNL     1      -0.313 -10.181  12.009  1.00  0.00     0.023 A 
ATOM     59  C   UNL     1       0.244 -10.411  10.739  1.00  0.00     0.031 A 
ATOM     60  C   UNL     1      -0.601 -11.299  12.813  1.00  0.00     0.131 A 
ATOM     61  C   UNL     1       0.430 -11.725  10.283  1.00  0.00     0.055 A 
ATOM     62  C   UNL     1      -0.343 -12.602  12.383  1.00  0.00     0.041 A 
ATOM     63  F   UNL     1      -1.155 -11.143  14.025  1.00  0.00    -0.206 F 
ATOM     64  C   UNL     1       0.163 -12.822  11.105  1.00  0.00     0.022 A 
BRANCH  61  65
ATOM     65  S   UNL     1       0.894 -11.984   8.548  1.00  0.00     0.124 S 
ATOM     66  O   UNL     1      -0.217 -11.346   7.847  1.00  0.00    -0.237 OA
ATOM     67  O   UNL     1       2.180 -11.303   8.460  1.00  0.00    -0.237 OA
ATOM     68  O   UNL     1       0.948 -13.439   8.421  1.00  0.00    -0.744 OA
ENDBRANCH  61  65
ENDBRANCH  44  58
BRANCH  45  69
ATOM     69  C   UNL     1      -2.829  -0.888  14.828  1.00  0.00     0.023 A 
ATOM     70  C   UNL     1      -1.903   0.166  14.856  1.00  0.00     0.031 A 
ATOM     71  C   UNL     1      -4.130  -0.636  15.298  1.00  0.00     0.131 A 
ATOM     72  C   UNL     1      -2.277   1.410  15.387  1.00  0.00     0.055 A 
ATOM     73  C   UNL     1      -4.514   0.619  15.773  1.00  0.00     0.041 A 
ATOM     74  F   UNL     1      -5.054  -1.610  15.297  1.00  0.00    -0.206 F 
ATOM     75  C   UNL     1      -3.579   1.648  15.833  1.00  0.00     0.022 A 
BRANCH  72  76
ATOM     76  S   UNL     1      -1.006   2.690  15.576  1.00  0.00     0.124 S 
ATOM     77  O   UNL     1      -0.017   2.007  16.401  1.00  0.00    -0.237 OA
ATOM     78  O   UNL     1      -0.624   2.942  14.190  1.00  0.00    -0.237 OA
ATOM     79  O   UNL     1      -1.720   3.784  16.232  1.00  0.00    -0.744 OA
ENDBRANCH  72  76
ENDBRANCH  45  69
BRANCH  57  80
ATOM     80  C   UNL     1       1.681  -5.601  17.272  1.00  0.00     0.023 A 
ATOM     81  C   UNL     1       1.256  -5.558  18.611  1.00  0.00     0.031 A 
ATOM     82  C   UNL     1       3.063  -5.575  17.014  1.00  0.00     0.131 A 
ATOM     83  C   UNL     1       2.202  -5.434  19.640  1.00  0.00     0.055 A 
ATOM     84  C   UNL     1       4.002  -5.508  18.044  1.00  0.00     0.041 A 
ATOM     85  F   UNL     1       3.523  -5.613  15.752  1.00  0.00    -0.206 F 
ATOM     86  C   UNL     1       3.572  -5.423  19.365  1.00  0.00     0.022 A 
BRANCH  83  87
ATOM     87  S   UNL     1       1.615  -5.201  21.340  1.00  0.00     0.124 S 
ATOM     88  O   UNL     1       0.830  -3.976  21.225  1.00  0.00    -0.237 OA
ATOM     89  O   UNL     1       0.856  -6.424  21.580  1.00  0.00    -0.237 OA
ATOM     90  O   UNL     1       2.849  -5.076  22.115  1.00  0.00    -0.744 OA
ENDBRANCH  83  87
ENDBRANCH  57  80
ENDBRANCH  31  32
ENDBRANCH  24  26
ENDBRANCH  23  24
ENDBRANCH   1  23
TORSDOF 16
