REMARK SMILES CC(C)[C@@H](NC(=O)/C(=C\c1ccccc1F)NC(=O)c1ccccc1)C(=O)OCCOC(=O)c1ccc(-c2c3nc(c(-c4cc(S(=O)(=O)[O-])ccc4F)c4ccc([nH]4)c(-c4cc(S(=O)(=O)[O-])ccc4F)c4nc(c(-c5cc(S(=O)(=O)[O-])ccc5F)c5ccc2[nH]5)C=C4)C=C3)cc1
REMARK SMILES IDX 29 1 28 2 26 3 27 4 4 5 2 6 1 7 3 8 5 9 6 10 7 12 8 13 9 14
REMARK SMILES IDX 17 15 18 16 19 18 20 19 21 20 25 21 22 22 24 23 23 24 10 25
REMARK SMILES IDX 11 26 15 27 12 28 14 29 16 30 13 31 30 32 31 33 32 34 33 35
REMARK SMILES IDX 34 36 35 37 96 38 36 39 95 40 37 41 38 42 39 43 89 44 40 45
REMARK SMILES IDX 94 46 88 47 90 48 41 49 93 50 87 51 86 52 42 54 74 55 54 56
REMARK SMILES IDX 73 57 55 58 58 59 72 60 91 61 56 62 57 63 71 65 92 66 59 67
REMARK SMILES IDX 43 68 44 69 52 70 45 71 51 72 53 73 50 74 46 75 47 76 48 77
REMARK SMILES IDX 49 78 75 79 76 80 84 81 77 82 83 83 85 84 82 85 78 86 79 87
REMARK SMILES IDX 80 88 81 89 60 90 61 91 69 92 62 93 68 94 70 95 67 96 63 97
REMARK SMILES IDX 64 98 65 99 66 100
REMARK H PARENT 5 11 17 17 90 53 58 64
REMARK Flexibility Score: inf
ROOT
ATOM      1  C   UNL     1      -1.041  -2.873  -4.641  1.00  0.00     0.274 C 
ENDROOT
BRANCH   1   2
ATOM      2  O   UNL     1      -0.337  -2.152  -3.609  1.00  0.00    -0.461 OA
BRANCH   2   3
ATOM      3  C   UNL     1      -0.164  -0.803  -3.800  1.00  0.00     0.329 C 
ATOM      4  O   UNL     1      -0.334  -0.223  -4.864  1.00  0.00    -0.250 OA
BRANCH   3   5
ATOM      5  C   UNL     1       0.187  -0.126  -2.451  1.00  0.00     0.195 C 
BRANCH   5   6
ATOM      6  C   UNL     1       1.687   0.164  -2.237  1.00  0.00     0.017 C 
ATOM      7  C   UNL     1       1.924   0.802  -0.853  1.00  0.00     0.010 C 
ATOM      8  C   UNL     1       2.502  -1.134  -2.298  1.00  0.00     0.010 C 
ENDBRANCH   5   6
BRANCH   5   9
ATOM      9  N   UNL     1      -0.659   1.035  -2.152  1.00  0.00    -0.337 N 
ATOM     10  C   UNL     1      -1.968   1.019  -1.745  1.00  0.00     0.268 C 
ATOM     11  H   UNL     1      -0.242   1.921  -2.256  1.00  0.00     0.164 HD
ATOM     12  O   UNL     1      -2.429   1.958  -1.105  1.00  0.00    -0.268 OA
BRANCH  10  13
ATOM     13  C   UNL     1      -2.830  -0.108  -2.208  1.00  0.00     0.107 C 
ATOM     14  C   UNL     1      -2.812  -1.285  -1.549  1.00  0.00     0.043 C 
BRANCH  13  15
ATOM     15  N   UNL     1      -3.602   0.013  -3.354  1.00  0.00    -0.317 N 
ATOM     16  C   UNL     1      -3.894   1.064  -4.200  1.00  0.00     0.255 C 
ATOM     17  H   UNL     1      -4.035  -0.830  -3.620  1.00  0.00     0.170 HD
ATOM     18  O   UNL     1      -4.575   0.859  -5.206  1.00  0.00    -0.269 OA
BRANCH  16  19
ATOM     19  C   UNL     1      -3.502   2.450  -3.905  1.00  0.00     0.040 A 
ATOM     20  C   UNL     1      -4.462   3.309  -3.361  1.00  0.00     0.014 A 
ATOM     21  C   UNL     1      -2.214   2.910  -4.190  1.00  0.00     0.014 A 
ATOM     22  C   UNL     1      -4.103   4.612  -3.016  1.00  0.00     0.001 A 
ATOM     23  C   UNL     1      -1.854   4.207  -3.819  1.00  0.00     0.001 A 
ATOM     24  C   UNL     1      -2.794   5.052  -3.223  1.00  0.00     0.000 A 
ENDBRANCH  16  19
ENDBRANCH  13  15
BRANCH  14  25
ATOM     25  C   UNL     1      -1.993  -1.662  -0.377  1.00  0.00     0.012 A 
ATOM     26  C   UNL     1      -0.996  -2.644  -0.526  1.00  0.00     0.011 A 
ATOM     27  C   UNL     1      -2.153  -1.094   0.884  1.00  0.00     0.130 A 
ATOM     28  C   UNL     1      -0.162  -3.020   0.526  1.00  0.00     0.001 A 
ATOM     29  C   UNL     1      -1.332  -1.472   1.950  1.00  0.00     0.040 A 
ATOM     30  F   UNL     1      -3.113  -0.185   1.096  1.00  0.00    -0.206 F 
ATOM     31  C   UNL     1      -0.331  -2.429   1.769  1.00  0.00     0.003 A 
ENDBRANCH  14  25
ENDBRANCH  10  13
ENDBRANCH   5   9
ENDBRANCH   3   5
ENDBRANCH   2   3
ENDBRANCH   1   2
BRANCH   1  32
ATOM     32  C   UNL     1      -1.152  -4.370  -4.276  1.00  0.00     0.275 C 
BRANCH  32  33
ATOM     33  O   UNL     1      -1.923  -4.583  -3.068  1.00  0.00    -0.458 OA
BRANCH  33  34
ATOM     34  C   UNL     1      -1.958  -5.889  -2.642  1.00  0.00     0.338 C 
ATOM     35  O   UNL     1      -1.567  -6.840  -3.288  1.00  0.00    -0.246 OA
BRANCH  34  36
ATOM     36  C   UNL     1      -2.391  -5.991  -1.208  1.00  0.00     0.060 A 
ATOM     37  C   UNL     1      -3.033  -4.944  -0.559  1.00  0.00     0.016 A 
ATOM     38  C   UNL     1      -2.061  -7.119  -0.451  1.00  0.00     0.016 A 
ATOM     39  C   UNL     1      -3.155  -4.930   0.840  1.00  0.00     0.010 A 
ATOM     40  C   UNL     1      -2.312  -7.155   0.939  1.00  0.00     0.010 A 
ATOM     41  C   UNL     1      -2.818  -6.038   1.629  1.00  0.00    -0.014 A 
BRANCH  41  42
ATOM     42  C   UNL     1      -2.973  -6.035   3.133  1.00  0.00     0.031 A 
ATOM     43  C   UNL     1      -1.871  -6.573   4.030  1.00  0.00     0.074 A 
ATOM     44  C   UNL     1      -4.079  -5.554   3.750  1.00  0.00     0.049 A 
ATOM     45  N   UNL     1      -1.935  -6.972   5.277  1.00  0.00    -0.248 NA
ATOM     46  C   UNL     1      -0.526  -6.681   3.443  1.00  0.00     0.031 C 
ATOM     47  C   UNL     1      -5.215  -4.902   3.098  1.00  0.00     0.029 A 
ATOM     48  N   UNL     1      -4.429  -5.538   5.086  1.00  0.00    -0.354 N 
ATOM     49  C   UNL     1      -0.669  -7.460   5.596  1.00  0.00     0.074 A 
ATOM     50  C   UNL     1       0.151  -7.282   4.415  1.00  0.00     0.031 C 
ATOM     51  C   UNL     1      -6.093  -4.496   4.025  1.00  0.00     0.029 A 
ATOM     52  C   UNL     1      -5.672  -4.993   5.329  1.00  0.00     0.049 A 
ATOM     53  H   UNL     1      -3.845  -5.885   5.799  1.00  0.00     0.167 HD
ATOM     54  C   UNL     1      -0.236  -8.016   6.756  1.00  0.00     0.034 A 
ATOM     55  C   UNL     1      -6.446  -4.962   6.434  1.00  0.00     0.034 A 
ATOM     56  C   UNL     1      -1.021  -8.112   7.964  1.00  0.00     0.049 A 
ATOM     57  C   UNL     1      -5.993  -5.659   7.686  1.00  0.00     0.074 A 
ATOM     58  C   UNL     1      -0.656  -8.652   9.188  1.00  0.00     0.029 A 
ATOM     59  N   UNL     1      -2.314  -7.637   8.116  1.00  0.00    -0.354 N 
ATOM     60  N   UNL     1      -4.864  -6.285   7.914  1.00  0.00    -0.248 NA
ATOM     61  C   UNL     1      -6.939  -5.691   8.812  1.00  0.00     0.031 C 
ATOM     62  C   UNL     1      -1.744  -8.550  10.062  1.00  0.00     0.029 A 
ATOM     63  C   UNL     1      -2.766  -7.892   9.402  1.00  0.00     0.049 A 
ATOM     64  H   UNL     1      -2.836  -7.185   7.414  1.00  0.00     0.167 HD
ATOM     65  C   UNL     1      -4.967  -6.787   9.208  1.00  0.00     0.074 A 
ATOM     66  C   UNL     1      -6.260  -6.384   9.717  1.00  0.00     0.031 C 
ATOM     67  C   UNL     1      -4.063  -7.517   9.905  1.00  0.00     0.034 A 
BRANCH  54  68
ATOM     68  C   UNL     1       1.139  -8.639   6.778  1.00  0.00     0.023 A 
ATOM     69  C   UNL     1       2.315  -7.874   6.765  1.00  0.00     0.031 A 
ATOM     70  C   UNL     1       1.260 -10.039   6.877  1.00  0.00     0.131 A 
ATOM     71  C   UNL     1       3.563  -8.517   6.815  1.00  0.00     0.055 A 
ATOM     72  C   UNL     1       2.501 -10.667   6.989  1.00  0.00     0.041 A 
ATOM     73  F   UNL     1       0.167 -10.818   6.883  1.00  0.00    -0.206 F 
ATOM     74  C   UNL     1       3.663  -9.905   6.953  1.00  0.00     0.022 A 
BRANCH  71  75
ATOM     75  S   UNL     1       5.066  -7.519   6.627  1.00  0.00     0.124 S 
ATOM     76  O   UNL     1       4.907  -7.002   5.269  1.00  0.00    -0.237 OA
ATOM     77  O   UNL     1       4.935  -6.541   7.700  1.00  0.00    -0.237 OA
ATOM     78  O   UNL     1       6.146  -8.489   6.795  1.00  0.00    -0.744 OA
ENDBRANCH  71  75
ENDBRANCH  54  68
BRANCH  55  79
ATOM     79  C   UNL     1      -7.804  -4.348   6.364  1.00  0.00     0.023 A 
ATOM     80  C   UNL     1      -8.102  -3.163   7.053  1.00  0.00     0.031 A 
ATOM     81  C   UNL     1      -8.818  -4.938   5.587  1.00  0.00     0.131 A 
ATOM     82  C   UNL     1      -9.386  -2.604   6.949  1.00  0.00     0.055 A 
ATOM     83  C   UNL     1     -10.076  -4.354   5.450  1.00  0.00     0.041 A 
ATOM     84  F   UNL     1      -8.581  -6.076   4.914  1.00  0.00    -0.206 F 
ATOM     85  C   UNL     1     -10.367  -3.179   6.136  1.00  0.00     0.022 A 
BRANCH  82  86
ATOM     86  S   UNL     1      -9.772  -1.114   7.908  1.00  0.00     0.124 S 
ATOM     87  O   UNL     1      -9.728  -1.622   9.274  1.00  0.00    -0.237 OA
ATOM     88  O   UNL     1      -8.692  -0.211   7.523  1.00  0.00    -0.237 OA
ATOM     89  O   UNL     1     -11.098  -0.734   7.425  1.00  0.00    -0.744 OA
ENDBRANCH  82  86
ENDBRANCH  55  79
BRANCH  67  90
ATOM     90  C   UNL     1      -4.424  -7.915  11.310  1.00  0.00     0.023 A 
ATOM     91  C   UNL     1      -5.330  -8.957  11.567  1.00  0.00     0.031 A 
ATOM     92  C   UNL     1      -3.821  -7.270  12.404  1.00  0.00     0.131 A 
ATOM     93  C   UNL     1      -5.625  -9.312  12.892  1.00  0.00     0.055 A 
ATOM     94  C   UNL     1      -4.092  -7.650  13.719  1.00  0.00     0.041 A 
ATOM     95  F   UNL     1      -2.947  -6.270  12.208  1.00  0.00    -0.206 F 
ATOM     96  C   UNL     1      -5.000  -8.675  13.969  1.00  0.00     0.022 A 
BRANCH  93  97
ATOM     97  S   UNL     1      -6.846 -10.618  13.202  1.00  0.00     0.124 S 
ATOM     98  O   UNL     1      -8.085  -9.979  12.769  1.00  0.00    -0.237 OA
ATOM     99  O   UNL     1      -6.365 -11.710  12.363  1.00  0.00    -0.237 OA
ATOM    100  O   UNL     1      -6.739 -10.853  14.641  1.00  0.00    -0.744 OA
ENDBRANCH  93  97
ENDBRANCH  67  90
ENDBRANCH  41  42
ENDBRANCH  34  36
ENDBRANCH  33  34
ENDBRANCH  32  33
ENDBRANCH   1  32
TORSDOF 20
