REMARK SMILES Cc1ccc(S(=O)(=O)n2cc(C(=O)C(=O)N[C@@H](Cc3cnc[nH]3)C(=O)OCCOC(=O)c3ccc(-c4c5nc(c(-c6cc(S(=O)(=O)[O-])ccc6F)c6ccc([nH]6)c(-c6cc(S(=O)(=O)[O-])ccc6F)c6nc(c(-c7cc(S(=O)(=O)[O-])ccc7F)c7ccc4[nH]7)C=C6)C=C5)cc3)c3ccccc32)cc1
REMARK SMILES IDX 27 1 26 2 24 3 25 4 17 5 16 6 14 7 15 8 12 10 13 11 11 12
REMARK SMILES IDX 9 13 10 14 100 15 95 16 99 17 96 18 98 19 97 20 6 21 7 22
REMARK SMILES IDX 8 23 5 24 1 25 2 26 3 27 102 28 4 29 101 30 18 31 19 32
REMARK SMILES IDX 20 33 23 34 21 35 22 36 28 38 29 39 30 40 31 41 32 42 33 43
REMARK SMILES IDX 94 44 34 45 93 46 35 47 36 48 37 49 87 50 38 51 92 52 86 53
REMARK SMILES IDX 88 54 39 55 91 56 85 57 84 58 40 60 72 61 52 62 71 63 53 64
REMARK SMILES IDX 56 65 70 66 89 67 54 68 55 69 69 71 90 72 57 73 41 74 42 75
REMARK SMILES IDX 50 76 43 77 49 78 51 79 48 80 44 81 45 82 46 83 47 84 73 85
REMARK SMILES IDX 74 86 82 87 75 88 81 89 83 90 80 91 76 92 77 93 78 94 79 95
REMARK SMILES IDX 58 96 59 97 67 98 60 99 66 100 68 101 65 102 61 103 62 104
REMARK SMILES IDX 63 105 64 106
REMARK H PARENT 16 9 23 37 88 59 56 70
REMARK Flexibility Score: inf
ROOT
ATOM      1  C   UNL     1      -5.945   8.850   6.607  1.00  0.00     0.274 C 
ENDROOT
BRANCH   1   2
ATOM      2  O   UNL     1      -7.122   8.393   5.923  1.00  0.00    -0.461 OA
BRANCH   2   3
ATOM      3  C   UNL     1      -6.992   8.065   4.510  1.00  0.00     0.329 C 
ATOM      4  O   UNL     1      -6.103   8.851   4.096  1.00  0.00    -0.250 OA
BRANCH   3   5
ATOM      5  C   UNL     1      -8.042   6.385   3.551  1.00  0.00     0.198 C 
BRANCH   5   6
ATOM      6  N   UNL     1      -7.625   4.742   3.524  1.00  0.00    -0.335 N 
ATOM      7  C   UNL     1      -7.082   3.848   2.623  1.00  0.00     0.293 C 
ATOM      8  O   UNL     1      -7.094   2.660   2.946  1.00  0.00    -0.265 OA
ATOM      9  H   UNL     1      -7.823   4.308   4.385  1.00  0.00     0.164 HD
BRANCH   7  10
ATOM     10  C   UNL     1      -6.489   4.253   1.249  1.00  0.00     0.252 C 
ATOM     11  O   UNL     1      -6.947   5.245   0.687  1.00  0.00    -0.283 OA
BRANCH  10  12
ATOM     12  C   UNL     1      -5.469   3.409   0.568  1.00  0.00     0.054 A 
ATOM     13  N   UNL     1      -4.211   1.651  -0.039  1.00  0.00    -0.240 N 
ATOM     14  C   UNL     1      -5.071   2.127   0.919  1.00  0.00     0.117 A 
ATOM     15  C   UNL     1      -3.994   2.591  -1.022  1.00  0.00     0.065 A 
ATOM     16  C   UNL     1      -4.719   3.729  -0.629  1.00  0.00     0.012 A 
ATOM     17  C   UNL     1      -3.226   2.561  -2.203  1.00  0.00     0.028 A 
ATOM     18  C   UNL     1      -4.608   4.888  -1.431  1.00  0.00     0.011 A 
ATOM     19  C   UNL     1      -3.132   3.727  -2.963  1.00  0.00     0.002 A 
ATOM     20  C   UNL     1      -3.802   4.880  -2.577  1.00  0.00     0.001 A 
BRANCH  13  21
ATOM     21  S   UNL     1      -3.594   0.061  -0.057  1.00  0.00     0.268 S 
ATOM     22  O   UNL     1      -3.935  -0.466  -1.366  1.00  0.00    -0.201 OA
ATOM     23  O   UNL     1      -4.063  -0.572   1.162  1.00  0.00    -0.201 OA
BRANCH  21  24
ATOM     24  C   UNL     1      -1.822   0.111   0.040  1.00  0.00     0.088 A 
ATOM     25  C   UNL     1       2.483  -0.032   0.009  1.00  0.00     0.044 C 
ATOM     26  C   UNL     1       0.983   0.021   0.033  1.00  0.00    -0.051 A 
ATOM     27  C   UNL     1       0.241  -1.164  -0.027  1.00  0.00     0.005 A 
ATOM     28  C   UNL     1       0.307   1.245   0.125  1.00  0.00     0.005 A 
ATOM     29  C   UNL     1      -1.155  -1.120  -0.031  1.00  0.00     0.022 A 
ATOM     30  C   UNL     1      -1.091   1.294   0.143  1.00  0.00     0.022 A 
ENDBRANCH  21  24
ENDBRANCH  13  21
ENDBRANCH  10  12
ENDBRANCH   7  10
ENDBRANCH   5   6
BRANCH   5  31
ATOM     31  C   UNL     1      -9.776   5.988   3.357  1.00  0.00     0.092 C 
BRANCH  31  32
ATOM     32  C   UNL     1     -10.509   5.374   4.532  1.00  0.00     0.037 A 
ATOM     33  C   UNL     1     -10.541   4.104   5.069  1.00  0.00     0.134 A 
ATOM     34  N   UNL     1     -11.366   6.088   5.347  1.00  0.00    -0.348 N 
ATOM     35  N   UNL     1     -11.195   4.094   6.277  1.00  0.00    -0.245 NA
ATOM     36  C   UNL     1     -11.630   5.320   6.444  1.00  0.00     0.196 A 
ATOM     37  H   UNL     1     -11.721   6.988   5.169  1.00  0.00     0.167 HD
ENDBRANCH  31  32
ENDBRANCH   5  31
ENDBRANCH   3   5
ENDBRANCH   2   3
ENDBRANCH   1   2
BRANCH   1  38
ATOM     38  C   UNL     1      -5.019   7.660   6.895  1.00  0.00     0.275 C 
BRANCH  38  39
ATOM     39  O   UNL     1      -4.295   7.057   5.780  1.00  0.00    -0.458 OA
BRANCH  39  40
ATOM     40  C   UNL     1      -4.728   6.054   4.974  1.00  0.00     0.338 C 
ATOM     41  O   UNL     1      -4.028   5.151   4.539  1.00  0.00    -0.246 OA
BRANCH  40  42
ATOM     42  C   UNL     1      -6.069   6.242   4.414  1.00  0.00     0.060 A 
ATOM     43  C   UNL     1      -6.167   7.108   2.832  1.00  0.00     0.016 A 
ATOM     44  C   UNL     1      -7.461   6.271   5.549  1.00  0.00     0.016 A 
ATOM     45  C   UNL     1      -7.572   8.221   2.496  1.00  0.00     0.010 A 
ATOM     46  C   UNL     1      -8.842   7.378   5.202  1.00  0.00     0.010 A 
ATOM     47  C   UNL     1      -8.858   8.396   3.713  1.00  0.00    -0.014 A 
BRANCH  47  48
ATOM     48  C   UNL     1      -9.650   9.607   3.970  1.00  0.00     0.031 A 
ATOM     49  C   UNL     1     -11.084   9.396   4.185  1.00  0.00     0.074 A 
ATOM     50  C   UNL     1      -9.011  10.666   4.512  1.00  0.00     0.049 A 
ATOM     51  N   UNL     1     -11.679   9.488   5.330  1.00  0.00    -0.248 NA
ATOM     52  C   UNL     1     -11.910   8.833   3.110  1.00  0.00     0.031 C 
ATOM     53  C   UNL     1      -9.550  11.730   5.349  1.00  0.00     0.029 A 
ATOM     54  N   UNL     1      -7.743  11.117   4.186  1.00  0.00    -0.354 N 
ATOM     55  C   UNL     1     -13.009   9.211   5.101  1.00  0.00     0.074 A 
ATOM     56  C   UNL     1     -13.056   8.622   3.763  1.00  0.00     0.031 C 
ATOM     57  C   UNL     1      -8.768  12.819   5.232  1.00  0.00     0.029 A 
ATOM     58  C   UNL     1      -7.748  12.523   4.241  1.00  0.00     0.049 A 
ATOM     59  H   UNL     1      -6.971  10.551   3.956  1.00  0.00     0.167 HD
ATOM     60  C   UNL     1     -13.970  10.116   5.414  1.00  0.00     0.034 A 
ATOM     61  C   UNL     1      -7.582  13.181   3.053  1.00  0.00     0.034 A 
ATOM     62  C   UNL     1     -13.533  11.486   5.296  1.00  0.00     0.049 A 
ATOM     63  C   UNL     1      -8.927  13.639   2.497  1.00  0.00     0.074 A 
ATOM     64  C   UNL     1     -13.006  12.432   6.150  1.00  0.00     0.029 A 
ATOM     65  N   UNL     1     -13.404  11.996   4.021  1.00  0.00    -0.354 N 
ATOM     66  N   UNL     1     -10.082  13.326   3.029  1.00  0.00    -0.248 NA
ATOM     67  C   UNL     1      -9.088  14.468   1.306  1.00  0.00     0.031 C 
ATOM     68  C   UNL     1     -12.452  13.474   5.340  1.00  0.00     0.029 A 
ATOM     69  C   UNL     1     -12.700  13.179   4.008  1.00  0.00     0.049 A 
ATOM     70  H   UNL     1     -13.773  11.566   3.216  1.00  0.00     0.167 HD
ATOM     71  C   UNL     1     -11.102  13.906   2.333  1.00  0.00     0.074 A 
ATOM     72  C   UNL     1     -10.429  14.553   1.214  1.00  0.00     0.031 C 
ATOM     73  C   UNL     1     -12.411  13.826   2.733  1.00  0.00     0.034 A 
BRANCH  60  74
ATOM     74  C   UNL     1     -15.192   9.607   6.103  1.00  0.00     0.023 A 
ATOM     75  C   UNL     1     -16.079  10.527   6.676  1.00  0.00     0.031 A 
ATOM     76  C   UNL     1     -15.467   8.235   6.316  1.00  0.00     0.131 A 
ATOM     77  C   UNL     1     -17.144  10.086   7.476  1.00  0.00     0.055 A 
ATOM     78  C   UNL     1     -16.546   7.798   7.089  1.00  0.00     0.041 A 
ATOM     79  F   UNL     1     -14.675   7.275   5.806  1.00  0.00    -0.206 F 
ATOM     80  C   UNL     1     -17.385   8.728   7.688  1.00  0.00     0.022 A 
BRANCH  77  81
ATOM     81  S   UNL     1     -18.154  11.335   8.310  1.00  0.00     0.124 S 
ATOM     82  O   UNL     1     -17.165  12.022   9.134  1.00  0.00    -0.237 OA
ATOM     83  O   UNL     1     -18.695  12.091   7.186  1.00  0.00    -0.237 OA
ATOM     84  O   UNL     1     -19.132  10.540   9.052  1.00  0.00    -0.744 OA
ENDBRANCH  77  81
ENDBRANCH  60  74
BRANCH  61  85
ATOM     85  C   UNL     1      -6.420  12.575   2.308  1.00  0.00     0.023 A 
ATOM     86  C   UNL     1      -5.196  12.511   3.028  1.00  0.00     0.031 A 
ATOM     87  C   UNL     1      -6.594  11.670   1.253  1.00  0.00     0.131 A 
ATOM     88  C   UNL     1      -4.323  11.426   2.852  1.00  0.00     0.055 A 
ATOM     89  C   UNL     1      -5.655  10.655   1.005  1.00  0.00     0.041 A 
ATOM     90  F   UNL     1      -7.742  11.639   0.559  1.00  0.00    -0.206 F 
ATOM     91  C   UNL     1      -4.553  10.488   1.849  1.00  0.00     0.022 A 
BRANCH  88  92
ATOM     92  S   UNL     1      -3.073  11.099   4.141  1.00  0.00     0.124 S 
ATOM     93  O   UNL     1      -2.038  12.073   3.808  1.00  0.00    -0.237 OA
ATOM     94  O   UNL     1      -3.803  11.362   5.380  1.00  0.00    -0.237 OA
ATOM     95  O   UNL     1      -2.703   9.703   3.927  1.00  0.00    -0.744 OA
ENDBRANCH  88  92
ENDBRANCH  61  85
BRANCH  73  96
ATOM     96  C   UNL     1     -13.534  14.407   1.920  1.00  0.00     0.023 A 
ATOM     97  C   UNL     1     -13.379  15.627   1.260  1.00  0.00     0.031 A 
ATOM     98  C   UNL     1     -14.789  13.771   1.775  1.00  0.00     0.131 A 
ATOM     99  C   UNL     1     -14.352  16.078   0.361  1.00  0.00     0.055 A 
ATOM    100  C   UNL     1     -15.819  14.304   0.996  1.00  0.00     0.041 A 
ATOM    101  F   UNL     1     -15.045  12.574   2.322  1.00  0.00    -0.206 F 
ATOM    102  C   UNL     1     -15.589  15.448   0.248  1.00  0.00     0.022 A 
BRANCH  99 103
ATOM    103  S   UNL     1     -13.874  17.387  -0.789  1.00  0.00     0.124 S 
ATOM    104  O   UNL     1     -13.384  18.432   0.102  1.00  0.00    -0.237 OA
ATOM    105  O   UNL     1     -12.855  16.707  -1.586  1.00  0.00    -0.237 OA
ATOM    106  O   UNL     1     -15.115  17.692  -1.496  1.00  0.00    -0.744 OA
ENDBRANCH  99 103
ENDBRANCH  73  96
ENDBRANCH  47  48
ENDBRANCH  40  42
ENDBRANCH  39  40
ENDBRANCH  38  39
ENDBRANCH   1  38
TORSDOF 21
