REMARK SMILES C[C@H]1OCC[C@@H]1C(=O)Nc1sc2c(c1C(=O)OCCOC(=O)c1ccc(-c3c4nc(c(-c5cc(S(=O)(=O)[O-])ccc5F)c5ccc([nH]5)c(-c5cc(S(=O)(=O)[O-])ccc5F)c5nc(c(-c6cc(S(=O)(=O)[O-])ccc6F)c6ccc3[nH]6)C=C5)C=C4)cc1)CCC2
REMARK SMILES IDX 19 1 18 2 17 3 15 4 16 5 14 6 10 7 11 8 12 9 13 10 88 11
REMARK SMILES IDX 86 12 87 13 9 14 7 15 8 16 6 18 1 19 2 20 3 21 4 22 5 23
REMARK SMILES IDX 20 24 21 25 22 26 23 27 24 28 85 29 25 30 84 31 26 32 27 33
REMARK SMILES IDX 28 34 78 35 29 36 83 37 77 38 79 39 30 40 82 41 76 42 75 43
REMARK SMILES IDX 31 45 63 46 43 47 62 48 44 49 47 50 61 51 80 52 45 53 46 54
REMARK SMILES IDX 60 56 81 57 48 58 32 59 33 60 41 61 34 62 40 63 42 64 39 65
REMARK SMILES IDX 35 66 36 67 37 68 38 69 64 70 65 71 73 72 66 73 72 74 74 75
REMARK SMILES IDX 71 76 67 77 68 78 69 79 70 80 49 81 50 82 58 83 51 84 57 85
REMARK SMILES IDX 59 86 56 87 52 88 53 89 54 90 55 91
REMARK H PARENT 9 17 79 44 47 55
REMARK Flexibility Score: inf
ROOT
ATOM      1  C   UNL     1      -4.023  -0.189  -1.321  1.00  0.00     0.275 C 
ENDROOT
BRANCH   1   2
ATOM      2  C   UNL     1      -4.828  -0.239  -0.033  1.00  0.00     0.275 C 
BRANCH   2   3
ATOM      3  O   UNL     1      -4.035   0.200   1.089  1.00  0.00    -0.458 OA
BRANCH   3   4
ATOM      4  C   UNL     1      -3.391  -0.781   1.781  1.00  0.00     0.341 C 
ATOM      5  O   UNL     1      -3.513  -1.980   1.548  1.00  0.00    -0.246 OA
BRANCH   4   6
ATOM      6  C   UNL     1      -2.528  -0.264   2.838  1.00  0.00     0.098 A 
ATOM      7  C   UNL     1      -1.311  -0.847   3.169  1.00  0.00     0.110 A 
ATOM      8  S   UNL     1      -0.614  -0.251   4.616  1.00  0.00    -0.122 S 
ATOM      9  C   UNL     1      -1.620   1.074   4.518  1.00  0.00     0.011 A 
ATOM     10  C   UNL     1      -2.580   0.979   3.542  1.00  0.00    -0.017 A 
ATOM     11  C   UNL     1      -1.539   2.393   5.180  1.00  0.00     0.047 C 
ATOM     12  C   UNL     1      -3.292   2.279   3.399  1.00  0.00     0.038 C 
ATOM     13  C   UNL     1      -2.325   3.257   4.151  1.00  0.00     0.010 C 
BRANCH   7  14
ATOM     14  N   UNL     1      -0.517  -1.742   2.491  1.00  0.00    -0.317 N 
ATOM     15  C   UNL     1       0.567  -1.298   1.768  1.00  0.00     0.230 C 
ATOM     16  O   UNL     1       1.601  -1.969   1.878  1.00  0.00    -0.274 OA
ATOM     17  H   UNL     1      -0.725  -2.704   2.523  1.00  0.00     0.170 HD
BRANCH  15  18
ATOM     18  C   UNL     1       0.529  -0.139   0.761  1.00  0.00     0.110 C 
ATOM     19  C   UNL     1       2.823   0.673   0.037  1.00  0.00     0.039 C 
ATOM     20  C   UNL     1       1.629   0.909   0.957  1.00  0.00     0.127 C 
ATOM     21  O   UNL     1       1.047   2.187   0.586  1.00  0.00    -0.378 OA
ATOM     22  C   UNL     1      -0.118   1.903  -0.197  1.00  0.00     0.161 C 
ATOM     23  C   UNL     1      -0.691   0.710   0.515  1.00  0.00     0.044 C 
ENDBRANCH  15  18
ENDBRANCH   7  14
ENDBRANCH   4   6
ENDBRANCH   3   4
ENDBRANCH   2   3
ENDBRANCH   1   2
BRANCH   1  24
ATOM     24  O   UNL     1      -3.108  -1.291  -1.436  1.00  0.00    -0.458 OA
BRANCH  24  25
ATOM     25  C   UNL     1      -2.229  -1.037  -2.432  1.00  0.00     0.338 C 
ATOM     26  O   UNL     1      -2.179   0.001  -3.081  1.00  0.00    -0.246 OA
BRANCH  25  27
ATOM     27  C   UNL     1      -1.251  -2.102  -2.688  1.00  0.00     0.060 A 
ATOM     28  C   UNL     1      -0.304  -2.375  -1.703  1.00  0.00     0.016 A 
ATOM     29  C   UNL     1      -0.947  -2.249  -4.041  1.00  0.00     0.016 A 
ATOM     30  C   UNL     1       1.034  -2.446  -2.079  1.00  0.00     0.010 A 
ATOM     31  C   UNL     1       0.375  -2.366  -4.413  1.00  0.00     0.010 A 
ATOM     32  C   UNL     1       1.375  -2.332  -3.431  1.00  0.00    -0.014 A 
BRANCH  32  33
ATOM     33  C   UNL     1       2.784  -2.369  -3.859  1.00  0.00     0.031 A 
ATOM     34  C   UNL     1       3.479  -3.658  -3.564  1.00  0.00     0.074 A 
ATOM     35  C   UNL     1       3.253  -1.426  -4.714  1.00  0.00     0.049 A 
ATOM     36  N   UNL     1       4.732  -3.886  -3.334  1.00  0.00    -0.248 NA
ATOM     37  C   UNL     1       2.630  -4.863  -3.433  1.00  0.00     0.031 C 
ATOM     38  C   UNL     1       2.519  -0.233  -5.163  1.00  0.00     0.029 A 
ATOM     39  N   UNL     1       4.361  -1.425  -5.526  1.00  0.00    -0.354 N 
ATOM     40  C   UNL     1       4.846  -5.274  -3.262  1.00  0.00     0.074 A 
ATOM     41  C   UNL     1       3.521  -5.799  -3.132  1.00  0.00     0.031 C 
ATOM     42  C   UNL     1       3.038   0.192  -6.332  1.00  0.00     0.029 A 
ATOM     43  C   UNL     1       4.170  -0.652  -6.678  1.00  0.00     0.049 A 
ATOM     44  H   UNL     1       5.192  -1.911  -5.321  1.00  0.00     0.167 HD
ATOM     45  C   UNL     1       5.984  -5.921  -3.621  1.00  0.00     0.034 A 
ATOM     46  C   UNL     1       4.776  -0.776  -7.891  1.00  0.00     0.034 A 
ATOM     47  C   UNL     1       7.149  -5.101  -3.412  1.00  0.00     0.049 A 
ATOM     48  C   UNL     1       6.001  -1.585  -7.708  1.00  0.00     0.074 A 
ATOM     49  C   UNL     1       7.665  -4.436  -2.316  1.00  0.00     0.029 A 
ATOM     50  N   UNL     1       7.826  -4.607  -4.501  1.00  0.00    -0.354 N 
ATOM     51  N   UNL     1       7.052  -1.187  -7.050  1.00  0.00    -0.248 NA
ATOM     52  C   UNL     1       5.919  -3.021  -7.933  1.00  0.00     0.031 C 
ATOM     53  C   UNL     1       8.276  -3.265  -2.841  1.00  0.00     0.029 A 
ATOM     54  C   UNL     1       8.143  -3.300  -4.229  1.00  0.00     0.049 A 
ATOM     55  H   UNL     1       8.044  -5.101  -5.325  1.00  0.00     0.167 HD
ATOM     56  C   UNL     1       7.528  -2.324  -6.419  1.00  0.00     0.074 A 
ATOM     57  C   UNL     1       6.875  -3.437  -7.099  1.00  0.00     0.031 C 
ATOM     58  C   UNL     1       8.177  -2.244  -5.221  1.00  0.00     0.034 A 
BRANCH  45  59
ATOM     59  C   UNL     1       5.971  -7.146  -4.515  1.00  0.00     0.023 A 
ATOM     60  C   UNL     1       7.210  -7.731  -4.823  1.00  0.00     0.031 A 
ATOM     61  C   UNL     1       4.876  -7.579  -5.306  1.00  0.00     0.131 A 
ATOM     62  C   UNL     1       7.345  -8.589  -5.928  1.00  0.00     0.055 A 
ATOM     63  C   UNL     1       5.002  -8.496  -6.351  1.00  0.00     0.041 A 
ATOM     64  F   UNL     1       3.640  -7.079  -5.183  1.00  0.00    -0.206 F 
ATOM     65  C   UNL     1       6.250  -8.978  -6.694  1.00  0.00     0.022 A 
BRANCH  62  66
ATOM     66  S   UNL     1       9.018  -9.011  -6.475  1.00  0.00     0.124 S 
ATOM     67  O   UNL     1       9.633  -7.691  -6.568  1.00  0.00    -0.237 OA
ATOM     68  O   UNL     1       9.479  -9.864  -5.386  1.00  0.00    -0.237 OA
ATOM     69  O   UNL     1       8.795  -9.688  -7.750  1.00  0.00    -0.744 OA
ENDBRANCH  62  66
ENDBRANCH  45  59
BRANCH  46  70
ATOM     70  C   UNL     1       4.193  -0.474  -9.235  1.00  0.00     0.023 A 
ATOM     71  C   UNL     1       4.992  -0.272 -10.381  1.00  0.00     0.031 A 
ATOM     72  C   UNL     1       2.800  -0.580  -9.456  1.00  0.00     0.131 A 
ATOM     73  C   UNL     1       4.393  -0.154 -11.659  1.00  0.00     0.055 A 
ATOM     74  C   UNL     1       2.211  -0.428 -10.713  1.00  0.00     0.041 A 
ATOM     75  F   UNL     1       1.958  -0.920  -8.467  1.00  0.00    -0.206 F 
ATOM     76  C   UNL     1       3.008  -0.219 -11.824  1.00  0.00     0.022 A 
BRANCH  73  77
ATOM     77  S   UNL     1       5.425  -0.034 -13.157  1.00  0.00     0.124 S 
ATOM     78  O   UNL     1       5.973   1.312 -13.051  1.00  0.00    -0.237 OA
ATOM     79  O   UNL     1       6.363  -1.136 -12.981  1.00  0.00    -0.237 OA
ATOM     80  O   UNL     1       4.465  -0.221 -14.247  1.00  0.00    -0.744 OA
ENDBRANCH  73  77
ENDBRANCH  46  70
BRANCH  58  81
ATOM     81  C   UNL     1       8.729  -0.907  -4.777  1.00  0.00     0.023 A 
ATOM     82  C   UNL     1       7.966   0.273  -4.643  1.00  0.00     0.031 A 
ATOM     83  C   UNL     1      10.069  -0.871  -4.351  1.00  0.00     0.131 A 
ATOM     84  C   UNL     1       8.556   1.435  -4.109  1.00  0.00     0.055 A 
ATOM     85  C   UNL     1      10.643   0.274  -3.801  1.00  0.00     0.041 A 
ATOM     86  F   UNL     1      10.839  -1.970  -4.426  1.00  0.00    -0.206 F 
ATOM     87  C   UNL     1       9.888   1.435  -3.684  1.00  0.00     0.022 A 
BRANCH  84  88
ATOM     88  S   UNL     1       7.599   2.977  -3.972  1.00  0.00     0.124 S 
ATOM     89  O   UNL     1       6.951   3.095  -5.273  1.00  0.00    -0.237 OA
ATOM     90  O   UNL     1       6.720   2.701  -2.839  1.00  0.00    -0.237 OA
ATOM     91  O   UNL     1       8.625   3.989  -3.711  1.00  0.00    -0.744 OA
ENDBRANCH  84  88
ENDBRANCH  58  81
ENDBRANCH  32  33
ENDBRANCH  25  27
ENDBRANCH  24  25
ENDBRANCH   1  24
TORSDOF 16
