REMARK SMILES Cc1cccc(-c2ccc(Cl)c(C(=O)OCCOC(=O)c3ccc(-c4c5nc(c(-c6cc(S(=O)(=O)[O-])ccc6F)c6ccc([nH]6)c(-c6cc(S(=O)(=O)[O-])ccc6F)c6nc(c(-c7cc(S(=O)(=O)[O-])ccc7F)c7ccc4[nH]7)C=C6)C=C5)cc3)c2)c1
REMARK SMILES IDX 17 1 16 2 15 3 13 4 14 5 12 6 7 7 8 8 84 9 9 10 10 11 11 12
REMARK SMILES IDX 6 13 1 14 2 15 3 16 85 17 4 18 5 19 18 20 19 21 20 22 21 23
REMARK SMILES IDX 22 24 83 25 23 26 82 27 24 28 25 29 26 30 76 31 27 32 81 33
REMARK SMILES IDX 75 34 77 35 28 36 80 37 74 38 73 39 29 41 61 42 41 43 60 44
REMARK SMILES IDX 42 45 45 46 59 47 78 48 43 49 44 50 58 52 79 53 46 54 30 55
REMARK SMILES IDX 31 56 39 57 32 58 38 59 40 60 37 61 33 62 34 63 35 64 36 65
REMARK SMILES IDX 62 66 63 67 71 68 64 69 70 70 72 71 69 72 65 73 66 74 67 75
REMARK SMILES IDX 68 76 47 77 48 78 56 79 49 80 55 81 57 82 54 83 50 84 51 85
REMARK SMILES IDX 52 86 53 87
REMARK H PARENT 77 40 45 51
REMARK Flexibility Score: inf
ROOT
ATOM      1  C   UNL     1      -7.926   4.472   1.635  1.00  0.00     0.275 C 
ENDROOT
BRANCH   1   2
ATOM      2  C   UNL     1      -6.923   5.339   0.860  1.00  0.00     0.275 C 
BRANCH   2   3
ATOM      3  O   UNL     1      -5.995   4.575   0.062  1.00  0.00    -0.458 OA
BRANCH   3   4
ATOM      4  C   UNL     1      -4.797   5.199  -0.063  1.00  0.00     0.339 C 
ATOM      5  O   UNL     1      -4.532   6.300   0.397  1.00  0.00    -0.246 OA
BRANCH   4   6
ATOM      6  C   UNL     1      -3.790   4.484  -0.875  1.00  0.00     0.079 A 
ATOM      7  C   UNL     1      -2.055   2.743  -1.013  1.00  0.00    -0.017 A 
ATOM      8  C   UNL     1      -1.417   3.539  -1.984  1.00  0.00     0.010 A 
ATOM      9  C   UNL     1      -3.285   3.218  -0.503  1.00  0.00     0.026 A 
ATOM     10  C   UNL     1      -1.957   4.748  -2.422  1.00  0.00     0.022 A 
ATOM     11  C   UNL     1      -3.138   5.225  -1.867  1.00  0.00     0.055 A 
ATOM     12  Cl  UNL     1      -3.750   6.721  -2.488  1.00  0.00    -0.083 Cl
BRANCH   7  13
ATOM     13  C   UNL     1      -1.391   1.488  -0.563  1.00  0.00    -0.018 A 
ATOM     14  C   UNL     1       2.200   0.218  -0.007  1.00  0.00     0.044 C 
ATOM     15  C   UNL     1       0.701   0.247  -0.101  1.00  0.00    -0.051 A 
ATOM     16  C   UNL     1      -0.034  -0.927   0.058  1.00  0.00     0.003 A 
ATOM     17  C   UNL     1       0.015   1.438  -0.397  1.00  0.00     0.012 A 
ATOM     18  C   UNL     1      -1.425  -0.898  -0.046  1.00  0.00     0.001 A 
ATOM     19  C   UNL     1      -2.097   0.296  -0.349  1.00  0.00     0.009 A 
ENDBRANCH   7  13
ENDBRANCH   4   6
ENDBRANCH   3   4
ENDBRANCH   2   3
ENDBRANCH   1   2
BRANCH   1  20
ATOM     20  O   UNL     1      -7.554   3.090   1.891  1.00  0.00    -0.458 OA
BRANCH  20  21
ATOM     21  C   UNL     1      -6.311   2.634   2.216  1.00  0.00     0.338 C 
ATOM     22  O   UNL     1      -5.869   1.590   1.736  1.00  0.00    -0.246 OA
BRANCH  21  23
ATOM     23  C   UNL     1      -5.437   3.546   2.981  1.00  0.00     0.060 A 
ATOM     24  C   UNL     1      -4.048   3.514   2.768  1.00  0.00     0.016 A 
ATOM     25  C   UNL     1      -6.005   4.538   3.764  1.00  0.00     0.016 A 
ATOM     26  C   UNL     1      -3.251   4.562   3.199  1.00  0.00     0.010 A 
ATOM     27  C   UNL     1      -5.272   5.662   4.020  1.00  0.00     0.010 A 
ATOM     28  C   UNL     1      -3.889   5.643   3.795  1.00  0.00    -0.014 A 
BRANCH  28  29
ATOM     29  C   UNL     1      -3.184   6.671   4.537  1.00  0.00     0.031 A 
ATOM     30  C   UNL     1      -2.455   7.728   3.830  1.00  0.00     0.074 A 
ATOM     31  C   UNL     1      -3.374   6.530   5.868  1.00  0.00     0.049 A 
ATOM     32  N   UNL     1      -1.406   8.322   4.270  1.00  0.00    -0.248 NA
ATOM     33  C   UNL     1      -2.810   8.164   2.481  1.00  0.00     0.031 C 
ATOM     34  C   UNL     1      -3.084   7.372   7.007  1.00  0.00     0.029 A 
ATOM     35  N   UNL     1      -3.786   5.331   6.456  1.00  0.00    -0.354 N 
ATOM     36  C   UNL     1      -1.250   9.461   3.500  1.00  0.00     0.074 A 
ATOM     37  C   UNL     1      -1.975   9.191   2.290  1.00  0.00     0.031 C 
ATOM     38  C   UNL     1      -3.010   6.585   8.104  1.00  0.00     0.029 A 
ATOM     39  C   UNL     1      -3.135   5.194   7.668  1.00  0.00     0.049 A 
ATOM     40  H   UNL     1      -4.430   4.692   6.072  1.00  0.00     0.167 HD
ATOM     41  C   UNL     1      -0.760  10.585   4.100  1.00  0.00     0.034 A 
ATOM     42  C   UNL     1      -2.165   4.229   7.710  1.00  0.00     0.034 A 
ATOM     43  C   UNL     1      -0.430  10.271   5.493  1.00  0.00     0.049 A 
ATOM     44  C   UNL     1      -0.805   4.888   7.776  1.00  0.00     0.074 A 
ATOM     45  C   UNL     1      -1.133  10.454   6.672  1.00  0.00     0.029 A 
ATOM     46  N   UNL     1       0.537   9.310   5.755  1.00  0.00    -0.354 N 
ATOM     47  N   UNL     1      -0.520   6.058   7.262  1.00  0.00    -0.248 NA
ATOM     48  C   UNL     1       0.291   4.327   8.551  1.00  0.00     0.031 C 
ATOM     49  C   UNL     1      -0.651   9.499   7.612  1.00  0.00     0.029 A 
ATOM     50  C   UNL     1       0.343   8.749   7.003  1.00  0.00     0.049 A 
ATOM     51  H   UNL     1       1.262   9.063   5.136  1.00  0.00     0.167 HD
ATOM     52  C   UNL     1       0.708   6.466   7.717  1.00  0.00     0.074 A 
ATOM     53  C   UNL     1       1.178   5.334   8.506  1.00  0.00     0.031 C 
ATOM     54  C   UNL     1       1.241   7.703   7.462  1.00  0.00     0.034 A 
BRANCH  41  55
ATOM     55  C   UNL     1      -0.899  12.014   3.604  1.00  0.00     0.023 A 
ATOM     56  C   UNL     1      -0.762  13.062   4.543  1.00  0.00     0.031 A 
ATOM     57  C   UNL     1      -1.189  12.431   2.290  1.00  0.00     0.131 A 
ATOM     58  C   UNL     1      -0.976  14.410   4.197  1.00  0.00     0.055 A 
ATOM     59  C   UNL     1      -1.423  13.773   1.946  1.00  0.00     0.041 A 
ATOM     60  F   UNL     1      -1.222  11.579   1.261  1.00  0.00    -0.206 F 
ATOM     61  C   UNL     1      -1.324  14.772   2.902  1.00  0.00     0.022 A 
BRANCH  58  62
ATOM     62  S   UNL     1      -0.792  15.684   5.474  1.00  0.00     0.124 S 
ATOM     63  O   UNL     1      -1.839  15.322   6.424  1.00  0.00    -0.237 OA
ATOM     64  O   UNL     1       0.583  15.484   5.918  1.00  0.00    -0.237 OA
ATOM     65  O   UNL     1      -1.026  16.931   4.746  1.00  0.00    -0.744 OA
ENDBRANCH  58  62
ENDBRANCH  41  55
BRANCH  42  66
ATOM     66  C   UNL     1      -2.526   2.965   6.956  1.00  0.00     0.023 A 
ATOM     67  C   UNL     1      -3.833   2.444   7.147  1.00  0.00     0.031 A 
ATOM     68  C   UNL     1      -1.799   2.442   5.879  1.00  0.00     0.131 A 
ATOM     69  C   UNL     1      -4.434   1.600   6.198  1.00  0.00     0.055 A 
ATOM     70  C   UNL     1      -2.369   1.515   4.982  1.00  0.00     0.041 A 
ATOM     71  F   UNL     1      -0.558   2.876   5.614  1.00  0.00    -0.206 F 
ATOM     72  C   UNL     1      -3.705   1.121   5.113  1.00  0.00     0.022 A 
BRANCH  69  73
ATOM     73  S   UNL     1      -6.245   1.406   6.260  1.00  0.00     0.124 S 
ATOM     74  O   UNL     1      -6.414   0.422   7.324  1.00  0.00    -0.237 OA
ATOM     75  O   UNL     1      -6.695   2.763   6.569  1.00  0.00    -0.237 OA
ATOM     76  O   UNL     1      -6.596   0.950   4.919  1.00  0.00    -0.744 OA
ENDBRANCH  69  73
ENDBRANCH  42  66
BRANCH  54  77
ATOM     77  C   UNL     1       2.687   8.081   7.681  1.00  0.00     0.023 A 
ATOM     78  C   UNL     1       3.687   7.127   7.869  1.00  0.00     0.031 A 
ATOM     79  C   UNL     1       3.127   9.427   7.599  1.00  0.00     0.131 A 
ATOM     80  C   UNL     1       5.015   7.509   8.094  1.00  0.00     0.055 A 
ATOM     81  C   UNL     1       4.471   9.792   7.680  1.00  0.00     0.041 A 
ATOM     82  F   UNL     1       2.278  10.450   7.426  1.00  0.00    -0.206 F 
ATOM     83  C   UNL     1       5.427   8.830   7.959  1.00  0.00     0.022 A 
BRANCH  80  84
ATOM     84  S   UNL     1       6.147   6.239   8.700  1.00  0.00     0.124 S 
ATOM     85  O   UNL     1       5.519   5.863   9.964  1.00  0.00    -0.237 OA
ATOM     86  O   UNL     1       6.089   5.234   7.644  1.00  0.00    -0.237 OA
ATOM     87  O   UNL     1       7.420   6.945   8.824  1.00  0.00    -0.744 OA
ENDBRANCH  80  84
ENDBRANCH  54  77
ENDBRANCH  28  29
ENDBRANCH  21  23
ENDBRANCH  20  21
ENDBRANCH   1  20
TORSDOF 15
