REMARK SMILES C[C@H](C(=O)OCCOC(=O)c1ccc(-c2c3nc(c(-c4cc(S(=O)(=O)[O-])ccc4F)c4ccc([nH]4)c(-c4cc(S(=O)(=O)[O-])ccc4F)c4nc(c(-c5cc(S(=O)(=O)[O-])ccc5F)c5ccc2[nH]5)C=C4)C=C3)cc1)c1ccc2c(c1)OCCO2
REMARK SMILES IDX 7 1 6 2 5 3 3 4 4 5 2 6 1 7 74 8 75 9 79 10 76 11 78 12
REMARK SMILES IDX 77 13 80 14 83 15 81 16 82 17 8 18 9 19 10 20 11 21 12 22
REMARK SMILES IDX 73 23 13 24 72 25 14 26 15 27 16 28 66 29 17 30 71 31 65 32
REMARK SMILES IDX 67 33 18 34 70 35 64 36 63 37 19 39 51 40 31 41 50 42 32 43
REMARK SMILES IDX 35 44 49 45 68 46 33 47 34 48 48 50 69 51 36 52 20 53 21 54
REMARK SMILES IDX 29 55 22 56 28 57 30 58 27 59 23 60 24 61 25 62 26 63 52 64
REMARK SMILES IDX 53 65 61 66 54 67 60 68 62 69 59 70 55 71 56 72 57 73 58 74
REMARK SMILES IDX 37 75 38 76 46 77 39 78 45 79 47 80 44 81 40 82 41 83 42 84
REMARK SMILES IDX 43 85
REMARK H PARENT 67 38 35 49
REMARK Flexibility Score: inf
ROOT
ATOM      1  C   UNL     1       0.576  -1.047  -2.091  1.00  0.00     0.275 C 
ENDROOT
BRANCH   1   2
ATOM      2  C   UNL     1       1.420  -1.616  -0.954  1.00  0.00     0.274 C 
BRANCH   2   3
ATOM      3  O   UNL     1       0.916  -1.159   0.315  1.00  0.00    -0.462 OA
BRANCH   3   4
ATOM      4  C   UNL     1       1.565  -0.122   0.926  1.00  0.00     0.313 C 
ATOM      5  O   UNL     1       2.613   0.365   0.520  1.00  0.00    -0.252 OA
BRANCH   4   6
ATOM      6  C   UNL     1       0.858   0.306   2.228  1.00  0.00     0.126 C 
ATOM      7  C   UNL     1       1.261   1.722   2.648  1.00  0.00     0.025 C 
BRANCH   6   8
ATOM      8  C   UNL     1      -0.650   0.090   2.140  1.00  0.00    -0.030 A 
ATOM      9  C   UNL     1      -1.520   1.017   1.542  1.00  0.00     0.009 A 
ATOM     10  C   UNL     1      -1.139  -1.188   2.464  1.00  0.00     0.055 A 
ATOM     11  C   UNL     1      -2.812   0.636   1.169  1.00  0.00     0.051 A 
ATOM     12  C   UNL     1      -2.395  -1.587   2.028  1.00  0.00     0.161 A 
ATOM     13  C   UNL     1      -3.213  -0.682   1.350  1.00  0.00     0.161 A 
ATOM     14  O   UNL     1      -2.693  -2.915   2.189  1.00  0.00    -0.486 OA
ATOM     15  O   UNL     1      -4.385  -1.077   0.755  1.00  0.00    -0.486 OA
ATOM     16  C   UNL     1      -3.885  -3.315   1.504  1.00  0.00     0.271 C 
ATOM     17  C   UNL     1      -4.213  -2.427   0.312  1.00  0.00     0.271 C 
ENDBRANCH   6   8
ENDBRANCH   4   6
ENDBRANCH   3   4
ENDBRANCH   2   3
ENDBRANCH   1   2
BRANCH   1  18
ATOM     18  O   UNL     1       0.688   0.382  -2.065  1.00  0.00    -0.458 OA
BRANCH  18  19
ATOM     19  C   UNL     1      -0.422   1.071  -2.400  1.00  0.00     0.338 C 
ATOM     20  O   UNL     1      -1.470   0.612  -2.845  1.00  0.00    -0.246 OA
BRANCH  19  21
ATOM     21  C   UNL     1      -0.178   2.507  -2.172  1.00  0.00     0.060 A 
ATOM     22  C   UNL     1       0.475   2.938  -1.014  1.00  0.00     0.016 A 
ATOM     23  C   UNL     1      -0.645   3.442  -3.094  1.00  0.00     0.016 A 
ATOM     24  C   UNL     1       0.609   4.298  -0.743  1.00  0.00     0.010 A 
ATOM     25  C   UNL     1      -0.433   4.804  -2.863  1.00  0.00     0.010 A 
ATOM     26  C   UNL     1       0.171   5.250  -1.672  1.00  0.00    -0.014 A 
BRANCH  26  27
ATOM     27  C   UNL     1       0.295   6.708  -1.393  1.00  0.00     0.031 A 
ATOM     28  C   UNL     1      -0.944   7.563  -1.342  1.00  0.00     0.074 A 
ATOM     29  C   UNL     1       1.505   7.272  -1.199  1.00  0.00     0.049 A 
ATOM     30  N   UNL     1      -1.055   8.867  -1.332  1.00  0.00    -0.248 NA
ATOM     31  C   UNL     1      -2.230   6.850  -1.322  1.00  0.00     0.031 C 
ATOM     32  C   UNL     1       2.781   6.555  -1.171  1.00  0.00     0.029 A 
ATOM     33  N   UNL     1       1.859   8.583  -0.996  1.00  0.00    -0.354 N 
ATOM     34  C   UNL     1      -2.421   9.132  -1.361  1.00  0.00     0.074 A 
ATOM     35  C   UNL     1      -3.095   7.850  -1.401  1.00  0.00     0.031 C 
ATOM     36  C   UNL     1       3.773   7.430  -0.943  1.00  0.00     0.029 A 
ATOM     37  C   UNL     1       3.218   8.778  -0.896  1.00  0.00     0.049 A 
ATOM     38  H   UNL     1       1.204   9.314  -0.928  1.00  0.00     0.167 HD
ATOM     39  C   UNL     1      -3.051  10.333  -1.357  1.00  0.00     0.034 A 
ATOM     40  C   UNL     1       3.942   9.913  -0.827  1.00  0.00     0.034 A 
ATOM     41  C   UNL     1      -2.364  11.600  -1.274  1.00  0.00     0.049 A 
ATOM     42  C   UNL     1       3.224  11.237  -0.864  1.00  0.00     0.074 A 
ATOM     43  C   UNL     1      -2.903  12.875  -1.245  1.00  0.00     0.029 A 
ATOM     44  N   UNL     1      -0.985  11.752  -1.199  1.00  0.00    -0.354 N 
ATOM     45  N   UNL     1       1.936  11.477  -0.956  1.00  0.00    -0.248 NA
ATOM     46  C   UNL     1       4.059  12.444  -0.801  1.00  0.00     0.031 C 
ATOM     47  C   UNL     1      -1.851  13.797  -1.207  1.00  0.00     0.029 A 
ATOM     48  C   UNL     1      -0.656  13.099  -1.144  1.00  0.00     0.049 A 
ATOM     49  H   UNL     1      -0.336  11.013  -1.186  1.00  0.00     0.167 HD
ATOM     50  C   UNL     1       1.807  12.862  -0.946  1.00  0.00     0.074 A 
ATOM     51  C   UNL     1       3.145  13.403  -0.819  1.00  0.00     0.031 C 
ATOM     52  C   UNL     1       0.685  13.621  -1.033  1.00  0.00     0.034 A 
BRANCH  39  53
ATOM     53  C   UNL     1      -4.553  10.330  -1.507  1.00  0.00     0.023 A 
ATOM     54  C   UNL     1      -5.403   9.783  -0.529  1.00  0.00     0.031 A 
ATOM     55  C   UNL     1      -5.144  10.860  -2.669  1.00  0.00     0.131 A 
ATOM     56  C   UNL     1      -6.785   9.716  -0.763  1.00  0.00     0.055 A 
ATOM     57  C   UNL     1      -6.526  10.859  -2.861  1.00  0.00     0.041 A 
ATOM     58  F   UNL     1      -4.382  11.377  -3.647  1.00  0.00    -0.206 F 
ATOM     59  C   UNL     1      -7.355  10.271  -1.911  1.00  0.00     0.022 A 
BRANCH  56  60
ATOM     60  S   UNL     1      -7.816   8.769   0.392  1.00  0.00     0.124 S 
ATOM     61  O   UNL     1      -7.210   7.442   0.308  1.00  0.00    -0.237 OA
ATOM     62  O   UNL     1      -7.619   9.483   1.648  1.00  0.00    -0.237 OA
ATOM     63  O   UNL     1      -9.156   8.872  -0.181  1.00  0.00    -0.744 OA
ENDBRANCH  56  60
ENDBRANCH  39  53
BRANCH  40  64
ATOM     64  C   UNL     1       5.431   9.857  -0.787  1.00  0.00     0.023 A 
ATOM     65  C   UNL     1       6.146  10.319   0.329  1.00  0.00     0.031 A 
ATOM     66  C   UNL     1       6.165   9.373  -1.886  1.00  0.00     0.131 A 
ATOM     67  C   UNL     1       7.549  10.321   0.309  1.00  0.00     0.055 A 
ATOM     68  C   UNL     1       7.560   9.328  -1.880  1.00  0.00     0.041 A 
ATOM     69  F   UNL     1       5.531   8.921  -2.980  1.00  0.00    -0.206 F 
ATOM     70  C   UNL     1       8.261   9.815  -0.782  1.00  0.00     0.022 A 
BRANCH  67  71
ATOM     71  S   UNL     1       8.438  11.069   1.702  1.00  0.00     0.124 S 
ATOM     72  O   UNL     1       7.913  12.429   1.695  1.00  0.00    -0.237 OA
ATOM     73  O   UNL     1       8.019  10.225   2.816  1.00  0.00    -0.237 OA
ATOM     74  O   UNL     1       9.842  10.939   1.319  1.00  0.00    -0.744 OA
ENDBRANCH  67  71
ENDBRANCH  40  64
BRANCH  52  75
ATOM     75  C   UNL     1       0.868  15.115  -0.950  1.00  0.00     0.023 A 
ATOM     76  C   UNL     1       1.492  15.840  -1.980  1.00  0.00     0.031 A 
ATOM     77  C   UNL     1       0.431  15.816   0.187  1.00  0.00     0.131 A 
ATOM     78  C   UNL     1       1.711  17.218  -1.828  1.00  0.00     0.055 A 
ATOM     79  C   UNL     1       0.604  17.195   0.309  1.00  0.00     0.041 A 
ATOM     80  F   UNL     1      -0.170  15.170   1.199  1.00  0.00    -0.206 F 
ATOM     81  C   UNL     1       1.258  17.902  -0.696  1.00  0.00     0.022 A 
BRANCH  78  82
ATOM     82  S   UNL     1       2.673  18.093  -3.093  1.00  0.00     0.124 S 
ATOM     83  O   UNL     1       3.941  17.372  -3.063  1.00  0.00    -0.237 OA
ATOM     84  O   UNL     1       1.860  17.904  -4.290  1.00  0.00    -0.237 OA
ATOM     85  O   UNL     1       2.728  19.466  -2.593  1.00  0.00    -0.744 OA
ENDBRANCH  78  82
ENDBRANCH  52  75
ENDBRANCH  26  27
ENDBRANCH  19  21
ENDBRANCH  18  19
ENDBRANCH   1  18
TORSDOF 15
