REMARK SMILES O=C(OCCOC(=O)c1ccc([C@H]2Nc3ccc(Cl)cc3[C@@H]3C=CC[C@@H]23)cc1)c1ccc(-c2c3nc(c(-c4cc(S(=O)(=O)[O-])ccc4F)c4ccc([nH]4)c(-c4cc(S(=O)(=O)[O-])ccc4F)c4nc(c(-c5cc(S(=O)(=O)[O-])ccc5F)c5ccc2[nH]5)C=C4)C=C3)cc1
REMARK SMILES IDX 4 1 3 2 2 3 1 4 29 5 30 6 91 7 31 8 90 9 32 10 33 11 34 12
REMARK SMILES IDX 84 13 35 14 89 15 83 16 85 17 36 18 88 19 82 20 81 21 37 23
REMARK SMILES IDX 69 24 49 25 68 26 50 27 53 28 67 29 86 30 51 31 52 32 66 34
REMARK SMILES IDX 87 35 54 36 38 37 39 38 47 39 40 40 46 41 48 42 45 43 41 44
REMARK SMILES IDX 42 45 43 46 44 47 70 48 71 49 79 50 72 51 78 52 80 53 77 54
REMARK SMILES IDX 73 55 74 56 75 57 76 58 55 59 56 60 64 61 57 62 63 63 65 64
REMARK SMILES IDX 62 65 58 66 59 67 60 68 61 69 5 70 6 71 7 72 8 73 9 74 10 75
REMARK SMILES IDX 28 76 11 77 27 78 12 79 13 80 14 81 26 82 15 83 22 85 25 86
REMARK SMILES IDX 16 87 21 88 23 89 24 90 17 91 20 92 18 93 19 94
REMARK H PARENT 85 22 53 33 14 84
REMARK Flexibility Score: inf
ROOT
ATOM      1  C   UNL     1       3.860   1.625   0.520  1.00  0.00     0.275 C 
ENDROOT
BRANCH   1   2
ATOM      2  O   UNL     1       2.902   1.002  -0.344  1.00  0.00    -0.458 OA
BRANCH   2   3
ATOM      3  C   UNL     1       2.848  -0.280  -0.773  1.00  0.00     0.338 C 
ATOM      4  O   UNL     1       1.942  -0.592  -1.546  1.00  0.00    -0.246 OA
BRANCH   3   5
ATOM      5  C   UNL     1       3.760  -1.366  -0.281  1.00  0.00     0.060 A 
ATOM      6  C   UNL     1       5.015  -1.211   0.320  1.00  0.00     0.016 A 
ATOM      7  C   UNL     1       3.276  -2.672  -0.428  1.00  0.00     0.016 A 
ATOM      8  C   UNL     1       5.710  -2.296   0.863  1.00  0.00     0.010 A 
ATOM      9  C   UNL     1       3.978  -3.756   0.097  1.00  0.00     0.010 A 
ATOM     10  C   UNL     1       5.183  -3.579   0.784  1.00  0.00    -0.014 A 
BRANCH  10  11
ATOM     11  C   UNL     1       5.918  -4.728   1.367  1.00  0.00     0.031 A 
ATOM     12  C   UNL     1       6.506  -5.759   0.451  1.00  0.00     0.074 A 
ATOM     13  C   UNL     1       6.020  -4.859   2.706  1.00  0.00     0.049 A 
ATOM     14  N   UNL     1       7.139  -6.863   0.749  1.00  0.00    -0.248 NA
ATOM     15  C   UNL     1       6.335  -5.529  -0.992  1.00  0.00     0.031 C 
ATOM     16  C   UNL     1       5.480  -3.914   3.685  1.00  0.00     0.029 A 
ATOM     17  N   UNL     1       6.582  -5.842   3.482  1.00  0.00    -0.354 N 
ATOM     18  C   UNL     1       7.461  -7.447  -0.470  1.00  0.00     0.074 A 
ATOM     19  C   UNL     1       6.865  -6.628  -1.503  1.00  0.00     0.031 C 
ATOM     20  C   UNL     1       5.712  -4.374   4.926  1.00  0.00     0.029 A 
ATOM     21  C   UNL     1       6.418  -5.645   4.836  1.00  0.00     0.049 A 
ATOM     22  H   UNL     1       7.057  -6.617   3.105  1.00  0.00     0.167 HD
ATOM     23  C   UNL     1       8.227  -8.540  -0.706  1.00  0.00     0.034 A 
ATOM     24  C   UNL     1       6.802  -6.405   5.882  1.00  0.00     0.034 A 
ATOM     25  C   UNL     1       8.803  -9.345   0.340  1.00  0.00     0.049 A 
ATOM     26  C   UNL     1       7.598  -7.656   5.593  1.00  0.00     0.074 A 
ATOM     27  C   UNL     1       9.609 -10.462   0.228  1.00  0.00     0.029 A 
ATOM     28  N   UNL     1       8.627  -9.115   1.700  1.00  0.00    -0.354 N 
ATOM     29  N   UNL     1       7.955  -8.155   4.431  1.00  0.00    -0.248 NA
ATOM     30  C   UNL     1       8.076  -8.421   6.750  1.00  0.00     0.031 C 
ATOM     31  C   UNL     1       9.874 -10.940   1.516  1.00  0.00     0.029 A 
ATOM     32  C   UNL     1       9.293 -10.081   2.437  1.00  0.00     0.049 A 
ATOM     33  H   UNL     1       8.104  -8.374   2.084  1.00  0.00     0.167 HD
ATOM     34  C   UNL     1       8.743  -9.265   4.722  1.00  0.00     0.074 A 
ATOM     35  C   UNL     1       8.819  -9.348   6.167  1.00  0.00     0.031 C 
ATOM     36  C   UNL     1       9.353 -10.136   3.878  1.00  0.00     0.034 A 
BRANCH  23  37
ATOM     37  C   UNL     1       8.464  -8.905  -2.149  1.00  0.00     0.023 A 
ATOM     38  C   UNL     1       9.134  -8.023  -3.017  1.00  0.00     0.031 A 
ATOM     39  C   UNL     1       7.965 -10.103  -2.685  1.00  0.00     0.131 A 
ATOM     40  C   UNL     1       9.200  -8.304  -4.388  1.00  0.00     0.055 A 
ATOM     41  C   UNL     1       8.113 -10.419  -4.038  1.00  0.00     0.041 A 
ATOM     42  F   UNL     1       7.300 -10.973  -1.910  1.00  0.00    -0.206 F 
ATOM     43  C   UNL     1       8.717  -9.508  -4.902  1.00  0.00     0.022 A 
BRANCH  40  44
ATOM     44  S   UNL     1       9.782  -7.000  -5.507  1.00  0.00     0.124 S 
ATOM     45  O   UNL     1       8.776  -5.962  -5.296  1.00  0.00    -0.237 OA
ATOM     46  O   UNL     1      11.114  -6.710  -4.991  1.00  0.00    -0.237 OA
ATOM     47  O   UNL     1       9.747  -7.637  -6.822  1.00  0.00    -0.744 OA
ENDBRANCH  40  44
ENDBRANCH  23  37
BRANCH  24  48
ATOM     48  C   UNL     1       6.469  -6.022   7.288  1.00  0.00     0.023 A 
ATOM     49  C   UNL     1       7.479  -5.755   8.227  1.00  0.00     0.031 A 
ATOM     50  C   UNL     1       5.136  -6.001   7.739  1.00  0.00     0.131 A 
ATOM     51  C   UNL     1       7.152  -5.559   9.579  1.00  0.00     0.055 A 
ATOM     52  C   UNL     1       4.811  -5.749   9.075  1.00  0.00     0.041 A 
ATOM     53  F   UNL     1       4.126  -6.233   6.885  1.00  0.00    -0.206 F 
ATOM     54  C   UNL     1       5.823  -5.547  10.008  1.00  0.00     0.022 A 
BRANCH  51  55
ATOM     55  S   UNL     1       8.498  -5.441  10.790  1.00  0.00     0.124 S 
ATOM     56  O   UNL     1       9.243  -6.667  10.525  1.00  0.00    -0.237 OA
ATOM     57  O   UNL     1       9.148  -4.197  10.395  1.00  0.00    -0.237 OA
ATOM     58  O   UNL     1       7.799  -5.399  12.072  1.00  0.00    -0.744 OA
ENDBRANCH  51  55
ENDBRANCH  24  48
BRANCH  36  59
ATOM     59  C   UNL     1      10.197 -11.215   4.510  1.00  0.00     0.023 A 
ATOM     60  C   UNL     1       9.629 -12.219   5.312  1.00  0.00     0.031 A 
ATOM     61  C   UNL     1      11.590 -11.225   4.321  1.00  0.00     0.131 A 
ATOM     62  C   UNL     1      10.458 -13.149   5.954  1.00  0.00     0.055 A 
ATOM     63  C   UNL     1      12.402 -12.199   4.902  1.00  0.00     0.041 A 
ATOM     64  F   UNL     1      12.185 -10.287   3.567  1.00  0.00    -0.206 F 
ATOM     65  C   UNL     1      11.838 -13.159   5.738  1.00  0.00     0.022 A 
BRANCH  62  66
ATOM     66  S   UNL     1       9.717 -14.274   7.168  1.00  0.00     0.124 S 
ATOM     67  O   UNL     1       9.128 -13.341   8.123  1.00  0.00    -0.237 OA
ATOM     68  O   UNL     1       8.772 -15.032   6.354  1.00  0.00    -0.237 OA
ATOM     69  O   UNL     1      10.858 -15.038   7.668  1.00  0.00    -0.744 OA
ENDBRANCH  62  66
ENDBRANCH  36  59
ENDBRANCH  10  11
ENDBRANCH   3   5
ENDBRANCH   2   3
ENDBRANCH   1   2
BRANCH   1  70
ATOM     70  C   UNL     1       3.664   1.354   2.019  1.00  0.00     0.275 C 
BRANCH  70  71
ATOM     71  O   UNL     1       3.208   0.027   2.354  1.00  0.00    -0.458 OA
BRANCH  71  72
ATOM     72  C   UNL     1       1.861  -0.111   2.506  1.00  0.00     0.338 C 
ATOM     73  O   UNL     1       1.037   0.779   2.387  1.00  0.00    -0.246 OA
BRANCH  72  74
ATOM     74  C   UNL     1       1.483  -1.532   2.749  1.00  0.00     0.060 A 
ATOM     75  C   UNL     1       0.372  -2.049   2.073  1.00  0.00     0.016 A 
ATOM     76  C   UNL     1       2.167  -2.352   3.646  1.00  0.00     0.016 A 
ATOM     77  C   UNL     1      -0.009  -3.392   2.239  1.00  0.00     0.007 A 
ATOM     78  C   UNL     1       1.778  -3.697   3.812  1.00  0.00     0.007 A 
ATOM     79  C   UNL     1       0.709  -4.256   3.081  1.00  0.00    -0.025 A 
BRANCH  79  80
ATOM     80  C   UNL     1       0.438  -5.767   3.158  1.00  0.00     0.114 C 
ATOM     81  N   UNL     1      -0.951  -6.137   2.779  1.00  0.00    -0.378 N 
ATOM     82  C   UNL     1       1.368  -6.629   2.300  1.00  0.00     0.031 C 
ATOM     83  C   UNL     1      -1.215  -6.895   1.631  1.00  0.00     0.038 A 
ATOM     84  H   UNL     1      -1.700  -5.843   3.346  1.00  0.00     0.161 HD
ATOM     85  C   UNL     1       1.073  -6.344   0.817  1.00  0.00     0.049 C 
ATOM     86  C   UNL     1       2.876  -6.637   2.448  1.00  0.00     0.034 C 
ATOM     87  C   UNL     1      -2.365  -7.683   1.536  1.00  0.00     0.027 A 
ATOM     88  C   UNL     1      -0.272  -6.974   0.575  1.00  0.00    -0.016 A 
ATOM     89  C   UNL     1       2.285  -6.948   0.183  1.00  0.00    -0.023 C 
ATOM     90  C   UNL     1       3.271  -7.106   1.077  1.00  0.00    -0.030 C 
ATOM     91  C   UNL     1      -2.588  -8.494   0.412  1.00  0.00     0.022 A 
ATOM     92  C   UNL     1      -0.547  -7.699  -0.592  1.00  0.00     0.027 A 
ATOM     93  C   UNL     1      -1.695  -8.474  -0.657  1.00  0.00     0.041 A 
ATOM     94  Cl  UNL     1      -1.979  -9.458  -2.040  1.00  0.00    -0.084 Cl
ENDBRANCH  79  80
ENDBRANCH  72  74
ENDBRANCH  71  72
ENDBRANCH  70  71
ENDBRANCH   1  70
TORSDOF 15
