REMARK SMILES CC(C)(C)C[C@@H](O)[C@@H](F)C(=O)OCCOC(=O)c1ccc(-c2c3nc(c(-c4cc(S(=O)(=O)[O-])ccc4F)c4ccc([nH]4)c(-c4cc(S(=O)(=O)[O-])ccc4F)c4nc(c(-c5cc(S(=O)(=O)[O-])ccc5F)c5ccc2[nH]5)C=C4)C=C3)cc1
REMARK SMILES IDX 13 1 12 2 10 3 11 4 8 5 9 6 6 7 5 8 2 9 1 10 3 11 4 12 7 13
REMARK SMILES IDX 14 15 15 16 16 17 17 18 18 19 19 20 80 21 20 22 79 23 21 24
REMARK SMILES IDX 22 25 23 26 73 27 24 28 78 29 72 30 74 31 25 32 77 33 71 34
REMARK SMILES IDX 70 35 26 37 58 38 38 39 57 40 39 41 42 42 56 43 75 44 40 45
REMARK SMILES IDX 41 46 55 48 76 49 43 50 27 51 28 52 36 53 29 54 35 55 37 56
REMARK SMILES IDX 34 57 30 58 31 59 32 60 33 61 59 62 60 63 68 64 61 65 67 66
REMARK SMILES IDX 69 67 66 68 62 69 63 70 64 71 65 72 44 73 45 74 53 75 46 76
REMARK SMILES IDX 52 77 54 78 51 79 47 80 48 81 49 82 50 83
REMARK H PARENT 7 14 74 36 42 47
REMARK Flexibility Score: inf
ROOT
ATOM      1  C   UNL     1      -1.116  -0.678  -6.365  1.00  0.00     0.274 C 
ENDROOT
BRANCH   1   2
ATOM      2  O   UNL     1      -0.797  -1.203  -5.061  1.00  0.00    -0.460 OA
BRANCH   2   3
ATOM      3  C   UNL     1       0.224  -2.107  -5.015  1.00  0.00     0.343 C 
ATOM      4  O   UNL     1       0.867  -2.467  -5.996  1.00  0.00    -0.249 OA
BRANCH   3   5
ATOM      5  C   UNL     1       0.420  -2.701  -3.631  1.00  0.00     0.304 C 
ATOM      6  F   UNL     1      -0.526  -3.660  -3.383  1.00  0.00    -0.232 F 
BRANCH   5   7
ATOM      7  C   UNL     1       0.384  -1.668  -2.495  1.00  0.00     0.160 C 
BRANCH   7   8
ATOM      8  C   UNL     1       0.706  -2.354  -1.153  1.00  0.00     0.041 C 
BRANCH   8   9
ATOM      9  C   UNL     1       0.362  -1.553   0.137  1.00  0.00    -0.036 C 
ATOM     10  C   UNL     1       0.978  -0.145   0.152  1.00  0.00     0.011 C 
ATOM     11  C   UNL     1       0.921  -2.336   1.342  1.00  0.00     0.011 C 
ATOM     12  C   UNL     1      -1.164  -1.436   0.295  1.00  0.00     0.011 C 
ENDBRANCH   8   9
ENDBRANCH   7   8
BRANCH   7  13
ATOM     13  O   UNL     1       1.389  -0.680  -2.692  1.00  0.00    -0.389 OA
ATOM     14  H   UNL     1       2.261  -1.103  -2.694  1.00  0.00     0.211 HD
ENDBRANCH   7  13
ENDBRANCH   5   7
ENDBRANCH   3   5
ENDBRANCH   2   3
ENDBRANCH   1   2
BRANCH   1  15
ATOM     15  C   UNL     1      -0.562   0.733  -6.571  1.00  0.00     0.275 C 
BRANCH  15  16
ATOM     16  O   UNL     1       0.876   0.744  -6.596  1.00  0.00    -0.458 OA
BRANCH  16  17
ATOM     17  C   UNL     1       1.461   1.031  -5.409  1.00  0.00     0.338 C 
ATOM     18  O   UNL     1       0.893   1.294  -4.361  1.00  0.00    -0.246 OA
BRANCH  17  19
ATOM     19  C   UNL     1       2.918   0.859  -5.519  1.00  0.00     0.060 A 
ATOM     20  C   UNL     1       3.497  -0.285  -4.965  1.00  0.00     0.016 A 
ATOM     21  C   UNL     1       3.717   1.863  -6.066  1.00  0.00     0.016 A 
ATOM     22  C   UNL     1       4.881  -0.416  -4.918  1.00  0.00     0.010 A 
ATOM     23  C   UNL     1       5.109   1.714  -6.048  1.00  0.00     0.010 A 
ATOM     24  C   UNL     1       5.699   0.582  -5.459  1.00  0.00    -0.014 A 
BRANCH  24  25
ATOM     25  C   UNL     1       7.174   0.448  -5.373  1.00  0.00     0.031 A 
ATOM     26  C   UNL     1       7.955   1.329  -4.440  1.00  0.00     0.074 A 
ATOM     27  C   UNL     1       7.804  -0.480  -6.118  1.00  0.00     0.049 A 
ATOM     28  N   UNL     1       9.250   1.444  -4.299  1.00  0.00    -0.248 NA
ATOM     29  C   UNL     1       7.170   2.199  -3.553  1.00  0.00     0.031 C 
ATOM     30  C   UNL     1       7.145  -1.426  -7.020  1.00  0.00     0.029 A 
ATOM     31  N   UNL     1       9.138  -0.776  -6.239  1.00  0.00    -0.354 N 
ATOM     32  C   UNL     1       9.440   2.414  -3.321  1.00  0.00     0.074 A 
ATOM     33  C   UNL     1       8.123   2.870  -2.923  1.00  0.00     0.031 C 
ATOM     34  C   UNL     1       8.078  -2.194  -7.605  1.00  0.00     0.029 A 
ATOM     35  C   UNL     1       9.399  -1.760  -7.163  1.00  0.00     0.049 A 
ATOM     36  H   UNL     1       9.840  -0.327  -5.715  1.00  0.00     0.167 HD
ATOM     37  C   UNL     1      10.606   2.876  -2.803  1.00  0.00     0.034 A 
ATOM     38  C   UNL     1      10.572  -2.231  -7.630  1.00  0.00     0.034 A 
ATOM     39  C   UNL     1      11.909   2.407  -3.211  1.00  0.00     0.049 A 
ATOM     40  C   UNL     1      11.854  -1.655  -7.091  1.00  0.00     0.074 A 
ATOM     41  C   UNL     1      13.155   2.807  -2.756  1.00  0.00     0.029 A 
ATOM     42  N   UNL     1      12.137   1.433  -4.176  1.00  0.00    -0.354 N 
ATOM     43  N   UNL     1      12.023  -0.710  -6.196  1.00  0.00    -0.248 NA
ATOM     44  C   UNL     1      13.104  -2.208  -7.628  1.00  0.00     0.031 C 
ATOM     45  C   UNL     1      14.132   2.116  -3.482  1.00  0.00     0.029 A 
ATOM     46  C   UNL     1      13.499   1.237  -4.347  1.00  0.00     0.049 A 
ATOM     47  H   UNL     1      11.432   0.951  -4.667  1.00  0.00     0.167 HD
ATOM     48  C   UNL     1      13.399  -0.566  -6.051  1.00  0.00     0.074 A 
ATOM     49  C   UNL     1      14.013  -1.532  -6.940  1.00  0.00     0.031 C 
ATOM     50  C   UNL     1      14.094   0.284  -5.254  1.00  0.00     0.034 A 
BRANCH  37  51
ATOM     51  C   UNL     1      10.514   3.987  -1.786  1.00  0.00     0.023 A 
ATOM     52  C   UNL     1       9.929   3.791  -0.523  1.00  0.00     0.031 A 
ATOM     53  C   UNL     1      10.984   5.274  -2.102  1.00  0.00     0.131 A 
ATOM     54  C   UNL     1       9.766   4.879   0.349  1.00  0.00     0.055 A 
ATOM     55  C   UNL     1      10.884   6.337  -1.202  1.00  0.00     0.041 A 
ATOM     56  F   UNL     1      11.532   5.526  -3.302  1.00  0.00    -0.206 F 
ATOM     57  C   UNL     1      10.259   6.146   0.027  1.00  0.00     0.022 A 
BRANCH  54  58
ATOM     58  S   UNL     1       8.779   4.648   1.854  1.00  0.00     0.124 S 
ATOM     59  O   UNL     1       7.494   4.224   1.302  1.00  0.00    -0.237 OA
ATOM     60  O   UNL     1       9.534   3.630   2.574  1.00  0.00    -0.237 OA
ATOM     61  O   UNL     1       8.776   5.974   2.469  1.00  0.00    -0.744 OA
ENDBRANCH  54  58
ENDBRANCH  37  51
BRANCH  38  62
ATOM     62  C   UNL     1      10.588  -3.255  -8.711  1.00  0.00     0.023 A 
ATOM     63  C   UNL     1      11.076  -4.549  -8.480  1.00  0.00     0.031 A 
ATOM     64  C   UNL     1      10.140  -2.935 -10.005  1.00  0.00     0.131 A 
ATOM     65  C   UNL     1      11.136  -5.470  -9.539  1.00  0.00     0.055 A 
ATOM     66  C   UNL     1      10.159  -3.868 -11.043  1.00  0.00     0.041 A 
ATOM     67  F   UNL     1       9.662  -1.710 -10.275  1.00  0.00    -0.206 F 
ATOM     68  C   UNL     1      10.670  -5.141 -10.814  1.00  0.00     0.022 A 
BRANCH  65  69
ATOM     69  S   UNL     1      11.895  -7.090  -9.240  1.00  0.00     0.124 S 
ATOM     70  O   UNL     1      13.239  -6.715  -8.813  1.00  0.00    -0.237 OA
ATOM     71  O   UNL     1      11.026  -7.647  -8.209  1.00  0.00    -0.237 OA
ATOM     72  O   UNL     1      11.815  -7.748 -10.542  1.00  0.00    -0.744 OA
ENDBRANCH  65  69
ENDBRANCH  38  62
BRANCH  50  73
ATOM     73  C   UNL     1      15.596   0.172  -5.293  1.00  0.00     0.023 A 
ATOM     74  C   UNL     1      16.336   0.574  -6.418  1.00  0.00     0.031 A 
ATOM     75  C   UNL     1      16.291  -0.367  -4.196  1.00  0.00     0.131 A 
ATOM     76  C   UNL     1      17.727   0.386  -6.441  1.00  0.00     0.055 A 
ATOM     77  C   UNL     1      17.679  -0.508  -4.206  1.00  0.00     0.041 A 
ATOM     78  F   UNL     1      15.630  -0.768  -3.099  1.00  0.00    -0.206 F 
ATOM     79  C   UNL     1      18.404  -0.141  -5.338  1.00  0.00     0.022 A 
BRANCH  76  80
ATOM     80  S   UNL     1      18.634   0.766  -7.965  1.00  0.00     0.124 S 
ATOM     81  O   UNL     1      17.994  -0.122  -8.930  1.00  0.00    -0.237 OA
ATOM     82  O   UNL     1      18.370   2.191  -8.138  1.00  0.00    -0.237 OA
ATOM     83  O   UNL     1      20.017   0.429  -7.635  1.00  0.00    -0.744 OA
ENDBRANCH  76  80
ENDBRANCH  50  73
ENDBRANCH  24  25
ENDBRANCH  17  19
ENDBRANCH  16  17
ENDBRANCH  15  16
ENDBRANCH   1  15
TORSDOF 18
