REMARK SMILES O=C(OCCOC(=O)[C@@]1(CCc2ccccc2)CCC[N@H+](Cc2cccnc2)C1)c1ccc(-c2c3nc(c(-c4cc(S(=O)(=O)[O-])ccc4F)c4ccc([nH]4)c(-c4cc(S(=O)(=O)[O-])ccc4F)c4nc(c(-c5cc(S(=O)(=O)[O-])ccc5F)c5ccc2[nH]5)C=C4)C=C3)cc1
REMARK SMILES IDX 4 1 3 2 2 3 1 4 30 5 31 6 92 7 32 8 91 9 33 10 34 11 35 12
REMARK SMILES IDX 85 13 36 14 90 15 84 16 86 17 37 18 89 19 83 20 82 21 38 23
REMARK SMILES IDX 70 24 50 25 69 26 51 27 54 28 68 29 87 30 52 31 53 32 67 34
REMARK SMILES IDX 88 35 55 36 39 37 40 38 48 39 41 40 47 41 49 42 46 43 42 44
REMARK SMILES IDX 43 45 44 46 45 47 71 48 72 49 80 50 73 51 79 52 81 53 78 54
REMARK SMILES IDX 74 55 75 56 76 57 77 58 56 59 57 60 65 61 58 62 64 63 66 64
REMARK SMILES IDX 63 65 59 66 60 67 61 68 62 69 5 70 6 71 7 72 8 73 9 74 18 75
REMARK SMILES IDX 29 76 19 77 21 78 20 79 10 81 11 82 12 83 13 84 17 85 14 86
REMARK SMILES IDX 16 87 15 88 22 89 23 90 24 91 28 92 25 93 27 94 26 95
REMARK H PARENT 86 22 54 33 21 80
REMARK Flexibility Score: inf
ROOT
ATOM      1  C   UNL     1       0.715  -4.096  -3.014  1.00  0.00     0.275 C 
ENDROOT
BRANCH   1   2
ATOM      2  O   UNL     1      -0.296  -3.126  -2.608  1.00  0.00    -0.458 OA
BRANCH   2   3
ATOM      3  C   UNL     1      -0.685  -2.620  -1.399  1.00  0.00     0.338 C 
ATOM      4  O   UNL     1      -1.223  -1.510  -1.412  1.00  0.00    -0.246 OA
BRANCH   3   5
ATOM      5  C   UNL     1      -0.530  -3.276  -0.035  1.00  0.00     0.060 A 
ATOM      6  C   UNL     1      -0.280  -4.608   0.204  1.00  0.00     0.016 A 
ATOM      7  C   UNL     1      -0.727  -2.507   1.141  1.00  0.00     0.016 A 
ATOM      8  C   UNL     1      -0.070  -5.069   1.547  1.00  0.00     0.010 A 
ATOM      9  C   UNL     1      -0.419  -2.986   2.471  1.00  0.00     0.010 A 
ATOM     10  C   UNL     1       0.044  -4.288   2.711  1.00  0.00    -0.014 A 
BRANCH  10  11
ATOM     11  C   UNL     1       0.209  -4.946   4.150  1.00  0.00     0.031 A 
ATOM     12  C   UNL     1      -1.078  -5.563   4.614  1.00  0.00     0.074 A 
ATOM     13  C   UNL     1       1.286  -5.197   4.995  1.00  0.00     0.049 A 
ATOM     14  N   UNL     1      -1.304  -6.285   5.675  1.00  0.00    -0.248 NA
ATOM     15  C   UNL     1      -2.240  -5.402   3.724  1.00  0.00     0.031 C 
ATOM     16  C   UNL     1       2.692  -5.072   4.688  1.00  0.00     0.029 A 
ATOM     17  N   UNL     1       1.446  -5.705   6.293  1.00  0.00    -0.354 N 
ATOM     18  C   UNL     1      -2.600  -6.736   5.529  1.00  0.00     0.074 A 
ATOM     19  C   UNL     1      -3.145  -6.138   4.333  1.00  0.00     0.031 C 
ATOM     20  C   UNL     1       3.551  -5.301   5.668  1.00  0.00     0.029 A 
ATOM     21  C   UNL     1       2.771  -5.725   6.777  1.00  0.00     0.049 A 
ATOM     22  H   UNL     1       0.685  -6.026   6.829  1.00  0.00     0.167 HD
ATOM     23  C   UNL     1      -3.277  -7.600   6.310  1.00  0.00     0.034 A 
ATOM     24  C   UNL     1       3.418  -6.112   7.898  1.00  0.00     0.034 A 
ATOM     25  C   UNL     1      -2.775  -8.113   7.551  1.00  0.00     0.049 A 
ATOM     26  C   UNL     1       2.575  -6.845   8.861  1.00  0.00     0.074 A 
ATOM     27  C   UNL     1      -3.458  -8.840   8.503  1.00  0.00     0.029 A 
ATOM     28  N   UNL     1      -1.482  -7.927   8.031  1.00  0.00    -0.354 N 
ATOM     29  N   UNL     1       1.329  -7.202   8.690  1.00  0.00    -0.248 NA
ATOM     30  C   UNL     1       3.193  -7.276  10.112  1.00  0.00     0.031 C 
ATOM     31  C   UNL     1      -2.615  -9.009   9.603  1.00  0.00     0.029 A 
ATOM     32  C   UNL     1      -1.375  -8.467   9.304  1.00  0.00     0.049 A 
ATOM     33  H   UNL     1      -0.754  -7.480   7.542  1.00  0.00     0.167 HD
ATOM     34  C   UNL     1       1.004  -7.925   9.811  1.00  0.00     0.074 A 
ATOM     35  C   UNL     1       2.203  -7.986  10.632  1.00  0.00     0.031 C 
ATOM     36  C   UNL     1      -0.190  -8.476  10.125  1.00  0.00     0.034 A 
BRANCH  23  37
ATOM     37  C   UNL     1      -4.678  -7.885   5.862  1.00  0.00     0.023 A 
ATOM     38  C   UNL     1      -4.935  -8.609   4.681  1.00  0.00     0.031 A 
ATOM     39  C   UNL     1      -5.750  -7.257   6.513  1.00  0.00     0.131 A 
ATOM     40  C   UNL     1      -6.231  -8.620   4.149  1.00  0.00     0.055 A 
ATOM     41  C   UNL     1      -7.049  -7.340   6.021  1.00  0.00     0.041 A 
ATOM     42  F   UNL     1      -5.536  -6.497   7.600  1.00  0.00    -0.206 F 
ATOM     43  C   UNL     1      -7.293  -8.013   4.825  1.00  0.00     0.022 A 
BRANCH  40  44
ATOM     44  S   UNL     1      -6.478  -9.281   2.477  1.00  0.00     0.124 S 
ATOM     45  O   UNL     1      -5.656  -8.378   1.674  1.00  0.00    -0.237 OA
ATOM     46  O   UNL     1      -5.988 -10.649   2.598  1.00  0.00    -0.237 OA
ATOM     47  O   UNL     1      -7.919  -9.151   2.269  1.00  0.00    -0.744 OA
ENDBRANCH  40  44
ENDBRANCH  23  37
BRANCH  24  48
ATOM     48  C   UNL     1       4.898  -5.852   8.132  1.00  0.00     0.023 A 
ATOM     49  C   UNL     1       5.840  -6.864   8.415  1.00  0.00     0.031 A 
ATOM     50  C   UNL     1       5.392  -4.528   8.089  1.00  0.00     0.131 A 
ATOM     51  C   UNL     1       7.192  -6.535   8.672  1.00  0.00     0.055 A 
ATOM     52  C   UNL     1       6.740  -4.213   8.298  1.00  0.00     0.041 A 
ATOM     53  F   UNL     1       4.565  -3.505   7.820  1.00  0.00    -0.206 F 
ATOM     54  C   UNL     1       7.647  -5.217   8.606  1.00  0.00     0.022 A 
BRANCH  51  55
ATOM     55  S   UNL     1       8.358  -7.835   9.193  1.00  0.00     0.124 S 
ATOM     56  O   UNL     1       7.614  -8.507  10.251  1.00  0.00    -0.237 OA
ATOM     57  O   UNL     1       8.543  -8.586   7.956  1.00  0.00    -0.237 OA
ATOM     58  O   UNL     1       9.530  -7.083   9.641  1.00  0.00    -0.744 OA
ENDBRANCH  51  55
ENDBRANCH  24  48
BRANCH  36  59
ATOM     59  C   UNL     1      -0.233  -9.165  11.447  1.00  0.00     0.023 A 
ATOM     60  C   UNL     1      -0.052  -8.436  12.632  1.00  0.00     0.031 A 
ATOM     61  C   UNL     1      -0.376 -10.556  11.516  1.00  0.00     0.131 A 
ATOM     62  C   UNL     1       0.077  -9.119  13.841  1.00  0.00     0.055 A 
ATOM     63  C   UNL     1      -0.340 -11.222  12.737  1.00  0.00     0.041 A 
ATOM     64  F   UNL     1      -0.533 -11.286  10.400  1.00  0.00    -0.206 F 
ATOM     65  C   UNL     1      -0.092 -10.505  13.906  1.00  0.00     0.022 A 
BRANCH  62  66
ATOM     66  S   UNL     1       0.617  -8.181  15.291  1.00  0.00     0.124 S 
ATOM     67  O   UNL     1       1.939  -7.723  14.875  1.00  0.00    -0.237 OA
ATOM     68  O   UNL     1      -0.410  -7.150  15.399  1.00  0.00    -0.237 OA
ATOM     69  O   UNL     1       0.611  -9.178  16.360  1.00  0.00    -0.744 OA
ENDBRANCH  62  66
ENDBRANCH  36  59
ENDBRANCH  10  11
ENDBRANCH   3   5
ENDBRANCH   2   3
ENDBRANCH   1   2
BRANCH   1  70
ATOM     70  C   UNL     1       2.142  -3.566  -2.898  1.00  0.00     0.274 C 
BRANCH  70  71
ATOM     71  O   UNL     1       2.182  -2.905  -1.644  1.00  0.00    -0.461 OA
BRANCH  71  72
ATOM     72  C   UNL     1       3.080  -1.954  -1.321  1.00  0.00     0.317 C 
ATOM     73  O   UNL     1       3.562  -1.156  -2.121  1.00  0.00    -0.251 OA
BRANCH  72  74
ATOM     74  C   UNL     1       3.426  -2.110   0.172  1.00  0.00     0.117 C 
ATOM     75  C   UNL     1       2.416  -1.373   1.041  1.00  0.00     0.030 C 
ATOM     76  C   UNL     1       3.220  -3.659   0.392  1.00  0.00     0.281 C 
ATOM     77  C   UNL     1       2.679  -1.721   2.492  1.00  0.00     0.063 C 
ATOM     78  N   UNL     1       3.180  -4.230   1.693  1.00  0.00    -0.330 N 
ATOM     79  C   UNL     1       3.045  -3.205   2.746  1.00  0.00     0.262 C 
ATOM     80  H   UNL     1       2.823  -4.707   2.521  1.00  0.00     0.348 HD
BRANCH  74  81
ATOM     81  C   UNL     1       4.805  -1.425   0.503  1.00  0.00     0.029 C 
BRANCH  81  82
ATOM     82  C   UNL     1       5.951  -2.268   1.069  1.00  0.00     0.037 C 
BRANCH  82  83
ATOM     83  C   UNL     1       6.298  -3.409   0.160  1.00  0.00    -0.048 A 
ATOM     84  C   UNL     1       6.327  -3.218  -1.228  1.00  0.00     0.004 A 
ATOM     85  C   UNL     1       6.394  -4.703   0.681  1.00  0.00     0.004 A 
ATOM     86  C   UNL     1       6.253  -4.311  -2.082  1.00  0.00     0.000 A 
ATOM     87  C   UNL     1       6.346  -5.798  -0.180  1.00  0.00     0.000 A 
ATOM     88  C   UNL     1       6.230  -5.599  -1.556  1.00  0.00     0.000 A 
ENDBRANCH  82  83
ENDBRANCH  81  82
ENDBRANCH  74  81
BRANCH  78  89
ATOM     89  C   UNL     1       3.400  -5.760   1.718  1.00  0.00     0.300 C 
BRANCH  89  90
ATOM     90  C   UNL     1       2.309  -6.878   1.796  1.00  0.00     0.025 A 
ATOM     91  C   UNL     1       1.663  -7.402   0.654  1.00  0.00     0.013 A 
ATOM     92  C   UNL     1       1.938  -7.543   2.972  1.00  0.00     0.120 A 
ATOM     93  C   UNL     1       0.579  -8.311   0.764  1.00  0.00     0.021 A 
ATOM     94  N   UNL     1       0.885  -8.406   3.114  1.00  0.00    -0.264 NA
ATOM     95  C   UNL     1       0.183  -8.728   2.020  1.00  0.00     0.111 A 
ENDBRANCH  89  90
ENDBRANCH  78  89
ENDBRANCH  72  74
ENDBRANCH  71  72
ENDBRANCH  70  71
ENDBRANCH   1  70
TORSDOF 19
