REMARK SMILES Cc1c(CC(=O)OCCOC(=O)c2ccc(-c3c4nc(c(-c5cc(S(=O)(=O)[O-])ccc5F)c5ccc([nH]5)c(-c5cc(S(=O)(=O)[O-])ccc5F)c5nc(c(-c6cc(S(=O)(=O)[O-])ccc6F)c6ccc3[nH]6)C=C5)C=C4)cc2)c2cc(O)ccc2n1C(=O)c1ccc(Cl)cc1
REMARK SMILES IDX 8 1 7 2 5 3 6 4 4 5 3 6 1 7 2 8 83 9 76 10 82 11 77 12 81 13
REMARK SMILES IDX 78 14 80 15 84 16 85 17 86 18 87 19 92 20 88 21 91 22 89 23
REMARK SMILES IDX 90 24 79 25 9 27 10 28 11 29 12 30 13 31 14 32 75 33 15 34
REMARK SMILES IDX 74 35 16 36 17 37 18 38 68 39 19 40 73 41 67 42 69 43 20 44
REMARK SMILES IDX 72 45 66 46 65 47 21 49 53 50 33 51 52 52 34 53 37 54 51 55
REMARK SMILES IDX 70 56 35 57 36 58 50 60 71 61 38 62 22 63 23 64 31 65 24 66
REMARK SMILES IDX 30 67 32 68 29 69 25 70 26 71 27 72 28 73 54 74 55 75 63 76
REMARK SMILES IDX 56 77 62 78 64 79 61 80 57 81 58 82 59 83 60 84 39 85 40 86
REMARK SMILES IDX 48 87 41 88 47 89 49 90 46 91 42 92 43 93 44 94 45 95
REMARK H PARENT 79 26 69 48 37 59
REMARK Flexibility Score: inf
ROOT
ATOM      1  C   UNL     1      -4.040  -1.333  -2.262  1.00  0.00     0.274 C 
ENDROOT
BRANCH   1   2
ATOM      2  O   UNL     1      -2.689  -0.830  -2.154  1.00  0.00    -0.462 OA
BRANCH   2   3
ATOM      3  C   UNL     1      -1.757  -1.735  -1.764  1.00  0.00     0.310 C 
ATOM      4  O   UNL     1      -2.012  -2.915  -1.534  1.00  0.00    -0.252 OA
BRANCH   3   5
ATOM      5  C   UNL     1      -0.364  -1.196  -1.573  1.00  0.00     0.160 C 
BRANCH   5   6
ATOM      6  C   UNL     1      -0.058   0.263  -1.787  1.00  0.00    -0.008 A 
ATOM      7  C   UNL     1       1.246   0.652   0.437  1.00  0.00     0.065 C 
ATOM      8  C   UNL     1       0.649   1.046  -0.881  1.00  0.00     0.028 A 
ATOM      9  N   UNL     1       0.768   2.336  -1.392  1.00  0.00    -0.280 N 
ATOM     10  C   UNL     1      -0.185   1.046  -2.982  1.00  0.00     0.008 A 
ATOM     11  C   UNL     1       0.431   2.283  -2.752  1.00  0.00     0.057 A 
ATOM     12  C   UNL     1      -0.707   0.803  -4.272  1.00  0.00     0.056 A 
ATOM     13  C   UNL     1       0.608   3.209  -3.809  1.00  0.00     0.031 A 
ATOM     14  C   UNL     1      -0.539   1.729  -5.302  1.00  0.00     0.116 A 
ATOM     15  C   UNL     1       0.117   2.920  -5.082  1.00  0.00     0.048 A 
BRANCH   9  16
ATOM     16  C   UNL     1       1.173   3.485  -0.662  1.00  0.00     0.262 C 
ATOM     17  O   UNL     1       1.484   3.379   0.522  1.00  0.00    -0.268 OA
BRANCH  16  18
ATOM     18  C   UNL     1       1.215   4.842  -1.216  1.00  0.00     0.040 A 
ATOM     19  C   UNL     1       0.028   5.494  -1.568  1.00  0.00     0.015 A 
ATOM     20  C   UNL     1       2.463   5.429  -1.444  1.00  0.00     0.015 A 
ATOM     21  C   UNL     1       0.098   6.726  -2.217  1.00  0.00     0.021 A 
ATOM     22  C   UNL     1       2.524   6.662  -2.092  1.00  0.00     0.021 A 
ATOM     23  C   UNL     1       1.345   7.297  -2.486  1.00  0.00     0.041 A 
ATOM     24  Cl  UNL     1       1.427   8.790  -3.337  1.00  0.00    -0.084 Cl
ENDBRANCH  16  18
ENDBRANCH   9  16
BRANCH  14  25
ATOM     25  O   UNL     1      -1.022   1.413  -6.537  1.00  0.00    -0.508 OA
ATOM     26  H   UNL     1      -1.466   0.599  -6.672  1.00  0.00     0.293 HD
ENDBRANCH  14  25
ENDBRANCH   5   6
ENDBRANCH   3   5
ENDBRANCH   2   3
ENDBRANCH   1   2
BRANCH   1  27
ATOM     27  C   UNL     1      -4.458  -1.472  -3.728  1.00  0.00     0.275 C 
BRANCH  27  28
ATOM     28  O   UNL     1      -3.788  -2.609  -4.293  1.00  0.00    -0.458 OA
BRANCH  28  29
ATOM     29  C   UNL     1      -2.854  -2.369  -5.242  1.00  0.00     0.338 C 
ATOM     30  O   UNL     1      -2.784  -1.405  -5.983  1.00  0.00    -0.246 OA
BRANCH  29  31
ATOM     31  C   UNL     1      -1.763  -3.321  -4.954  1.00  0.00     0.060 A 
ATOM     32  C   UNL     1      -2.067  -4.636  -4.590  1.00  0.00     0.016 A 
ATOM     33  C   UNL     1      -0.476  -2.805  -4.772  1.00  0.00     0.016 A 
ATOM     34  C   UNL     1      -1.124  -5.373  -3.890  1.00  0.00     0.010 A 
ATOM     35  C   UNL     1       0.447  -3.532  -4.037  1.00  0.00     0.010 A 
ATOM     36  C   UNL     1       0.101  -4.787  -3.543  1.00  0.00    -0.014 A 
BRANCH  36  37
ATOM     37  C   UNL     1       1.101  -5.621  -2.896  1.00  0.00     0.031 A 
ATOM     38  C   UNL     1       1.978  -6.299  -3.869  1.00  0.00     0.074 A 
ATOM     39  C   UNL     1       1.345  -5.782  -1.584  1.00  0.00     0.049 A 
ATOM     40  N   UNL     1       1.800  -7.470  -4.380  1.00  0.00    -0.248 NA
ATOM     41  C   UNL     1       3.051  -5.514  -4.487  1.00  0.00     0.031 C 
ATOM     42  C   UNL     1       0.912  -4.964  -0.454  1.00  0.00     0.029 A 
ATOM     43  N   UNL     1       2.130  -6.738  -1.004  1.00  0.00    -0.354 N 
ATOM     44  C   UNL     1       2.863  -7.653  -5.252  1.00  0.00     0.074 A 
ATOM     45  C   UNL     1       3.445  -6.349  -5.448  1.00  0.00     0.031 C 
ATOM     46  C   UNL     1       1.593  -5.349   0.655  1.00  0.00     0.029 A 
ATOM     47  C   UNL     1       2.362  -6.547   0.345  1.00  0.00     0.049 A 
ATOM     48  H   UNL     1       2.499  -7.500  -1.506  1.00  0.00     0.167 HD
ATOM     49  C   UNL     1       3.333  -8.898  -5.541  1.00  0.00     0.034 A 
ATOM     50  C   UNL     1       3.146  -7.317   1.137  1.00  0.00     0.034 A 
ATOM     51  C   UNL     1       2.481  -9.913  -4.975  1.00  0.00     0.049 A 
ATOM     52  C   UNL     1       3.286  -8.658   0.519  1.00  0.00     0.074 A 
ATOM     53  C   UNL     1       1.241 -10.440  -5.251  1.00  0.00     0.029 A 
ATOM     54  N   UNL     1       2.804 -10.275  -3.690  1.00  0.00    -0.354 N 
ATOM     55  N   UNL     1       2.317  -9.524   0.421  1.00  0.00    -0.248 NA
ATOM     56  C   UNL     1       4.473  -8.966  -0.272  1.00  0.00     0.031 C 
ATOM     57  C   UNL     1       0.739 -10.934  -4.012  1.00  0.00     0.029 A 
ATOM     58  C   UNL     1       1.689 -10.704  -3.015  1.00  0.00     0.049 A 
ATOM     59  H   UNL     1       3.710 -10.233  -3.306  1.00  0.00     0.167 HD
ATOM     60  C   UNL     1       2.584 -10.207  -0.749  1.00  0.00     0.074 A 
ATOM     61  C   UNL     1       3.996  -9.971  -1.011  1.00  0.00     0.031 C 
ATOM     62  C   UNL     1       1.576 -10.630  -1.566  1.00  0.00     0.034 A 
BRANCH  49  63
ATOM     63  C   UNL     1       4.748  -9.207  -5.966  1.00  0.00     0.023 A 
ATOM     64  C   UNL     1       5.795  -8.271  -5.906  1.00  0.00     0.031 A 
ATOM     65  C   UNL     1       5.132 -10.535  -6.244  1.00  0.00     0.131 A 
ATOM     66  C   UNL     1       7.128  -8.635  -6.127  1.00  0.00     0.055 A 
ATOM     67  C   UNL     1       6.471 -10.915  -6.398  1.00  0.00     0.041 A 
ATOM     68  F   UNL     1       4.220 -11.517  -6.323  1.00  0.00    -0.206 F 
ATOM     69  C   UNL     1       7.480  -9.961  -6.341  1.00  0.00     0.022 A 
BRANCH  66  70
ATOM     70  S   UNL     1       8.427  -7.369  -6.120  1.00  0.00     0.124 S 
ATOM     71  O   UNL     1       9.273  -7.812  -5.017  1.00  0.00    -0.237 OA
ATOM     72  O   UNL     1       8.996  -7.520  -7.457  1.00  0.00    -0.237 OA
ATOM     73  O   UNL     1       7.693  -6.126  -5.899  1.00  0.00    -0.744 OA
ENDBRANCH  66  70
ENDBRANCH  49  63
BRANCH  50  74
ATOM     74  C   UNL     1       4.023  -6.894   2.247  1.00  0.00     0.023 A 
ATOM     75  C   UNL     1       4.672  -5.649   2.175  1.00  0.00     0.031 A 
ATOM     76  C   UNL     1       4.493  -7.821   3.194  1.00  0.00     0.131 A 
ATOM     77  C   UNL     1       5.793  -5.391   2.974  1.00  0.00     0.055 A 
ATOM     78  C   UNL     1       5.600  -7.553   4.005  1.00  0.00     0.041 A 
ATOM     79  F   UNL     1       3.932  -9.036   3.296  1.00  0.00    -0.206 F 
ATOM     80  C   UNL     1       6.268  -6.339   3.884  1.00  0.00     0.022 A 
BRANCH  77  81
ATOM     81  S   UNL     1       6.720  -3.844   2.782  1.00  0.00     0.124 S 
ATOM     82  O   UNL     1       6.930  -3.434   4.169  1.00  0.00    -0.237 OA
ATOM     83  O   UNL     1       7.911  -4.298   2.074  1.00  0.00    -0.237 OA
ATOM     84  O   UNL     1       5.810  -2.995   2.019  1.00  0.00    -0.744 OA
ENDBRANCH  77  81
ENDBRANCH  50  74
BRANCH  62  85
ATOM     85  C   UNL     1       0.204 -10.833  -0.970  1.00  0.00     0.023 A 
ATOM     86  C   UNL     1      -0.415 -12.076  -1.203  1.00  0.00     0.031 A 
ATOM     87  C   UNL     1      -0.556  -9.837  -0.332  1.00  0.00     0.131 A 
ATOM     88  C   UNL     1      -1.752 -12.281  -0.848  1.00  0.00     0.055 A 
ATOM     89  C   UNL     1      -1.868 -10.074   0.094  1.00  0.00     0.041 A 
ATOM     90  F   UNL     1      -0.088  -8.592  -0.167  1.00  0.00    -0.206 F 
ATOM     91  C   UNL     1      -2.478 -11.294  -0.178  1.00  0.00     0.022 A 
BRANCH  88  92
ATOM     92  S   UNL     1      -2.623 -13.776  -1.387  1.00  0.00     0.124 S 
ATOM     93  O   UNL     1      -2.896 -14.450  -0.121  1.00  0.00    -0.237 OA
ATOM     94  O   UNL     1      -3.793 -13.226  -2.069  1.00  0.00    -0.237 OA
ATOM     95  O   UNL     1      -1.663 -14.449  -2.258  1.00  0.00    -0.744 OA
ENDBRANCH  88  92
ENDBRANCH  62  85
ENDBRANCH  36  37
ENDBRANCH  29  31
ENDBRANCH  28  29
ENDBRANCH  27  28
ENDBRANCH   1  27
TORSDOF 18
