REMARK SMILES CC(C)[C@H]1CC[C@@H](C)/C(=C/c2ccc(NC(=O)CCC(=O)OCCOC(=O)c3ccc(-c4c5nc(c(-c6cc(S(=O)(=O)[O-])ccc6F)c6ccc([nH]6)c(-c6cc(S(=O)(=O)[O-])ccc6F)c6nc(c(-c7cc(S(=O)(=O)[O-])ccc7F)c7ccc4[nH]7)C=C6)C=C5)cc3)cc2)C1=O
REMARK SMILES IDX 23 1 22 2 20 3 21 4 19 5 18 6 16 7 15 8 17 10 14 11 11 12
REMARK SMILES IDX 12 13 92 14 13 15 91 16 10 17 4 18 5 19 93 20 6 21 9 22
REMARK SMILES IDX 94 23 7 24 8 25 2 26 1 27 3 28 24 29 25 30 26 31 27 32 28 33
REMARK SMILES IDX 29 34 90 35 30 36 89 37 31 38 32 39 33 40 83 41 34 42 88 43
REMARK SMILES IDX 82 44 84 45 35 46 87 47 81 48 80 49 36 51 68 52 48 53 67 54
REMARK SMILES IDX 49 55 52 56 66 57 85 58 50 59 51 60 65 62 86 63 53 64 37 65
REMARK SMILES IDX 38 66 46 67 39 68 45 69 47 70 44 71 40 72 41 73 42 74 43 75
REMARK SMILES IDX 69 76 70 77 78 78 71 79 77 80 79 81 76 82 72 83 73 84 74 85
REMARK SMILES IDX 75 86 54 87 55 88 63 89 56 90 62 91 64 92 61 93 57 94 58 95
REMARK SMILES IDX 59 96 60 97
REMARK H PARENT 15 9 84 50 52 61
REMARK Flexibility Score: inf
ROOT
ATOM      1  C   UNL     1       3.896   1.779   3.558  1.00  0.00     0.274 C 
ENDROOT
BRANCH   1   2
ATOM      2  O   UNL     1       3.521   1.186   4.822  1.00  0.00    -0.462 OA
BRANCH   2   3
ATOM      3  C   UNL     1       3.327   2.056   5.851  1.00  0.00     0.306 C 
ATOM      4  O   UNL     1       3.501   3.268   5.771  1.00  0.00    -0.252 OA
BRANCH   3   5
ATOM      5  C   UNL     1       2.968   1.371   7.153  1.00  0.00     0.132 C 
BRANCH   5   6
ATOM      6  C   UNL     1       1.792   0.393   7.110  1.00  0.00     0.112 C 
BRANCH   6   7
ATOM      7  C   UNL     1       2.238  -1.014   6.771  1.00  0.00     0.224 C 
ATOM      8  N   UNL     1       1.787  -1.708   5.686  1.00  0.00    -0.326 N 
ATOM      9  H   UNL     1       2.180  -2.606   5.592  1.00  0.00     0.169 HD
ATOM     10  O   UNL     1       3.108  -1.559   7.464  1.00  0.00    -0.275 OA
BRANCH   8  11
ATOM     11  C   UNL     1       0.866  -1.378   4.681  1.00  0.00     0.041 A 
ATOM     12  C   UNL     1      -0.510  -0.292   2.506  1.00  0.00    -0.025 A 
ATOM     13  C   UNL     1      -1.003  -0.118   3.800  1.00  0.00     0.010 A 
ATOM     14  C   UNL     1       0.539  -1.190   2.289  1.00  0.00     0.010 A 
ATOM     15  C   UNL     1      -0.313  -0.667   4.891  1.00  0.00     0.027 A 
ATOM     16  C   UNL     1       1.212  -1.749   3.378  1.00  0.00     0.027 A 
BRANCH  12  17
ATOM     17  C   UNL     1      -0.907   0.631   1.435  1.00  0.00     0.015 C 
ATOM     18  C   UNL     1      -1.436  -1.707  -1.106  1.00  0.00     0.063 C 
ATOM     19  C   UNL     1      -1.844  -0.861  -2.324  1.00  0.00     0.013 C 
ATOM     20  C   UNL     1      -2.057  -1.044   0.110  1.00  0.00     0.162 C 
ATOM     21  C   UNL     1      -1.325   0.585  -2.173  1.00  0.00     0.009 C 
ATOM     22  C   UNL     1      -1.585   0.344   0.316  1.00  0.00    -0.001 C 
ATOM     23  O   UNL     1      -2.876  -1.547   0.865  1.00  0.00    -0.294 OA
ATOM     24  C   UNL     1      -1.757   1.276  -0.859  1.00  0.00     0.020 C 
ATOM     25  C   UNL     1      -3.183   1.819  -0.955  1.00  0.00     0.013 C 
BRANCH  18  26
ATOM     26  C   UNL     1      -1.699  -3.220  -1.248  1.00  0.00    -0.007 C 
ATOM     27  C   UNL     1      -0.752  -3.998  -0.323  1.00  0.00     0.008 C 
ATOM     28  C   UNL     1      -3.142  -3.667  -1.010  1.00  0.00     0.008 C 
ENDBRANCH  18  26
ENDBRANCH  12  17
ENDBRANCH   8  11
ENDBRANCH   6   7
ENDBRANCH   5   6
ENDBRANCH   3   5
ENDBRANCH   2   3
ENDBRANCH   1   2
BRANCH   1  29
ATOM     29  C   UNL     1       2.720   1.955   2.585  1.00  0.00     0.275 C 
BRANCH  29  30
ATOM     30  O   UNL     1       1.852   3.074   2.859  1.00  0.00    -0.458 OA
BRANCH  30  31
ATOM     31  C   UNL     1       0.981   2.855   3.859  1.00  0.00     0.338 C 
ATOM     32  O   UNL     1       0.933   1.865   4.576  1.00  0.00    -0.246 OA
BRANCH  31  33
ATOM     33  C   UNL     1       0.026   3.926   4.077  1.00  0.00     0.060 A 
ATOM     34  C   UNL     1       0.084   4.601   5.298  1.00  0.00     0.016 A 
ATOM     35  C   UNL     1      -1.024   4.128   3.179  1.00  0.00     0.016 A 
ATOM     36  C   UNL     1      -0.888   5.545   5.596  1.00  0.00     0.010 A 
ATOM     37  C   UNL     1      -1.997   5.072   3.476  1.00  0.00     0.010 A 
ATOM     38  C   UNL     1      -1.907   5.808   4.667  1.00  0.00    -0.014 A 
BRANCH  38  39
ATOM     39  C   UNL     1      -2.717   7.030   4.814  1.00  0.00     0.031 A 
ATOM     40  C   UNL     1      -4.119   6.993   5.318  1.00  0.00     0.074 A 
ATOM     41  C   UNL     1      -2.128   8.172   4.415  1.00  0.00     0.049 A 
ATOM     42  N   UNL     1      -4.938   7.990   5.522  1.00  0.00    -0.248 NA
ATOM     43  C   UNL     1      -4.684   5.670   5.615  1.00  0.00     0.031 C 
ATOM     44  C   UNL     1      -0.770   8.262   3.863  1.00  0.00     0.029 A 
ATOM     45  N   UNL     1      -2.579   9.460   4.400  1.00  0.00    -0.354 N 
ATOM     46  C   UNL     1      -6.119   7.424   5.984  1.00  0.00     0.074 A 
ATOM     47  C   UNL     1      -5.917   5.988   5.991  1.00  0.00     0.031 C 
ATOM     48  C   UNL     1      -0.498   9.540   3.571  1.00  0.00     0.029 A 
ATOM     49  C   UNL     1      -1.664  10.349   3.892  1.00  0.00     0.049 A 
ATOM     50  H   UNL     1      -3.470   9.725   4.722  1.00  0.00     0.167 HD
ATOM     51  C   UNL     1      -7.255   8.060   6.364  1.00  0.00     0.034 A 
ATOM     52  C   UNL     1      -1.760  11.676   3.702  1.00  0.00     0.034 A 
ATOM     53  C   UNL     1      -7.415   9.496   6.304  1.00  0.00     0.049 A 
ATOM     54  C   UNL     1      -3.021  12.354   4.143  1.00  0.00     0.074 A 
ATOM     55  C   UNL     1      -8.498  10.266   6.694  1.00  0.00     0.029 A 
ATOM     56  N   UNL     1      -6.465  10.381   5.800  1.00  0.00    -0.354 N 
ATOM     57  N   UNL     1      -4.108  11.817   4.648  1.00  0.00    -0.248 NA
ATOM     58  C   UNL     1      -3.062  13.812   4.013  1.00  0.00     0.031 C 
ATOM     59  C   UNL     1      -8.226  11.602   6.372  1.00  0.00     0.029 A 
ATOM     60  C   UNL     1      -6.949  11.681   5.838  1.00  0.00     0.049 A 
ATOM     61  H   UNL     1      -5.577  10.121   5.464  1.00  0.00     0.167 HD
ATOM     62  C   UNL     1      -4.966  12.876   4.907  1.00  0.00     0.074 A 
ATOM     63  C   UNL     1      -4.255  14.083   4.523  1.00  0.00     0.031 C 
ATOM     64  C   UNL     1      -6.226  12.858   5.413  1.00  0.00     0.034 A 
BRANCH  51  65
ATOM     65  C   UNL     1      -8.409   7.204   6.827  1.00  0.00     0.023 A 
ATOM     66  C   UNL     1      -8.323   6.408   7.984  1.00  0.00     0.031 A 
ATOM     67  C   UNL     1      -9.606   7.160   6.090  1.00  0.00     0.131 A 
ATOM     68  C   UNL     1      -9.385   5.558   8.335  1.00  0.00     0.055 A 
ATOM     69  C   UNL     1     -10.685   6.364   6.481  1.00  0.00     0.041 A 
ATOM     70  F   UNL     1      -9.742   7.881   4.966  1.00  0.00    -0.206 F 
ATOM     71  C   UNL     1     -10.573   5.546   7.602  1.00  0.00     0.022 A 
BRANCH  68  72
ATOM     72  S   UNL     1      -9.144   4.376   9.690  1.00  0.00     0.124 S 
ATOM     73  O   UNL     1      -7.989   3.616   9.219  1.00  0.00    -0.237 OA
ATOM     74  O   UNL     1      -8.910   5.250  10.833  1.00  0.00    -0.237 OA
ATOM     75  O   UNL     1     -10.400   3.630   9.722  1.00  0.00    -0.744 OA
ENDBRANCH  68  72
ENDBRANCH  51  65
BRANCH  52  76
ATOM     76  C   UNL     1      -0.628  12.414   3.086  1.00  0.00     0.023 A 
ATOM     77  C   UNL     1       0.152  13.304   3.837  1.00  0.00     0.031 A 
ATOM     78  C   UNL     1      -0.279  12.197   1.740  1.00  0.00     0.131 A 
ATOM     79  C   UNL     1       1.232  13.963   3.232  1.00  0.00     0.055 A 
ATOM     80  C   UNL     1       0.819  12.826   1.153  1.00  0.00     0.041 A 
ATOM     81  F   UNL     1      -0.982  11.335   0.987  1.00  0.00    -0.206 F 
ATOM     82  C   UNL     1       1.577  13.722   1.899  1.00  0.00     0.022 A 
BRANCH  79  83
ATOM     83  S   UNL     1       2.162  15.178   4.205  1.00  0.00     0.124 S 
ATOM     84  O   UNL     1       1.111  16.102   4.614  1.00  0.00    -0.237 OA
ATOM     85  O   UNL     1       2.733  14.347   5.259  1.00  0.00    -0.237 OA
ATOM     86  O   UNL     1       3.126  15.715   3.247  1.00  0.00    -0.744 OA
ENDBRANCH  79  83
ENDBRANCH  52  76
BRANCH  64  87
ATOM     87  C   UNL     1      -6.888  14.200   5.571  1.00  0.00     0.023 A 
ATOM     88  C   UNL     1      -7.274  14.957   4.452  1.00  0.00     0.031 A 
ATOM     89  C   UNL     1      -7.089  14.746   6.850  1.00  0.00     0.131 A 
ATOM     90  C   UNL     1      -7.783  16.251   4.630  1.00  0.00     0.055 A 
ATOM     91  C   UNL     1      -7.647  16.012   7.023  1.00  0.00     0.041 A 
ATOM     92  F   UNL     1      -6.732  14.062   7.949  1.00  0.00    -0.206 F 
ATOM     93  C   UNL     1      -7.985  16.778   5.909  1.00  0.00     0.022 A 
BRANCH  90  94
ATOM     94  S   UNL     1      -8.088  17.272   3.164  1.00  0.00     0.124 S 
ATOM     95  O   UNL     1      -6.759  17.344   2.563  1.00  0.00    -0.237 OA
ATOM     96  O   UNL     1      -9.075  16.484   2.433  1.00  0.00    -0.237 OA
ATOM     97  O   UNL     1      -8.586  18.529   3.719  1.00  0.00    -0.744 OA
ENDBRANCH  90  94
ENDBRANCH  64  87
ENDBRANCH  38  39
ENDBRANCH  31  33
ENDBRANCH  30  31
ENDBRANCH  29  30
ENDBRANCH   1  29
TORSDOF 19
