REMARK SMILES CC1=C(CC(=O)OCCOC(=O)c2ccc(-c3c4nc(c(-c5cc(S(=O)(=O)[O-])ccc5F)c5ccc([nH]5)c(-c5cc(S(=O)(=O)[O-])ccc5F)c5nc(c(-c6cc(S(=O)(=O)[O-])ccc6F)c6ccc3[nH]6)C=C5)C=C4)cc2)c2cc(F)ccc2/C1=C\c1cccc(OCc2ccccc2)c1
REMARK SMILES IDX 8 1 7 2 5 3 6 4 4 5 3 6 1 7 2 8 83 9 76 10 82 11 84 12 77 13
REMARK SMILES IDX 81 14 78 15 80 16 79 17 85 18 86 19 98 20 87 21 89 22 88 23
REMARK SMILES IDX 90 24 91 25 92 26 93 27 97 28 94 29 96 30 95 31 9 32 10 33
REMARK SMILES IDX 11 34 12 35 13 36 14 37 75 38 15 39 74 40 16 41 17 42 18 43
REMARK SMILES IDX 68 44 19 45 73 46 67 47 69 48 20 49 72 50 66 51 65 52 21 54
REMARK SMILES IDX 53 55 33 56 52 57 34 58 37 59 51 60 70 61 35 62 36 63 50 65
REMARK SMILES IDX 71 66 38 67 22 68 23 69 31 70 24 71 30 72 32 73 29 74 25 75
REMARK SMILES IDX 26 76 27 77 28 78 54 79 55 80 63 81 56 82 62 83 64 84 61 85
REMARK SMILES IDX 57 86 58 87 59 88 60 89 39 90 40 91 48 92 41 93 47 94 49 95
REMARK SMILES IDX 46 96 42 97 43 98 44 99 45 100
REMARK H PARENT 69 53 37 64
REMARK Flexibility Score: inf
ROOT
ATOM      1  C   UNL     1       1.924  -1.175   4.843  1.00  0.00     0.274 C 
ENDROOT
BRANCH   1   2
ATOM      2  O   UNL     1       1.262  -0.516   3.744  1.00  0.00    -0.462 OA
BRANCH   2   3
ATOM      3  C   UNL     1       0.141  -1.127   3.275  1.00  0.00     0.310 C 
ATOM      4  O   UNL     1      -0.286  -2.202   3.687  1.00  0.00    -0.252 OA
BRANCH   3   5
ATOM      5  C   UNL     1      -0.572  -0.362   2.169  1.00  0.00     0.159 C 
BRANCH   5   6
ATOM      6  C   UNL     1       0.023   0.947   1.771  1.00  0.00    -0.025 C 
ATOM      7  C   UNL     1       1.484   0.223  -0.187  1.00  0.00     0.045 C 
ATOM      8  C   UNL     1       0.893   1.204   0.769  1.00  0.00    -0.039 C 
ATOM      9  C   UNL     1       1.162   2.649   0.711  1.00  0.00    -0.014 C 
ATOM     10  C   UNL     1      -0.338   2.233   2.394  1.00  0.00    -0.011 A 
ATOM     11  C   UNL     1       0.367   3.282   1.779  1.00  0.00    -0.010 A 
ATOM     12  C   UNL     1       1.956   3.231  -0.203  1.00  0.00     0.017 C 
ATOM     13  C   UNL     1      -1.237   2.502   3.413  1.00  0.00     0.048 A 
ATOM     14  C   UNL     1       0.212   4.594   2.213  1.00  0.00     0.012 A 
ATOM     15  C   UNL     1      -1.384   3.816   3.849  1.00  0.00     0.123 A 
ATOM     16  C   UNL     1      -0.667   4.857   3.266  1.00  0.00     0.040 A 
ATOM     17  F   UNL     1      -2.239   4.084   4.844  1.00  0.00    -0.207 F 
BRANCH  12  18
ATOM     18  C   UNL     1       2.145   4.670  -0.370  1.00  0.00    -0.021 A 
ATOM     19  C   UNL     1       3.123   5.361   0.347  1.00  0.00     0.008 A 
ATOM     20  C   UNL     1       1.289   5.361  -1.237  1.00  0.00     0.054 A 
ATOM     21  C   UNL     1       3.229   6.744   0.207  1.00  0.00     0.004 A 
ATOM     22  C   UNL     1       1.416   6.737  -1.412  1.00  0.00     0.120 A 
ATOM     23  C   UNL     1       2.380   7.425  -0.670  1.00  0.00     0.046 A 
BRANCH  22  24
ATOM     24  O   UNL     1       0.676   7.511  -2.264  1.00  0.00    -0.489 OA
BRANCH  24  25
ATOM     25  C   UNL     1      -0.238   6.861  -3.158  1.00  0.00     0.265 C 
BRANCH  25  26
ATOM     26  C   UNL     1       0.463   6.130  -4.283  1.00  0.00    -0.011 A 
ATOM     27  C   UNL     1       1.418   6.789  -5.071  1.00  0.00     0.007 A 
ATOM     28  C   UNL     1       0.185   4.780  -4.543  1.00  0.00     0.007 A 
ATOM     29  C   UNL     1       2.103   6.103  -6.075  1.00  0.00     0.000 A 
ATOM     30  C   UNL     1       0.880   4.092  -5.538  1.00  0.00     0.000 A 
ATOM     31  C   UNL     1       1.840   4.753  -6.302  1.00  0.00     0.000 A 
ENDBRANCH  25  26
ENDBRANCH  24  25
ENDBRANCH  22  24
ENDBRANCH  12  18
ENDBRANCH   5   6
ENDBRANCH   3   5
ENDBRANCH   2   3
ENDBRANCH   1   2
BRANCH   1  32
ATOM     32  C   UNL     1       1.570  -0.501   6.165  1.00  0.00     0.275 C 
BRANCH  32  33
ATOM     33  O   UNL     1       0.147  -0.535   6.352  1.00  0.00    -0.458 OA
BRANCH  33  34
ATOM     34  C   UNL     1      -0.447   0.669   6.517  1.00  0.00     0.338 C 
ATOM     35  O   UNL     1       0.095   1.756   6.600  1.00  0.00    -0.246 OA
BRANCH  34  36
ATOM     36  C   UNL     1      -1.904   0.477   6.617  1.00  0.00     0.060 A 
ATOM     37  C   UNL     1      -2.573   0.987   7.727  1.00  0.00     0.016 A 
ATOM     38  C   UNL     1      -2.617  -0.123   5.577  1.00  0.00     0.016 A 
ATOM     39  C   UNL     1      -3.959   0.853   7.810  1.00  0.00     0.010 A 
ATOM     40  C   UNL     1      -4.010  -0.156   5.613  1.00  0.00     0.010 A 
ATOM     41  C   UNL     1      -4.694   0.292   6.749  1.00  0.00    -0.014 A 
BRANCH  41  42
ATOM     42  C   UNL     1      -6.171   0.164   6.851  1.00  0.00     0.031 A 
ATOM     43  C   UNL     1      -6.822  -1.192   6.879  1.00  0.00     0.074 A 
ATOM     44  C   UNL     1      -6.928   1.276   6.936  1.00  0.00     0.049 A 
ATOM     45  N   UNL     1      -8.070  -1.497   7.124  1.00  0.00    -0.248 NA
ATOM     46  C   UNL     1      -5.974  -2.356   6.574  1.00  0.00     0.031 C 
ATOM     47  C   UNL     1      -6.421   2.644   6.825  1.00  0.00     0.029 A 
ATOM     48  N   UNL     1      -8.275   1.435   7.150  1.00  0.00    -0.354 N 
ATOM     49  C   UNL     1      -8.151  -2.881   7.017  1.00  0.00     0.074 A 
ATOM     50  C   UNL     1      -6.850  -3.350   6.603  1.00  0.00     0.031 C 
ATOM     51  C   UNL     1      -7.432   3.503   7.024  1.00  0.00     0.029 A 
ATOM     52  C   UNL     1      -8.664   2.751   7.255  1.00  0.00     0.049 A 
ATOM     53  H   UNL     1      -8.903   0.680   7.220  1.00  0.00     0.167 HD
ATOM     54  C   UNL     1      -9.202  -3.691   7.285  1.00  0.00     0.034 A 
ATOM     55  C   UNL     1      -9.868   3.292   7.535  1.00  0.00     0.034 A 
ATOM     56  C   UNL     1     -10.489  -3.210   7.712  1.00  0.00     0.049 A 
ATOM     57  C   UNL     1     -11.022   2.374   7.858  1.00  0.00     0.074 A 
ATOM     58  C   UNL     1     -11.599  -3.949   8.078  1.00  0.00     0.029 A 
ATOM     59  N   UNL     1     -10.842  -1.873   7.827  1.00  0.00    -0.354 N 
ATOM     60  N   UNL     1     -11.043   1.062   7.901  1.00  0.00    -0.248 NA
ATOM     61  C   UNL     1     -12.307   3.002   8.194  1.00  0.00     0.031 C 
ATOM     62  C   UNL     1     -12.639  -3.062   8.359  1.00  0.00     0.029 A 
ATOM     63  C   UNL     1     -12.161  -1.766   8.233  1.00  0.00     0.049 A 
ATOM     64  H   UNL     1     -10.242  -1.113   7.647  1.00  0.00     0.167 HD
ATOM     65  C   UNL     1     -12.333   0.709   8.290  1.00  0.00     0.074 A 
ATOM     66  C   UNL     1     -13.055   1.947   8.496  1.00  0.00     0.031 C 
ATOM     67  C   UNL     1     -12.869  -0.527   8.454  1.00  0.00     0.034 A 
BRANCH  54  68
ATOM     68  C   UNL     1      -9.005  -5.183   7.176  1.00  0.00     0.023 A 
ATOM     69  C   UNL     1      -9.758  -5.936   6.257  1.00  0.00     0.031 A 
ATOM     70  C   UNL     1      -8.152  -5.871   8.060  1.00  0.00     0.131 A 
ATOM     71  C   UNL     1      -9.660  -7.334   6.259  1.00  0.00     0.055 A 
ATOM     72  C   UNL     1      -8.028  -7.260   8.030  1.00  0.00     0.041 A 
ATOM     73  F   UNL     1      -7.416  -5.197   8.959  1.00  0.00    -0.206 F 
ATOM     74  C   UNL     1      -8.793  -7.998   7.134  1.00  0.00     0.022 A 
BRANCH  71  75
ATOM     75  S   UNL     1     -10.692  -8.351   5.169  1.00  0.00     0.124 S 
ATOM     76  O   UNL     1      -9.687  -9.065   4.385  1.00  0.00    -0.237 OA
ATOM     77  O   UNL     1     -11.432  -9.169   6.126  1.00  0.00    -0.237 OA
ATOM     78  O   UNL     1     -11.484  -7.378   4.426  1.00  0.00    -0.744 OA
ENDBRANCH  71  75
ENDBRANCH  54  68
BRANCH  55  79
ATOM     79  C   UNL     1      -9.993   4.777   7.618  1.00  0.00     0.023 A 
ATOM     80  C   UNL     1      -9.758   5.588   6.493  1.00  0.00     0.031 A 
ATOM     81  C   UNL     1     -10.236   5.411   8.849  1.00  0.00     0.131 A 
ATOM     82  C   UNL     1      -9.713   6.982   6.634  1.00  0.00     0.055 A 
ATOM     83  C   UNL     1     -10.254   6.801   8.972  1.00  0.00     0.041 A 
ATOM     84  F   UNL     1     -10.449   4.681   9.955  1.00  0.00    -0.206 F 
ATOM     85  C   UNL     1      -9.975   7.594   7.864  1.00  0.00     0.022 A 
BRANCH  82  86
ATOM     86  S   UNL     1      -9.188   8.042   5.258  1.00  0.00     0.124 S 
ATOM     87  O   UNL     1     -10.368   8.874   5.047  1.00  0.00    -0.237 OA
ATOM     88  O   UNL     1      -8.030   8.725   5.831  1.00  0.00    -0.237 OA
ATOM     89  O   UNL     1      -8.884   7.096   4.190  1.00  0.00    -0.744 OA
ENDBRANCH  82  86
ENDBRANCH  55  79
BRANCH  67  90
ATOM     90  C   UNL     1     -14.314  -0.643   8.876  1.00  0.00     0.023 A 
ATOM     91  C   UNL     1     -14.643  -1.267  10.095  1.00  0.00     0.031 A 
ATOM     92  C   UNL     1     -15.358  -0.298   8.002  1.00  0.00     0.131 A 
ATOM     93  C   UNL     1     -15.980  -1.571  10.384  1.00  0.00     0.055 A 
ATOM     94  C   UNL     1     -16.693  -0.560   8.316  1.00  0.00     0.041 A 
ATOM     95  F   UNL     1     -15.095   0.287   6.822  1.00  0.00    -0.206 F 
ATOM     96  C   UNL     1     -17.006  -1.214   9.504  1.00  0.00     0.022 A 
BRANCH  93  97
ATOM     97  S   UNL     1     -16.426  -2.527  11.860  1.00  0.00     0.124 S 
ATOM     98  O   UNL     1     -17.288  -1.591  12.577  1.00  0.00    -0.237 OA
ATOM     99  O   UNL     1     -17.106  -3.684  11.283  1.00  0.00    -0.237 OA
ATOM    100  O   UNL     1     -15.145  -2.808  12.499  1.00  0.00    -0.744 OA
ENDBRANCH  93  97
ENDBRANCH  67  90
ENDBRANCH  41  42
ENDBRANCH  34  36
ENDBRANCH  33  34
ENDBRANCH  32  33
ENDBRANCH   1  32
TORSDOF 19
