REMARK SMILES O=C(OCCOC(=O)c1ncoc1-c1cc(F)cc(F)c1)c1ccc(-c2c3nc(c(-c4cc(S(=O)(=O)[O-])ccc4F)c4ccc([nH]4)c(-c4cc(S(=O)(=O)[O-])ccc4F)c4nc(c(-c5cc(S(=O)(=O)[O-])ccc5F)c5ccc2[nH]5)C=C4)C=C3)cc1
REMARK SMILES IDX 4 1 3 2 2 3 1 4 22 5 23 6 84 7 24 8 83 9 25 10 26 11 27 12
REMARK SMILES IDX 77 13 28 14 82 15 76 16 78 17 29 18 81 19 75 20 74 21 30 23
REMARK SMILES IDX 62 24 42 25 61 26 43 27 46 28 60 29 79 30 44 31 45 32 59 34
REMARK SMILES IDX 80 35 47 36 31 37 32 38 40 39 33 40 39 41 41 42 38 43 34 44
REMARK SMILES IDX 35 45 36 46 37 47 63 48 64 49 72 50 65 51 71 52 73 53 70 54
REMARK SMILES IDX 66 55 67 56 68 57 69 58 48 59 49 60 57 61 50 62 56 63 58 64
REMARK SMILES IDX 55 65 51 66 52 67 53 68 54 69 5 70 6 71 7 72 8 73 9 74 10 75
REMARK SMILES IDX 13 76 11 77 12 78 14 79 15 80 21 81 16 82 19 83 17 84 18 85
REMARK SMILES IDX 20 86
REMARK H PARENT 78 22 46 33
REMARK Flexibility Score: inf
ROOT
ATOM      1  C   UNL     1       4.848   1.565   0.946  1.00  0.00     0.275 C 
ENDROOT
BRANCH   1   2
ATOM      2  O   UNL     1       4.885   1.144  -0.433  1.00  0.00    -0.458 OA
BRANCH   2   3
ATOM      3  C   UNL     1       3.955   0.284  -0.888  1.00  0.00     0.338 C 
ATOM      4  O   UNL     1       2.865   0.636  -1.309  1.00  0.00    -0.246 OA
BRANCH   3   5
ATOM      5  C   UNL     1       4.407  -1.134  -0.825  1.00  0.00     0.060 A 
ATOM      6  C   UNL     1       5.530  -1.509  -0.081  1.00  0.00     0.016 A 
ATOM      7  C   UNL     1       3.627  -2.123  -1.437  1.00  0.00     0.016 A 
ATOM      8  C   UNL     1       5.856  -2.850   0.067  1.00  0.00     0.010 A 
ATOM      9  C   UNL     1       3.914  -3.472  -1.240  1.00  0.00     0.010 A 
ATOM     10  C   UNL     1       5.052  -3.837  -0.511  1.00  0.00    -0.014 A 
BRANCH  10  11
ATOM     11  C   UNL     1       5.534  -5.233  -0.504  1.00  0.00     0.031 A 
ATOM     12  C   UNL     1       6.099  -5.782  -1.784  1.00  0.00     0.074 A 
ATOM     13  C   UNL     1       5.538  -5.939   0.641  1.00  0.00     0.049 A 
ATOM     14  N   UNL     1       6.676  -6.930  -2.011  1.00  0.00    -0.248 NA
ATOM     15  C   UNL     1       5.995  -4.917  -2.972  1.00  0.00     0.031 C 
ATOM     16  C   UNL     1       5.020  -5.464   1.927  1.00  0.00     0.029 A 
ATOM     17  N   UNL     1       6.012  -7.193   0.918  1.00  0.00    -0.354 N 
ATOM     18  C   UNL     1       7.012  -6.917  -3.361  1.00  0.00     0.074 A 
ATOM     19  C   UNL     1       6.496  -5.690  -3.919  1.00  0.00     0.031 C 
ATOM     20  C   UNL     1       5.213  -6.414   2.857  1.00  0.00     0.029 A 
ATOM     21  C   UNL     1       5.862  -7.564   2.235  1.00  0.00     0.049 A 
ATOM     22  H   UNL     1       6.423  -7.775   0.238  1.00  0.00     0.167 HD
ATOM     23  C   UNL     1       7.727  -7.831  -4.060  1.00  0.00     0.034 A 
ATOM     24  C   UNL     1       6.225  -8.702   2.858  1.00  0.00     0.034 A 
ATOM     25  C   UNL     1       8.224  -9.044  -3.466  1.00  0.00     0.049 A 
ATOM     26  C   UNL     1       6.980  -9.730   2.049  1.00  0.00     0.074 A 
ATOM     27  C   UNL     1       8.949 -10.064  -4.050  1.00  0.00     0.029 A 
ATOM     28  N   UNL     1       8.034  -9.397  -2.133  1.00  0.00    -0.354 N 
ATOM     29  N   UNL     1       7.327  -9.688   0.780  1.00  0.00    -0.248 NA
ATOM     30  C   UNL     1       7.421 -10.937   2.755  1.00  0.00     0.031 C 
ATOM     31  C   UNL     1       9.151 -11.057  -3.084  1.00  0.00     0.029 A 
ATOM     32  C   UNL     1       8.612 -10.627  -1.880  1.00  0.00     0.049 A 
ATOM     33  H   UNL     1       7.558  -8.850  -1.467  1.00  0.00     0.167 HD
ATOM     34  C   UNL     1       8.060 -10.848   0.547  1.00  0.00     0.074 A 
ATOM     35  C   UNL     1       8.114 -11.558   1.812  1.00  0.00     0.031 C 
ATOM     36  C   UNL     1       8.640 -11.292  -0.598  1.00  0.00     0.034 A 
BRANCH  23  37
ATOM     37  C   UNL     1       7.958  -7.544  -5.524  1.00  0.00     0.023 A 
ATOM     38  C   UNL     1       8.676  -6.409  -5.948  1.00  0.00     0.031 A 
ATOM     39  C   UNL     1       7.376  -8.357  -6.511  1.00  0.00     0.131 A 
ATOM     40  C   UNL     1       8.707  -6.065  -7.308  1.00  0.00     0.055 A 
ATOM     41  C   UNL     1       7.486  -8.056  -7.871  1.00  0.00     0.041 A 
ATOM     42  F   UNL     1       6.658  -9.438  -6.170  1.00  0.00    -0.206 F 
ATOM     43  C   UNL     1       8.138  -6.894  -8.276  1.00  0.00     0.022 A 
BRANCH  40  44
ATOM     44  S   UNL     1       9.357  -4.436  -7.776  1.00  0.00     0.124 S 
ATOM     45  O   UNL     1       8.433  -3.541  -7.083  1.00  0.00    -0.237 OA
ATOM     46  O   UNL     1      10.718  -4.475  -7.254  1.00  0.00    -0.237 OA
ATOM     47  O   UNL     1       9.247  -4.429  -9.233  1.00  0.00    -0.744 OA
ENDBRANCH  40  44
ENDBRANCH  23  37
BRANCH  24  48
ATOM     48  C   UNL     1       5.897  -8.926   4.297  1.00  0.00     0.023 A 
ATOM     49  C   UNL     1       6.901  -9.078   5.268  1.00  0.00     0.031 A 
ATOM     50  C   UNL     1       4.558  -9.027   4.720  1.00  0.00     0.131 A 
ATOM     51  C   UNL     1       6.554  -9.366   6.599  1.00  0.00     0.055 A 
ATOM     52  C   UNL     1       4.217  -9.269   6.052  1.00  0.00     0.041 A 
ATOM     53  F   UNL     1       3.555  -8.883   3.838  1.00  0.00    -0.206 F 
ATOM     54  C   UNL     1       5.219  -9.454   6.999  1.00  0.00     0.022 A 
BRANCH  51  55
ATOM     55  S   UNL     1       7.878  -9.711   7.792  1.00  0.00     0.124 S 
ATOM     56  O   UNL     1       8.610 -10.782   7.125  1.00  0.00    -0.237 OA
ATOM     57  O   UNL     1       8.555  -8.421   7.870  1.00  0.00    -0.237 OA
ATOM     58  O   UNL     1       7.154 -10.107   8.998  1.00  0.00    -0.744 OA
ENDBRANCH  51  55
ENDBRANCH  24  48
BRANCH  36  59
ATOM     59  C   UNL     1       9.415 -12.579  -0.505  1.00  0.00     0.023 A 
ATOM     60  C   UNL     1       8.771 -13.807  -0.283  1.00  0.00     0.031 A 
ATOM     61  C   UNL     1      10.814 -12.572  -0.644  1.00  0.00     0.131 A 
ATOM     62  C   UNL     1       9.534 -14.975  -0.149  1.00  0.00     0.055 A 
ATOM     63  C   UNL     1      11.561 -13.746  -0.571  1.00  0.00     0.041 A 
ATOM     64  F   UNL     1      11.473 -11.422  -0.859  1.00  0.00    -0.206 F 
ATOM     65  C   UNL     1      10.922 -14.956  -0.309  1.00  0.00     0.022 A 
BRANCH  62  66
ATOM     66  S   UNL     1       8.690 -16.507   0.327  1.00  0.00     0.124 S 
ATOM     67  O   UNL     1       8.102 -16.141   1.611  1.00  0.00    -0.237 OA
ATOM     68  O   UNL     1       7.750 -16.701  -0.772  1.00  0.00    -0.237 OA
ATOM     69  O   UNL     1       9.773 -17.486   0.396  1.00  0.00    -0.744 OA
ENDBRANCH  62  66
ENDBRANCH  36  59
ENDBRANCH  10  11
ENDBRANCH   3   5
ENDBRANCH   2   3
ENDBRANCH   1   2
BRANCH   1  70
ATOM     70  C   UNL     1       3.649   1.217   1.846  1.00  0.00     0.275 C 
BRANCH  70  71
ATOM     71  O   UNL     1       3.236  -0.155   1.775  1.00  0.00    -0.457 OA
BRANCH  71  72
ATOM     72  C   UNL     1       1.893  -0.365   1.576  1.00  0.00     0.361 C 
ATOM     73  O   UNL     1       1.052   0.528   1.541  1.00  0.00    -0.244 OA
BRANCH  72  74
ATOM     74  C   UNL     1       1.558  -1.767   1.389  1.00  0.00     0.194 A 
ATOM     75  N   UNL     1       2.221  -2.819   2.012  1.00  0.00    -0.209 NA
ATOM     76  C   UNL     1       0.545  -2.275   0.592  1.00  0.00     0.169 A 
ATOM     77  C   UNL     1       1.583  -3.886   1.587  1.00  0.00     0.309 A 
ATOM     78  O   UNL     1       0.550  -3.639   0.738  1.00  0.00    -0.443 OA
BRANCH  76  79
ATOM     79  C   UNL     1      -0.404  -1.772  -0.387  1.00  0.00     0.026 A 
ATOM     80  C   UNL     1       0.037  -1.088  -1.525  1.00  0.00     0.051 A 
ATOM     81  C   UNL     1      -1.771  -2.042  -0.269  1.00  0.00     0.051 A 
ATOM     82  C   UNL     1      -0.849  -0.736  -2.538  1.00  0.00     0.126 A 
ATOM     83  C   UNL     1      -2.650  -1.648  -1.280  1.00  0.00     0.126 A 
ATOM     84  F   UNL     1      -0.384  -0.143  -3.646  1.00  0.00    -0.207 F 
ATOM     85  C   UNL     1      -2.199  -1.011  -2.426  1.00  0.00     0.078 A 
ATOM     86  F   UNL     1      -3.958  -1.906  -1.148  1.00  0.00    -0.207 F 
ENDBRANCH  76  79
ENDBRANCH  72  74
ENDBRANCH  71  72
ENDBRANCH  70  71
ENDBRANCH   1  70
TORSDOF 15
