REMARK SMILES O=C(OCCOC(=O)[C@H]1CC[C@H](CNS(=O)(=O)C[C@H]2CCCO2)O1)c1ccc(-c2c3nc(c(-c4cc(S(=O)(=O)[O-])ccc4F)c4ccc([nH]4)c(-c4cc(S(=O)(=O)[O-])ccc4F)c4nc(c(-c5cc(S(=O)(=O)[O-])ccc5F)c5ccc2[nH]5)C=C4)C=C3)cc1
REMARK SMILES IDX 5 1 4 2 3 3 2 4 1 5 25 6 26 7 87 8 27 9 86 10 28 11 29 12
REMARK SMILES IDX 30 13 80 14 31 15 85 16 79 17 81 18 32 19 84 20 78 21 77 22
REMARK SMILES IDX 33 24 65 25 45 26 64 27 46 28 49 29 63 30 82 31 47 32 48 33
REMARK SMILES IDX 62 35 83 36 50 37 34 38 35 39 43 40 36 41 42 42 44 43 41 44
REMARK SMILES IDX 37 45 38 46 39 47 40 48 66 49 67 50 75 51 68 52 74 53 76 54
REMARK SMILES IDX 73 55 69 56 70 57 71 58 72 59 51 60 52 61 60 62 53 63 59 64
REMARK SMILES IDX 61 65 58 66 54 67 55 68 56 69 57 70 6 71 7 72 8 73 9 74
REMARK SMILES IDX 10 75 24 76 11 77 12 78 13 79 14 80 15 82 16 83 17 84 18 85
REMARK SMILES IDX 19 86 20 87 23 88 21 89 22 90
REMARK H PARENT 81 23 49 34 14 81
REMARK Flexibility Score: inf
ROOT
ATOM      1  C   UNL     1     -11.255  -0.526  10.461  1.00  0.00     0.274 C 
ENDROOT
BRANCH   1   2
ATOM      2  C   UNL     1     -11.244   1.002  10.345  1.00  0.00     0.275 C 
BRANCH   2   3
ATOM      3  O   UNL     1     -10.614   1.491   9.145  1.00  0.00    -0.458 OA
BRANCH   3   4
ATOM      4  C   UNL     1      -9.335   1.880   8.915  1.00  0.00     0.338 C 
ATOM      5  O   UNL     1      -9.100   2.526   7.894  1.00  0.00    -0.246 OA
BRANCH   4   6
ATOM      6  C   UNL     1      -8.166   1.448   9.754  1.00  0.00     0.060 A 
ATOM      7  C   UNL     1      -8.217   1.052  11.091  1.00  0.00     0.016 A 
ATOM      8  C   UNL     1      -6.910   1.404   9.110  1.00  0.00     0.016 A 
ATOM      9  C   UNL     1      -7.091   0.542  11.738  1.00  0.00     0.010 A 
ATOM     10  C   UNL     1      -5.772   0.902   9.756  1.00  0.00     0.010 A 
ATOM     11  C   UNL     1      -5.866   0.455  11.076  1.00  0.00    -0.014 A 
BRANCH  11  12
ATOM     12  C   UNL     1      -4.691   0.038  11.869  1.00  0.00     0.031 A 
ATOM     13  C   UNL     1      -3.847   1.115  12.480  1.00  0.00     0.074 A 
ATOM     14  C   UNL     1      -4.496  -1.260  12.166  1.00  0.00     0.049 A 
ATOM     15  N   UNL     1      -2.865   1.010  13.333  1.00  0.00    -0.248 NA
ATOM     16  C   UNL     1      -4.177   2.497  12.098  1.00  0.00     0.031 C 
ATOM     17  C   UNL     1      -5.319  -2.367  11.676  1.00  0.00     0.029 A 
ATOM     18  N   UNL     1      -3.573  -1.872  12.974  1.00  0.00    -0.354 N 
ATOM     19  C   UNL     1      -2.486   2.315  13.623  1.00  0.00     0.074 A 
ATOM     20  C   UNL     1      -3.300   3.188  12.806  1.00  0.00     0.031 C 
ATOM     21  C   UNL     1      -4.868  -3.520  12.197  1.00  0.00     0.029 A 
ATOM     22  C   UNL     1      -3.707  -3.241  13.036  1.00  0.00     0.049 A 
ATOM     23  H   UNL     1      -2.878  -1.377  13.466  1.00  0.00     0.167 HD
ATOM     24  C   UNL     1      -1.558   2.742  14.511  1.00  0.00     0.034 A 
ATOM     25  C   UNL     1      -2.965  -4.160  13.688  1.00  0.00     0.034 A 
ATOM     26  C   UNL     1      -0.722   1.847  15.267  1.00  0.00     0.049 A 
ATOM     27  C   UNL     1      -1.835  -3.660  14.559  1.00  0.00     0.074 A 
ATOM     28  C   UNL     1       0.315   2.151  16.129  1.00  0.00     0.029 A 
ATOM     29  N   UNL     1      -0.819   0.460  15.232  1.00  0.00    -0.354 N 
ATOM     30  N   UNL     1      -1.478  -2.420  14.816  1.00  0.00    -0.248 NA
ATOM     31  C   UNL     1      -1.023  -4.673  15.240  1.00  0.00     0.031 C 
ATOM     32  C   UNL     1       0.887   0.950  16.561  1.00  0.00     0.029 A 
ATOM     33  C   UNL     1       0.154  -0.106  16.040  1.00  0.00     0.049 A 
ATOM     34  H   UNL     1      -1.482  -0.047  14.710  1.00  0.00     0.167 HD
ATOM     35  C   UNL     1      -0.418  -2.509  15.715  1.00  0.00     0.074 A 
ATOM     36  C   UNL     1      -0.219  -3.921  15.975  1.00  0.00     0.031 C 
ATOM     37  C   UNL     1       0.327  -1.521  16.275  1.00  0.00     0.034 A 
BRANCH  24  38
ATOM     38  C   UNL     1      -1.382   4.233  14.642  1.00  0.00     0.023 A 
ATOM     39  C   UNL     1      -2.419   5.051  15.126  1.00  0.00     0.031 A 
ATOM     40  C   UNL     1      -0.201   4.854  14.204  1.00  0.00     0.131 A 
ATOM     41  C   UNL     1      -2.285   6.447  15.086  1.00  0.00     0.055 A 
ATOM     42  C   UNL     1      -0.042   6.240  14.244  1.00  0.00     0.041 A 
ATOM     43  F   UNL     1       0.808   4.125  13.701  1.00  0.00    -0.206 F 
ATOM     44  C   UNL     1      -1.093   7.046  14.672  1.00  0.00     0.022 A 
BRANCH  41  45
ATOM     45  S   UNL     1      -3.744   7.468  15.432  1.00  0.00     0.124 S 
ATOM     46  O   UNL     1      -4.665   7.029  14.386  1.00  0.00    -0.237 OA
ATOM     47  O   UNL     1      -4.092   7.074  16.792  1.00  0.00    -0.237 OA
ATOM     48  O   UNL     1      -3.249   8.835  15.285  1.00  0.00    -0.744 OA
ENDBRANCH  41  45
ENDBRANCH  24  38
BRANCH  25  49
ATOM     49  C   UNL     1      -3.213  -5.625  13.514  1.00  0.00     0.023 A 
ATOM     50  C   UNL     1      -3.482  -6.467  14.606  1.00  0.00     0.031 A 
ATOM     51  C   UNL     1      -3.083  -6.226  12.247  1.00  0.00     0.131 A 
ATOM     52  C   UNL     1      -3.542  -7.860  14.423  1.00  0.00     0.055 A 
ATOM     53  C   UNL     1      -3.208  -7.604  12.060  1.00  0.00     0.041 A 
ATOM     54  F   UNL     1      -2.825  -5.477  11.163  1.00  0.00    -0.206 F 
ATOM     55  C   UNL     1      -3.419  -8.432  13.155  1.00  0.00     0.022 A 
BRANCH  52  56
ATOM     56  S   UNL     1      -3.653  -8.929  15.887  1.00  0.00     0.124 S 
ATOM     57  O   UNL     1      -2.506  -8.483  16.668  1.00  0.00    -0.237 OA
ATOM     58  O   UNL     1      -4.967  -8.577  16.416  1.00  0.00    -0.237 OA
ATOM     59  O   UNL     1      -3.548 -10.277  15.333  1.00  0.00    -0.744 OA
ENDBRANCH  52  56
ENDBRANCH  25  49
BRANCH  37  60
ATOM     60  C   UNL     1       1.391  -1.945  17.258  1.00  0.00     0.023 A 
ATOM     61  C   UNL     1       2.496  -2.718  16.863  1.00  0.00     0.031 A 
ATOM     62  C   UNL     1       1.288  -1.579  18.612  1.00  0.00     0.131 A 
ATOM     63  C   UNL     1       3.415  -3.162  17.823  1.00  0.00     0.055 A 
ATOM     64  C   UNL     1       2.248  -1.959  19.549  1.00  0.00     0.041 A 
ATOM     65  F   UNL     1       0.252  -0.844  19.045  1.00  0.00    -0.206 F 
ATOM     66  C   UNL     1       3.311  -2.769  19.160  1.00  0.00     0.022 A 
BRANCH  63  67
ATOM     67  S   UNL     1       4.680  -4.360  17.323  1.00  0.00     0.124 S 
ATOM     68  O   UNL     1       3.869  -5.452  16.794  1.00  0.00    -0.237 OA
ATOM     69  O   UNL     1       5.452  -3.606  16.341  1.00  0.00    -0.237 OA
ATOM     70  O   UNL     1       5.383  -4.655  18.570  1.00  0.00    -0.744 OA
ENDBRANCH  63  67
ENDBRANCH  37  60
ENDBRANCH  11  12
ENDBRANCH   4   6
ENDBRANCH   3   4
ENDBRANCH   2   3
ENDBRANCH   1   2
BRANCH   1  71
ATOM     71  O   UNL     1      -9.969  -1.110  10.210  1.00  0.00    -0.460 OA
BRANCH  71  72
ATOM     72  C   UNL     1      -9.733  -1.521   8.928  1.00  0.00     0.335 C 
ATOM     73  O   UNL     1     -10.578  -1.578   8.043  1.00  0.00    -0.249 OA
BRANCH  72  74
ATOM     74  C   UNL     1      -8.248  -1.860   8.747  1.00  0.00     0.228 C 
ATOM     75  C   UNL     1      -8.021  -3.336   8.508  1.00  0.00     0.047 C 
ATOM     76  O   UNL     1      -7.689  -1.174   7.616  1.00  0.00    -0.362 OA
ATOM     77  C   UNL     1      -8.061  -3.429   7.003  1.00  0.00     0.037 C 
ATOM     78  C   UNL     1      -7.438  -2.113   6.560  1.00  0.00     0.134 C 
BRANCH  78  79
ATOM     79  C   UNL     1      -5.919  -2.193   6.302  1.00  0.00     0.130 C 
BRANCH  79  80
ATOM     80  N   UNL     1      -5.654  -3.002   5.090  1.00  0.00    -0.213 NA
ATOM     81  H   UNL     1      -6.252  -2.639   4.348  1.00  0.00     0.141 HD
BRANCH  80  82
ATOM     82  S   UNL     1      -4.085  -3.049   4.487  1.00  0.00     0.214 S 
ATOM     83  O   UNL     1      -3.205  -3.195   5.619  1.00  0.00    -0.212 OA
ATOM     84  O   UNL     1      -4.102  -4.035   3.424  1.00  0.00    -0.212 OA
BRANCH  82  85
ATOM     85  C   UNL     1      -3.855  -1.439   3.773  1.00  0.00     0.185 C 
BRANCH  85  86
ATOM     86  C   UNL     1      -4.558  -1.181   2.446  1.00  0.00     0.134 C 
ATOM     87  C   UNL     1      -5.995  -1.636   2.259  1.00  0.00     0.035 C 
ATOM     88  O   UNL     1      -4.635   0.261   2.292  1.00  0.00    -0.377 OA
ATOM     89  C   UNL     1      -6.783  -0.544   2.930  1.00  0.00     0.031 C 
ATOM     90  C   UNL     1      -5.976   0.691   2.594  1.00  0.00     0.160 C 
ENDBRANCH  85  86
ENDBRANCH  82  85
ENDBRANCH  80  82
ENDBRANCH  79  80
ENDBRANCH  78  79
ENDBRANCH  72  74
ENDBRANCH  71  72
ENDBRANCH   1  71
TORSDOF 19
