REMARK SMILES CC(C)(CC(=O)Nc1sc2c(c1C#N)CCCCCC2)CC(=O)OCCOC(=O)c1ccc(-c2c3nc(c(-c4cc(S(=O)(=O)[O-])ccc4F)c4ccc([nH]4)c(-c4cc(S(=O)(=O)[O-])ccc4F)c4nc(c(-c5cc(S(=O)(=O)[O-])ccc5F)c5ccc2[nH]5)C=C4)C=C3)cc1
REMARK SMILES IDX 22 1 23 2 21 3 2 4 1 5 3 6 4 7 5 8 6 9 7 10 8 12 9 13 12 14
REMARK SMILES IDX 10 15 11 16 13 17 14 18 20 19 19 20 15 22 16 23 17 24 18 25
REMARK SMILES IDX 24 27 25 28 26 29 27 30 28 31 29 32 30 33 31 34 92 35 32 36
REMARK SMILES IDX 91 37 33 38 34 39 35 40 85 41 36 42 90 43 84 44 86 45 37 46
REMARK SMILES IDX 89 47 83 48 82 49 38 51 70 52 50 53 69 54 51 55 54 56 68 57
REMARK SMILES IDX 87 58 52 59 53 60 67 62 88 63 55 64 39 65 40 66 48 67 41 68
REMARK SMILES IDX 47 69 49 70 46 71 42 72 43 73 44 74 45 75 71 76 72 77 80 78
REMARK SMILES IDX 73 79 79 80 81 81 78 82 74 83 75 84 76 85 77 86 56 87 57 88
REMARK SMILES IDX 65 89 58 90 64 91 66 92 63 93 59 94 60 95 61 96 62 97
REMARK H PARENT 7 11 86 50 54 61
REMARK Flexibility Score: 90.00
ROOT
ATOM      1  C   UNL     1       0.322   2.552  -2.497  1.00  0.00     0.306 C 
ATOM      2  O   UNL     1       0.756   3.481  -3.171  1.00  0.00    -0.252 OA
ENDROOT
BRANCH   1   3
ATOM      3  C   UNL     1       0.619   1.108  -2.832  1.00  0.00     0.129 C 
BRANCH   3   4
ATOM      4  C   UNL     1       0.339  -0.109  -1.897  1.00  0.00    -0.016 C 
ATOM      5  C   UNL     1       1.465  -0.253  -0.899  1.00  0.00     0.012 C 
ATOM      6  C   UNL     1       0.531  -1.361  -2.817  1.00  0.00     0.012 C 
BRANCH   4   7
ATOM      7  C   UNL     1      -1.058  -0.264  -1.197  1.00  0.00     0.107 C 
BRANCH   7   8
ATOM      8  C   UNL     1      -1.732   0.648  -0.131  1.00  0.00     0.225 C 
ATOM      9  O   UNL     1      -2.658   1.390  -0.506  1.00  0.00    -0.275 OA
ATOM     10  N   UNL     1      -1.575   0.580   1.231  1.00  0.00    -0.317 N 
ATOM     11  H   UNL     1      -2.206   1.131   1.748  1.00  0.00     0.170 HD
BRANCH  10  12
ATOM     12  C   UNL     1      -0.679  -0.135   1.986  1.00  0.00     0.114 A 
ATOM     13  S   UNL     1       0.901   0.465   2.000  1.00  0.00    -0.121 S 
ATOM     14  C   UNL     1      -0.746  -0.812   3.198  1.00  0.00     0.090 A 
ATOM     15  C   UNL     1       1.476  -1.050   2.554  1.00  0.00     0.011 A 
ATOM     16  C   UNL     1       0.516  -1.507   3.450  1.00  0.00    -0.014 A 
BRANCH  14  17
ATOM     17  C   UNL     1      -1.931  -0.857   3.986  1.00  0.00     0.103 C 
ATOM     18  N   UNL     1      -2.927  -0.788   4.594  1.00  0.00    -0.192 NA
ENDBRANCH  14  17
BRANCH  15  19
ATOM     19  C   UNL     1       2.816  -1.535   2.070  1.00  0.00     0.047 C 
BRANCH  19  20
ATOM     20  C   UNL     1       3.512  -2.619   2.872  1.00  0.00     0.006 CG0
ATOM     21  G   UNL     1       2.972  -4.039   2.663  1.00  0.00     0.000 G0
ENDBRANCH  19  20
ENDBRANCH  15  19
BRANCH  16  22
ATOM     22  C   UNL     1       0.756  -2.586   4.462  1.00  0.00     0.038 C 
BRANCH  22  23
ATOM     23  C   UNL     1       0.661  -3.985   3.853  1.00  0.00     0.005 C 
BRANCH  23  24
ATOM     24  C   UNL     1       1.458  -4.234   2.567  1.00  0.00     0.000 C 
BRANCH  24  25
ATOM     25  C   UNL     1       2.972  -4.039   2.663  1.00  0.00     0.000 CG0
ATOM     26  G   UNL     1       3.512  -2.619   2.872  1.00  0.00     0.000 G0
ENDBRANCH  24  25
ENDBRANCH  23  24
ENDBRANCH  22  23
ENDBRANCH  16  22
ENDBRANCH  10  12
ENDBRANCH   7   8
ENDBRANCH   4   7
ENDBRANCH   3   4
ENDBRANCH   1   3
BRANCH   1  27
ATOM     27  O   UNL     1      -0.519   2.683  -1.459  1.00  0.00    -0.462 OA
BRANCH  27  28
ATOM     28  C   UNL     1      -0.849   4.014  -1.029  1.00  0.00     0.274 C 
BRANCH  28  29
ATOM     29  C   UNL     1      -0.392   4.181   0.413  1.00  0.00     0.275 C 
BRANCH  29  30
ATOM     30  O   UNL     1       0.984   4.590   0.543  1.00  0.00    -0.458 OA
BRANCH  30  31
ATOM     31  C   UNL     1       1.915   3.614   0.427  1.00  0.00     0.338 C 
ATOM     32  O   UNL     1       2.120   2.933  -0.562  1.00  0.00    -0.246 OA
BRANCH  31  33
ATOM     33  C   UNL     1       2.617   3.389   1.707  1.00  0.00     0.060 A 
ATOM     34  C   UNL     1       3.498   2.304   1.791  1.00  0.00     0.016 A 
ATOM     35  C   UNL     1       2.295   4.133   2.848  1.00  0.00     0.016 A 
ATOM     36  C   UNL     1       3.949   1.892   3.038  1.00  0.00     0.010 A 
ATOM     37  C   UNL     1       2.779   3.743   4.088  1.00  0.00     0.010 A 
ATOM     38  C   UNL     1       3.574   2.601   4.192  1.00  0.00    -0.014 A 
BRANCH  38  39
ATOM     39  C   UNL     1       4.396   2.417   5.399  1.00  0.00     0.031 A 
ATOM     40  C   UNL     1       5.816   2.724   5.037  1.00  0.00     0.074 A 
ATOM     41  C   UNL     1       3.923   2.217   6.653  1.00  0.00     0.049 A 
ATOM     42  N   UNL     1       6.798   1.890   4.918  1.00  0.00    -0.248 NA
ATOM     43  C   UNL     1       6.101   4.034   4.399  1.00  0.00     0.031 C 
ATOM     44  C   UNL     1       2.515   2.134   7.056  1.00  0.00     0.029 A 
ATOM     45  N   UNL     1       4.572   2.146   7.863  1.00  0.00    -0.354 N 
ATOM     46  C   UNL     1       7.889   2.679   4.551  1.00  0.00     0.074 A 
ATOM     47  C   UNL     1       7.335   3.841   3.934  1.00  0.00     0.031 C 
ATOM     48  C   UNL     1       2.409   2.273   8.399  1.00  0.00     0.029 A 
ATOM     49  C   UNL     1       3.739   2.329   8.986  1.00  0.00     0.049 A 
ATOM     50  H   UNL     1       5.540   1.982   7.939  1.00  0.00     0.167 HD
ATOM     51  C   UNL     1       9.068   2.529   5.217  1.00  0.00     0.034 A 
ATOM     52  C   UNL     1       4.119   2.541  10.288  1.00  0.00     0.034 A 
ATOM     53  C   UNL     1       9.089   1.229   5.852  1.00  0.00     0.049 A 
ATOM     54  C   UNL     1       5.504   2.030  10.394  1.00  0.00     0.074 A 
ATOM     55  C   UNL     1       9.187  -0.082   5.441  1.00  0.00     0.029 A 
ATOM     56  N   UNL     1       8.506   1.226   7.095  1.00  0.00    -0.354 N 
ATOM     57  N   UNL     1       5.800   0.767  10.248  1.00  0.00    -0.248 NA
ATOM     58  C   UNL     1       6.614   2.957  10.209  1.00  0.00     0.031 C 
ATOM     59  C   UNL     1       8.504  -0.857   6.426  1.00  0.00     0.029 A 
ATOM     60  C   UNL     1       8.100  -0.024   7.468  1.00  0.00     0.049 A 
ATOM     61  H   UNL     1       8.394   2.030   7.652  1.00  0.00     0.167 HD
ATOM     62  C   UNL     1       6.987   0.769   9.542  1.00  0.00     0.074 A 
ATOM     63  C   UNL     1       7.516   2.124   9.681  1.00  0.00     0.031 C 
ATOM     64  C   UNL     1       7.253  -0.214   8.632  1.00  0.00     0.034 A 
BRANCH  51  65
ATOM     65  C   UNL     1       9.864   3.699   5.809  1.00  0.00     0.023 A 
ATOM     66  C   UNL     1      10.913   3.363   6.691  1.00  0.00     0.031 A 
ATOM     67  C   UNL     1       9.498   5.067   5.812  1.00  0.00     0.131 A 
ATOM     68  C   UNL     1      11.454   4.311   7.581  1.00  0.00     0.055 A 
ATOM     69  C   UNL     1      10.057   6.011   6.680  1.00  0.00     0.041 A 
ATOM     70  F   UNL     1       8.545   5.581   5.031  1.00  0.00    -0.206 F 
ATOM     71  C   UNL     1      11.022   5.632   7.591  1.00  0.00     0.022 A 
BRANCH  68  72
ATOM     72  S   UNL     1      12.634   3.751   8.834  1.00  0.00     0.124 S 
ATOM     73  O   UNL     1      11.865   2.720   9.520  1.00  0.00    -0.237 OA
ATOM     74  O   UNL     1      13.746   3.290   8.009  1.00  0.00    -0.237 OA
ATOM     75  O   UNL     1      12.898   4.959   9.612  1.00  0.00    -0.744 OA
ENDBRANCH  68  72
ENDBRANCH  51  65
BRANCH  52  76
ATOM     76  C   UNL     1       3.516   3.457  11.325  1.00  0.00     0.023 A 
ATOM     77  C   UNL     1       3.785   3.405  12.725  1.00  0.00     0.031 A 
ATOM     78  C   UNL     1       2.845   4.614  10.874  1.00  0.00     0.131 A 
ATOM     79  C   UNL     1       3.392   4.477  13.582  1.00  0.00     0.055 A 
ATOM     80  C   UNL     1       2.479   5.668  11.717  1.00  0.00     0.041 A 
ATOM     81  F   UNL     1       2.597   4.804   9.569  1.00  0.00    -0.206 F 
ATOM     82  C   UNL     1       2.760   5.611  13.071  1.00  0.00     0.022 A 
BRANCH  79  83
ATOM     83  S   UNL     1       3.733   4.471  15.388  1.00  0.00     0.124 S 
ATOM     84  O   UNL     1       2.940   3.341  15.856  1.00  0.00    -0.237 OA
ATOM     85  O   UNL     1       5.181   4.316  15.440  1.00  0.00    -0.237 OA
ATOM     86  O   UNL     1       3.246   5.779  15.835  1.00  0.00    -0.744 OA
ENDBRANCH  79  83
ENDBRANCH  52  76
BRANCH  64  87
ATOM     87  C   UNL     1       6.601  -1.560   8.825  1.00  0.00     0.023 A 
ATOM     88  C   UNL     1       5.218  -1.844   8.773  1.00  0.00     0.031 A 
ATOM     89  C   UNL     1       7.487  -2.635   9.025  1.00  0.00     0.131 A 
ATOM     90  C   UNL     1       4.778  -3.177   8.917  1.00  0.00     0.055 A 
ATOM     91  C   UNL     1       7.049  -3.948   9.143  1.00  0.00     0.041 A 
ATOM     92  F   UNL     1       8.812  -2.423   9.078  1.00  0.00    -0.206 F 
ATOM     93  C   UNL     1       5.691  -4.224   9.096  1.00  0.00     0.022 A 
BRANCH  90  94
ATOM     94  S   UNL     1       3.000  -3.587   8.912  1.00  0.00     0.124 S 
ATOM     95  O   UNL     1       2.426  -2.618   9.837  1.00  0.00    -0.237 OA
ATOM     96  O   UNL     1       2.638  -3.418   7.505  1.00  0.00    -0.237 OA
ATOM     97  O   UNL     1       2.968  -4.973   9.381  1.00  0.00    -0.744 OA
ENDBRANCH  90  94
ENDBRANCH  64  87
ENDBRANCH  38  39
ENDBRANCH  31  33
ENDBRANCH  30  31
ENDBRANCH  29  30
ENDBRANCH  28  29
ENDBRANCH  27  28
ENDBRANCH   1  27
TORSDOF 19
