REMARK SMILES CCCC(=O)N(c1cc2sc(=O)oc2c2ccccc12)S(=O)(=O)c1ccc(C(=O)OCCOC(=O)c2ccc(-c3c4nc(c(-c5cc(S(=O)(=O)[O-])ccc5F)c5ccc([nH]5)c(-c5cc(S(=O)(=O)[O-])ccc5F)c5nc(c(-c6cc(S(=O)(=O)[O-])ccc6F)c6ccc3[nH]6)C=C5)C=C4)cc2)cc1
REMARK SMILES IDX 31 1 30 2 28 3 29 4 27 5 24 6 25 7 100 8 26 9 99 10 21 11
REMARK SMILES IDX 22 12 23 13 6 14 4 15 5 16 3 17 2 18 1 19 7 20 8 21 20 22
REMARK SMILES IDX 9 23 15 24 19 25 10 26 14 27 16 28 18 29 11 30 13 31 17 32
REMARK SMILES IDX 12 33 32 34 33 35 34 36 35 37 36 38 37 39 98 40 38 41 97 42
REMARK SMILES IDX 39 43 40 44 41 45 91 46 42 47 96 48 90 49 92 50 43 51 95 52
REMARK SMILES IDX 89 53 88 54 44 56 76 57 56 58 75 59 57 60 60 61 74 62 93 63
REMARK SMILES IDX 58 64 59 65 73 67 94 68 61 69 45 70 46 71 54 72 47 73 53 74
REMARK SMILES IDX 55 75 52 76 48 77 49 78 50 79 51 80 77 81 78 82 86 83 79 84
REMARK SMILES IDX 85 85 87 86 84 87 80 88 81 89 82 90 83 91 62 92 63 93 71 94
REMARK SMILES IDX 64 95 70 96 72 97 69 98 65 99 66 100 67 101 68 102
REMARK H PARENT 92 55 60 66
REMARK Flexibility Score: inf
ROOT
ATOM      1  C   UNL     1       2.345   9.051   0.861  1.00  0.00     0.275 C 
ENDROOT
BRANCH   1   2
ATOM      2  O   UNL     1       2.176   7.686   1.276  1.00  0.00    -0.458 OA
BRANCH   2   3
ATOM      3  C   UNL     1       2.258   7.412   2.601  1.00  0.00     0.338 C 
ATOM      4  O   UNL     1       2.632   8.173   3.475  1.00  0.00    -0.246 OA
BRANCH   3   5
ATOM      5  C   UNL     1       1.712   6.051   2.836  1.00  0.00     0.060 A 
ATOM      6  C   UNL     1       0.623   3.478   3.187  1.00  0.00     0.088 A 
ATOM      7  C   UNL     1       0.628   4.393   4.250  1.00  0.00     0.023 A 
ATOM      8  C   UNL     1       1.068   3.905   1.940  1.00  0.00     0.023 A 
ATOM      9  C   UNL     1       1.157   5.684   4.070  1.00  0.00     0.017 A 
ATOM     10  C   UNL     1       1.681   5.142   1.781  1.00  0.00     0.017 A 
BRANCH   6  11
ATOM     11  S   UNL     1      -0.043   1.830   3.460  1.00  0.00     0.270 S 
ATOM     12  O   UNL     1      -1.396   1.885   2.946  1.00  0.00    -0.201 OA
ATOM     13  O   UNL     1       0.250   1.535   4.849  1.00  0.00    -0.201 OA
BRANCH  11  14
ATOM     14  N   UNL     1       0.823   0.640   2.584  1.00  0.00    -0.202 N 
BRANCH  14  15
ATOM     15  C   UNL     1       0.394  -0.727   2.681  1.00  0.00     0.241 C 
ATOM     16  O   UNL     1      -0.678  -1.049   3.188  1.00  0.00    -0.273 OA
BRANCH  15  17
ATOM     17  C   UNL     1       1.315  -1.831   2.166  1.00  0.00     0.101 C 
BRANCH  17  18
ATOM     18  C   UNL     1       0.954  -2.348   0.771  1.00  0.00     0.006 C 
ATOM     19  C   UNL     1       2.100  -2.199  -0.222  1.00  0.00     0.004 C 
ENDBRANCH  17  18
ENDBRANCH  15  17
ENDBRANCH  14  15
BRANCH  14  20
ATOM     20  C   UNL     1       1.640   0.998   1.468  1.00  0.00     0.070 A 
ATOM     21  C   UNL     1       2.953   1.393   1.772  1.00  0.00     0.051 A 
ATOM     22  C   UNL     1       1.145   1.018   0.119  1.00  0.00     0.010 A 
ATOM     23  C   UNL     1       3.754   1.868   0.752  1.00  0.00     0.080 A 
ATOM     24  C   UNL     1       2.032   1.406  -0.921  1.00  0.00     0.028 A 
ATOM     25  C   UNL     1      -0.178   0.677  -0.250  1.00  0.00     0.011 A 
ATOM     26  S   UNL     1       5.347   2.583   0.883  1.00  0.00    -0.052 S 
ATOM     27  C   UNL     1       3.304   1.876  -0.563  1.00  0.00     0.157 A 
ATOM     28  C   UNL     1       1.624   1.307  -2.267  1.00  0.00     0.013 A 
ATOM     29  C   UNL     1      -0.560   0.567  -1.590  1.00  0.00     0.001 A 
ATOM     30  C   UNL     1       5.292   2.915  -0.849  1.00  0.00     0.396 A 
ATOM     31  O   UNL     1       4.170   2.428  -1.516  1.00  0.00    -0.413 OA
ATOM     32  C   UNL     1       0.350   0.852  -2.598  1.00  0.00     0.001 A 
ATOM     33  O   UNL     1       6.186   3.517  -1.428  1.00  0.00    -0.233 OA
ENDBRANCH  14  20
ENDBRANCH  11  14
ENDBRANCH   6  11
ENDBRANCH   3   5
ENDBRANCH   2   3
ENDBRANCH   1   2
BRANCH   1  34
ATOM     34  C   UNL     1       0.980   9.613   0.461  1.00  0.00     0.275 C 
BRANCH  34  35
ATOM     35  O   UNL     1       0.286  10.090   1.623  1.00  0.00    -0.458 OA
BRANCH  35  36
ATOM     36  C   UNL     1      -0.551   9.215   2.228  1.00  0.00     0.338 C 
ATOM     37  O   UNL     1      -0.921   8.128   1.827  1.00  0.00    -0.246 OA
BRANCH  36  38
ATOM     38  C   UNL     1      -0.852   9.785   3.544  1.00  0.00     0.060 A 
ATOM     39  C   UNL     1      -1.829  10.767   3.694  1.00  0.00     0.016 A 
ATOM     40  C   UNL     1      -0.088   9.363   4.630  1.00  0.00     0.016 A 
ATOM     41  C   UNL     1      -2.040  11.320   4.957  1.00  0.00     0.010 A 
ATOM     42  C   UNL     1      -0.281   9.927   5.878  1.00  0.00     0.010 A 
ATOM     43  C   UNL     1      -1.275  10.889   6.054  1.00  0.00    -0.014 A 
BRANCH  43  44
ATOM     44  C   UNL     1      -1.612  11.376   7.403  1.00  0.00     0.031 A 
ATOM     45  C   UNL     1      -1.851  10.257   8.390  1.00  0.00     0.074 A 
ATOM     46  C   UNL     1      -1.117  12.560   7.828  1.00  0.00     0.049 A 
ATOM     47  N   UNL     1      -0.893   9.575   8.952  1.00  0.00    -0.248 NA
ATOM     48  C   UNL     1      -3.168   9.636   8.546  1.00  0.00     0.031 C 
ATOM     49  C   UNL     1       0.213  13.068   7.455  1.00  0.00     0.029 A 
ATOM     50  N   UNL     1      -1.544  13.423   8.812  1.00  0.00    -0.354 N 
ATOM     51  C   UNL     1      -1.455   8.434   9.515  1.00  0.00     0.074 A 
ATOM     52  C   UNL     1      -2.872   8.522   9.237  1.00  0.00     0.031 C 
ATOM     53  C   UNL     1       0.568  14.034   8.326  1.00  0.00     0.029 A 
ATOM     54  C   UNL     1      -0.543  14.301   9.236  1.00  0.00     0.049 A 
ATOM     55  H   UNL     1      -2.458  13.421   9.179  1.00  0.00     0.167 HD
ATOM     56  C   UNL     1      -0.726   7.490  10.179  1.00  0.00     0.034 A 
ATOM     57  C   UNL     1      -0.410  14.738  10.522  1.00  0.00     0.034 A 
ATOM     58  C   UNL     1       0.682   7.766  10.267  1.00  0.00     0.049 A 
ATOM     59  C   UNL     1       0.187  13.499  11.161  1.00  0.00     0.074 A 
ATOM     60  C   UNL     1       1.858   7.325   9.703  1.00  0.00     0.029 A 
ATOM     61  N   UNL     1       1.083   8.731  11.160  1.00  0.00    -0.354 N 
ATOM     62  N   UNL     1       1.425  13.083  11.053  1.00  0.00    -0.248 NA
ATOM     63  C   UNL     1      -0.759  12.482  11.621  1.00  0.00     0.031 C 
ATOM     64  C   UNL     1       2.811   8.370   9.941  1.00  0.00     0.029 A 
ATOM     65  C   UNL     1       2.147   9.398  10.612  1.00  0.00     0.049 A 
ATOM     66  H   UNL     1       0.677   8.911  12.039  1.00  0.00     0.167 HD
ATOM     67  C   UNL     1       1.361  11.688  11.157  1.00  0.00     0.074 A 
ATOM     68  C   UNL     1      -0.015  11.393  11.504  1.00  0.00     0.031 C 
ATOM     69  C   UNL     1       2.360  10.825  10.793  1.00  0.00     0.034 A 
BRANCH  56  70
ATOM     70  C   UNL     1      -1.292   6.376  10.992  1.00  0.00     0.023 A 
ATOM     71  C   UNL     1      -1.734   5.147  10.478  1.00  0.00     0.031 A 
ATOM     72  C   UNL     1      -1.205   6.518  12.394  1.00  0.00     0.131 A 
ATOM     73  C   UNL     1      -2.047   4.103  11.375  1.00  0.00     0.055 A 
ATOM     74  C   UNL     1      -1.491   5.476  13.271  1.00  0.00     0.041 A 
ATOM     75  F   UNL     1      -0.800   7.682  12.931  1.00  0.00    -0.206 F 
ATOM     76  C   UNL     1      -1.909   4.258  12.761  1.00  0.00     0.022 A 
BRANCH  73  77
ATOM     77  S   UNL     1      -2.631   2.479  10.805  1.00  0.00     0.124 S 
ATOM     78  O   UNL     1      -1.616   1.578  11.345  1.00  0.00    -0.237 OA
ATOM     79  O   UNL     1      -3.943   2.391  11.442  1.00  0.00    -0.237 OA
ATOM     80  O   UNL     1      -2.651   2.610   9.352  1.00  0.00    -0.744 OA
ENDBRANCH  73  77
ENDBRANCH  56  70
BRANCH  57  81
ATOM     81  C   UNL     1      -1.616  15.458  11.060  1.00  0.00     0.023 A 
ATOM     82  C   UNL     1      -2.338  15.083  12.202  1.00  0.00     0.031 A 
ATOM     83  C   UNL     1      -2.123  16.552  10.323  1.00  0.00     0.131 A 
ATOM     84  C   UNL     1      -3.612  15.626  12.441  1.00  0.00     0.055 A 
ATOM     85  C   UNL     1      -3.357  17.144  10.606  1.00  0.00     0.041 A 
ATOM     86  F   UNL     1      -1.431  17.050   9.284  1.00  0.00    -0.206 F 
ATOM     87  C   UNL     1      -4.130  16.649  11.646  1.00  0.00     0.022 A 
BRANCH  84  88
ATOM     88  S   UNL     1      -4.686  14.925  13.725  1.00  0.00     0.124 S 
ATOM     89  O   UNL     1      -5.162  16.119  14.418  1.00  0.00    -0.237 OA
ATOM     90  O   UNL     1      -5.679  14.226  12.914  1.00  0.00    -0.237 OA
ATOM     91  O   UNL     1      -3.785  14.071  14.490  1.00  0.00    -0.744 OA
ENDBRANCH  84  88
ENDBRANCH  57  81
BRANCH  69  92
ATOM     92  C   UNL     1       3.681  11.422  10.399  1.00  0.00     0.023 A 
ATOM     93  C   UNL     1       4.265  11.138   9.146  1.00  0.00     0.031 A 
ATOM     94  C   UNL     1       4.434  12.161  11.324  1.00  0.00     0.131 A 
ATOM     95  C   UNL     1       5.590  11.514   8.889  1.00  0.00     0.055 A 
ATOM     96  C   UNL     1       5.729  12.595  11.034  1.00  0.00     0.041 A 
ATOM     97  F   UNL     1       3.953  12.421  12.551  1.00  0.00    -0.206 F 
ATOM     98  C   UNL     1       6.320  12.255   9.820  1.00  0.00     0.022 A 
BRANCH  95  99
ATOM     99  S   UNL     1       6.450  10.970   7.386  1.00  0.00     0.124 S 
ATOM    100  O   UNL     1       7.025  12.216   6.882  1.00  0.00    -0.237 OA
ATOM    101  O   UNL     1       7.417  10.014   7.923  1.00  0.00    -0.237 OA
ATOM    102  O   UNL     1       5.394  10.394   6.561  1.00  0.00    -0.744 OA
ENDBRANCH  95  99
ENDBRANCH  69  92
ENDBRANCH  43  44
ENDBRANCH  36  38
ENDBRANCH  35  36
ENDBRANCH  34  35
ENDBRANCH   1  34
TORSDOF 20
