REMARK SMILES C[C@@H](C(=O)OCCOC(=O)c1ccc(-c2c3nc(c(-c4cc(S(=O)(=O)[O-])ccc4F)c4ccc([nH]4)c(-c4cc(S(=O)(=O)[O-])ccc4F)c4nc(c(-c5cc(S(=O)(=O)[O-])ccc5F)c5ccc2[nH]5)C=C4)C=C3)cc1)c1ccc(-c2cccc(OC(=O)Nc3ccccc3)c2)c(F)c1
REMARK SMILES IDX 6 1 5 2 3 3 4 4 2 5 1 6 74 7 75 8 96 9 76 10 94 11 77 12
REMARK SMILES IDX 95 13 78 14 79 15 93 16 80 17 82 18 81 19 83 20 84 21 85 22
REMARK SMILES IDX 86 23 87 25 88 26 92 27 89 28 91 29 90 30 7 31 8 32 9 33
REMARK SMILES IDX 10 34 11 35 12 36 73 37 13 38 72 39 14 40 15 41 16 42 66 43
REMARK SMILES IDX 17 44 71 45 65 46 67 47 18 48 70 49 64 50 63 51 19 53 51 54
REMARK SMILES IDX 31 55 50 56 32 57 35 58 49 59 68 60 33 61 34 62 48 64 69 65
REMARK SMILES IDX 36 66 20 67 21 68 29 69 22 70 28 71 30 72 27 73 23 74 24 75
REMARK SMILES IDX 25 76 26 77 52 78 53 79 61 80 54 81 60 82 62 83 59 84 55 85
REMARK SMILES IDX 56 86 57 87 58 88 37 89 38 90 46 91 39 92 45 93 47 94 44 95
REMARK SMILES IDX 40 96 41 97 42 98 43 99
REMARK H PARENT 86 24 67 52 35 63
REMARK Flexibility Score: inf
ROOT
ATOM      1  C   UNL     1       2.731   1.814   3.144  1.00  0.00     0.274 C 
ENDROOT
BRANCH   1   2
ATOM      2  O   UNL     1       2.286   1.062   1.997  1.00  0.00    -0.462 OA
BRANCH   2   3
ATOM      3  C   UNL     1       1.274   0.171   2.199  1.00  0.00     0.313 C 
ATOM      4  O   UNL     1       0.773  -0.054   3.295  1.00  0.00    -0.252 OA
BRANCH   3   5
ATOM      5  C   UNL     1       0.882  -0.577   0.918  1.00  0.00     0.126 C 
ATOM      6  C   UNL     1       1.563  -0.042  -0.344  1.00  0.00     0.025 C 
BRANCH   5   7
ATOM      7  C   UNL     1      -0.631  -0.676   0.767  1.00  0.00    -0.031 A 
ATOM      8  C   UNL     1      -1.396   0.321   0.150  1.00  0.00     0.005 A 
ATOM      9  C   UNL     1      -1.312  -1.770   1.314  1.00  0.00     0.044 A 
ATOM     10  C   UNL     1      -2.799   0.251   0.139  1.00  0.00     0.012 A 
ATOM     11  C   UNL     1      -2.709  -1.836   1.287  1.00  0.00     0.131 A 
ATOM     12  C   UNL     1      -3.499  -0.808   0.748  1.00  0.00     0.018 A 
ATOM     13  F   UNL     1      -3.272  -2.930   1.823  1.00  0.00    -0.206 F 
BRANCH  12  14
ATOM     14  C   UNL     1      -4.979  -0.768   0.900  1.00  0.00    -0.012 A 
ATOM     15  C   UNL     1      -5.808  -0.107  -0.030  1.00  0.00     0.009 A 
ATOM     16  C   UNL     1      -5.609  -1.329   2.031  1.00  0.00     0.056 A 
ATOM     17  C   UNL     1      -7.188   0.015   0.169  1.00  0.00     0.004 A 
ATOM     18  C   UNL     1      -6.986  -1.226   2.211  1.00  0.00     0.133 A 
ATOM     19  C   UNL     1      -7.779  -0.545   1.294  1.00  0.00     0.047 A 
BRANCH  18  20
ATOM     20  O   UNL     1      -7.696  -1.830   3.277  1.00  0.00    -0.410 OA
BRANCH  20  21
ATOM     21  C   UNL     1      -7.209  -2.465   4.415  1.00  0.00     0.417 C 
ATOM     22  O   UNL     1      -6.030  -2.494   4.757  1.00  0.00    -0.224 OA
ATOM     23  N   UNL     1      -8.174  -3.063   5.188  1.00  0.00    -0.291 N 
ATOM     24  H   UNL     1      -7.840  -3.458   6.025  1.00  0.00     0.173 HD
BRANCH  23  25
ATOM     25  C   UNL     1      -9.561  -3.208   4.986  1.00  0.00     0.044 A 
ATOM     26  C   UNL     1     -10.306  -3.643   6.085  1.00  0.00     0.026 A 
ATOM     27  C   UNL     1     -10.239  -2.924   3.800  1.00  0.00     0.026 A 
ATOM     28  C   UNL     1     -11.701  -3.682   6.038  1.00  0.00     0.002 A 
ATOM     29  C   UNL     1     -11.636  -2.981   3.743  1.00  0.00     0.002 A 
ATOM     30  C   UNL     1     -12.369  -3.336   4.870  1.00  0.00     0.000 A 
ENDBRANCH  23  25
ENDBRANCH  20  21
ENDBRANCH  18  20
ENDBRANCH  12  14
ENDBRANCH   5   7
ENDBRANCH   3   5
ENDBRANCH   2   3
ENDBRANCH   1   2
BRANCH   1  31
ATOM     31  C   UNL     1       2.252   3.259   3.052  1.00  0.00     0.275 C 
BRANCH  31  32
ATOM     32  O   UNL     1       0.827   3.305   3.225  1.00  0.00    -0.458 OA
BRANCH  32  33
ATOM     33  C   UNL     1       0.112   3.633   2.124  1.00  0.00     0.338 C 
ATOM     34  O   UNL     1       0.543   3.953   1.031  1.00  0.00    -0.246 OA
BRANCH  33  35
ATOM     35  C   UNL     1      -1.324   3.528   2.424  1.00  0.00     0.060 A 
ATOM     36  C   UNL     1      -1.853   2.303   2.817  1.00  0.00     0.016 A 
ATOM     37  C   UNL     1      -2.168   4.609   2.166  1.00  0.00     0.016 A 
ATOM     38  C   UNL     1      -3.235   2.126   2.832  1.00  0.00     0.010 A 
ATOM     39  C   UNL     1      -3.554   4.448   2.284  1.00  0.00     0.010 A 
ATOM     40  C   UNL     1      -4.112   3.186   2.557  1.00  0.00    -0.014 A 
BRANCH  40  41
ATOM     41  C   UNL     1      -5.590   2.954   2.472  1.00  0.00     0.031 A 
ATOM     42  C   UNL     1      -6.341   3.353   1.221  1.00  0.00     0.074 A 
ATOM     43  C   UNL     1      -6.255   2.365   3.489  1.00  0.00     0.049 A 
ATOM     44  N   UNL     1      -7.630   3.436   1.011  1.00  0.00    -0.248 NA
ATOM     45  C   UNL     1      -5.529   3.730   0.051  1.00  0.00     0.031 C 
ATOM     46  C   UNL     1      -5.634   1.875   4.721  1.00  0.00     0.029 A 
ATOM     47  N   UNL     1      -7.589   2.067   3.659  1.00  0.00    -0.354 N 
ATOM     48  C   UNL     1      -7.781   3.936  -0.280  1.00  0.00     0.074 A 
ATOM     49  C   UNL     1      -6.450   4.146  -0.806  1.00  0.00     0.031 C 
ATOM     50  C   UNL     1      -6.569   1.314   5.497  1.00  0.00     0.029 A 
ATOM     51  C   UNL     1      -7.880   1.520   4.892  1.00  0.00     0.049 A 
ATOM     52  H   UNL     1      -8.271   2.229   2.967  1.00  0.00     0.167 HD
ATOM     53  C   UNL     1      -8.928   4.192  -0.957  1.00  0.00     0.034 A 
ATOM     54  C   UNL     1      -9.059   1.276   5.509  1.00  0.00     0.034 A 
ATOM     55  C   UNL     1     -10.239   3.889  -0.432  1.00  0.00     0.049 A 
ATOM     56  C   UNL     1     -10.319   1.515   4.713  1.00  0.00     0.074 A 
ATOM     57  C   UNL     1     -11.474   4.097  -1.021  1.00  0.00     0.029 A 
ATOM     58  N   UNL     1     -10.483   3.292   0.801  1.00  0.00    -0.354 N 
ATOM     59  N   UNL     1     -10.442   2.021   3.503  1.00  0.00    -0.248 NA
ATOM     60  C   UNL     1     -11.592   1.136   5.333  1.00  0.00     0.031 C 
ATOM     61  C   UNL     1     -12.463   3.673  -0.127  1.00  0.00     0.029 A 
ATOM     62  C   UNL     1     -11.847   3.136   0.994  1.00  0.00     0.049 A 
ATOM     63  H   UNL     1      -9.788   3.021   1.443  1.00  0.00     0.167 HD
ATOM     64  C   UNL     1     -11.805   2.031   3.228  1.00  0.00     0.074 A 
ATOM     65  C   UNL     1     -12.457   1.421   4.370  1.00  0.00     0.031 C 
ATOM     66  C   UNL     1     -12.466   2.521   2.146  1.00  0.00     0.034 A 
BRANCH  53  67
ATOM     67  C   UNL     1      -8.824   4.883  -2.300  1.00  0.00     0.023 A 
ATOM     68  C   UNL     1      -8.228   4.279  -3.420  1.00  0.00     0.031 A 
ATOM     69  C   UNL     1      -9.330   6.189  -2.453  1.00  0.00     0.131 A 
ATOM     70  C   UNL     1      -8.104   4.998  -4.623  1.00  0.00     0.055 A 
ATOM     71  C   UNL     1      -9.267   6.871  -3.670  1.00  0.00     0.041 A 
ATOM     72  F   UNL     1      -9.893   6.828  -1.415  1.00  0.00    -0.206 F 
ATOM     73  C   UNL     1      -8.639   6.281  -4.761  1.00  0.00     0.022 A 
BRANCH  70  74
ATOM     74  S   UNL     1      -7.120   4.282  -5.969  1.00  0.00     0.124 S 
ATOM     75  O   UNL     1      -5.836   4.057  -5.311  1.00  0.00    -0.237 OA
ATOM     76  O   UNL     1      -7.881   3.085  -6.310  1.00  0.00    -0.237 OA
ATOM     77  O   UNL     1      -7.116   5.330  -6.987  1.00  0.00    -0.744 OA
ENDBRANCH  70  74
ENDBRANCH  53  67
BRANCH  54  78
ATOM     78  C   UNL     1      -9.064   0.892   6.967  1.00  0.00     0.023 A 
ATOM     79  C   UNL     1      -9.681  -0.268   7.470  1.00  0.00     0.031 A 
ATOM     80  C   UNL     1      -8.392   1.709   7.905  1.00  0.00     0.131 A 
ATOM     81  C   UNL     1      -9.582  -0.589   8.840  1.00  0.00     0.055 A 
ATOM     82  C   UNL     1      -8.229   1.347   9.243  1.00  0.00     0.041 A 
ATOM     83  F   UNL     1      -7.831   2.868   7.521  1.00  0.00    -0.206 F 
ATOM     84  C   UNL     1      -8.827   0.192   9.717  1.00  0.00     0.022 A 
BRANCH  81  85
ATOM     85  S   UNL     1     -10.525  -1.974   9.543  1.00  0.00     0.124 S 
ATOM     86  O   UNL     1     -11.755  -1.961   8.761  1.00  0.00    -0.237 OA
ATOM     87  O   UNL     1      -9.625  -3.099   9.306  1.00  0.00    -0.237 OA
ATOM     88  O   UNL     1     -10.685  -1.594  10.945  1.00  0.00    -0.744 OA
ENDBRANCH  81  85
ENDBRANCH  54  78
BRANCH  66  89
ATOM     89  C   UNL     1     -13.970   2.403   2.155  1.00  0.00     0.023 A 
ATOM     90  C   UNL     1     -14.754   3.130   3.068  1.00  0.00     0.031 A 
ATOM     91  C   UNL     1     -14.628   1.566   1.237  1.00  0.00     0.131 A 
ATOM     92  C   UNL     1     -16.146   2.964   3.082  1.00  0.00     0.055 A 
ATOM     93  C   UNL     1     -16.019   1.451   1.216  1.00  0.00     0.041 A 
ATOM     94  F   UNL     1     -13.929   0.851   0.341  1.00  0.00    -0.206 F 
ATOM     95  C   UNL     1     -16.785   2.142   2.151  1.00  0.00     0.022 A 
BRANCH  92  96
ATOM     96  S   UNL     1     -17.103   3.768   4.395  1.00  0.00     0.124 S 
ATOM     97  O   UNL     1     -16.497   3.206   5.598  1.00  0.00    -0.237 OA
ATOM     98  O   UNL     1     -16.844   5.183   4.149  1.00  0.00    -0.237 OA
ATOM     99  O   UNL     1     -18.474   3.334   4.133  1.00  0.00    -0.744 OA
ENDBRANCH  92  96
ENDBRANCH  66  89
ENDBRANCH  40  41
ENDBRANCH  33  35
ENDBRANCH  32  33
ENDBRANCH  31  32
ENDBRANCH   1  31
TORSDOF 19
