REMARK SMILES CC(C)(C)c1cc2c(cc1Cl)C=C(C(=O)OCCOC(=O)c1ccc(-c3c4nc(c(-c5cc(S(=O)(=O)[O-])ccc5F)c5ccc([nH]5)c(-c5cc(S(=O)(=O)[O-])ccc5F)c5nc(c(-c6cc(S(=O)(=O)[O-])ccc6F)c6ccc3[nH]6)C=C5)C=C4)cc1)[C@@H](C(F)(F)F)O2
REMARK SMILES IDX 18 1 17 2 16 3 14 4 15 5 13 6 5 7 6 8 10 9 7 10 9 11 11 12
REMARK SMILES IDX 8 13 90 14 12 15 85 16 2 17 1 18 3 19 4 20 86 21 87 22 88 23
REMARK SMILES IDX 89 24 19 25 20 26 21 27 22 28 23 29 84 30 24 31 83 32 25 33
REMARK SMILES IDX 26 34 27 35 77 36 28 37 82 38 76 39 78 40 29 41 81 42 75 43
REMARK SMILES IDX 74 44 30 46 62 47 42 48 61 49 43 50 46 51 60 52 79 53 44 54
REMARK SMILES IDX 45 55 59 57 80 58 47 59 31 60 32 61 40 62 33 63 39 64 41 65
REMARK SMILES IDX 38 66 34 67 35 68 36 69 37 70 63 71 64 72 72 73 65 74 71 75
REMARK SMILES IDX 73 76 70 77 66 78 67 79 68 80 69 81 48 82 49 83 57 84 50 85
REMARK SMILES IDX 56 86 58 87 55 88 51 89 52 90 53 91 54 92
REMARK H PARENT 78 45 46 56
REMARK Flexibility Score: inf
ROOT
ATOM      1  C   UNL     1       3.687   5.475  -9.150  1.00  0.00     0.275 C 
ENDROOT
BRANCH   1   2
ATOM      2  C   UNL     1       2.279   5.691  -8.593  1.00  0.00     0.275 C 
BRANCH   2   3
ATOM      3  O   UNL     1       2.118   5.081  -7.293  1.00  0.00    -0.459 OA
BRANCH   3   4
ATOM      4  C   UNL     1       1.454   3.904  -7.291  1.00  0.00     0.338 C 
ATOM      5  O   UNL     1       0.960   3.349  -8.261  1.00  0.00    -0.246 OA
BRANCH   4   6
ATOM      6  C   UNL     1       1.400   3.325  -5.938  1.00  0.00     0.087 C 
ATOM      7  C   UNL     1       0.926  -0.074  -2.209  1.00  0.00    -0.020 A 
ATOM      8  C   UNL     1       0.669   1.324  -2.355  1.00  0.00     0.053 A 
ATOM      9  C   UNL     1       1.539  -0.712  -3.307  1.00  0.00     0.045 A 
ATOM     10  C   UNL     1       0.978   2.038  -3.515  1.00  0.00     0.128 A 
ATOM     11  C   UNL     1       1.866   0.013  -4.461  1.00  0.00     0.032 A 
ATOM     12  Cl  UNL     1       1.913  -2.392  -3.429  1.00  0.00    -0.084 Cl
ATOM     13  C   UNL     1       1.573   1.372  -4.568  1.00  0.00     0.019 A 
ATOM     14  O   UNL     1       0.662   3.368  -3.546  1.00  0.00    -0.475 OA
ATOM     15  C   UNL     1       1.817   2.063  -5.811  1.00  0.00     0.027 C 
ATOM     16  C   UNL     1       0.751   4.084  -4.818  1.00  0.00     0.316 C 
BRANCH   7  17
ATOM     17  C   UNL     1       0.453  -0.742  -0.894  1.00  0.00    -0.012 C 
ATOM     18  C   UNL     1       0.981   0.058   0.324  1.00  0.00     0.016 C 
ATOM     19  C   UNL     1       0.878  -2.203  -0.629  1.00  0.00     0.016 C 
ATOM     20  C   UNL     1      -1.093  -0.727  -0.884  1.00  0.00     0.016 C 
ENDBRANCH   7  17
BRANCH  16  21
ATOM     21  C   UNL     1      -0.651   4.585  -5.197  1.00  0.00     0.430 C 
ATOM     22  F   UNL     1      -1.210   5.289  -4.180  1.00  0.00    -0.167 F 
ATOM     23  F   UNL     1      -0.613   5.424  -6.261  1.00  0.00    -0.167 F 
ATOM     24  F   UNL     1      -1.496   3.577  -5.503  1.00  0.00    -0.167 F 
ENDBRANCH  16  21
ENDBRANCH   4   6
ENDBRANCH   3   4
ENDBRANCH   2   3
ENDBRANCH   1   2
BRANCH   1  25
ATOM     25  O   UNL     1       3.891   4.098  -9.517  1.00  0.00    -0.458 OA
BRANCH  25  26
ATOM     26  C   UNL     1       4.604   3.372  -8.627  1.00  0.00     0.338 C 
ATOM     27  O   UNL     1       5.089   3.761  -7.578  1.00  0.00    -0.246 OA
BRANCH  26  28
ATOM     28  C   UNL     1       4.653   1.965  -9.049  1.00  0.00     0.060 A 
ATOM     29  C   UNL     1       5.832   1.392  -9.511  1.00  0.00     0.016 A 
ATOM     30  C   UNL     1       3.547   1.165  -8.791  1.00  0.00     0.016 A 
ATOM     31  C   UNL     1       5.884   0.005  -9.705  1.00  0.00     0.010 A 
ATOM     32  C   UNL     1       3.663  -0.221  -8.806  1.00  0.00     0.010 A 
ATOM     33  C   UNL     1       4.819  -0.829  -9.303  1.00  0.00    -0.014 A 
BRANCH  33  34
ATOM     34  C   UNL     1       4.906  -2.320  -9.397  1.00  0.00     0.031 A 
ATOM     35  C   UNL     1       3.829  -3.123 -10.096  1.00  0.00     0.074 A 
ATOM     36  C   UNL     1       5.934  -2.968  -8.808  1.00  0.00     0.049 A 
ATOM     37  N   UNL     1       3.751  -4.418 -10.272  1.00  0.00    -0.248 NA
ATOM     38  C   UNL     1       2.666  -2.390 -10.625  1.00  0.00     0.031 C 
ATOM     39  C   UNL     1       6.975  -2.331  -8.000  1.00  0.00     0.029 A 
ATOM     40  N   UNL     1       6.287  -4.297  -8.804  1.00  0.00    -0.354 N 
ATOM     41  C   UNL     1       2.529  -4.647 -10.899  1.00  0.00     0.074 A 
ATOM     42  C   UNL     1       1.858  -3.374 -10.990  1.00  0.00     0.031 C 
ATOM     43  C   UNL     1       7.890  -3.247  -7.654  1.00  0.00     0.029 A 
ATOM     44  C   UNL     1       7.479  -4.553  -8.162  1.00  0.00     0.049 A 
ATOM     45  H   UNL     1       5.738  -5.001  -9.221  1.00  0.00     0.167 HD
ATOM     46  C   UNL     1       2.031  -5.802 -11.403  1.00  0.00     0.034 A 
ATOM     47  C   UNL     1       8.175  -5.700  -8.010  1.00  0.00     0.034 A 
ATOM     48  C   UNL     1       2.742  -7.052 -11.372  1.00  0.00     0.049 A 
ATOM     49  C   UNL     1       7.642  -6.962  -8.642  1.00  0.00     0.074 A 
ATOM     50  C   UNL     1       2.374  -8.257 -11.941  1.00  0.00     0.029 A 
ATOM     51  N   UNL     1       3.969  -7.256 -10.758  1.00  0.00    -0.354 N 
ATOM     52  N   UNL     1       6.542  -7.131  -9.337  1.00  0.00    -0.248 NA
ATOM     53  C   UNL     1       8.443  -8.184  -8.486  1.00  0.00     0.031 C 
ATOM     54  C   UNL     1       3.346  -9.203 -11.623  1.00  0.00     0.029 A 
ATOM     55  C   UNL     1       4.362  -8.573 -10.920  1.00  0.00     0.049 A 
ATOM     56  H   UNL     1       4.483  -6.568 -10.278  1.00  0.00     0.167 HD
ATOM     57  C   UNL     1       6.530  -8.470  -9.720  1.00  0.00     0.074 A 
ATOM     58  C   UNL     1       7.747  -9.059  -9.202  1.00  0.00     0.031 C 
ATOM     59  C   UNL     1       5.591  -9.147 -10.427  1.00  0.00     0.034 A 
BRANCH  46  60
ATOM     60  C   UNL     1       0.687  -5.778 -12.098  1.00  0.00     0.023 A 
ATOM     61  C   UNL     1      -0.366  -6.591 -11.635  1.00  0.00     0.031 A 
ATOM     62  C   UNL     1       0.491  -5.060 -13.293  1.00  0.00     0.131 A 
ATOM     63  C   UNL     1      -1.549  -6.690 -12.380  1.00  0.00     0.055 A 
ATOM     64  C   UNL     1      -0.709  -5.120 -14.001  1.00  0.00     0.041 A 
ATOM     65  F   UNL     1       1.465  -4.278 -13.787  1.00  0.00    -0.206 F 
ATOM     66  C   UNL     1      -1.731  -5.950 -13.553  1.00  0.00     0.022 A 
BRANCH  63  67
ATOM     67  S   UNL     1      -2.870  -7.838 -11.902  1.00  0.00     0.124 S 
ATOM     68  O   UNL     1      -4.008  -6.937 -11.742  1.00  0.00    -0.237 OA
ATOM     69  O   UNL     1      -2.936  -8.725 -13.061  1.00  0.00    -0.237 OA
ATOM     70  O   UNL     1      -2.380  -8.445 -10.670  1.00  0.00    -0.744 OA
ENDBRANCH  63  67
ENDBRANCH  46  60
BRANCH  47  71
ATOM     71  C   UNL     1       9.498  -5.660  -7.315  1.00  0.00     0.023 A 
ATOM     72  C   UNL     1       9.605  -5.262  -5.970  1.00  0.00     0.031 A 
ATOM     73  C   UNL     1      10.688  -5.894  -8.028  1.00  0.00     0.131 A 
ATOM     74  C   UNL     1      10.870  -5.035  -5.407  1.00  0.00     0.055 A 
ATOM     75  C   UNL     1      11.945  -5.742  -7.440  1.00  0.00     0.041 A 
ATOM     76  F   UNL     1      10.642  -6.260  -9.319  1.00  0.00    -0.206 F 
ATOM     77  C   UNL     1      12.040  -5.290  -6.128  1.00  0.00     0.022 A 
BRANCH  74  78
ATOM     78  S   UNL     1      11.037  -4.256  -3.776  1.00  0.00     0.124 S 
ATOM     79  O   UNL     1      11.758  -5.278  -3.023  1.00  0.00    -0.237 OA
ATOM     80  O   UNL     1      11.800  -3.053  -4.098  1.00  0.00    -0.237 OA
ATOM     81  O   UNL     1       9.657  -4.022  -3.363  1.00  0.00    -0.744 OA
ENDBRANCH  74  78
ENDBRANCH  47  71
BRANCH  59  82
ATOM     82  C   UNL     1       5.810 -10.612 -10.717  1.00  0.00     0.023 A 
ATOM     83  C   UNL     1       5.897 -11.054 -12.052  1.00  0.00     0.031 A 
ATOM     84  C   UNL     1       5.733 -11.578  -9.700  1.00  0.00     0.131 A 
ATOM     85  C   UNL     1       5.845 -12.424 -12.337  1.00  0.00     0.055 A 
ATOM     86  C   UNL     1       5.736 -12.943  -9.986  1.00  0.00     0.041 A 
ATOM     87  F   UNL     1       5.635 -11.206  -8.413  1.00  0.00    -0.206 F 
ATOM     88  C   UNL     1       5.773 -13.371 -11.311  1.00  0.00     0.022 A 
BRANCH  85  89
ATOM     89  S   UNL     1       5.758 -13.020 -14.048  1.00  0.00     0.124 S 
ATOM     90  O   UNL     1       6.950 -13.861 -14.136  1.00  0.00    -0.237 OA
ATOM     91  O   UNL     1       4.487 -13.739 -14.059  1.00  0.00    -0.237 OA
ATOM     92  O   UNL     1       5.798 -11.802 -14.850  1.00  0.00    -0.744 OA
ENDBRANCH  85  89
ENDBRANCH  59  82
ENDBRANCH  33  34
ENDBRANCH  26  28
ENDBRANCH  25  26
ENDBRANCH   1  25
TORSDOF 16
