REMARK SMILES C[C@@H](C(=O)OCCOC(=O)c1ccc(-c2c3nc(c(-c4cc(S(=O)(=O)[O-])ccc4F)c4ccc([nH]4)c(-c4cc(S(=O)(=O)[O-])ccc4F)c4nc(c(-c5cc(S(=O)(=O)[O-])ccc5F)c5ccc2[nH]5)C=C4)C=C3)cc1)c1ccc(C[C@@H]2CCC[C@@H]2O)cc1
REMARK SMILES IDX 6 1 5 2 3 3 4 4 2 5 1 6 74 7 75 8 86 9 76 10 85 11 77 12
REMARK SMILES IDX 78 13 79 14 80 15 83 16 81 17 82 18 84 19 7 21 8 22 9 23
REMARK SMILES IDX 10 24 11 25 12 26 73 27 13 28 72 29 14 30 15 31 16 32 66 33
REMARK SMILES IDX 17 34 71 35 65 36 67 37 18 38 70 39 64 40 63 41 19 43 51 44
REMARK SMILES IDX 31 45 50 46 32 47 35 48 49 49 68 50 33 51 34 52 48 54 69 55
REMARK SMILES IDX 36 56 20 57 21 58 29 59 22 60 28 61 30 62 27 63 23 64 24 65
REMARK SMILES IDX 25 66 26 67 52 68 53 69 61 70 54 71 60 72 62 73 59 74 55 75
REMARK SMILES IDX 56 76 57 77 58 78 37 79 38 80 46 81 39 82 45 83 47 84 44 85
REMARK SMILES IDX 40 86 41 87 42 88 43 89
REMARK H PARENT 84 20 67 42 35 53
REMARK Flexibility Score: inf
ROOT
ATOM      1  C   UNL     1      -8.582   2.836  10.882  1.00  0.00     0.274 C 
ENDROOT
BRANCH   1   2
ATOM      2  O   UNL     1      -9.563   3.028   9.842  1.00  0.00    -0.462 OA
BRANCH   2   3
ATOM      3  C   UNL     1      -9.086   3.334   8.601  1.00  0.00     0.313 C 
ATOM      4  O   UNL     1      -7.902   3.539   8.360  1.00  0.00    -0.252 OA
BRANCH   3   5
ATOM      5  C   UNL     1     -10.220   3.482   7.576  1.00  0.00     0.126 C 
ATOM      6  C   UNL     1     -11.514   2.768   7.976  1.00  0.00     0.025 C 
BRANCH   5   7
ATOM      7  C   UNL     1      -9.769   3.050   6.188  1.00  0.00    -0.034 A 
ATOM      8  C   UNL     1      -9.398   1.726   5.920  1.00  0.00     0.005 A 
ATOM      9  C   UNL     1      -9.664   3.993   5.157  1.00  0.00     0.005 A 
ATOM     10  C   UNL     1      -8.857   1.371   4.680  1.00  0.00     0.004 A 
ATOM     11  C   UNL     1      -9.135   3.632   3.914  1.00  0.00     0.004 A 
ATOM     12  C   UNL     1      -8.684   2.329   3.676  1.00  0.00    -0.048 A 
BRANCH  12  13
ATOM     13  C   UNL     1      -8.030   1.973   2.362  1.00  0.00     0.041 C 
BRANCH  13  14
ATOM     14  C   UNL     1      -6.502   2.153   2.215  1.00  0.00     0.022 C 
ATOM     15  C   UNL     1      -5.664   1.359   3.213  1.00  0.00     0.007 C 
ATOM     16  C   UNL     1      -5.914   3.559   2.362  1.00  0.00     0.117 C 
ATOM     17  C   UNL     1      -5.322   2.319   4.355  1.00  0.00     0.003 C 
ATOM     18  C   UNL     1      -5.622   3.724   3.846  1.00  0.00     0.032 C 
BRANCH  16  19
ATOM     19  O   UNL     1      -6.754   4.581   1.862  1.00  0.00    -0.393 OA
ATOM     20  H   UNL     1      -7.595   4.573   2.345  1.00  0.00     0.210 HD
ENDBRANCH  16  19
ENDBRANCH  13  14
ENDBRANCH  12  13
ENDBRANCH   5   7
ENDBRANCH   3   5
ENDBRANCH   2   3
ENDBRANCH   1   2
BRANCH   1  21
ATOM     21  C   UNL     1      -8.439   1.346  11.184  1.00  0.00     0.275 C 
BRANCH  21  22
ATOM     22  O   UNL     1      -7.781   0.712  10.077  1.00  0.00    -0.458 OA
BRANCH  22  23
ATOM     23  C   UNL     1      -8.071  -0.594   9.875  1.00  0.00     0.338 C 
ATOM     24  O   UNL     1      -8.801  -1.287  10.571  1.00  0.00    -0.246 OA
BRANCH  23  25
ATOM     25  C   UNL     1      -7.354  -1.089   8.675  1.00  0.00     0.060 A 
ATOM     26  C   UNL     1      -6.961  -0.212   7.666  1.00  0.00     0.016 A 
ATOM     27  C   UNL     1      -7.117  -2.461   8.519  1.00  0.00     0.016 A 
ATOM     28  C   UNL     1      -6.410  -0.715   6.489  1.00  0.00     0.010 A 
ATOM     29  C   UNL     1      -6.497  -2.951   7.356  1.00  0.00     0.010 A 
ATOM     30  C   UNL     1      -6.168  -2.084   6.304  1.00  0.00    -0.014 A 
BRANCH  30  31
ATOM     31  C   UNL     1      -5.680  -2.567   4.973  1.00  0.00     0.031 A 
ATOM     32  C   UNL     1      -6.542  -3.484   4.138  1.00  0.00     0.074 A 
ATOM     33  C   UNL     1      -4.541  -2.076   4.436  1.00  0.00     0.049 A 
ATOM     34  N   UNL     1      -6.280  -4.042   2.983  1.00  0.00    -0.248 NA
ATOM     35  C   UNL     1      -7.867  -3.825   4.676  1.00  0.00     0.031 C 
ATOM     36  C   UNL     1      -3.656  -1.109   5.085  1.00  0.00     0.029 A 
ATOM     37  N   UNL     1      -3.983  -2.239   3.188  1.00  0.00    -0.354 N 
ATOM     38  C   UNL     1      -7.356  -4.881   2.710  1.00  0.00     0.074 A 
ATOM     39  C   UNL     1      -8.300  -4.713   3.793  1.00  0.00     0.031 C 
ATOM     40  C   UNL     1      -2.782  -0.640   4.182  1.00  0.00     0.029 A 
ATOM     41  C   UNL     1      -2.964  -1.348   2.918  1.00  0.00     0.049 A 
ATOM     42  H   UNL     1      -4.283  -2.925   2.548  1.00  0.00     0.167 HD
ATOM     43  C   UNL     1      -7.513  -5.744   1.674  1.00  0.00     0.034 A 
ATOM     44  C   UNL     1      -2.277  -1.117   1.778  1.00  0.00     0.034 A 
ATOM     45  C   UNL     1      -6.589  -5.854   0.572  1.00  0.00     0.049 A 
ATOM     46  C   UNL     1      -2.509  -2.038   0.602  1.00  0.00     0.074 A 
ATOM     47  C   UNL     1      -6.576  -6.772  -0.465  1.00  0.00     0.029 A 
ATOM     48  N   UNL     1      -5.526  -4.991   0.345  1.00  0.00    -0.354 N 
ATOM     49  N   UNL     1      -3.425  -2.964   0.442  1.00  0.00    -0.248 NA
ATOM     50  C   UNL     1      -1.571  -1.918  -0.525  1.00  0.00     0.031 C 
ATOM     51  C   UNL     1      -5.479  -6.493  -1.290  1.00  0.00     0.029 A 
ATOM     52  C   UNL     1      -4.845  -5.362  -0.804  1.00  0.00     0.049 A 
ATOM     53  H   UNL     1      -5.289  -4.226   0.917  1.00  0.00     0.167 HD
ATOM     54  C   UNL     1      -3.142  -3.565  -0.781  1.00  0.00     0.074 A 
ATOM     55  C   UNL     1      -2.031  -2.839  -1.359  1.00  0.00     0.031 C 
ATOM     56  C   UNL     1      -3.716  -4.653  -1.354  1.00  0.00     0.034 A 
BRANCH  43  57
ATOM     57  C   UNL     1      -8.648  -6.734   1.774  1.00  0.00     0.023 A 
ATOM     58  C   UNL     1      -9.998  -6.365   1.668  1.00  0.00     0.031 A 
ATOM     59  C   UNL     1      -8.350  -8.085   2.039  1.00  0.00     0.131 A 
ATOM     60  C   UNL     1     -11.000  -7.326   1.887  1.00  0.00     0.055 A 
ATOM     61  C   UNL     1      -9.348  -9.047   2.186  1.00  0.00     0.041 A 
ATOM     62  F   UNL     1      -7.077  -8.488   2.178  1.00  0.00    -0.206 F 
ATOM     63  C   UNL     1     -10.683  -8.668   2.123  1.00  0.00     0.022 A 
BRANCH  60  64
ATOM     64  S   UNL     1     -12.727  -6.779   2.000  1.00  0.00     0.124 S 
ATOM     65  O   UNL     1     -12.658  -5.806   3.087  1.00  0.00    -0.237 OA
ATOM     66  O   UNL     1     -12.973  -6.237   0.669  1.00  0.00    -0.237 OA
ATOM     67  O   UNL     1     -13.455  -8.006   2.318  1.00  0.00    -0.744 OA
ENDBRANCH  60  64
ENDBRANCH  43  57
BRANCH  44  68
ATOM     68  C   UNL     1      -1.295   0.006   1.659  1.00  0.00     0.023 A 
ATOM     69  C   UNL     1      -1.444   0.966   0.640  1.00  0.00     0.031 A 
ATOM     70  C   UNL     1      -0.165   0.112   2.488  1.00  0.00     0.131 A 
ATOM     71  C   UNL     1      -0.465   1.954   0.451  1.00  0.00     0.055 A 
ATOM     72  C   UNL     1       0.766   1.144   2.345  1.00  0.00     0.041 A 
ATOM     73  F   UNL     1       0.057  -0.791   3.456  1.00  0.00    -0.206 F 
ATOM     74  C   UNL     1       0.627   2.065   1.312  1.00  0.00     0.022 A 
BRANCH  71  75
ATOM     75  S   UNL     1      -0.577   3.019  -1.015  1.00  0.00     0.124 S 
ATOM     76  O   UNL     1      -0.585   2.037  -2.094  1.00  0.00    -0.237 OA
ATOM     77  O   UNL     1      -1.833   3.724  -0.780  1.00  0.00    -0.237 OA
ATOM     78  O   UNL     1       0.626   3.843  -0.930  1.00  0.00    -0.744 OA
ENDBRANCH  71  75
ENDBRANCH  44  68
BRANCH  56  79
ATOM     79  C   UNL     1      -3.108  -5.149  -2.642  1.00  0.00     0.023 A 
ATOM     80  C   UNL     1      -1.812  -5.697  -2.663  1.00  0.00     0.031 A 
ATOM     81  C   UNL     1      -3.817  -5.079  -3.852  1.00  0.00     0.131 A 
ATOM     82  C   UNL     1      -1.244  -6.109  -3.876  1.00  0.00     0.055 A 
ATOM     83  C   UNL     1      -3.265  -5.536  -5.051  1.00  0.00     0.041 A 
ATOM     84  F   UNL     1      -5.058  -4.569  -3.889  1.00  0.00    -0.206 F 
ATOM     85  C   UNL     1      -1.968  -6.045  -5.069  1.00  0.00     0.022 A 
BRANCH  82  86
ATOM     86  S   UNL     1       0.481  -6.671  -3.884  1.00  0.00     0.124 S 
ATOM     87  O   UNL     1       1.187  -5.496  -3.384  1.00  0.00    -0.237 OA
ATOM     88  O   UNL     1       0.440  -7.821  -2.986  1.00  0.00    -0.237 OA
ATOM     89  O   UNL     1       0.731  -6.992  -5.288  1.00  0.00    -0.744 OA
ENDBRANCH  82  86
ENDBRANCH  56  79
ENDBRANCH  30  31
ENDBRANCH  23  25
ENDBRANCH  22  23
ENDBRANCH  21  22
ENDBRANCH   1  21
TORSDOF 18
