REMARK SMILES Cc1ccsc1/C=C/C(=O)NC[C@H](CC(C)C)C(=O)OCCOC(=O)c1ccc(-c2c3nc(c(-c4cc(S(=O)(=O)[O-])ccc4F)c4ccc([nH]4)c(-c4cc(S(=O)(=O)[O-])ccc4F)c4nc(c(-c5cc(S(=O)(=O)[O-])ccc5F)c5ccc2[nH]5)C=C4)C=C3)cc1
REMARK SMILES IDX 21 1 20 2 18 3 19 4 13 5 12 6 11 7 9 8 10 9 8 11 7 12 6 13
REMARK SMILES IDX 1 14 2 15 3 16 4 17 5 18 14 19 15 20 16 21 17 22 22 23 23 24
REMARK SMILES IDX 24 25 25 26 26 27 27 28 88 29 28 30 87 31 29 32 30 33 31 34
REMARK SMILES IDX 81 35 32 36 86 37 80 38 82 39 33 40 85 41 79 42 78 43 34 45
REMARK SMILES IDX 66 46 46 47 65 48 47 49 50 50 64 51 83 52 48 53 49 54 63 56
REMARK SMILES IDX 84 57 51 58 35 59 36 60 44 61 37 62 43 63 45 64 42 65 38 66
REMARK SMILES IDX 39 67 40 68 41 69 67 70 68 71 76 72 69 73 75 74 77 75 74 76
REMARK SMILES IDX 70 77 71 78 72 79 73 80 52 81 53 82 61 83 54 84 60 85 62 86
REMARK SMILES IDX 59 87 55 88 56 89 57 90 58 91
REMARK H PARENT 11 10 82 44 50 55
REMARK Flexibility Score: inf
ROOT
ATOM      1  C   UNL     1       6.181  -2.549   0.427  1.00  0.00     0.274 C 
ENDROOT
BRANCH   1   2
ATOM      2  O   UNL     1       5.048  -3.413   0.217  1.00  0.00    -0.462 OA
BRANCH   2   3
ATOM      3  C   UNL     1       4.639  -4.145   1.279  1.00  0.00     0.310 C 
ATOM      4  O   UNL     1       5.218  -4.188   2.359  1.00  0.00    -0.252 OA
BRANCH   3   5
ATOM      5  C   UNL     1       3.382  -4.955   1.013  1.00  0.00     0.118 C 
BRANCH   5   6
ATOM      6  C   UNL     1       3.715  -6.443   1.004  1.00  0.00     0.131 C 
BRANCH   6   7
ATOM      7  N   UNL     1       4.067  -6.988   2.303  1.00  0.00    -0.352 N 
ATOM      8  C   UNL     1       4.089  -8.283   2.724  1.00  0.00     0.244 C 
ATOM      9  O   UNL     1       4.453  -8.546   3.867  1.00  0.00    -0.270 OA
ATOM     10  H   UNL     1       4.328  -6.323   2.980  1.00  0.00     0.163 HD
BRANCH   8  11
ATOM     11  C   UNL     1       3.623  -9.390   1.851  1.00  0.00     0.072 C 
ATOM     12  C   UNL     1       3.847  -9.500   0.534  1.00  0.00     0.025 C 
BRANCH  12  13
ATOM     13  C   UNL     1       3.388 -10.607  -0.240  1.00  0.00     0.030 A 
ATOM     14  C   UNL     1       2.293  -9.354  -2.195  1.00  0.00     0.046 C 
ATOM     15  C   UNL     1       2.734 -10.585  -1.470  1.00  0.00    -0.033 A 
ATOM     16  C   UNL     1       2.528 -11.907  -1.985  1.00  0.00     0.016 A 
ATOM     17  C   UNL     1       3.007 -12.882  -1.145  1.00  0.00     0.066 A 
ATOM     18  S   UNL     1       3.706 -12.225   0.262  1.00  0.00    -0.144 S 
ENDBRANCH  12  13
ENDBRANCH   8  11
ENDBRANCH   6   7
ENDBRANCH   5   6
BRANCH   5  19
ATOM     19  C   UNL     1       2.502  -4.495  -0.171  1.00  0.00     0.020 C 
BRANCH  19  20
ATOM     20  C   UNL     1       3.019  -4.543  -1.629  1.00  0.00    -0.017 C 
ATOM     21  C   UNL     1       3.720  -5.834  -2.028  1.00  0.00     0.007 C 
ATOM     22  C   UNL     1       1.840  -4.299  -2.582  1.00  0.00     0.007 C 
ENDBRANCH  19  20
ENDBRANCH   5  19
ENDBRANCH   3   5
ENDBRANCH   2   3
ENDBRANCH   1   2
BRANCH   1  23
ATOM     23  C   UNL     1       5.732  -1.095   0.566  1.00  0.00     0.275 C 
BRANCH  23  24
ATOM     24  O   UNL     1       4.924  -0.921   1.745  1.00  0.00    -0.458 OA
BRANCH  24  25
ATOM     25  C   UNL     1       3.593  -0.829   1.526  1.00  0.00     0.338 C 
ATOM     26  O   UNL     1       3.017  -0.837   0.448  1.00  0.00    -0.246 OA
BRANCH  25  27
ATOM     27  C   UNL     1       2.886  -0.816   2.812  1.00  0.00     0.060 A 
ATOM     28  C   UNL     1       2.446  -2.030   3.338  1.00  0.00     0.016 A 
ATOM     29  C   UNL     1       2.563   0.384   3.442  1.00  0.00     0.016 A 
ATOM     30  C   UNL     1       1.648  -2.057   4.477  1.00  0.00     0.010 A 
ATOM     31  C   UNL     1       1.796   0.355   4.613  1.00  0.00     0.010 A 
ATOM     32  C   UNL     1       1.316  -0.864   5.129  1.00  0.00    -0.014 A 
BRANCH  32  33
ATOM     33  C   UNL     1       0.418  -0.893   6.313  1.00  0.00     0.031 A 
ATOM     34  C   UNL     1      -0.955  -0.287   6.218  1.00  0.00     0.074 A 
ATOM     35  C   UNL     1       0.819  -1.486   7.454  1.00  0.00     0.049 A 
ATOM     36  N   UNL     1      -1.831  -0.063   7.163  1.00  0.00    -0.248 NA
ATOM     37  C   UNL     1      -1.395   0.127   4.877  1.00  0.00     0.031 C 
ATOM     38  C   UNL     1       2.095  -2.178   7.645  1.00  0.00     0.029 A 
ATOM     39  N   UNL     1       0.192  -1.606   8.669  1.00  0.00    -0.354 N 
ATOM     40  C   UNL     1      -2.914   0.548   6.540  1.00  0.00     0.074 A 
ATOM     41  C   UNL     1      -2.574   0.674   5.137  1.00  0.00     0.031 C 
ATOM     42  C   UNL     1       2.150  -2.662   8.896  1.00  0.00     0.029 A 
ATOM     43  C   UNL     1       0.952  -2.249   9.619  1.00  0.00     0.049 A 
ATOM     44  H   UNL     1      -0.715  -1.265   8.844  1.00  0.00     0.167 HD
ATOM     45  C   UNL     1      -4.082   0.965   7.090  1.00  0.00     0.034 A 
ATOM     46  C   UNL     1       0.728  -2.444  10.934  1.00  0.00     0.034 A 
ATOM     47  C   UNL     1      -4.406   0.816   8.489  1.00  0.00     0.049 A 
ATOM     48  C   UNL     1      -0.541  -1.900  11.540  1.00  0.00     0.074 A 
ATOM     49  C   UNL     1      -5.544   1.226   9.162  1.00  0.00     0.029 A 
ATOM     50  N   UNL     1      -3.590   0.201   9.431  1.00  0.00    -0.354 N 
ATOM     51  N   UNL     1      -1.524  -1.253  10.957  1.00  0.00    -0.248 NA
ATOM     52  C   UNL     1      -0.726  -2.105  12.982  1.00  0.00     0.031 C 
ATOM     53  C   UNL     1      -5.395   0.904  10.517  1.00  0.00     0.029 A 
ATOM     54  C   UNL     1      -4.192   0.236  10.680  1.00  0.00     0.049 A 
ATOM     55  H   UNL     1      -2.712  -0.201   9.240  1.00  0.00     0.167 HD
ATOM     56  C   UNL     1      -2.453  -0.992  11.959  1.00  0.00     0.074 A 
ATOM     57  C   UNL     1      -1.921  -1.568  13.178  1.00  0.00     0.031 C 
ATOM     58  C   UNL     1      -3.639  -0.336  11.884  1.00  0.00     0.034 A 
BRANCH  45  59
ATOM     59  C   UNL     1      -5.056   1.677   6.185  1.00  0.00     0.023 A 
ATOM     60  C   UNL     1      -5.697   1.022   5.119  1.00  0.00     0.031 A 
ATOM     61  C   UNL     1      -5.318   3.047   6.370  1.00  0.00     0.131 A 
ATOM     62  C   UNL     1      -6.514   1.752   4.240  1.00  0.00     0.055 A 
ATOM     63  C   UNL     1      -6.190   3.750   5.537  1.00  0.00     0.041 A 
ATOM     64  F   UNL     1      -4.716   3.730   7.357  1.00  0.00    -0.206 F 
ATOM     65  C   UNL     1      -6.783   3.106   4.455  1.00  0.00     0.022 A 
BRANCH  62  66
ATOM     66  S   UNL     1      -7.115   0.938   2.734  1.00  0.00     0.124 S 
ATOM     67  O   UNL     1      -5.862   0.584   2.070  1.00  0.00    -0.237 OA
ATOM     68  O   UNL     1      -7.894  -0.174   3.264  1.00  0.00    -0.237 OA
ATOM     69  O   UNL     1      -7.891   1.982   2.066  1.00  0.00    -0.744 OA
ENDBRANCH  62  66
ENDBRANCH  45  59
BRANCH  46  70
ATOM     70  C   UNL     1       1.749  -3.119  11.787  1.00  0.00     0.023 A 
ATOM     71  C   UNL     1       1.462  -4.325  12.444  1.00  0.00     0.031 A 
ATOM     72  C   UNL     1       3.011  -2.535  12.002  1.00  0.00     0.131 A 
ATOM     73  C   UNL     1       2.406  -4.886  13.320  1.00  0.00     0.055 A 
ATOM     74  C   UNL     1       3.967  -3.126  12.829  1.00  0.00     0.041 A 
ATOM     75  F   UNL     1       3.335  -1.377  11.404  1.00  0.00    -0.206 F 
ATOM     76  C   UNL     1       3.662  -4.303  13.504  1.00  0.00     0.022 A 
BRANCH  73  77
ATOM     77  S   UNL     1       1.931  -6.341  14.294  1.00  0.00     0.124 S 
ATOM     78  O   UNL     1       0.743  -5.858  14.990  1.00  0.00    -0.237 OA
ATOM     79  O   UNL     1       1.705  -7.340  13.256  1.00  0.00    -0.237 OA
ATOM     80  O   UNL     1       3.097  -6.578  15.142  1.00  0.00    -0.744 OA
ENDBRANCH  73  77
ENDBRANCH  46  70
BRANCH  58  81
ATOM     81  C   UNL     1      -4.450  -0.258  13.152  1.00  0.00     0.023 A 
ATOM     82  C   UNL     1      -4.038   0.525  14.244  1.00  0.00     0.031 A 
ATOM     83  C   UNL     1      -5.637  -1.001  13.275  1.00  0.00     0.131 A 
ATOM     84  C   UNL     1      -4.780   0.504  15.434  1.00  0.00     0.055 A 
ATOM     85  C   UNL     1      -6.398  -0.978  14.444  1.00  0.00     0.041 A 
ATOM     86  F   UNL     1      -6.073  -1.766  12.261  1.00  0.00    -0.206 F 
ATOM     87  C   UNL     1      -5.963  -0.232  15.537  1.00  0.00     0.022 A 
BRANCH  84  88
ATOM     88  S   UNL     1      -4.132   1.388  16.880  1.00  0.00     0.124 S 
ATOM     89  O   UNL     1      -2.839   0.741  17.078  1.00  0.00    -0.237 OA
ATOM     90  O   UNL     1      -4.088   2.768  16.409  1.00  0.00    -0.237 OA
ATOM     91  O   UNL     1      -5.125   1.120  17.919  1.00  0.00    -0.744 OA
ENDBRANCH  84  88
ENDBRANCH  58  81
ENDBRANCH  32  33
ENDBRANCH  25  27
ENDBRANCH  24  25
ENDBRANCH  23  24
ENDBRANCH   1  23
TORSDOF 20
