REMARK SMILES C[C@@H](NC(=O)[C@@H]1CC[C@@H]2CCCC[C@@H]2[NH2+]1)C(=O)OCCOC(=O)c1ccc(-c2c3nc(c(-c4cc(S(=O)(=O)[O-])ccc4F)c4ccc([nH]4)c(-c4cc(S(=O)(=O)[O-])ccc4F)c4nc(c(-c5cc(S(=O)(=O)[O-])ccc5F)c5ccc2[nH]5)C=C4)C=C3)cc1
REMARK SMILES IDX 20 1 19 2 18 3 16 4 17 5 2 6 1 7 3 8 4 9 5 11 6 12 7 13
REMARK SMILES IDX 15 14 8 15 14 16 9 19 13 20 10 21 12 22 11 23 21 24 22 25
REMARK SMILES IDX 23 26 24 27 25 28 86 29 26 30 85 31 27 32 28 33 29 34 79 35
REMARK SMILES IDX 30 36 84 37 78 38 80 39 31 40 83 41 77 42 76 43 32 45 64 46
REMARK SMILES IDX 44 47 63 48 45 49 48 50 62 51 81 52 46 53 47 54 61 56 82 57
REMARK SMILES IDX 49 58 33 59 34 60 42 61 35 62 41 63 43 64 40 65 36 66 37 67
REMARK SMILES IDX 38 68 39 69 65 70 66 71 74 72 67 73 73 74 75 75 72 76 68 77
REMARK SMILES IDX 69 78 70 79 71 80 50 81 51 82 59 83 52 84 58 85 60 86 57 87
REMARK SMILES IDX 53 88 54 89 55 90 56 91
REMARK H PARENT 3 10 15 17 15 18 80 44 48 55
REMARK Flexibility Score: inf
ROOT
ATOM      1  C   UNL     1      -3.955   0.560  -0.033  1.00  0.00     0.275 C 
ENDROOT
BRANCH   1   2
ATOM      2  C   UNL     1      -3.866  -0.453  -1.192  1.00  0.00     0.274 C 
BRANCH   2   3
ATOM      3  O   UNL     1      -2.501  -0.892  -1.491  1.00  0.00    -0.461 OA
BRANCH   3   4
ATOM      4  C   UNL     1      -1.631  -0.049  -2.280  1.00  0.00     0.328 C 
ATOM      5  O   UNL     1      -2.370   0.888  -2.666  1.00  0.00    -0.250 OA
BRANCH   4   6
ATOM      6  C   UNL     1       0.378  -0.514  -2.770  1.00  0.00     0.189 C 
ATOM      7  C   UNL     1       1.686  -1.273  -1.947  1.00  0.00     0.043 C 
BRANCH   6   8
ATOM      8  N   UNL     1       0.755  -1.297  -4.020  1.00  0.00    -0.338 N 
ATOM      9  C   UNL     1      -0.017  -2.433  -4.007  1.00  0.00     0.278 C 
ATOM     10  H   UNL     1       1.419  -1.041  -4.700  1.00  0.00     0.164 HD
ATOM     11  O   UNL     1       0.135  -3.484  -4.585  1.00  0.00    -0.268 OA
BRANCH   9  12
ATOM     12  C   UNL     1      -1.156  -1.898  -3.206  1.00  0.00     0.272 C 
ATOM     13  C   UNL     1      -1.316  -0.313  -4.346  1.00  0.00     0.076 C 
ATOM     14  N   UNL     1      -0.567  -1.757  -1.404  1.00  0.00    -0.333 N 
ATOM     15  C   UNL     1      -0.533   1.331  -3.702  1.00  0.00     0.016 C 
ATOM     16  C   UNL     1      -0.239  -0.045  -0.687  1.00  0.00     0.186 C 
ATOM     17  H   UNL     1       0.303  -2.285  -1.331  1.00  0.00     0.347 HD
ATOM     18  H   UNL     1      -1.356  -2.106  -0.859  1.00  0.00     0.347 HD
ATOM     19  C   UNL     1      -0.192   1.492  -1.800  1.00  0.00     0.048 C 
ATOM     20  C   UNL     1       0.719   0.165   0.513  1.00  0.00     0.065 C 
ATOM     21  C   UNL     1       0.886   2.494  -1.404  1.00  0.00     0.010 C 
ATOM     22  C   UNL     1       2.041   0.916   0.274  1.00  0.00     0.006 C 
ATOM     23  C   UNL     1       2.170   1.862  -0.925  1.00  0.00     0.001 C 
ENDBRANCH   9  12
ENDBRANCH   6   8
ENDBRANCH   4   6
ENDBRANCH   3   4
ENDBRANCH   2   3
ENDBRANCH   1   2
BRANCH   1  24
ATOM     24  O   UNL     1      -3.533   1.875  -0.440  1.00  0.00    -0.458 OA
BRANCH  24  25
ATOM     25  C   UNL     1      -3.578   2.842   0.516  1.00  0.00     0.338 C 
ATOM     26  O   UNL     1      -4.014   2.689   1.646  1.00  0.00    -0.246 OA
BRANCH  25  27
ATOM     27  C   UNL     1      -2.923   4.103   0.042  1.00  0.00     0.060 A 
ATOM     28  C   UNL     1      -2.290   4.173  -1.194  1.00  0.00     0.016 A 
ATOM     29  C   UNL     1      -2.829   5.212   0.886  1.00  0.00     0.016 A 
ATOM     30  C   UNL     1      -1.403   5.215  -1.484  1.00  0.00     0.010 A 
ATOM     31  C   UNL     1      -2.080   6.344   0.501  1.00  0.00     0.010 A 
ATOM     32  C   UNL     1      -1.300   6.351  -0.672  1.00  0.00    -0.014 A 
BRANCH  32  33
ATOM     33  C   UNL     1      -0.387   7.508  -1.013  1.00  0.00     0.031 A 
ATOM     34  C   UNL     1       0.415   8.191   0.078  1.00  0.00     0.074 A 
ATOM     35  C   UNL     1      -0.229   7.977  -2.274  1.00  0.00     0.049 A 
ATOM     36  N   UNL     1       0.907   9.405   0.119  1.00  0.00    -0.248 NA
ATOM     37  C   UNL     1       0.673   7.405   1.293  1.00  0.00     0.031 C 
ATOM     38  C   UNL     1      -0.812   7.408  -3.490  1.00  0.00     0.029 A 
ATOM     39  N   UNL     1       0.486   9.060  -2.748  1.00  0.00    -0.354 N 
ATOM     40  C   UNL     1       1.430   9.567   1.401  1.00  0.00     0.074 A 
ATOM     41  C   UNL     1       1.215   8.313   2.094  1.00  0.00     0.031 C 
ATOM     42  C   UNL     1      -0.374   8.083  -4.560  1.00  0.00     0.029 A 
ATOM     43  C   UNL     1       0.356   9.257  -4.106  1.00  0.00     0.049 A 
ATOM     44  H   UNL     1       1.037   9.637  -2.170  1.00  0.00     0.167 HD
ATOM     45  C   UNL     1       2.009  10.668   1.949  1.00  0.00     0.034 A 
ATOM     46  C   UNL     1       0.671  10.300  -4.902  1.00  0.00     0.034 A 
ATOM     47  C   UNL     1       2.300  11.876   1.207  1.00  0.00     0.049 A 
ATOM     48  C   UNL     1       1.252  11.540  -4.279  1.00  0.00     0.074 A 
ATOM     49  C   UNL     1       2.862  13.059   1.658  1.00  0.00     0.029 A 
ATOM     50  N   UNL     1       2.084  12.042  -0.156  1.00  0.00    -0.354 N 
ATOM     51  N   UNL     1       1.555  11.767  -3.023  1.00  0.00    -0.248 NA
ATOM     52  C   UNL     1       1.494  12.678  -5.176  1.00  0.00     0.031 C 
ATOM     53  C   UNL     1       2.936  13.955   0.584  1.00  0.00     0.029 A 
ATOM     54  C   UNL     1       2.487  13.308  -0.555  1.00  0.00     0.049 A 
ATOM     55  H   UNL     1       1.699  11.360  -0.752  1.00  0.00     0.167 HD
ATOM     56  C   UNL     1       2.025  13.076  -2.980  1.00  0.00     0.074 A 
ATOM     57  C   UNL     1       1.992  13.576  -4.339  1.00  0.00     0.031 C 
ATOM     58  C   UNL     1       2.438  13.802  -1.911  1.00  0.00     0.034 A 
BRANCH  45  59
ATOM     59  C   UNL     1       2.277  10.655   3.439  1.00  0.00     0.023 A 
ATOM     60  C   UNL     1       3.191   9.776   4.044  1.00  0.00     0.031 A 
ATOM     61  C   UNL     1       1.564  11.534   4.280  1.00  0.00     0.131 A 
ATOM     62  C   UNL     1       3.307   9.739   5.444  1.00  0.00     0.055 A 
ATOM     63  C   UNL     1       1.748  11.553   5.664  1.00  0.00     0.041 A 
ATOM     64  F   UNL     1       0.662  12.387   3.768  1.00  0.00    -0.206 F 
ATOM     65  C   UNL     1       2.612  10.639   6.256  1.00  0.00     0.022 A 
BRANCH  62  66
ATOM     66  S   UNL     1       4.262   8.395   6.203  1.00  0.00     0.124 S 
ATOM     67  O   UNL     1       3.581   7.215   5.673  1.00  0.00    -0.237 OA
ATOM     68  O   UNL     1       5.607   8.638   5.695  1.00  0.00    -0.237 OA
ATOM     69  O   UNL     1       4.085   8.614   7.637  1.00  0.00    -0.744 OA
ENDBRANCH  62  66
ENDBRANCH  45  59
BRANCH  46  70
ATOM     70  C   UNL     1       0.306  10.278  -6.353  1.00  0.00     0.023 A 
ATOM     71  C   UNL     1       1.284  10.354  -7.356  1.00  0.00     0.031 A 
ATOM     72  C   UNL     1      -1.042  10.203  -6.756  1.00  0.00     0.131 A 
ATOM     73  C   UNL     1       0.900  10.368  -8.708  1.00  0.00     0.055 A 
ATOM     74  C   UNL     1      -1.414  10.149  -8.100  1.00  0.00     0.041 A 
ATOM     75  F   UNL     1      -2.024  10.147  -5.841  1.00  0.00    -0.206 F 
ATOM     76  C   UNL     1      -0.439  10.241  -9.086  1.00  0.00     0.022 A 
BRANCH  73  77
ATOM     77  S   UNL     1       2.171  10.631  -9.975  1.00  0.00     0.124 S 
ATOM     78  O   UNL     1       2.715  11.927  -9.585  1.00  0.00    -0.237 OA
ATOM     79  O   UNL     1       3.045   9.481  -9.771  1.00  0.00    -0.237 OA
ATOM     80  O   UNL     1       1.414  10.621 -11.224  1.00  0.00    -0.744 OA
ENDBRANCH  73  77
ENDBRANCH  46  70
BRANCH  58  81
ATOM     81  C   UNL     1       2.934  15.197  -2.192  1.00  0.00     0.023 A 
ATOM     82  C   UNL     1       2.065  16.219  -2.615  1.00  0.00     0.031 A 
ATOM     83  C   UNL     1       4.303  15.496  -2.075  1.00  0.00     0.131 A 
ATOM     84  C   UNL     1       2.583  17.476  -2.962  1.00  0.00     0.055 A 
ATOM     85  C   UNL     1       4.804  16.765  -2.369  1.00  0.00     0.041 A 
ATOM     86  F   UNL     1       5.176  14.556  -1.680  1.00  0.00    -0.206 F 
ATOM     87  C   UNL     1       3.945  17.759  -2.829  1.00  0.00     0.022 A 
BRANCH  84  88
ATOM     88  S   UNL     1       1.467  18.709  -3.686  1.00  0.00     0.124 S 
ATOM     89  O   UNL     1       0.981  18.017  -4.875  1.00  0.00    -0.237 OA
ATOM     90  O   UNL     1       0.490  18.910  -2.620  1.00  0.00    -0.237 OA
ATOM     91  O   UNL     1       2.341  19.851  -3.947  1.00  0.00    -0.744 OA
ENDBRANCH  84  88
ENDBRANCH  58  81
ENDBRANCH  32  33
ENDBRANCH  25  27
ENDBRANCH  24  25
ENDBRANCH   1  24
TORSDOF 16
