REMARK SMILES CCc1cccc(-c2ccc([C@@H](C)C(=O)OCCOC(=O)c3ccc(-c4c5nc(c(-c6cc(S(=O)(=O)[O-])ccc6F)c6ccc([nH]6)c(-c6cc(S(=O)(=O)[O-])ccc6F)c6nc(c(-c7cc(S(=O)(=O)[O-])ccc7F)c7ccc4[nH]7)C=C6)C=C5)cc3)cc2)c1
REMARK SMILES IDX 17 1 16 2 14 3 15 4 12 5 13 6 11 7 8 8 9 9 86 10 10 11 85 12
REMARK SMILES IDX 7 13 3 14 4 15 87 16 5 17 6 18 2 19 1 20 18 21 19 22 20 23
REMARK SMILES IDX 21 24 22 25 23 26 84 27 24 28 83 29 25 30 26 31 27 32 77 33
REMARK SMILES IDX 28 34 82 35 76 36 78 37 29 38 81 39 75 40 74 41 30 43 62 44
REMARK SMILES IDX 42 45 61 46 43 47 46 48 60 49 79 50 44 51 45 52 59 54 80 55
REMARK SMILES IDX 47 56 31 57 32 58 40 59 33 60 39 61 41 62 38 63 34 64 35 65
REMARK SMILES IDX 36 66 37 67 63 68 64 69 72 70 65 71 71 72 73 73 70 74 66 75
REMARK SMILES IDX 67 76 68 77 69 78 48 79 49 80 57 81 50 82 56 83 58 84 55 85
REMARK SMILES IDX 51 86 52 87 53 88 54 89
REMARK H PARENT 78 42 46 53
REMARK Flexibility Score: inf
ROOT
ATOM      1  C   UNL     1       2.622   8.764  -2.904  1.00  0.00     0.274 C 
ENDROOT
BRANCH   1   2
ATOM      2  O   UNL     1       1.956   8.593  -1.639  1.00  0.00    -0.462 OA
BRANCH   2   3
ATOM      3  C   UNL     1       0.815   9.306  -1.444  1.00  0.00     0.313 C 
ATOM      4  O   UNL     1       0.385  10.142  -2.233  1.00  0.00    -0.252 OA
BRANCH   3   5
ATOM      5  C   UNL     1       0.133   9.024  -0.110  1.00  0.00     0.126 C 
ATOM      6  C   UNL     1       0.447  10.150   0.875  1.00  0.00     0.025 C 
BRANCH   5   7
ATOM      7  C   UNL     1       0.380   7.646   0.486  1.00  0.00    -0.034 A 
ATOM      8  C   UNL     1       0.791   5.056   1.591  1.00  0.00    -0.018 A 
ATOM      9  C   UNL     1       1.826   6.004   1.550  1.00  0.00     0.009 A 
ATOM     10  C   UNL     1      -0.453   5.426   1.063  1.00  0.00     0.009 A 
ATOM     11  C   UNL     1       1.624   7.279   1.012  1.00  0.00     0.005 A 
ATOM     12  C   UNL     1      -0.657   6.701   0.521  1.00  0.00     0.005 A 
BRANCH   8  13
ATOM     13  C   UNL     1       1.012   3.723   2.179  1.00  0.00    -0.018 A 
ATOM     14  C   UNL     1       0.901   1.275   2.035  1.00  0.00    -0.048 A 
ATOM     15  C   UNL     1       1.461   1.184   3.315  1.00  0.00     0.004 A 
ATOM     16  C   UNL     1       0.672   2.548   1.485  1.00  0.00     0.012 A 
ATOM     17  C   UNL     1       1.795   2.336   4.024  1.00  0.00     0.001 A 
ATOM     18  C   UNL     1       1.573   3.592   3.460  1.00  0.00     0.009 A 
BRANCH  14  19
ATOM     19  C   UNL     1       0.508   0.021   1.291  1.00  0.00     0.032 C 
ATOM     20  C   UNL     1       1.141  -0.094  -0.090  1.00  0.00     0.009 C 
ENDBRANCH  14  19
ENDBRANCH   8  13
ENDBRANCH   5   7
ENDBRANCH   3   5
ENDBRANCH   2   3
ENDBRANCH   1   2
BRANCH   1  21
ATOM     21  C   UNL     1       2.338   7.588  -3.838  1.00  0.00     0.275 C 
BRANCH  21  22
ATOM     22  O   UNL     1       0.965   7.589  -4.264  1.00  0.00    -0.458 OA
BRANCH  22  23
ATOM     23  C   UNL     1       0.151   6.747  -3.583  1.00  0.00     0.338 C 
ATOM     24  O   UNL     1       0.465   5.962  -2.708  1.00  0.00    -0.246 OA
BRANCH  23  25
ATOM     25  C   UNL     1      -1.239   6.988  -3.991  1.00  0.00     0.060 A 
ATOM     26  C   UNL     1      -2.096   7.619  -3.086  1.00  0.00     0.016 A 
ATOM     27  C   UNL     1      -1.714   6.525  -5.217  1.00  0.00     0.016 A 
ATOM     28  C   UNL     1      -3.443   7.778  -3.397  1.00  0.00     0.010 A 
ATOM     29  C   UNL     1      -3.065   6.695  -5.534  1.00  0.00     0.010 A 
ATOM     30  C   UNL     1      -3.940   7.310  -4.620  1.00  0.00    -0.014 A 
BRANCH  30  31
ATOM     31  C   UNL     1      -5.390   7.412  -4.915  1.00  0.00     0.031 A 
ATOM     32  C   UNL     1      -6.246   6.179  -4.865  1.00  0.00     0.074 A 
ATOM     33  C   UNL     1      -5.932   8.607  -5.212  1.00  0.00     0.049 A 
ATOM     34  N   UNL     1      -7.507   6.031  -5.180  1.00  0.00    -0.248 NA
ATOM     35  C   UNL     1      -5.588   4.948  -4.405  1.00  0.00     0.031 C 
ATOM     36  C   UNL     1      -5.205   9.877  -5.246  1.00  0.00     0.029 A 
ATOM     37  N   UNL     1      -7.217   8.948  -5.551  1.00  0.00    -0.354 N 
ATOM     38  C   UNL     1      -7.794   4.687  -4.972  1.00  0.00     0.074 A 
ATOM     39  C   UNL     1      -6.564   4.060  -4.531  1.00  0.00     0.031 C 
ATOM     40  C   UNL     1      -6.054  10.857  -5.594  1.00  0.00     0.029 A 
ATOM     41  C   UNL     1      -7.369  10.280  -5.856  1.00  0.00     0.049 A 
ATOM     42  H   UNL     1      -7.958   8.301  -5.572  1.00  0.00     0.167 HD
ATOM     43  C   UNL     1      -8.975   4.039  -5.131  1.00  0.00     0.034 A 
ATOM     44  C   UNL     1      -8.438  10.950  -6.329  1.00  0.00     0.034 A 
ATOM     45  C   UNL     1     -10.188   4.682  -5.578  1.00  0.00     0.049 A 
ATOM     46  C   UNL     1      -9.722  10.197  -6.567  1.00  0.00     0.074 A 
ATOM     47  C   UNL     1     -11.441   4.126  -5.772  1.00  0.00     0.029 A 
ATOM     48  N   UNL     1     -10.298   6.028  -5.910  1.00  0.00    -0.354 N 
ATOM     49  N   UNL     1      -9.978   8.922  -6.385  1.00  0.00    -0.248 NA
ATOM     50  C   UNL     1     -10.861  10.975  -7.072  1.00  0.00     0.031 C 
ATOM     51  C   UNL     1     -12.290   5.119  -6.276  1.00  0.00     0.029 A 
ATOM     52  C   UNL     1     -11.588   6.313  -6.333  1.00  0.00     0.049 A 
ATOM     53  H   UNL     1      -9.566   6.684  -5.852  1.00  0.00     0.167 HD
ATOM     54  C   UNL     1     -11.313   8.749  -6.737  1.00  0.00     0.074 A 
ATOM     55  C   UNL     1     -11.812  10.053  -7.125  1.00  0.00     0.031 C 
ATOM     56  C   UNL     1     -12.062   7.616  -6.736  1.00  0.00     0.034 A 
BRANCH  43  57
ATOM     57  C   UNL     1      -8.984   2.551  -4.876  1.00  0.00     0.023 A 
ATOM     58  C   UNL     1      -8.736   2.015  -3.600  1.00  0.00     0.031 A 
ATOM     59  C   UNL     1      -9.196   1.653  -5.937  1.00  0.00     0.131 A 
ATOM     60  C   UNL     1      -8.631   0.626  -3.433  1.00  0.00     0.055 A 
ATOM     61  C   UNL     1      -9.166   0.270  -5.749  1.00  0.00     0.041 A 
ATOM     62  F   UNL     1      -9.415   2.105  -7.182  1.00  0.00    -0.206 F 
ATOM     63  C   UNL     1      -8.866  -0.251  -4.494  1.00  0.00     0.022 A 
BRANCH  60  64
ATOM     64  S   UNL     1      -8.036  -0.015  -1.843  1.00  0.00     0.124 S 
ATOM     65  O   UNL     1      -6.737   0.643  -1.726  1.00  0.00    -0.237 OA
ATOM     66  O   UNL     1      -9.067   0.436  -0.916  1.00  0.00    -0.237 OA
ATOM     67  O   UNL     1      -7.976  -1.460  -2.055  1.00  0.00    -0.744 OA
ENDBRANCH  60  64
ENDBRANCH  43  57
BRANCH  44  68
ATOM     68  C   UNL     1      -8.327  12.397  -6.666  1.00  0.00     0.023 A 
ATOM     69  C   UNL     1      -9.052  13.369  -5.960  1.00  0.00     0.031 A 
ATOM     70  C   UNL     1      -7.511  12.823  -7.730  1.00  0.00     0.131 A 
ATOM     71  C   UNL     1      -8.974  14.716  -6.348  1.00  0.00     0.055 A 
ATOM     72  C   UNL     1      -7.400  14.169  -8.082  1.00  0.00     0.041 A 
ATOM     73  F   UNL     1      -6.796  11.933  -8.437  1.00  0.00    -0.206 F 
ATOM     74  C   UNL     1      -8.144  15.123  -7.396  1.00  0.00     0.022 A 
BRANCH  71  75
ATOM     75  S   UNL     1     -10.030  15.926  -5.506  1.00  0.00     0.124 S 
ATOM     76  O   UNL     1     -11.362  15.390  -5.764  1.00  0.00    -0.237 OA
ATOM     77  O   UNL     1      -9.558  15.834  -4.129  1.00  0.00    -0.237 OA
ATOM     78  O   UNL     1      -9.719  17.181  -6.186  1.00  0.00    -0.744 OA
ENDBRANCH  71  75
ENDBRANCH  44  68
BRANCH  56  79
ATOM     79  C   UNL     1     -13.508   7.759  -7.137  1.00  0.00     0.023 A 
ATOM     80  C   UNL     1     -13.883   8.059  -8.458  1.00  0.00     0.031 A 
ATOM     81  C   UNL     1     -14.524   7.612  -6.176  1.00  0.00     0.131 A 
ATOM     82  C   UNL     1     -15.236   8.255  -8.773  1.00  0.00     0.055 A 
ATOM     83  C   UNL     1     -15.873   7.756  -6.506  1.00  0.00     0.041 A 
ATOM     84  F   UNL     1     -14.221   7.328  -4.899  1.00  0.00    -0.206 F 
ATOM     85  C   UNL     1     -16.234   8.091  -7.808  1.00  0.00     0.022 A 
BRANCH  82  86
ATOM     86  S   UNL     1     -15.673   8.807 -10.445  1.00  0.00     0.124 S 
ATOM     87  O   UNL     1     -14.945  10.068 -10.548  1.00  0.00    -0.237 OA
ATOM     88  O   UNL     1     -15.176   7.714 -11.274  1.00  0.00    -0.237 OA
ATOM     89  O   UNL     1     -17.128   8.933 -10.395  1.00  0.00    -0.744 OA
ENDBRANCH  82  86
ENDBRANCH  56  79
ENDBRANCH  30  31
ENDBRANCH  23  25
ENDBRANCH  22  23
ENDBRANCH  21  22
ENDBRANCH   1  21
TORSDOF 17
