REMARK SMILES C[C@H]1CC[C@H]([NH2+]Cc2c(C(=O)OCCOC(=O)c3ccc(-c4c5nc(c(-c6cc(S(=O)(=O)[O-])ccc6F)c6ccc([nH]6)c(-c6cc(S(=O)(=O)[O-])ccc6F)c6nc(c(-c7cc(S(=O)(=O)[O-])ccc7F)c7ccc4[nH]7)C=C6)C=C5)cc3)n(Cc3ccccc3F)c3ccccc23)CC1
REMARK SMILES IDX 13 1 12 2 10 3 11 4 9 5 8 6 95 7 81 8 90 9 94 10 91 11 93 12
REMARK SMILES IDX 92 13 7 14 6 15 5 18 1 19 2 20 3 21 97 22 4 23 96 24 82 25
REMARK SMILES IDX 83 26 84 27 88 28 85 29 87 30 89 31 86 32 14 33 15 34 16 35
REMARK SMILES IDX 17 36 18 37 19 38 80 39 20 40 79 41 21 42 22 43 23 44 73 45
REMARK SMILES IDX 24 46 78 47 72 48 74 49 25 50 77 51 71 52 70 53 26 55 58 56
REMARK SMILES IDX 38 57 57 58 39 59 42 60 56 61 75 62 40 63 41 64 55 66 76 67
REMARK SMILES IDX 43 68 27 69 28 70 36 71 29 72 35 73 37 74 34 75 30 76 31 77
REMARK SMILES IDX 32 78 33 79 59 80 60 81 68 82 61 83 67 84 69 85 66 86 62 87
REMARK SMILES IDX 63 88 64 89 65 90 44 91 45 92 53 93 46 94 52 95 54 96 51 97
REMARK SMILES IDX 47 98 48 99 49 100 50 101
REMARK H PARENT 6 16 6 17 74 54 42 65
REMARK Flexibility Score: inf
ROOT
ATOM      1  C   UNL     1      -2.018   0.766   3.047  1.00  0.00     0.275 C 
ENDROOT
BRANCH   1   2
ATOM      2  O   UNL     1      -2.990  -0.203   2.556  1.00  0.00    -0.457 OA
BRANCH   2   3
ATOM      3  C   UNL     1      -2.497  -1.430   2.227  1.00  0.00     0.355 C 
ATOM      4  O   UNL     1      -1.388  -1.795   2.549  1.00  0.00    -0.244 OA
BRANCH   3   5
ATOM      5  C   UNL     1      -3.380  -2.216   1.385  1.00  0.00     0.137 A 
ATOM      6  C   UNL     1      -4.108  -1.827   0.248  1.00  0.00     0.047 A 
ATOM      7  C   UNL     1      -4.735  -3.019  -0.265  1.00  0.00     0.009 A 
ATOM      8  N   UNL     1      -3.440  -3.623   1.456  1.00  0.00    -0.330 N 
ATOM      9  C   UNL     1      -4.228  -4.113   0.428  1.00  0.00     0.050 A 
ATOM     10  C   UNL     1      -5.604  -3.253  -1.356  1.00  0.00     0.011 A 
ATOM     11  C   UNL     1      -4.473  -5.427  -0.009  1.00  0.00     0.027 A 
ATOM     12  C   UNL     1      -5.893  -4.558  -1.753  1.00  0.00     0.001 A 
ATOM     13  C   UNL     1      -5.310  -5.633  -1.103  1.00  0.00     0.002 A 
BRANCH   6  14
ATOM     14  C   UNL     1      -4.258  -0.519  -0.509  1.00  0.00     0.300 C 
BRANCH  14  15
ATOM     15  N   UNL     1      -3.323   0.553  -0.192  1.00  0.00    -0.340 N 
ATOM     16  H   UNL     1      -3.831   1.434  -0.276  1.00  0.00     0.346 HD
ATOM     17  H   UNL     1      -2.983   0.327   0.743  1.00  0.00     0.346 HD
BRANCH  15  18
ATOM     18  C   UNL     1      -2.103   0.669  -1.010  1.00  0.00     0.182 C 
ATOM     19  C   UNL     1       2.335   1.028  -0.853  1.00  0.00     0.007 C 
ATOM     20  C   UNL     1       0.839   0.880  -0.600  1.00  0.00    -0.014 C 
ATOM     21  C   UNL     1       0.252  -0.309  -1.360  1.00  0.00     0.009 C 
ATOM     22  C   UNL     1       0.055   2.127  -1.009  1.00  0.00     0.009 C 
ATOM     23  C   UNL     1      -1.182  -0.550  -0.902  1.00  0.00     0.065 C 
ATOM     24  C   UNL     1      -1.419   2.001  -0.617  1.00  0.00     0.065 C 
ENDBRANCH  15  18
ENDBRANCH  14  15
ENDBRANCH   6  14
BRANCH   8  25
ATOM     25  C   UNL     1      -2.525  -4.496   2.210  1.00  0.00     0.161 C 
BRANCH  25  26
ATOM     26  C   UNL     1      -3.067  -5.322   3.352  1.00  0.00     0.008 A 
ATOM     27  C   UNL     1      -3.420  -6.671   3.176  1.00  0.00     0.008 A 
ATOM     28  C   UNL     1      -3.018  -4.838   4.663  1.00  0.00     0.128 A 
ATOM     29  C   UNL     1      -3.707  -7.498   4.267  1.00  0.00     0.001 A 
ATOM     30  C   UNL     1      -3.279  -5.664   5.760  1.00  0.00     0.039 A 
ATOM     31  F   UNL     1      -2.633  -3.575   4.897  1.00  0.00    -0.207 F 
ATOM     32  C   UNL     1      -3.623  -6.999   5.562  1.00  0.00     0.003 A 
ENDBRANCH  25  26
ENDBRANCH   8  25
ENDBRANCH   3   5
ENDBRANCH   2   3
ENDBRANCH   1   2
BRANCH   1  33
ATOM     33  C   UNL     1      -1.184   0.400   4.289  1.00  0.00     0.275 C 
BRANCH  33  34
ATOM     34  O   UNL     1       0.118  -0.041   3.844  1.00  0.00    -0.458 OA
BRANCH  34  35
ATOM     35  C   UNL     1       0.669  -1.044   4.580  1.00  0.00     0.338 C 
ATOM     36  O   UNL     1       0.556  -1.179   5.787  1.00  0.00    -0.246 OA
BRANCH  35  37
ATOM     37  C   UNL     1       1.142  -2.097   3.639  1.00  0.00     0.060 A 
ATOM     38  C   UNL     1       1.588  -1.791   2.348  1.00  0.00     0.016 A 
ATOM     39  C   UNL     1       0.836  -3.420   3.970  1.00  0.00     0.016 A 
ATOM     40  C   UNL     1       1.556  -2.776   1.352  1.00  0.00     0.010 A 
ATOM     41  C   UNL     1       0.823  -4.398   2.971  1.00  0.00     0.010 A 
ATOM     42  C   UNL     1       1.083  -4.066   1.632  1.00  0.00    -0.014 A 
BRANCH  42  43
ATOM     43  C   UNL     1       0.972  -5.061   0.549  1.00  0.00     0.031 A 
ATOM     44  C   UNL     1       1.401  -6.451   0.816  1.00  0.00     0.074 A 
ATOM     45  C   UNL     1       0.360  -4.969  -0.652  1.00  0.00     0.049 A 
ATOM     46  N   UNL     1       2.567  -6.963   0.613  1.00  0.00    -0.248 NA
ATOM     47  C   UNL     1       0.414  -7.381   1.378  1.00  0.00     0.031 C 
ATOM     48  C   UNL     1      -0.700  -4.075  -1.095  1.00  0.00     0.029 A 
ATOM     49  N   UNL     1       0.574  -5.771  -1.747  1.00  0.00    -0.354 N 
ATOM     50  C   UNL     1       2.443  -8.317   0.895  1.00  0.00     0.074 A 
ATOM     51  C   UNL     1       1.141  -8.492   1.498  1.00  0.00     0.031 C 
ATOM     52  C   UNL     1      -1.113  -4.440  -2.335  1.00  0.00     0.029 A 
ATOM     53  C   UNL     1      -0.231  -5.485  -2.837  1.00  0.00     0.049 A 
ATOM     54  H   UNL     1       1.246  -6.491  -1.756  1.00  0.00     0.167 HD
ATOM     55  C   UNL     1       3.354  -9.235   0.471  1.00  0.00     0.034 A 
ATOM     56  C   UNL     1      -0.153  -6.034  -4.073  1.00  0.00     0.034 A 
ATOM     57  C   UNL     1       4.443  -8.625  -0.243  1.00  0.00     0.049 A 
ATOM     58  C   UNL     1       1.181  -6.674  -4.245  1.00  0.00     0.074 A 
ATOM     59  C   UNL     1       5.545  -7.867   0.083  1.00  0.00     0.029 A 
ATOM     60  N   UNL     1       4.259  -8.499  -1.598  1.00  0.00    -0.354 N 
ATOM     61  N   UNL     1       2.316  -6.032  -4.298  1.00  0.00    -0.248 NA
ATOM     62  C   UNL     1       1.303  -8.127  -4.173  1.00  0.00     0.031 C 
ATOM     63  C   UNL     1       5.839  -7.076  -1.067  1.00  0.00     0.029 A 
ATOM     64  C   UNL     1       4.884  -7.357  -2.047  1.00  0.00     0.049 A 
ATOM     65  H   UNL     1       3.756  -9.130  -2.163  1.00  0.00     0.167 HD
ATOM     66  C   UNL     1       3.262  -6.941  -3.868  1.00  0.00     0.074 A 
ATOM     67  C   UNL     1       2.622  -8.240  -4.003  1.00  0.00     0.031 C 
ATOM     68  C   UNL     1       4.350  -6.554  -3.139  1.00  0.00     0.034 A 
BRANCH  55  69
ATOM     69  C   UNL     1       3.151 -10.721   0.482  1.00  0.00     0.023 A 
ATOM     70  C   UNL     1       1.882 -11.321   0.410  1.00  0.00     0.031 A 
ATOM     71  C   UNL     1       4.258 -11.591   0.460  1.00  0.00     0.131 A 
ATOM     72  C   UNL     1       1.737 -12.715   0.438  1.00  0.00     0.055 A 
ATOM     73  C   UNL     1       4.115 -12.982   0.406  1.00  0.00     0.041 A 
ATOM     74  F   UNL     1       5.512 -11.113   0.485  1.00  0.00    -0.206 F 
ATOM     75  C   UNL     1       2.848 -13.553   0.423  1.00  0.00     0.022 A 
BRANCH  72  76
ATOM     76  S   UNL     1       0.088 -13.450   0.615  1.00  0.00     0.124 S 
ATOM     77  O   UNL     1      -0.168 -13.937  -0.735  1.00  0.00    -0.237 OA
ATOM     78  O   UNL     1       0.315 -14.479   1.628  1.00  0.00    -0.237 OA
ATOM     79  O   UNL     1      -0.730 -12.324   1.059  1.00  0.00    -0.744 OA
ENDBRANCH  72  76
ENDBRANCH  55  69
BRANCH  56  80
ATOM     80  C   UNL     1      -1.155  -6.086  -5.161  1.00  0.00     0.023 A 
ATOM     81  C   UNL     1      -2.510  -6.348  -4.883  1.00  0.00     0.031 A 
ATOM     82  C   UNL     1      -0.754  -6.109  -6.510  1.00  0.00     0.131 A 
ATOM     83  C   UNL     1      -3.399  -6.655  -5.930  1.00  0.00     0.055 A 
ATOM     84  C   UNL     1      -1.645  -6.396  -7.548  1.00  0.00     0.041 A 
ATOM     85  F   UNL     1       0.526  -5.895  -6.848  1.00  0.00    -0.206 F 
ATOM     86  C   UNL     1      -2.974  -6.678  -7.260  1.00  0.00     0.022 A 
BRANCH  83  87
ATOM     87  S   UNL     1      -5.132  -7.063  -5.580  1.00  0.00     0.124 S 
ATOM     88  O   UNL     1      -5.829  -6.583  -6.772  1.00  0.00    -0.237 OA
ATOM     89  O   UNL     1      -5.075  -8.512  -5.428  1.00  0.00    -0.237 OA
ATOM     90  O   UNL     1      -5.414  -6.307  -4.367  1.00  0.00    -0.744 OA
ENDBRANCH  83  87
ENDBRANCH  56  80
BRANCH  68  91
ATOM     91  C   UNL     1       4.848  -5.130  -3.275  1.00  0.00     0.023 A 
ATOM     92  C   UNL     1       6.219  -4.929  -3.535  1.00  0.00     0.031 A 
ATOM     93  C   UNL     1       4.064  -3.986  -3.038  1.00  0.00     0.131 A 
ATOM     94  C   UNL     1       6.761  -3.635  -3.541  1.00  0.00     0.055 A 
ATOM     95  C   UNL     1       4.593  -2.694  -3.121  1.00  0.00     0.041 A 
ATOM     96  F   UNL     1       2.785  -4.080  -2.649  1.00  0.00    -0.206 F 
ATOM     97  C   UNL     1       5.950  -2.513  -3.362  1.00  0.00     0.022 A 
BRANCH  94  98
ATOM     98  S   UNL     1       8.554  -3.377  -3.642  1.00  0.00     0.124 S 
ATOM     99  O   UNL     1       8.699  -2.711  -4.933  1.00  0.00    -0.237 OA
ATOM    100  O   UNL     1       8.814  -2.538  -2.474  1.00  0.00    -0.237 OA
ATOM    101  O   UNL     1       9.109  -4.725  -3.567  1.00  0.00    -0.744 OA
ENDBRANCH  94  98
ENDBRANCH  68  91
ENDBRANCH  42  43
ENDBRANCH  35  37
ENDBRANCH  34  35
ENDBRANCH  33  34
ENDBRANCH   1  33
TORSDOF 19
