REMARK SMILES O=C(OCCOC(=O)c1cc(-c2ccccn2)nc2ccc(F)cc12)c1ccc(-c2c3nc(c(-c4cc(S(=O)(=O)[O-])ccc4F)c4ccc([nH]4)c(-c4cc(S(=O)(=O)[O-])ccc4F)c4nc(c(-c5cc(S(=O)(=O)[O-])ccc5F)c5ccc2[nH]5)C=C4)C=C3)cc1
REMARK SMILES IDX 4 1 3 2 2 3 1 4 26 5 27 6 88 7 28 8 87 9 29 10 30 11 31 12
REMARK SMILES IDX 81 13 32 14 86 15 80 16 82 17 33 18 85 19 79 20 78 21 34 23
REMARK SMILES IDX 66 24 46 25 65 26 47 27 50 28 64 29 83 30 48 31 49 32 63 34
REMARK SMILES IDX 84 35 51 36 35 37 36 38 44 39 37 40 43 41 45 42 42 43 38 44
REMARK SMILES IDX 39 45 40 46 41 47 67 48 68 49 76 50 69 51 75 52 77 53 74 54
REMARK SMILES IDX 70 55 71 56 72 57 73 58 52 59 53 60 61 61 54 62 60 63 62 64
REMARK SMILES IDX 59 65 55 66 56 67 57 68 58 69 5 70 6 71 7 72 8 73 9 74 10 75
REMARK SMILES IDX 25 76 11 77 19 78 24 79 18 80 20 81 22 82 21 83 23 84 12 85
REMARK SMILES IDX 13 86 17 87 14 88 16 89 15 90
REMARK H PARENT 82 22 50 33
REMARK Flexibility Score: inf
ROOT
ATOM      1  C   UNL     1       4.323   1.229  -0.666  1.00  0.00     0.275 C 
ENDROOT
BRANCH   1   2
ATOM      2  O   UNL     1       3.400   0.173  -0.979  1.00  0.00    -0.458 OA
BRANCH   2   3
ATOM      3  C   UNL     1       3.569  -1.136  -0.650  1.00  0.00     0.338 C 
ATOM      4  O   UNL     1       3.018  -2.017  -1.302  1.00  0.00    -0.246 OA
BRANCH   3   5
ATOM      5  C   UNL     1       4.176  -1.472   0.665  1.00  0.00     0.060 A 
ATOM      6  C   UNL     1       3.387  -2.225   1.538  1.00  0.00     0.016 A 
ATOM      7  C   UNL     1       5.464  -1.107   1.066  1.00  0.00     0.016 A 
ATOM      8  C   UNL     1       3.815  -2.473   2.844  1.00  0.00     0.010 A 
ATOM      9  C   UNL     1       5.912  -1.386   2.365  1.00  0.00     0.010 A 
ATOM     10  C   UNL     1       5.086  -2.056   3.275  1.00  0.00    -0.014 A 
BRANCH  10  11
ATOM     11  C   UNL     1       5.633  -2.597   4.548  1.00  0.00     0.031 A 
ATOM     12  C   UNL     1       5.909  -1.746   5.763  1.00  0.00     0.074 A 
ATOM     13  C   UNL     1       5.896  -3.920   4.546  1.00  0.00     0.049 A 
ATOM     14  N   UNL     1       6.300  -2.117   6.957  1.00  0.00    -0.248 NA
ATOM     15  C   UNL     1       5.742  -0.288   5.630  1.00  0.00     0.031 C 
ATOM     16  C   UNL     1       5.718  -4.798   3.381  1.00  0.00     0.029 A 
ATOM     17  N   UNL     1       6.364  -4.759   5.519  1.00  0.00    -0.354 N 
ATOM     18  C   UNL     1       6.366  -0.958   7.734  1.00  0.00     0.074 A 
ATOM     19  C   UNL     1       6.038   0.144   6.856  1.00  0.00     0.031 C 
ATOM     20  C   UNL     1       6.057  -6.047   3.712  1.00  0.00     0.029 A 
ATOM     21  C   UNL     1       6.528  -6.056   5.089  1.00  0.00     0.049 A 
ATOM     22  H   UNL     1       6.564  -4.465   6.437  1.00  0.00     0.167 HD
ATOM     23  C   UNL     1       6.644  -0.857   9.060  1.00  0.00     0.034 A 
ATOM     24  C   UNL     1       7.022  -7.135   5.723  1.00  0.00     0.034 A 
ATOM     25  C   UNL     1       6.945  -2.007   9.878  1.00  0.00     0.049 A 
ATOM     26  C   UNL     1       7.366  -6.983   7.175  1.00  0.00     0.074 A 
ATOM     27  C   UNL     1       7.122  -2.054  11.248  1.00  0.00     0.029 A 
ATOM     28  N   UNL     1       7.129  -3.301   9.403  1.00  0.00    -0.354 N 
ATOM     29  N   UNL     1       7.265  -5.912   7.931  1.00  0.00    -0.248 NA
ATOM     30  C   UNL     1       7.868  -8.169   7.872  1.00  0.00     0.031 C 
ATOM     31  C   UNL     1       7.468  -3.362  11.594  1.00  0.00     0.029 A 
ATOM     32  C   UNL     1       7.474  -4.145  10.447  1.00  0.00     0.049 A 
ATOM     33  H   UNL     1       7.029  -3.577   8.463  1.00  0.00     0.167 HD
ATOM     34  C   UNL     1       7.688  -6.294   9.195  1.00  0.00     0.074 A 
ATOM     35  C   UNL     1       8.006  -7.708   9.109  1.00  0.00     0.031 C 
ATOM     36  C   UNL     1       7.811  -5.546  10.322  1.00  0.00     0.034 A 
BRANCH  23  37
ATOM     37  C   UNL     1       6.560   0.486   9.766  1.00  0.00     0.023 A 
ATOM     38  C   UNL     1       7.698   1.209  10.160  1.00  0.00     0.031 A 
ATOM     39  C   UNL     1       5.327   0.936  10.265  1.00  0.00     0.131 A 
ATOM     40  C   UNL     1       7.550   2.350  10.978  1.00  0.00     0.055 A 
ATOM     41  C   UNL     1       5.169   2.111  10.999  1.00  0.00     0.041 A 
ATOM     42  F   UNL     1       4.249   0.164  10.165  1.00  0.00    -0.206 F 
ATOM     43  C   UNL     1       6.292   2.830  11.358  1.00  0.00     0.022 A 
BRANCH  40  44
ATOM     44  S   UNL     1       8.977   3.168  11.745  1.00  0.00     0.124 S 
ATOM     45  O   UNL     1       8.930   4.490  11.125  1.00  0.00    -0.237 OA
ATOM     46  O   UNL     1       8.623   3.133  13.162  1.00  0.00    -0.237 OA
ATOM     47  O   UNL     1      10.107   2.332  11.358  1.00  0.00    -0.744 OA
ENDBRANCH  40  44
ENDBRANCH  23  37
BRANCH  24  48
ATOM     48  C   UNL     1       7.156  -8.411   4.959  1.00  0.00     0.023 A 
ATOM     49  C   UNL     1       7.955  -8.458   3.797  1.00  0.00     0.031 A 
ATOM     50  C   UNL     1       6.360  -9.527   5.255  1.00  0.00     0.131 A 
ATOM     51  C   UNL     1       7.858  -9.549   2.923  1.00  0.00     0.055 A 
ATOM     52  C   UNL     1       6.328 -10.649   4.421  1.00  0.00     0.041 A 
ATOM     53  F   UNL     1       5.571  -9.528   6.340  1.00  0.00    -0.206 F 
ATOM     54  C   UNL     1       7.059 -10.652   3.236  1.00  0.00     0.022 A 
BRANCH  51  55
ATOM     55  S   UNL     1       8.620  -9.489   1.275  1.00  0.00     0.124 S 
ATOM     56  O   UNL     1       9.545 -10.616   1.327  1.00  0.00    -0.237 OA
ATOM     57  O   UNL     1       7.461  -9.663   0.403  1.00  0.00    -0.237 OA
ATOM     58  O   UNL     1       9.237  -8.167   1.227  1.00  0.00    -0.744 OA
ENDBRANCH  51  55
ENDBRANCH  24  48
BRANCH  36  59
ATOM     59  C   UNL     1       8.362  -6.232  11.545  1.00  0.00     0.023 A 
ATOM     60  C   UNL     1       7.570  -6.375  12.698  1.00  0.00     0.031 A 
ATOM     61  C   UNL     1       9.705  -6.644  11.599  1.00  0.00     0.131 A 
ATOM     62  C   UNL     1       8.141  -6.881  13.871  1.00  0.00     0.055 A 
ATOM     63  C   UNL     1      10.253  -7.201  12.753  1.00  0.00     0.041 A 
ATOM     64  F   UNL     1      10.499  -6.521  10.523  1.00  0.00    -0.206 F 
ATOM     65  C   UNL     1       9.473  -7.307  13.901  1.00  0.00     0.022 A 
BRANCH  62  66
ATOM     66  S   UNL     1       7.203  -6.915  15.422  1.00  0.00     0.124 S 
ATOM     67  O   UNL     1       7.126  -8.348  15.696  1.00  0.00    -0.237 OA
ATOM     68  O   UNL     1       8.067  -6.152  16.320  1.00  0.00    -0.237 OA
ATOM     69  O   UNL     1       5.936  -6.276  15.082  1.00  0.00    -0.744 OA
ENDBRANCH  62  66
ENDBRANCH  36  59
ENDBRANCH  10  11
ENDBRANCH   3   5
ENDBRANCH   2   3
ENDBRANCH   1   2
BRANCH   1  70
ATOM     70  C   UNL     1       3.978   2.039   0.587  1.00  0.00     0.275 C 
BRANCH  70  71
ATOM     71  O   UNL     1       3.379   1.257   1.629  1.00  0.00    -0.458 OA
BRANCH  71  72
ATOM     72  C   UNL     1       2.016   1.282   1.662  1.00  0.00     0.339 C 
ATOM     73  O   UNL     1       1.286   1.938   0.959  1.00  0.00    -0.246 OA
BRANCH  72  74
ATOM     74  C   UNL     1       1.544   0.300   2.668  1.00  0.00     0.071 A 
ATOM     75  C   UNL     1       2.105   0.329   3.950  1.00  0.00     0.047 A 
ATOM     76  C   UNL     1       0.600  -0.698   2.298  1.00  0.00     0.018 A 
ATOM     77  C   UNL     1       1.705  -0.649   4.842  1.00  0.00     0.090 A 
ATOM     78  C   UNL     1       0.286  -1.639   3.293  1.00  0.00     0.072 A 
ATOM     79  C   UNL     1       0.013  -0.881   1.021  1.00  0.00     0.050 A 
ATOM     80  N   UNL     1       0.789  -1.590   4.514  1.00  0.00    -0.246 NA
ATOM     81  C   UNL     1      -0.534  -2.720   3.021  1.00  0.00     0.032 A 
ATOM     82  C   UNL     1      -0.814  -1.973   0.772  1.00  0.00     0.123 A 
ATOM     83  C   UNL     1      -1.085  -2.904   1.760  1.00  0.00     0.041 A 
ATOM     84  F   UNL     1      -1.346  -2.139  -0.446  1.00  0.00    -0.207 F 
BRANCH  77  85
ATOM     85  C   UNL     1       2.205  -0.798   6.207  1.00  0.00     0.089 A 
ATOM     86  C   UNL     1       2.046   0.202   7.155  1.00  0.00     0.030 A 
ATOM     87  N   UNL     1       2.660  -2.043   6.514  1.00  0.00    -0.255 NA
ATOM     88  C   UNL     1       2.254  -0.131   8.485  1.00  0.00     0.004 A 
ATOM     89  C   UNL     1       2.904  -2.322   7.808  1.00  0.00     0.112 A 
ATOM     90  C   UNL     1       2.672  -1.419   8.821  1.00  0.00     0.020 A 
ENDBRANCH  77  85
ENDBRANCH  72  74
ENDBRANCH  71  72
ENDBRANCH  70  71
ENDBRANCH   1  70
TORSDOF 15
