REMARK SMILES O=C(OCCOC(=O)[C@H]1[NH2+]CC[C@H]1c1cccc(Oc2ccccc2)c1)c1ccc(-c2c3nc(c(-c4cc(S(=O)(=O)[O-])ccc4F)c4ccc([nH]4)c(-c4cc(S(=O)(=O)[O-])ccc4F)c4nc(c(-c5cc(S(=O)(=O)[O-])ccc5F)c5ccc2[nH]5)C=C4)C=C3)cc1
REMARK SMILES IDX 4 1 3 2 2 3 1 4 27 5 28 6 89 7 29 8 88 9 30 10 31 11 32 12
REMARK SMILES IDX 82 13 33 14 87 15 81 16 83 17 34 18 86 19 80 20 79 21 35 23
REMARK SMILES IDX 67 24 47 25 66 26 48 27 51 28 65 29 84 30 49 31 50 32 64 34
REMARK SMILES IDX 85 35 52 36 36 37 37 38 45 39 38 40 44 41 46 42 43 43 39 44
REMARK SMILES IDX 40 45 41 46 42 47 68 48 69 49 77 50 70 51 76 52 78 53 75 54
REMARK SMILES IDX 71 55 72 56 73 57 74 58 53 59 54 60 62 61 55 62 61 63 63 64
REMARK SMILES IDX 60 65 56 66 57 67 58 68 59 69 5 70 6 71 7 72 8 73 9 74 10 75
REMARK SMILES IDX 13 76 11 77 12 80 14 81 15 82 26 83 16 84 18 85 17 86 19 87
REMARK SMILES IDX 20 88 21 89 25 90 22 91 24 92 23 93
REMARK H PARENT 83 22 51 33 10 78 10 79
REMARK Flexibility Score: inf
ROOT
ATOM      1  C   UNL     1       4.069   0.177  -1.442  1.00  0.00     0.275 C 
ENDROOT
BRANCH   1   2
ATOM      2  O   UNL     1       2.995  -0.779  -1.468  1.00  0.00    -0.458 OA
BRANCH   2   3
ATOM      3  C   UNL     1       2.668  -1.776  -0.609  1.00  0.00     0.338 C 
ATOM      4  O   UNL     1       1.605  -2.365  -0.816  1.00  0.00    -0.246 OA
BRANCH   3   5
ATOM      5  C   UNL     1       3.477  -2.209   0.592  1.00  0.00     0.060 A 
ATOM      6  C   UNL     1       4.787  -1.843   0.892  1.00  0.00     0.016 A 
ATOM      7  C   UNL     1       2.835  -3.064   1.518  1.00  0.00     0.016 A 
ATOM      8  C   UNL     1       5.399  -2.249   2.093  1.00  0.00     0.010 A 
ATOM      9  C   UNL     1       3.441  -3.461   2.731  1.00  0.00     0.010 A 
ATOM     10  C   UNL     1       4.729  -3.030   3.049  1.00  0.00    -0.014 A 
BRANCH  10  11
ATOM     11  C   UNL     1       5.522  -3.557   4.210  1.00  0.00     0.031 A 
ATOM     12  C   UNL     1       6.321  -4.781   3.959  1.00  0.00     0.074 A 
ATOM     13  C   UNL     1       5.649  -2.934   5.402  1.00  0.00     0.049 A 
ATOM     14  N   UNL     1       7.205  -5.341   4.731  1.00  0.00    -0.248 NA
ATOM     15  C   UNL     1       6.038  -5.495   2.707  1.00  0.00     0.031 C 
ATOM     16  C   UNL     1       4.790  -1.863   5.825  1.00  0.00     0.029 A 
ATOM     17  N   UNL     1       6.545  -3.014   6.444  1.00  0.00    -0.354 N 
ATOM     18  C   UNL     1       7.571  -6.499   4.073  1.00  0.00     0.074 A 
ATOM     19  C   UNL     1       6.800  -6.564   2.849  1.00  0.00     0.031 C 
ATOM     20  C   UNL     1       5.322  -1.198   6.857  1.00  0.00     0.029 A 
ATOM     21  C   UNL     1       6.473  -1.939   7.328  1.00  0.00     0.049 A 
ATOM     22  H   UNL     1       7.178  -3.760   6.555  1.00  0.00     0.167 HD
ATOM     23  C   UNL     1       8.458  -7.430   4.484  1.00  0.00     0.034 A 
ATOM     24  C   UNL     1       7.224  -1.600   8.402  1.00  0.00     0.034 A 
ATOM     25  C   UNL     1       9.130  -7.365   5.754  1.00  0.00     0.049 A 
ATOM     26  C   UNL     1       8.241  -2.634   8.807  1.00  0.00     0.074 A 
ATOM     27  C   UNL     1       9.946  -8.305   6.349  1.00  0.00     0.029 A 
ATOM     28  N   UNL     1       9.048  -6.290   6.638  1.00  0.00    -0.354 N 
ATOM     29  N   UNL     1       8.561  -3.745   8.180  1.00  0.00    -0.248 NA
ATOM     30  C   UNL     1       8.944  -2.427  10.075  1.00  0.00     0.031 C 
ATOM     31  C   UNL     1      10.322  -7.820   7.607  1.00  0.00     0.029 A 
ATOM     32  C   UNL     1       9.804  -6.543   7.770  1.00  0.00     0.049 A 
ATOM     33  H   UNL     1       8.527  -5.470   6.480  1.00  0.00     0.167 HD
ATOM     34  C   UNL     1       9.471  -4.392   9.000  1.00  0.00     0.074 A 
ATOM     35  C   UNL     1       9.719  -3.501  10.119  1.00  0.00     0.031 C 
ATOM     36  C   UNL     1      10.014  -5.628   8.870  1.00  0.00     0.034 A 
BRANCH  23  37
ATOM     37  C   UNL     1       8.615  -8.608   3.567  1.00  0.00     0.023 A 
ATOM     38  C   UNL     1       9.113  -8.438   2.263  1.00  0.00     0.031 A 
ATOM     39  C   UNL     1       8.082  -9.857   3.921  1.00  0.00     0.131 A 
ATOM     40  C   UNL     1       8.959  -9.465   1.324  1.00  0.00     0.055 A 
ATOM     41  C   UNL     1       8.027 -10.910   3.008  1.00  0.00     0.041 A 
ATOM     42  F   UNL     1       7.547 -10.054   5.136  1.00  0.00    -0.206 F 
ATOM     43  C   UNL     1       8.446 -10.711   1.694  1.00  0.00     0.022 A 
BRANCH  40  44
ATOM     44  S   UNL     1       9.241  -9.079  -0.426  1.00  0.00     0.124 S 
ATOM     45  O   UNL     1       8.164  -8.127  -0.690  1.00  0.00    -0.237 OA
ATOM     46  O   UNL     1      10.591  -8.527  -0.417  1.00  0.00    -0.237 OA
ATOM     47  O   UNL     1       9.099 -10.374  -1.087  1.00  0.00    -0.744 OA
ENDBRANCH  40  44
ENDBRANCH  23  37
BRANCH  24  48
ATOM     48  C   UNL     1       7.009  -0.348   9.225  1.00  0.00     0.023 A 
ATOM     49  C   UNL     1       8.078   0.510   9.565  1.00  0.00     0.031 A 
ATOM     50  C   UNL     1       5.750  -0.019   9.767  1.00  0.00     0.131 A 
ATOM     51  C   UNL     1       7.876   1.602  10.437  1.00  0.00     0.055 A 
ATOM     52  C   UNL     1       5.536   1.117  10.556  1.00  0.00     0.041 A 
ATOM     53  F   UNL     1       4.685  -0.808   9.552  1.00  0.00    -0.206 F 
ATOM     54  C   UNL     1       6.606   1.926  10.911  1.00  0.00     0.022 A 
BRANCH  51  55
ATOM     55  S   UNL     1       9.317   2.513  11.079  1.00  0.00     0.124 S 
ATOM     56  O   UNL     1      10.143   1.432  11.604  1.00  0.00    -0.237 OA
ATOM     57  O   UNL     1       9.815   3.179   9.881  1.00  0.00    -0.237 OA
ATOM     58  O   UNL     1       8.739   3.399  12.088  1.00  0.00    -0.744 OA
ENDBRANCH  51  55
ENDBRANCH  24  48
BRANCH  36  59
ATOM     59  C   UNL     1      10.945  -6.050   9.972  1.00  0.00     0.023 A 
ATOM     60  C   UNL     1      10.483  -6.249  11.284  1.00  0.00     0.031 A 
ATOM     61  C   UNL     1      12.316  -6.204   9.712  1.00  0.00     0.131 A 
ATOM     62  C   UNL     1      11.401  -6.512  12.307  1.00  0.00     0.055 A 
ATOM     63  C   UNL     1      13.213  -6.545  10.721  1.00  0.00     0.041 A 
ATOM     64  F   UNL     1      12.802  -6.016   8.475  1.00  0.00    -0.206 F 
ATOM     65  C   UNL     1      12.760  -6.682  12.031  1.00  0.00     0.022 A 
BRANCH  62  66
ATOM     66  S   UNL     1      10.812  -6.492  14.021  1.00  0.00     0.124 S 
ATOM     67  O   UNL     1      10.267  -5.144  14.137  1.00  0.00    -0.237 OA
ATOM     68  O   UNL     1       9.836  -7.577  14.029  1.00  0.00    -0.237 OA
ATOM     69  O   UNL     1      12.023  -6.742  14.801  1.00  0.00    -0.744 OA
ENDBRANCH  62  66
ENDBRANCH  36  59
ENDBRANCH  10  11
ENDBRANCH   3   5
ENDBRANCH   2   3
ENDBRANCH   1   2
BRANCH   1  70
ATOM     70  C   UNL     1       3.868   1.299  -0.432  1.00  0.00     0.274 C 
BRANCH  70  71
ATOM     71  O   UNL     1       3.303   0.826   0.788  1.00  0.00    -0.458 OA
BRANCH  71  72
ATOM     72  C   UNL     1       2.435   1.678   1.397  1.00  0.00     0.365 C 
ATOM     73  O   UNL     1       2.051   2.755   0.940  1.00  0.00    -0.245 OA
BRANCH  72  74
ATOM     74  C   UNL     1       2.059   1.203   2.783  1.00  0.00     0.301 C 
ATOM     75  N   UNL     1       1.853  -0.262   2.861  1.00  0.00    -0.334 N 
ATOM     76  C   UNL     1       3.068   1.526   3.894  1.00  0.00     0.095 C 
ATOM     77  C   UNL     1       1.780  -0.546   4.292  1.00  0.00     0.262 C 
ATOM     78  H   UNL     1       2.634  -0.759   2.433  1.00  0.00     0.347 HD
ATOM     79  H   UNL     1       1.015  -0.562   2.363  1.00  0.00     0.347 HD
ATOM     80  C   UNL     1       2.529   0.594   4.993  1.00  0.00     0.076 C 
BRANCH  76  81
ATOM     81  C   UNL     1       4.554   1.531   3.510  1.00  0.00    -0.034 A 
ATOM     82  C   UNL     1       5.497   0.553   3.782  1.00  0.00     0.004 A 
ATOM     83  C   UNL     1       5.050   2.642   2.819  1.00  0.00     0.051 A 
ATOM     84  C   UNL     1       6.861   0.674   3.457  1.00  0.00     0.004 A 
ATOM     85  C   UNL     1       6.397   2.770   2.416  1.00  0.00     0.127 A 
ATOM     86  C   UNL     1       7.314   1.789   2.769  1.00  0.00     0.047 A 
BRANCH  85  87
ATOM     87  O   UNL     1       6.900   3.839   1.694  1.00  0.00    -0.457 OA
BRANCH  87  88
ATOM     88  C   UNL     1       6.016   4.453   0.839  1.00  0.00     0.127 A 
ATOM     89  C   UNL     1       6.056   4.142  -0.519  1.00  0.00     0.047 A 
ATOM     90  C   UNL     1       5.058   5.334   1.341  1.00  0.00     0.047 A 
ATOM     91  C   UNL     1       5.045   4.616  -1.355  1.00  0.00     0.004 A 
ATOM     92  C   UNL     1       4.020   5.756   0.519  1.00  0.00     0.004 A 
ATOM     93  C   UNL     1       4.007   5.388  -0.826  1.00  0.00     0.000 A 
ENDBRANCH  87  88
ENDBRANCH  85  87
ENDBRANCH  76  81
ENDBRANCH  72  74
ENDBRANCH  71  72
ENDBRANCH  70  71
ENDBRANCH   1  70
TORSDOF 17
