REMARK SMILES O=C(OCCOC(=O)[C@H]1CN(C(=O)C[C@H]2NC(=O)c3ccccc32)C[C@@H]1c1ccc(F)cc1)c1ccc(-c2c3nc(c(-c4cc(S(=O)(=O)[O-])ccc4F)c4ccc([nH]4)c(-c4cc(S(=O)(=O)[O-])ccc4F)c4nc(c(-c5cc(S(=O)(=O)[O-])ccc5F)c5ccc2[nH]5)C=C4)C=C3)cc1
REMARK SMILES IDX 4 1 3 2 2 3 1 4 34 5 35 6 96 7 36 8 95 9 37 10 38 11 39 12
REMARK SMILES IDX 89 13 40 14 94 15 88 16 90 17 41 18 93 19 87 20 86 21 42 23
REMARK SMILES IDX 74 24 54 25 73 26 55 27 58 28 72 29 91 30 56 31 57 32 71 34
REMARK SMILES IDX 92 35 59 36 43 37 44 38 52 39 45 40 51 41 53 42 50 43 46 44
REMARK SMILES IDX 47 45 48 46 49 47 75 48 76 49 84 50 77 51 83 52 85 53 82 54
REMARK SMILES IDX 78 55 79 56 80 57 81 58 60 59 61 60 69 61 62 62 68 63 70 64
REMARK SMILES IDX 67 65 63 66 64 67 65 68 66 69 5 70 6 71 7 72 8 73 9 74 10 75
REMARK SMILES IDX 26 76 11 77 25 78 27 79 28 80 33 81 29 82 32 83 30 84 31 85
REMARK SMILES IDX 12 86 13 87 14 88 15 89 16 90 24 91 17 92 19 94 23 95 18 96
REMARK SMILES IDX 20 97 22 98 21 99
REMARK H PARENT 90 22 58 33 16 93
REMARK Flexibility Score: inf
ROOT
ATOM      1  C   UNL     1      -6.423   3.598   0.274  1.00  0.00     0.275 C 
ENDROOT
BRANCH   1   2
ATOM      2  O   UNL     1      -5.733   3.151  -0.987  1.00  0.00    -0.458 OA
BRANCH   2   3
ATOM      3  C   UNL     1      -4.424   3.010  -1.456  1.00  0.00     0.338 C 
ATOM      4  O   UNL     1      -4.160   3.296  -2.619  1.00  0.00    -0.246 OA
BRANCH   3   5
ATOM      5  C   UNL     1      -3.356   2.329  -0.633  1.00  0.00     0.060 A 
ATOM      6  C   UNL     1      -3.350   2.722   0.629  1.00  0.00     0.016 A 
ATOM      7  C   UNL     1      -2.494   1.207  -0.869  1.00  0.00     0.016 A 
ATOM      8  C   UNL     1      -2.963   1.729   1.561  1.00  0.00     0.010 A 
ATOM      9  C   UNL     1      -1.863   0.307   0.238  1.00  0.00     0.010 A 
ATOM     10  C   UNL     1      -2.148   0.468   1.610  1.00  0.00    -0.014 A 
BRANCH  10  11
ATOM     11  C   UNL     1      -1.639  -0.552   3.041  1.00  0.00     0.031 A 
ATOM     12  C   UNL     1      -0.820  -0.198   4.604  1.00  0.00     0.074 A 
ATOM     13  C   UNL     1      -1.897  -1.872   3.211  1.00  0.00     0.049 A 
ATOM     14  N   UNL     1       0.411  -0.627   4.925  1.00  0.00    -0.248 NA
ATOM     15  C   UNL     1      -1.176   0.814   5.673  1.00  0.00     0.031 C 
ATOM     16  C   UNL     1      -2.752  -2.687   2.386  1.00  0.00     0.029 A 
ATOM     17  N   UNL     1      -1.561  -2.723   4.261  1.00  0.00    -0.354 N 
ATOM     18  C   UNL     1       0.982   0.321   5.822  1.00  0.00     0.074 A 
ATOM     19  C   UNL     1      -0.016   1.291   6.091  1.00  0.00     0.031 C 
ATOM     20  C   UNL     1      -3.043  -3.826   3.044  1.00  0.00     0.029 A 
ATOM     21  C   UNL     1      -2.229  -3.924   4.258  1.00  0.00     0.049 A 
ATOM     22  H   UNL     1      -0.900  -2.484   4.950  1.00  0.00     0.167 HD
ATOM     23  C   UNL     1       2.130   0.339   6.542  1.00  0.00     0.034 A 
ATOM     24  C   UNL     1      -2.158  -4.982   5.106  1.00  0.00     0.034 A 
ATOM     25  C   UNL     1       2.514  -0.855   7.226  1.00  0.00     0.049 A 
ATOM     26  C   UNL     1      -1.118  -5.010   6.225  1.00  0.00     0.074 A 
ATOM     27  C   UNL     1       3.462  -1.036   8.212  1.00  0.00     0.029 A 
ATOM     28  N   UNL     1       1.775  -2.021   7.137  1.00  0.00    -0.354 N 
ATOM     29  N   UNL     1      -0.259  -4.089   6.609  1.00  0.00    -0.248 NA
ATOM     30  C   UNL     1      -1.003  -6.268   6.985  1.00  0.00     0.031 C 
ATOM     31  C   UNL     1       3.256  -2.308   8.759  1.00  0.00     0.029 A 
ATOM     32  C   UNL     1       2.182  -2.899   8.108  1.00  0.00     0.049 A 
ATOM     33  H   UNL     1       1.066  -2.194   6.477  1.00  0.00     0.167 HD
ATOM     34  C   UNL     1       0.501  -4.667   7.636  1.00  0.00     0.074 A 
ATOM     35  C   UNL     1      -0.027  -5.997   7.842  1.00  0.00     0.031 C 
ATOM     36  C   UNL     1       1.568  -4.179   8.323  1.00  0.00     0.034 A 
BRANCH  23  37
ATOM     37  C   UNL     1       2.871   1.644   6.831  1.00  0.00     0.023 A 
ATOM     38  C   UNL     1       2.357   2.777   7.490  1.00  0.00     0.031 A 
ATOM     39  C   UNL     1       4.206   1.740   6.384  1.00  0.00     0.131 A 
ATOM     40  C   UNL     1       3.092   3.979   7.543  1.00  0.00     0.055 A 
ATOM     41  C   UNL     1       4.978   2.898   6.546  1.00  0.00     0.041 A 
ATOM     42  F   UNL     1       4.794   0.697   5.777  1.00  0.00    -0.206 F 
ATOM     43  C   UNL     1       4.412   4.039   7.102  1.00  0.00     0.022 A 
BRANCH  40  44
ATOM     44  S   UNL     1       2.260   5.497   8.100  1.00  0.00     0.124 S 
ATOM     45  O   UNL     1       1.367   5.772   6.975  1.00  0.00    -0.237 OA
ATOM     46  O   UNL     1       1.604   5.075   9.332  1.00  0.00    -0.237 OA
ATOM     47  O   UNL     1       3.354   6.450   8.271  1.00  0.00    -0.744 OA
ENDBRANCH  40  44
ENDBRANCH  23  37
BRANCH  24  48
ATOM     48  C   UNL     1      -3.049  -6.170   4.876  1.00  0.00     0.023 A 
ATOM     49  C   UNL     1      -3.986  -6.604   5.835  1.00  0.00     0.031 A 
ATOM     50  C   UNL     1      -2.978  -6.891   3.668  1.00  0.00     0.131 A 
ATOM     51  C   UNL     1      -4.819  -7.706   5.556  1.00  0.00     0.055 A 
ATOM     52  C   UNL     1      -3.851  -7.937   3.372  1.00  0.00     0.041 A 
ATOM     53  F   UNL     1      -2.078  -6.556   2.730  1.00  0.00    -0.206 F 
ATOM     54  C   UNL     1      -4.778  -8.351   4.318  1.00  0.00     0.022 A 
BRANCH  51  55
ATOM     55  S   UNL     1      -5.942  -8.329   6.843  1.00  0.00     0.124 S 
ATOM     56  O   UNL     1      -5.007  -8.733   7.887  1.00  0.00    -0.237 OA
ATOM     57  O   UNL     1      -6.761  -7.157   7.131  1.00  0.00    -0.237 OA
ATOM     58  O   UNL     1      -6.645  -9.426   6.180  1.00  0.00    -0.744 OA
ENDBRANCH  51  55
ENDBRANCH  24  48
BRANCH  36  59
ATOM     59  C   UNL     1       2.228  -5.040   9.360  1.00  0.00     0.023 A 
ATOM     60  C   UNL     1       3.106  -6.057   8.960  1.00  0.00     0.031 A 
ATOM     61  C   UNL     1       2.132  -4.728  10.727  1.00  0.00     0.131 A 
ATOM     62  C   UNL     1       3.856  -6.741   9.923  1.00  0.00     0.055 A 
ATOM     63  C   UNL     1       2.909  -5.388  11.678  1.00  0.00     0.041 A 
ATOM     64  F   UNL     1       1.332  -3.735  11.146  1.00  0.00    -0.206 F 
ATOM     65  C   UNL     1       3.778  -6.402  11.277  1.00  0.00     0.022 A 
BRANCH  62  66
ATOM     66  S   UNL     1       4.940  -8.082   9.372  1.00  0.00     0.124 S 
ATOM     67  O   UNL     1       3.983  -9.028   8.806  1.00  0.00    -0.237 OA
ATOM     68  O   UNL     1       5.814  -7.411   8.416  1.00  0.00    -0.237 OA
ATOM     69  O   UNL     1       5.592  -8.522  10.604  1.00  0.00    -0.744 OA
ENDBRANCH  62  66
ENDBRANCH  36  59
ENDBRANCH  10  11
ENDBRANCH   3   5
ENDBRANCH   2   3
ENDBRANCH   1   2
BRANCH   1  70
ATOM     70  C   UNL     1      -7.672   2.753   0.674  1.00  0.00     0.274 C 
BRANCH  70  71
ATOM     71  O   UNL     1      -7.310   1.425   1.064  1.00  0.00    -0.462 OA
BRANCH  71  72
ATOM     72  C   UNL     1      -7.399   0.465   0.107  1.00  0.00     0.311 C 
ATOM     73  O   UNL     1      -8.304   0.383  -0.712  1.00  0.00    -0.252 OA
BRANCH  72  74
ATOM     74  C   UNL     1      -6.115  -0.324   0.019  1.00  0.00     0.128 C 
ATOM     75  C   UNL     1      -5.047   0.308   0.889  1.00  0.00     0.135 C 
ATOM     76  C   UNL     1      -6.022  -1.773   0.474  1.00  0.00     0.055 C 
ATOM     77  N   UNL     1      -4.945  -0.257   2.205  1.00  0.00    -0.341 N 
ATOM     78  C   UNL     1      -5.748  -1.528   2.059  1.00  0.00     0.128 C 
BRANCH  76  79
ATOM     79  C   UNL     1      -4.993  -2.579  -0.415  1.00  0.00    -0.042 A 
ATOM     80  C   UNL     1      -5.023  -3.985  -0.453  1.00  0.00     0.007 A 
ATOM     81  C   UNL     1      -4.047  -1.981  -1.294  1.00  0.00     0.007 A 
ATOM     82  C   UNL     1      -4.136  -4.727  -1.271  1.00  0.00     0.039 A 
ATOM     83  C   UNL     1      -3.137  -2.710  -2.078  1.00  0.00     0.039 A 
ATOM     84  C   UNL     1      -3.190  -4.086  -2.060  1.00  0.00     0.123 A 
ATOM     85  F   UNL     1      -2.348  -4.792  -2.829  1.00  0.00    -0.207 F 
ENDBRANCH  76  79
BRANCH  77  86
ATOM     86  C   UNL     1      -4.328   0.245   3.429  1.00  0.00     0.225 C 
ATOM     87  O   UNL     1      -4.801  -0.297   4.454  1.00  0.00    -0.275 OA
BRANCH  86  88
ATOM     88  C   UNL     1      -3.048   1.591   3.864  1.00  0.00     0.130 C 
BRANCH  88  89
ATOM     89  C   UNL     1      -1.328   2.377   3.340  1.00  0.00     0.123 C 
ATOM     90  N   UNL     1      -0.072   1.524   3.145  1.00  0.00    -0.345 N 
ATOM     91  C   UNL     1      -0.900   3.261   2.076  1.00  0.00    -0.012 A 
ATOM     92  C   UNL     1       0.540   1.451   1.946  1.00  0.00     0.252 C 
ATOM     93  H   UNL     1       0.295   1.022   3.908  1.00  0.00     0.164 HD
ATOM     94  C   UNL     1       0.039   2.576   1.238  1.00  0.00     0.045 A 
ATOM     95  C   UNL     1      -1.191   4.539   1.664  1.00  0.00     0.007 A 
ATOM     96  O   UNL     1       1.398   0.666   1.555  1.00  0.00    -0.269 OA
ATOM     97  C   UNL     1       0.524   2.950  -0.004  1.00  0.00     0.014 A 
ATOM     98  C   UNL     1      -0.688   4.982   0.404  1.00  0.00     0.000 A 
ATOM     99  C   UNL     1       0.118   4.184  -0.441  1.00  0.00     0.001 A 
ENDBRANCH  88  89
ENDBRANCH  86  88
ENDBRANCH  77  86
ENDBRANCH  72  74
ENDBRANCH  71  72
ENDBRANCH  70  71
ENDBRANCH   1  70
TORSDOF 18
