REMARK SMILES C[C@@H]1Oc2ccccc2N(CC(=O)OCCOC(=O)c2ccc(-c3c4nc(c(-c5cc(S(=O)(=O)[O-])ccc5F)c5ccc([nH]5)c(-c5cc(S(=O)(=O)[O-])ccc5F)c5nc(c(-c6cc(S(=O)(=O)[O-])ccc6F)c6ccc3[nH]6)C=C5)C=C4)cc2)C1=O
REMARK SMILES IDX 16 1 15 2 14 3 12 4 13 5 11 6 10 7 1 8 2 9 3 10 83 11 4 12
REMARK SMILES IDX 84 13 5 14 9 15 6 16 8 17 7 18 17 19 18 20 19 21 20 22 21 23
REMARK SMILES IDX 82 24 22 25 81 26 23 27 24 28 25 29 75 30 26 31 80 32 74 33
REMARK SMILES IDX 76 34 27 35 79 36 73 37 72 38 28 40 60 41 40 42 59 43 41 44
REMARK SMILES IDX 44 45 58 46 77 47 42 48 43 49 57 51 78 52 45 53 29 54 30 55
REMARK SMILES IDX 38 56 31 57 37 58 39 59 36 60 32 61 33 62 34 63 35 64 61 65
REMARK SMILES IDX 62 66 70 67 63 68 69 69 71 70 68 71 64 72 65 73 66 74 67 75
REMARK SMILES IDX 46 76 47 77 55 78 48 79 54 80 56 81 53 82 49 83 50 84 51 85
REMARK SMILES IDX 52 86
REMARK H PARENT 76 39 44 50
REMARK Flexibility Score: inf
ROOT
ATOM      1  C   UNL     1      -4.029   1.289   4.540  1.00  0.00     0.275 C 
ENDROOT
BRANCH   1   2
ATOM      2  C   UNL     1      -3.381   2.141   3.453  1.00  0.00     0.274 C 
BRANCH   2   3
ATOM      3  O   UNL     1      -1.968   1.865   3.379  1.00  0.00    -0.461 OA
BRANCH   3   4
ATOM      4  C   UNL     1      -1.126   2.795   3.914  1.00  0.00     0.326 C 
ATOM      5  O   UNL     1      -1.492   3.849   4.424  1.00  0.00    -0.250 OA
BRANCH   4   6
ATOM      6  C   UNL     1       0.353   2.395   3.824  1.00  0.00     0.248 C 
BRANCH   6   7
ATOM      7  N   UNL     1       0.556   1.079   3.228  1.00  0.00    -0.294 N 
ATOM      8  C   UNL     1      -1.207  -0.474   0.917  1.00  0.00     0.064 C 
ATOM      9  C   UNL     1       0.281  -0.366   1.255  1.00  0.00     0.259 C 
ATOM     10  O   UNL     1       0.663  -1.515   1.984  1.00  0.00    -0.479 OA
ATOM     11  C   UNL     1       0.528   1.020   1.844  1.00  0.00     0.268 C 
ATOM     12  C   UNL     1       0.656  -1.359   3.343  1.00  0.00     0.144 A 
ATOM     13  O   UNL     1       0.561   2.021   1.124  1.00  0.00    -0.270 OA
ATOM     14  C   UNL     1       0.705  -2.555   4.068  1.00  0.00     0.049 A 
ATOM     15  C   UNL     1       0.629  -0.118   3.996  1.00  0.00     0.087 A 
ATOM     16  C   UNL     1       0.735  -2.534   5.458  1.00  0.00     0.004 A 
ATOM     17  C   UNL     1       0.709  -0.118   5.395  1.00  0.00     0.030 A 
ATOM     18  C   UNL     1       0.749  -1.315   6.122  1.00  0.00     0.002 A 
ENDBRANCH   6   7
ENDBRANCH   4   6
ENDBRANCH   3   4
ENDBRANCH   2   3
ENDBRANCH   1   2
BRANCH   1  19
ATOM     19  O   UNL     1      -3.433   1.619   5.804  1.00  0.00    -0.458 OA
BRANCH  19  20
ATOM     20  C   UNL     1      -2.809   0.603   6.441  1.00  0.00     0.338 C 
ATOM     21  O   UNL     1      -2.775  -0.570   6.120  1.00  0.00    -0.246 OA
BRANCH  20  22
ATOM     22  C   UNL     1      -2.164   1.141   7.648  1.00  0.00     0.060 A 
ATOM     23  C   UNL     1      -2.567   0.677   8.895  1.00  0.00     0.016 A 
ATOM     24  C   UNL     1      -1.116   2.057   7.537  1.00  0.00     0.016 A 
ATOM     25  C   UNL     1      -1.939   1.171  10.038  1.00  0.00     0.010 A 
ATOM     26  C   UNL     1      -0.423   2.469   8.672  1.00  0.00     0.010 A 
ATOM     27  C   UNL     1      -0.853   2.062   9.940  1.00  0.00    -0.014 A 
BRANCH  27  28
ATOM     28  C   UNL     1      -0.190   2.562  11.172  1.00  0.00     0.031 A 
ATOM     29  C   UNL     1      -0.252   4.019  11.543  1.00  0.00     0.074 A 
ATOM     30  C   UNL     1       0.439   1.685  11.979  1.00  0.00     0.049 A 
ATOM     31  N   UNL     1       0.091   4.592  12.668  1.00  0.00    -0.248 NA
ATOM     32  C   UNL     1      -0.743   4.960  10.522  1.00  0.00     0.031 C 
ATOM     33  C   UNL     1       0.638   0.267  11.679  1.00  0.00     0.029 A 
ATOM     34  N   UNL     1       0.995   1.843  13.224  1.00  0.00    -0.354 N 
ATOM     35  C   UNL     1      -0.165   5.948  12.498  1.00  0.00     0.074 A 
ATOM     36  C   UNL     1      -0.607   6.127  11.135  1.00  0.00     0.031 C 
ATOM     37  C   UNL     1       1.201  -0.331  12.739  1.00  0.00     0.029 A 
ATOM     38  C   UNL     1       1.422   0.662  13.788  1.00  0.00     0.049 A 
ATOM     39  H   UNL     1       1.080   2.716  13.671  1.00  0.00     0.167 HD
ATOM     40  C   UNL     1      -0.082   6.946  13.410  1.00  0.00     0.034 A 
ATOM     41  C   UNL     1       1.895   0.399  15.024  1.00  0.00     0.034 A 
ATOM     42  C   UNL     1       0.356   6.749  14.767  1.00  0.00     0.049 A 
ATOM     43  C   UNL     1       1.953   1.520  16.033  1.00  0.00     0.074 A 
ATOM     44  C   UNL     1       0.444   7.685  15.781  1.00  0.00     0.029 A 
ATOM     45  N   UNL     1       0.771   5.538  15.302  1.00  0.00    -0.354 N 
ATOM     46  N   UNL     1       1.591   2.774  15.895  1.00  0.00    -0.248 NA
ATOM     47  C   UNL     1       2.458   1.189  17.372  1.00  0.00     0.031 C 
ATOM     48  C   UNL     1       0.959   7.053  16.913  1.00  0.00     0.029 A 
ATOM     49  C   UNL     1       1.128   5.707  16.628  1.00  0.00     0.049 A 
ATOM     50  H   UNL     1       0.806   4.686  14.811  1.00  0.00     0.167 HD
ATOM     51  C   UNL     1       1.790   3.371  17.137  1.00  0.00     0.074 A 
ATOM     52  C   UNL     1       2.282   2.334  18.020  1.00  0.00     0.031 C 
ATOM     53  C   UNL     1       1.587   4.660  17.510  1.00  0.00     0.034 A 
BRANCH  40  54
ATOM     54  C   UNL     1      -0.518   8.331  13.002  1.00  0.00     0.023 A 
ATOM     55  C   UNL     1       0.393   9.403  13.026  1.00  0.00     0.031 A 
ATOM     56  C   UNL     1      -1.867   8.611  12.715  1.00  0.00     0.131 A 
ATOM     57  C   UNL     1      -0.065  10.708  12.801  1.00  0.00     0.055 A 
ATOM     58  C   UNL     1      -2.309   9.907  12.447  1.00  0.00     0.041 A 
ATOM     59  F   UNL     1      -2.776   7.623  12.681  1.00  0.00    -0.206 F 
ATOM     60  C   UNL     1      -1.407  10.964  12.503  1.00  0.00     0.022 A 
BRANCH  57  61
ATOM     61  S   UNL     1       1.050  12.132  12.943  1.00  0.00     0.124 S 
ATOM     62  O   UNL     1       0.917  12.751  11.626  1.00  0.00    -0.237 OA
ATOM     63  O   UNL     1       0.451  12.878  14.046  1.00  0.00    -0.237 OA
ATOM     64  O   UNL     1       2.351  11.533  13.218  1.00  0.00    -0.744 OA
ENDBRANCH  57  61
ENDBRANCH  40  54
BRANCH  41  65
ATOM     65  C   UNL     1       2.221  -1.010  15.397  1.00  0.00     0.023 A 
ATOM     66  C   UNL     1       3.236  -1.724  14.736  1.00  0.00     0.031 A 
ATOM     67  C   UNL     1       1.449  -1.693  16.353  1.00  0.00     0.131 A 
ATOM     68  C   UNL     1       3.414  -3.089  15.001  1.00  0.00     0.055 A 
ATOM     69  C   UNL     1       1.675  -3.035  16.663  1.00  0.00     0.041 A 
ATOM     70  F   UNL     1       0.454  -1.061  16.995  1.00  0.00    -0.206 F 
ATOM     71  C   UNL     1       2.652  -3.744  15.974  1.00  0.00     0.022 A 
BRANCH  68  72
ATOM     72  S   UNL     1       4.551  -4.090  14.002  1.00  0.00     0.124 S 
ATOM     73  O   UNL     1       5.513  -4.545  15.000  1.00  0.00    -0.237 OA
ATOM     74  O   UNL     1       3.657  -5.118  13.473  1.00  0.00    -0.237 OA
ATOM     75  O   UNL     1       5.062  -3.147  13.014  1.00  0.00    -0.744 OA
ENDBRANCH  68  72
ENDBRANCH  41  65
BRANCH  53  76
ATOM     76  C   UNL     1       1.871   5.056  18.939  1.00  0.00     0.023 A 
ATOM     77  C   UNL     1       0.830   5.556  19.747  1.00  0.00     0.031 A 
ATOM     78  C   UNL     1       3.181   5.094  19.444  1.00  0.00     0.131 A 
ATOM     79  C   UNL     1       1.123   6.108  21.000  1.00  0.00     0.055 A 
ATOM     80  C   UNL     1       3.462   5.601  20.714  1.00  0.00     0.041 A 
ATOM     81  F   UNL     1       4.210   4.645  18.707  1.00  0.00    -0.206 F 
ATOM     82  C   UNL     1       2.433   6.125  21.491  1.00  0.00     0.022 A 
BRANCH  79  83
ATOM     83  S   UNL     1      -0.164   6.913  21.994  1.00  0.00     0.124 S 
ATOM     84  O   UNL     1      -0.201   6.063  23.182  1.00  0.00    -0.237 OA
ATOM     85  O   UNL     1       0.394   8.247  22.198  1.00  0.00    -0.237 OA
ATOM     86  O   UNL     1      -1.351   6.853  21.148  1.00  0.00    -0.744 OA
ENDBRANCH  79  83
ENDBRANCH  53  76
ENDBRANCH  27  28
ENDBRANCH  20  22
ENDBRANCH  19  20
ENDBRANCH   1  19
TORSDOF 15
