REMARK SMILES CC(C)(C)OC(=O)N1CCC[C@H]1C(=O)N[C@@H](Cc1ccccc1)C(=O)OCCOC(=O)c1ccc(-c2c3nc(c(-c4cc(S(=O)(=O)[O-])ccc4F)c4ccc([nH]4)c(-c4cc(S(=O)(=O)[O-])ccc4F)c4nc(c(-c5cc(S(=O)(=O)[O-])ccc5F)c5ccc2[nH]5)C=C4)C=C3)cc1
REMARK SMILES IDX 27 1 26 2 24 3 25 4 16 5 15 6 13 7 14 8 12 10 8 11 9 12
REMARK SMILES IDX 10 13 11 14 6 15 7 16 5 17 2 18 1 19 3 20 4 21 17 22 18 23
REMARK SMILES IDX 19 24 23 25 20 26 22 27 21 28 28 29 29 30 30 31 31 32 32 33
REMARK SMILES IDX 33 34 94 35 34 36 93 37 35 38 36 39 37 40 87 41 38 42 92 43
REMARK SMILES IDX 86 44 88 45 39 46 91 47 85 48 84 49 40 51 72 52 52 53 71 54
REMARK SMILES IDX 53 55 56 56 70 57 89 58 54 59 55 60 69 62 90 63 57 64 41 65
REMARK SMILES IDX 42 66 50 67 43 68 49 69 51 70 48 71 44 72 45 73 46 74 47 75
REMARK SMILES IDX 73 76 74 77 82 78 75 79 81 80 83 81 80 82 76 83 77 84 78 85
REMARK SMILES IDX 79 86 58 87 59 88 67 89 60 90 66 91 68 92 65 93 61 94 62 95
REMARK SMILES IDX 63 96 64 97
REMARK H PARENT 15 9 88 50 56 61
REMARK Flexibility Score: inf
ROOT
ATOM      1  C   UNL     1      -1.655   2.573  -6.589  1.00  0.00     0.274 C 
ENDROOT
BRANCH   1   2
ATOM      2  O   UNL     1      -1.474   3.680  -5.682  1.00  0.00    -0.461 OA
BRANCH   2   3
ATOM      3  C   UNL     1      -2.194   3.580  -4.527  1.00  0.00     0.329 C 
ATOM      4  O   UNL     1      -2.943   2.643  -4.255  1.00  0.00    -0.250 OA
BRANCH   3   5
ATOM      5  C   UNL     1      -2.159   4.854  -3.674  1.00  0.00     0.196 C 
BRANCH   5   6
ATOM      6  N   UNL     1      -1.045   5.759  -3.973  1.00  0.00    -0.341 N 
ATOM      7  C   UNL     1       0.066   6.090  -3.238  1.00  0.00     0.243 C 
ATOM      8  O   UNL     1       0.937   6.738  -3.829  1.00  0.00    -0.273 OA
ATOM      9  H   UNL     1      -1.104   6.205  -4.848  1.00  0.00     0.164 HD
BRANCH   7  10
ATOM     10  C   UNL     1       0.216   5.685  -1.722  1.00  0.00     0.178 C 
ATOM     11  N   UNL     1       1.270   4.691  -1.406  1.00  0.00    -0.296 N 
ATOM     12  C   UNL     1       2.495   5.426  -1.179  1.00  0.00     0.124 C 
ATOM     13  C   UNL     1       2.033   6.586  -0.329  1.00  0.00     0.024 C 
ATOM     14  C   UNL     1       0.692   6.960  -0.962  1.00  0.00     0.037 C 
BRANCH  11  15
ATOM     15  C   UNL     1       1.342   3.523  -2.148  1.00  0.00     0.410 C 
ATOM     16  O   UNL     1       1.473   3.630  -3.371  1.00  0.00    -0.224 OA
BRANCH  15  17
ATOM     17  O   UNL     1       1.086   2.212  -1.422  1.00  0.00    -0.444 OA
BRANCH  17  18
ATOM     18  C   UNL     1       0.696   0.270  -1.075  1.00  0.00     0.106 C 
ATOM     19  C   UNL     1       1.163  -0.445   0.344  1.00  0.00     0.056 C 
ATOM     20  C   UNL     1       1.314  -0.972  -2.065  1.00  0.00     0.056 C 
ATOM     21  C   UNL     1      -0.893  -0.282  -1.073  1.00  0.00     0.056 C 
ENDBRANCH  17  18
ENDBRANCH  15  17
ENDBRANCH  11  15
ENDBRANCH   7  10
ENDBRANCH   5   6
BRANCH   5  22
ATOM     22  C   UNL     1      -3.548   5.536  -3.807  1.00  0.00     0.072 C 
BRANCH  22  23
ATOM     23  C   UNL     1      -4.075   5.742  -5.221  1.00  0.00    -0.045 A 
ATOM     24  C   UNL     1      -4.061   7.007  -5.816  1.00  0.00     0.004 A 
ATOM     25  C   UNL     1      -4.594   4.666  -5.965  1.00  0.00     0.004 A 
ATOM     26  C   UNL     1      -4.504   7.176  -7.133  1.00  0.00     0.000 A 
ATOM     27  C   UNL     1      -4.986   4.823  -7.294  1.00  0.00     0.000 A 
ATOM     28  C   UNL     1      -4.940   6.082  -7.880  1.00  0.00     0.000 A 
ENDBRANCH  22  23
ENDBRANCH   5  22
ENDBRANCH   3   5
ENDBRANCH   2   3
ENDBRANCH   1   2
BRANCH   1  29
ATOM     29  C   UNL     1      -0.584   1.510  -6.378  1.00  0.00     0.275 C 
BRANCH  29  30
ATOM     30  O   UNL     1      -0.472   1.251  -4.975  1.00  0.00    -0.458 OA
BRANCH  30  31
ATOM     31  C   UNL     1       0.796   1.115  -4.540  1.00  0.00     0.338 C 
ATOM     32  O   UNL     1       1.780   0.861  -5.211  1.00  0.00    -0.246 OA
BRANCH  31  33
ATOM     33  C   UNL     1       0.821   1.325  -3.084  1.00  0.00     0.060 A 
ATOM     34  C   UNL     1      -0.621   1.892  -2.131  1.00  0.00     0.016 A 
ATOM     35  C   UNL     1       2.450   1.216  -2.266  1.00  0.00     0.016 A 
ATOM     36  C   UNL     1      -0.449   2.279  -0.358  1.00  0.00     0.010 A 
ATOM     37  C   UNL     1       2.593   1.576  -0.498  1.00  0.00     0.010 A 
ATOM     38  C   UNL     1       1.147   2.111   0.484  1.00  0.00    -0.014 A 
BRANCH  38  39
ATOM     39  C   UNL     1       1.276   2.241   2.022  1.00  0.00     0.031 A 
ATOM     40  C   UNL     1       2.593   2.666   2.659  1.00  0.00     0.074 A 
ATOM     41  C   UNL     1       0.314   1.820   2.888  1.00  0.00     0.049 A 
ATOM     42  N   UNL     1       3.038   2.531   3.890  1.00  0.00    -0.248 NA
ATOM     43  C   UNL     1       3.551   3.321   1.774  1.00  0.00     0.031 C 
ATOM     44  C   UNL     1      -1.024   1.336   2.549  1.00  0.00     0.029 A 
ATOM     45  N   UNL     1       0.357   1.636   4.264  1.00  0.00    -0.354 N 
ATOM     46  C   UNL     1       4.335   3.054   3.897  1.00  0.00     0.074 A 
ATOM     47  C   UNL     1       4.623   3.446   2.537  1.00  0.00     0.031 C 
ATOM     48  C   UNL     1      -1.644   0.874   3.641  1.00  0.00     0.029 A 
ATOM     49  C   UNL     1      -0.744   0.975   4.775  1.00  0.00     0.049 A 
ATOM     50  H   UNL     1       1.104   1.949   4.824  1.00  0.00     0.167 HD
ATOM     51  C   UNL     1       5.210   3.228   4.923  1.00  0.00     0.034 A 
ATOM     52  C   UNL     1      -1.018   0.445   5.987  1.00  0.00     0.034 A 
ATOM     53  C   UNL     1       4.946   2.871   6.294  1.00  0.00     0.049 A 
ATOM     54  C   UNL     1      -0.026   0.571   7.107  1.00  0.00     0.074 A 
ATOM     55  C   UNL     1       5.751   3.056   7.407  1.00  0.00     0.029 A 
ATOM     56  N   UNL     1       3.792   2.249   6.742  1.00  0.00    -0.354 N 
ATOM     57  N   UNL     1       1.179   1.084   7.086  1.00  0.00    -0.248 NA
ATOM     58  C   UNL     1      -0.443   0.061   8.422  1.00  0.00     0.031 C 
ATOM     59  C   UNL     1       5.107   2.498   8.518  1.00  0.00     0.029 A 
ATOM     60  C   UNL     1       3.873   2.022   8.108  1.00  0.00     0.049 A 
ATOM     61  H   UNL     1       3.026   2.004   6.174  1.00  0.00     0.167 HD
ATOM     62  C   UNL     1       1.646   0.998   8.394  1.00  0.00     0.074 A 
ATOM     63  C   UNL     1       0.597   0.382   9.177  1.00  0.00     0.031 C 
ATOM     64  C   UNL     1       2.836   1.408   8.897  1.00  0.00     0.034 A 
BRANCH  51  65
ATOM     65  C   UNL     1       6.562   3.823   4.585  1.00  0.00     0.023 A 
ATOM     66  C   UNL     1       6.684   5.125   4.067  1.00  0.00     0.031 A 
ATOM     67  C   UNL     1       7.738   3.066   4.738  1.00  0.00     0.131 A 
ATOM     68  C   UNL     1       7.932   5.592   3.629  1.00  0.00     0.055 A 
ATOM     69  C   UNL     1       8.992   3.571   4.383  1.00  0.00     0.041 A 
ATOM     70  F   UNL     1       7.687   1.813   5.217  1.00  0.00    -0.206 F 
ATOM     71  C   UNL     1       9.092   4.834   3.805  1.00  0.00     0.022 A 
BRANCH  68  72
ATOM     72  S   UNL     1       7.987   7.133   2.674  1.00  0.00     0.124 S 
ATOM     73  O   UNL     1       7.113   6.811   1.547  1.00  0.00    -0.237 OA
ATOM     74  O   UNL     1       7.470   8.111   3.623  1.00  0.00    -0.237 OA
ATOM     75  O   UNL     1       9.402   7.276   2.335  1.00  0.00    -0.744 OA
ENDBRANCH  68  72
ENDBRANCH  51  65
BRANCH  52  76
ATOM     76  C   UNL     1      -2.295  -0.301   6.206  1.00  0.00     0.023 A 
ATOM     77  C   UNL     1      -3.307   0.223   7.025  1.00  0.00     0.031 A 
ATOM     78  C   UNL     1      -2.507  -1.561   5.617  1.00  0.00     0.131 A 
ATOM     79  C   UNL     1      -4.472  -0.524   7.262  1.00  0.00     0.055 A 
ATOM     80  C   UNL     1      -3.687  -2.281   5.820  1.00  0.00     0.041 A 
ATOM     81  F   UNL     1      -1.574  -2.102   4.817  1.00  0.00    -0.206 F 
ATOM     82  C   UNL     1      -4.674  -1.767   6.656  1.00  0.00     0.022 A 
BRANCH  79  83
ATOM     83  S   UNL     1      -5.699   0.128   8.428  1.00  0.00     0.124 S 
ATOM     84  O   UNL     1      -4.909   0.269   9.645  1.00  0.00    -0.237 OA
ATOM     85  O   UNL     1      -6.103   1.369   7.776  1.00  0.00    -0.237 OA
ATOM     86  O   UNL     1      -6.722  -0.915   8.464  1.00  0.00    -0.744 OA
ENDBRANCH  79  83
ENDBRANCH  52  76
BRANCH  64  87
ATOM     87  C   UNL     1       3.038   1.269  10.382  1.00  0.00     0.023 A 
ATOM     88  C   UNL     1       3.167   0.013  10.998  1.00  0.00     0.031 A 
ATOM     89  C   UNL     1       3.070   2.415  11.197  1.00  0.00     0.131 A 
ATOM     90  C   UNL     1       3.269  -0.071  12.395  1.00  0.00     0.055 A 
ATOM     91  C   UNL     1       3.225   2.328  12.580  1.00  0.00     0.041 A 
ATOM     92  F   UNL     1       2.946   3.639  10.658  1.00  0.00    -0.206 F 
ATOM     93  C   UNL     1       3.313   1.079  13.189  1.00  0.00     0.022 A 
BRANCH  90  94
ATOM     94  S   UNL     1       3.258  -1.709  13.173  1.00  0.00     0.124 S 
ATOM     95  O   UNL     1       1.971  -2.242  12.738  1.00  0.00    -0.237 OA
ATOM     96  O   UNL     1       4.439  -2.339  12.591  1.00  0.00    -0.237 OA
ATOM     97  O   UNL     1       3.355  -1.412  14.601  1.00  0.00    -0.744 OA
ENDBRANCH  90  94
ENDBRANCH  64  87
ENDBRANCH  38  39
ENDBRANCH  31  33
ENDBRANCH  30  31
ENDBRANCH  29  30
ENDBRANCH   1  29
TORSDOF 21
