REMARK SMILES O=C(/C=C/c1ccccc1Oc1cccc(Cl)c1)OCCOC(=O)c1ccc(-c2c3nc(c(-c4cc(S(=O)(=O)[O-])ccc4F)c4ccc([nH]4)c(-c4cc(S(=O)(=O)[O-])ccc4F)c4nc(c(-c5cc(S(=O)(=O)[O-])ccc5F)c5ccc2[nH]5)C=C4)C=C3)cc1
REMARK SMILES IDX 20 1 19 2 2 3 1 4 3 5 4 6 5 7 6 8 10 9 7 10 9 11 8 12 11 13
REMARK SMILES IDX 12 14 13 15 18 16 14 17 16 18 15 19 17 20 21 21 22 22 23 23
REMARK SMILES IDX 24 24 25 25 26 26 87 27 27 28 86 29 28 30 29 31 30 32 80 33
REMARK SMILES IDX 31 34 85 35 79 36 81 37 32 38 84 39 78 40 77 41 33 43 65 44
REMARK SMILES IDX 45 45 64 46 46 47 49 48 63 49 82 50 47 51 48 52 62 54 83 55
REMARK SMILES IDX 50 56 34 57 35 58 43 59 36 60 42 61 44 62 41 63 37 64 38 65
REMARK SMILES IDX 39 66 40 67 66 68 67 69 75 70 68 71 74 72 76 73 73 74 69 75
REMARK SMILES IDX 70 76 71 77 72 78 51 79 52 80 60 81 53 82 59 83 61 84 58 85
REMARK SMILES IDX 54 86 55 87 56 88 57 89
REMARK H PARENT 81 42 49 53
REMARK Flexibility Score: inf
ROOT
ATOM      1  C   UNL     1       4.767   0.742  -1.708  1.00  0.00     0.275 C 
ENDROOT
BRANCH   1   2
ATOM      2  O   UNL     1       3.523   0.013  -1.609  1.00  0.00    -0.459 OA
BRANCH   2   3
ATOM      3  C   UNL     1       2.725  -0.057  -0.519  1.00  0.00     0.330 C 
ATOM      4  O   UNL     1       1.552  -0.398  -0.615  1.00  0.00    -0.247 OA
BRANCH   3   5
ATOM      5  C   UNL     1       3.261   0.364   0.783  1.00  0.00     0.094 C 
ATOM      6  C   UNL     1       4.397  -0.068   1.345  1.00  0.00     0.019 C 
BRANCH   6   7
ATOM      7  C   UNL     1       4.903   0.547   2.580  1.00  0.00     0.017 A 
ATOM      8  C   UNL     1       5.967   1.452   2.361  1.00  0.00     0.012 A 
ATOM      9  C   UNL     1       4.444   0.352   3.896  1.00  0.00     0.134 A 
ATOM     10  C   UNL     1       6.564   2.152   3.409  1.00  0.00     0.001 A 
ATOM     11  C   UNL     1       5.057   1.072   4.940  1.00  0.00     0.048 A 
ATOM     12  C   UNL     1       6.104   1.963   4.703  1.00  0.00     0.004 A 
BRANCH   9  13
ATOM     13  O   UNL     1       3.470  -0.500   4.383  1.00  0.00    -0.457 OA
BRANCH  13  14
ATOM     14  C   UNL     1       2.582  -1.109   3.543  1.00  0.00     0.128 A 
ATOM     15  C   UNL     1       1.296  -0.579   3.419  1.00  0.00     0.047 A 
ATOM     16  C   UNL     1       2.925  -2.295   2.898  1.00  0.00     0.067 A 
ATOM     17  C   UNL     1       0.375  -1.186   2.568  1.00  0.00     0.005 A 
ATOM     18  C   UNL     1       2.008  -2.883   2.030  1.00  0.00     0.044 A 
ATOM     19  C   UNL     1       0.737  -2.332   1.858  1.00  0.00     0.021 A 
ATOM     20  Cl  UNL     1       2.467  -4.276   1.129  1.00  0.00    -0.084 Cl
ENDBRANCH  13  14
ENDBRANCH   9  13
ENDBRANCH   6   7
ENDBRANCH   3   5
ENDBRANCH   2   3
ENDBRANCH   1   2
BRANCH   1  21
ATOM     21  C   UNL     1       4.588   2.258  -1.818  1.00  0.00     0.275 C 
BRANCH  21  22
ATOM     22  O   UNL     1       4.116   2.826  -0.581  1.00  0.00    -0.458 OA
BRANCH  22  23
ATOM     23  C   UNL     1       2.857   3.335  -0.615  1.00  0.00     0.338 C 
ATOM     24  O   UNL     1       2.146   3.419  -1.603  1.00  0.00    -0.246 OA
BRANCH  23  25
ATOM     25  C   UNL     1       2.379   3.642   0.757  1.00  0.00     0.060 A 
ATOM     26  C   UNL     1       1.028   3.399   1.040  1.00  0.00     0.016 A 
ATOM     27  C   UNL     1       3.220   4.138   1.761  1.00  0.00     0.016 A 
ATOM     28  C   UNL     1       0.508   3.695   2.301  1.00  0.00     0.010 A 
ATOM     29  C   UNL     1       2.693   4.446   3.025  1.00  0.00     0.010 A 
ATOM     30  C   UNL     1       1.326   4.260   3.291  1.00  0.00    -0.014 A 
BRANCH  30  31
ATOM     31  C   UNL     1       0.685   4.832   4.505  1.00  0.00     0.031 A 
ATOM     32  C   UNL     1       0.185   6.251   4.444  1.00  0.00     0.074 A 
ATOM     33  C   UNL     1       0.481   4.103   5.617  1.00  0.00     0.049 A 
ATOM     34  N   UNL     1      -0.505   6.929   5.325  1.00  0.00    -0.248 NA
ATOM     35  C   UNL     1       0.517   7.003   3.225  1.00  0.00     0.031 C 
ATOM     36  C   UNL     1       0.929   2.729   5.816  1.00  0.00     0.029 A 
ATOM     37  N   UNL     1      -0.167   4.417   6.786  1.00  0.00    -0.354 N 
ATOM     38  C   UNL     1      -0.721   8.177   4.754  1.00  0.00     0.074 A 
ATOM     39  C   UNL     1      -0.038   8.178   3.476  1.00  0.00     0.031 C 
ATOM     40  C   UNL     1       0.521   2.305   7.026  1.00  0.00     0.029 A 
ATOM     41  C   UNL     1      -0.192   3.390   7.702  1.00  0.00     0.049 A 
ATOM     42  H   UNL     1      -0.577   5.296   6.954  1.00  0.00     0.167 HD
ATOM     43  C   UNL     1      -1.434   9.224   5.236  1.00  0.00     0.034 A 
ATOM     44  C   UNL     1      -0.718   3.337   8.944  1.00  0.00     0.034 A 
ATOM     45  C   UNL     1      -2.063   9.248   6.533  1.00  0.00     0.049 A 
ATOM     46  C   UNL     1      -1.447   4.544   9.493  1.00  0.00     0.074 A 
ATOM     47  C   UNL     1      -2.778  10.273   7.127  1.00  0.00     0.029 A 
ATOM     48  N   UNL     1      -2.035   8.204   7.448  1.00  0.00    -0.354 N 
ATOM     49  N   UNL     1      -1.673   5.706   8.925  1.00  0.00    -0.248 NA
ATOM     50  C   UNL     1      -1.999   4.424  10.851  1.00  0.00     0.031 C 
ATOM     51  C   UNL     1      -3.131   9.872   8.421  1.00  0.00     0.029 A 
ATOM     52  C   UNL     1      -2.698   8.570   8.610  1.00  0.00     0.049 A 
ATOM     53  H   UNL     1      -1.607   7.331   7.294  1.00  0.00     0.167 HD
ATOM     54  C   UNL     1      -2.413   6.444   9.850  1.00  0.00     0.074 A 
ATOM     55  C   UNL     1      -2.615   5.588  10.998  1.00  0.00     0.031 C 
ATOM     56  C   UNL     1      -2.882   7.715   9.758  1.00  0.00     0.034 A 
BRANCH  43  57
ATOM     57  C   UNL     1      -1.523  10.444   4.356  1.00  0.00     0.023 A 
ATOM     58  C   UNL     1      -2.201  10.404   3.124  1.00  0.00     0.031 A 
ATOM     59  C   UNL     1      -0.882  11.639   4.720  1.00  0.00     0.131 A 
ATOM     60  C   UNL     1      -2.164  11.515   2.270  1.00  0.00     0.055 A 
ATOM     61  C   UNL     1      -0.911  12.767   3.898  1.00  0.00     0.041 A 
ATOM     62  F   UNL     1      -0.198  11.724   5.872  1.00  0.00    -0.206 F 
ATOM     63  C   UNL     1      -1.543  12.705   2.659  1.00  0.00     0.022 A 
BRANCH  60  64
ATOM     64  S   UNL     1      -2.821  11.339   0.589  1.00  0.00     0.124 S 
ATOM     65  O   UNL     1      -1.978  10.272   0.055  1.00  0.00    -0.237 OA
ATOM     66  O   UNL     1      -4.216  10.992   0.830  1.00  0.00    -0.237 OA
ATOM     67  O   UNL     1      -2.598  12.656  -0.005  1.00  0.00    -0.744 OA
ENDBRANCH  60  64
ENDBRANCH  43  57
BRANCH  44  68
ATOM     68  C   UNL     1      -0.548   2.122   9.794  1.00  0.00     0.023 A 
ATOM     69  C   UNL     1      -1.653   1.375  10.233  1.00  0.00     0.031 A 
ATOM     70  C   UNL     1       0.726   1.751  10.262  1.00  0.00     0.131 A 
ATOM     71  C   UNL     1      -1.472   0.337  11.161  1.00  0.00     0.055 A 
ATOM     72  C   UNL     1       0.906   0.682  11.141  1.00  0.00     0.041 A 
ATOM     73  F   UNL     1       1.816   2.433   9.876  1.00  0.00    -0.206 F 
ATOM     74  C   UNL     1      -0.199  -0.021  11.609  1.00  0.00     0.022 A 
BRANCH  71  75
ATOM     75  S   UNL     1      -2.939  -0.471  11.861  1.00  0.00     0.124 S 
ATOM     76  O   UNL     1      -3.649   0.660  12.448  1.00  0.00    -0.237 OA
ATOM     77  O   UNL     1      -3.549  -1.069  10.679  1.00  0.00    -0.237 OA
ATOM     78  O   UNL     1      -2.379  -1.421  12.820  1.00  0.00    -0.744 OA
ENDBRANCH  71  75
ENDBRANCH  44  68
BRANCH  56  79
ATOM     79  C   UNL     1      -3.691   8.237  10.923  1.00  0.00     0.023 A 
ATOM     80  C   UNL     1      -3.115   8.454  12.188  1.00  0.00     0.031 A 
ATOM     81  C   UNL     1      -5.063   8.504  10.768  1.00  0.00     0.131 A 
ATOM     82  C   UNL     1      -3.919   8.867  13.262  1.00  0.00     0.055 A 
ATOM     83  C   UNL     1      -5.846   8.969  11.826  1.00  0.00     0.041 A 
ATOM     84  F   UNL     1      -5.666   8.317   9.584  1.00  0.00    -0.206 F 
ATOM     85  C   UNL     1      -5.278   9.138  13.086  1.00  0.00     0.022 A 
BRANCH  82  86
ATOM     86  S   UNL     1      -3.186   8.955  14.920  1.00  0.00     0.124 S 
ATOM     87  O   UNL     1      -2.662   7.604  15.095  1.00  0.00    -0.237 OA
ATOM     88  O   UNL     1      -2.190  10.009  14.764  1.00  0.00    -0.237 OA
ATOM     89  O   UNL     1      -4.319   9.296  15.779  1.00  0.00    -0.744 OA
ENDBRANCH  82  86
ENDBRANCH  56  79
ENDBRANCH  30  31
ENDBRANCH  23  25
ENDBRANCH  22  23
ENDBRANCH  21  22
ENDBRANCH   1  21
TORSDOF 17
