REMARK SMILES CC[C@](C)(NC(=O)N1Cc2ccccc2C1)C(=O)OCCOC(=O)c1ccc(-c2c3nc(c(-c4cc(S(=O)(=O)[O-])ccc4F)c4ccc([nH]4)c(-c4cc(S(=O)(=O)[O-])ccc4F)c4nc(c(-c5cc(S(=O)(=O)[O-])ccc5F)c5ccc2[nH]5)C=C4)C=C3)cc1
REMARK SMILES IDX 21 1 20 2 19 3 17 4 18 5 3 6 4 7 2 8 1 9 5 10 6 11 7 13 8 14
REMARK SMILES IDX 9 15 16 16 10 17 15 18 11 19 14 20 12 21 13 22 22 23 23 24
REMARK SMILES IDX 24 25 25 26 26 27 87 28 27 29 86 30 28 31 29 32 30 33 80 34
REMARK SMILES IDX 31 35 85 36 79 37 81 38 32 39 84 40 78 41 77 42 33 44 65 45
REMARK SMILES IDX 45 46 64 47 46 48 49 49 63 50 82 51 47 52 48 53 62 55 83 56
REMARK SMILES IDX 50 57 34 58 35 59 43 60 36 61 42 62 44 63 41 64 37 65 38 66
REMARK SMILES IDX 39 67 40 68 66 69 67 70 75 71 68 72 74 73 76 74 73 75 69 76
REMARK SMILES IDX 70 77 71 78 72 79 51 80 52 81 60 82 53 83 59 84 61 85 58 86
REMARK SMILES IDX 54 87 55 88 56 89 57 90
REMARK H PARENT 5 12 81 43 49 54
REMARK Flexibility Score: inf
ROOT
ATOM      1  C   UNL     1       5.164  -0.031  -1.591  1.00  0.00     0.275 C 
ENDROOT
BRANCH   1   2
ATOM      2  C   UNL     1       4.299  -1.252  -1.881  1.00  0.00     0.274 C 
BRANCH   2   3
ATOM      3  O   UNL     1       3.144  -0.876  -2.660  1.00  0.00    -0.460 OA
BRANCH   3   4
ATOM      4  C   UNL     1       1.950  -0.781  -2.013  1.00  0.00     0.331 C 
ATOM      5  O   UNL     1       1.800  -1.043  -0.823  1.00  0.00    -0.249 OA
BRANCH   4   6
ATOM      6  C   UNL     1       0.764  -0.389  -2.957  1.00  0.00     0.136 C 
ATOM      7  C   UNL     1       0.086   0.851  -2.346  1.00  0.00     0.047 C 
BRANCH   6   8
ATOM      8  C   UNL     1      -0.172  -1.642  -2.973  1.00  0.00     0.037 C 
ATOM      9  C   UNL     1      -1.414  -1.562  -2.088  1.00  0.00     0.007 C 
ENDBRANCH   6   8
BRANCH   6  10
ATOM     10  N   UNL     1       1.224  -0.130  -4.356  1.00  0.00    -0.322 N 
ATOM     11  C   UNL     1       1.796   1.051  -4.740  1.00  0.00     0.318 C 
ATOM     12  H   UNL     1       1.109  -0.839  -5.029  1.00  0.00     0.166 HD
ATOM     13  O   UNL     1       1.237   2.127  -4.554  1.00  0.00    -0.249 OA
ATOM     14  N   UNL     1       3.003   0.956  -5.367  1.00  0.00    -0.316 N 
ATOM     15  C   UNL     1       3.826   2.159  -5.484  1.00  0.00     0.157 C 
ATOM     16  C   UNL     1       3.785  -0.249  -5.637  1.00  0.00     0.157 C 
ATOM     17  C   UNL     1       5.212   1.616  -5.319  1.00  0.00    -0.023 A 
ATOM     18  C   UNL     1       5.191   0.215  -5.397  1.00  0.00    -0.023 A 
ATOM     19  C   UNL     1       6.376   2.304  -5.024  1.00  0.00     0.006 A 
ATOM     20  C   UNL     1       6.341  -0.525  -5.189  1.00  0.00     0.006 A 
ATOM     21  C   UNL     1       7.535   1.563  -4.787  1.00  0.00     0.000 A 
ATOM     22  C   UNL     1       7.518   0.161  -4.871  1.00  0.00     0.000 A 
ENDBRANCH   6  10
ENDBRANCH   4   6
ENDBRANCH   3   4
ENDBRANCH   2   3
ENDBRANCH   1   2
BRANCH   1  23
ATOM     23  O   UNL     1       4.405   0.883  -0.793  1.00  0.00    -0.458 OA
BRANCH  23  24
ATOM     24  C   UNL     1       4.323   2.152  -1.246  1.00  0.00     0.338 C 
ATOM     25  O   UNL     1       4.927   2.658  -2.182  1.00  0.00    -0.246 OA
BRANCH  24  26
ATOM     26  C   UNL     1       3.413   2.896  -0.370  1.00  0.00     0.060 A 
ATOM     27  C   UNL     1       2.198   2.334   0.020  1.00  0.00     0.016 A 
ATOM     28  C   UNL     1       3.777   4.170   0.065  1.00  0.00     0.016 A 
ATOM     29  C   UNL     1       1.325   3.055   0.817  1.00  0.00     0.010 A 
ATOM     30  C   UNL     1       2.953   4.844   0.963  1.00  0.00     0.010 A 
ATOM     31  C   UNL     1       1.724   4.286   1.352  1.00  0.00    -0.014 A 
BRANCH  31  32
ATOM     32  C   UNL     1       0.880   4.931   2.386  1.00  0.00     0.031 A 
ATOM     33  C   UNL     1       0.296   6.290   2.153  1.00  0.00     0.074 A 
ATOM     34  C   UNL     1       0.655   4.258   3.533  1.00  0.00     0.049 A 
ATOM     35  N   UNL     1      -0.370   7.053   2.979  1.00  0.00    -0.248 NA
ATOM     36  C   UNL     1       0.511   6.883   0.825  1.00  0.00     0.031 C 
ATOM     37  C   UNL     1       1.192   2.927   3.847  1.00  0.00     0.029 A 
ATOM     38  N   UNL     1      -0.093   4.573   4.635  1.00  0.00    -0.354 N 
ATOM     39  C   UNL     1      -0.625   8.232   2.286  1.00  0.00     0.074 A 
ATOM     40  C   UNL     1      -0.017   8.089   0.980  1.00  0.00     0.031 C 
ATOM     41  C   UNL     1       0.701   2.517   5.023  1.00  0.00     0.029 A 
ATOM     42  C   UNL     1      -0.101   3.587   5.596  1.00  0.00     0.049 A 
ATOM     43  H   UNL     1      -0.580   5.424   4.732  1.00  0.00     0.167 HD
ATOM     44  C   UNL     1      -1.304   9.325   2.714  1.00  0.00     0.034 A 
ATOM     45  C   UNL     1      -0.665   3.561   6.818  1.00  0.00     0.034 A 
ATOM     46  C   UNL     1      -1.900   9.421   4.027  1.00  0.00     0.049 A 
ATOM     47  C   UNL     1      -1.426   4.781   7.256  1.00  0.00     0.074 A 
ATOM     48  C   UNL     1      -2.578  10.483   4.600  1.00  0.00     0.029 A 
ATOM     49  N   UNL     1      -1.895   8.401   4.975  1.00  0.00    -0.354 N 
ATOM     50  N   UNL     1      -1.611   5.911   6.611  1.00  0.00    -0.248 NA
ATOM     51  C   UNL     1      -2.050   4.727   8.581  1.00  0.00     0.031 C 
ATOM     52  C   UNL     1      -2.941  10.122   5.904  1.00  0.00     0.029 A 
ATOM     53  C   UNL     1      -2.551   8.810   6.127  1.00  0.00     0.049 A 
ATOM     54  H   UNL     1      -1.484   7.515   4.847  1.00  0.00     0.167 HD
ATOM     55  C   UNL     1      -2.370   6.709   7.458  1.00  0.00     0.074 A 
ATOM     56  C   UNL     1      -2.649   5.906   8.635  1.00  0.00     0.031 C 
ATOM     57  C   UNL     1      -2.784   7.992   7.295  1.00  0.00     0.034 A 
BRANCH  44  58
ATOM     58  C   UNL     1      -1.375  10.507   1.774  1.00  0.00     0.023 A 
ATOM     59  C   UNL     1      -2.028  10.431   0.530  1.00  0.00     0.031 A 
ATOM     60  C   UNL     1      -0.732  11.715   2.101  1.00  0.00     0.131 A 
ATOM     61  C   UNL     1      -1.960  11.510  -0.367  1.00  0.00     0.055 A 
ATOM     62  C   UNL     1      -0.735  12.812   1.237  1.00  0.00     0.041 A 
ATOM     63  F   UNL     1      -0.070  11.844   3.262  1.00  0.00    -0.206 F 
ATOM     64  C   UNL     1      -1.338  12.709  -0.013  1.00  0.00     0.022 A 
BRANCH  61  65
ATOM     65  S   UNL     1      -2.575  11.277  -2.059  1.00  0.00     0.124 S 
ATOM     66  O   UNL     1      -1.712  10.201  -2.540  1.00  0.00    -0.237 OA
ATOM     67  O   UNL     1      -3.974  10.926  -1.842  1.00  0.00    -0.237 OA
ATOM     68  O   UNL     1      -2.349  12.576  -2.689  1.00  0.00    -0.744 OA
ENDBRANCH  61  65
ENDBRANCH  44  58
BRANCH  45  69
ATOM     69  C   UNL     1      -0.487   2.379   7.711  1.00  0.00     0.023 A 
ATOM     70  C   UNL     1      -1.582   1.611   8.136  1.00  0.00     0.031 A 
ATOM     71  C   UNL     1       0.793   2.002   8.161  1.00  0.00     0.131 A 
ATOM     72  C   UNL     1      -1.382   0.528   9.009  1.00  0.00     0.055 A 
ATOM     73  C   UNL     1       0.993   0.889   8.979  1.00  0.00     0.041 A 
ATOM     74  F   UNL     1       1.878   2.698   7.787  1.00  0.00    -0.206 F 
ATOM     75  C   UNL     1      -0.101   0.152   9.419  1.00  0.00     0.022 A 
BRANCH  72  76
ATOM     76  S   UNL     1      -2.832  -0.335   9.674  1.00  0.00     0.124 S 
ATOM     77  O   UNL     1      -3.590   0.762  10.266  1.00  0.00    -0.237 OA
ATOM     78  O   UNL     1      -3.404  -0.935   8.474  1.00  0.00    -0.237 OA
ATOM     79  O   UNL     1      -2.257  -1.281  10.628  1.00  0.00    -0.744 OA
ENDBRANCH  72  76
ENDBRANCH  45  69
BRANCH  57  80
ATOM     80  C   UNL     1      -3.587   8.572   8.430  1.00  0.00     0.023 A 
ATOM     81  C   UNL     1      -3.009   8.794   9.692  1.00  0.00     0.031 A 
ATOM     82  C   UNL     1      -4.956   8.841   8.268  1.00  0.00     0.131 A 
ATOM     83  C   UNL     1      -3.815   9.191  10.767  1.00  0.00     0.055 A 
ATOM     84  C   UNL     1      -5.740   9.301   9.325  1.00  0.00     0.041 A 
ATOM     85  F   UNL     1      -5.556   8.643   7.083  1.00  0.00    -0.206 F 
ATOM     86  C   UNL     1      -5.175   9.460  10.588  1.00  0.00     0.022 A 
BRANCH  83  87
ATOM     87  S   UNL     1      -3.089   9.223  12.429  1.00  0.00     0.124 S 
ATOM     88  O   UNL     1      -2.605   7.854  12.575  1.00  0.00    -0.237 OA
ATOM     89  O   UNL     1      -2.063  10.253  12.300  1.00  0.00    -0.237 OA
ATOM     90  O   UNL     1      -4.218   9.577  13.288  1.00  0.00    -0.744 OA
ENDBRANCH  83  87
ENDBRANCH  57  80
ENDBRANCH  31  32
ENDBRANCH  24  26
ENDBRANCH  23  24
ENDBRANCH   1  23
TORSDOF 16
