REMARK SMILES O=C(OCCOC(=O)c1ccc([C@H]2CCC[N@@H+](CCN3CCCC3=O)C2)cc1)c1ccc(-c2c3nc(c(-c4cc(S(=O)(=O)[O-])ccc4F)c4ccc([nH]4)c(-c4cc(S(=O)(=O)[O-])ccc4F)c4nc(c(-c5cc(S(=O)(=O)[O-])ccc5F)c5ccc2[nH]5)C=C4)C=C3)cc1
REMARK SMILES IDX 5 1 4 2 3 3 2 4 1 5 29 6 30 7 91 8 31 9 90 10 32 11 33 12
REMARK SMILES IDX 34 13 84 14 35 15 89 16 83 17 85 18 36 19 88 20 82 21 81 22
REMARK SMILES IDX 37 24 69 25 49 26 68 27 50 28 53 29 67 30 86 31 51 32 52 33
REMARK SMILES IDX 66 35 87 36 54 37 38 38 39 39 47 40 40 41 46 42 48 43 45 44
REMARK SMILES IDX 41 45 42 46 43 47 44 48 70 49 71 50 79 51 72 52 78 53 80 54
REMARK SMILES IDX 77 55 73 56 74 57 75 58 76 59 55 60 56 61 64 62 57 63 63 64
REMARK SMILES IDX 65 65 62 66 58 67 59 68 60 69 61 70 6 71 7 72 8 73 9 74
REMARK SMILES IDX 10 75 28 76 11 77 27 78 12 79 13 80 14 81 26 82 15 83 17 84
REMARK SMILES IDX 16 85 18 87 19 88 20 89 21 90 24 91 22 92 23 93 25 94
REMARK H PARENT 85 23 53 34 17 86
REMARK Flexibility Score: inf
ROOT
ATOM      1  C   UNL     1      -3.385  -1.327  -9.674  1.00  0.00     0.275 C 
ENDROOT
BRANCH   1   2
ATOM      2  C   UNL     1      -4.812  -1.895  -9.749  1.00  0.00     0.275 C 
BRANCH   2   3
ATOM      3  O   UNL     1      -5.424  -2.167  -8.480  1.00  0.00    -0.458 OA
BRANCH   3   4
ATOM      4  C   UNL     1      -5.226  -3.198  -7.625  1.00  0.00     0.338 C 
ATOM      5  O   UNL     1      -5.782  -3.151  -6.527  1.00  0.00    -0.246 OA
BRANCH   4   6
ATOM      6  C   UNL     1      -4.293  -4.345  -7.883  1.00  0.00     0.060 A 
ATOM      7  C   UNL     1      -3.677  -4.646  -9.098  1.00  0.00     0.016 A 
ATOM      8  C   UNL     1      -3.938  -5.121  -6.761  1.00  0.00     0.016 A 
ATOM      9  C   UNL     1      -2.611  -5.530  -9.157  1.00  0.00     0.010 A 
ATOM     10  C   UNL     1      -2.843  -5.985  -6.803  1.00  0.00     0.010 A 
ATOM     11  C   UNL     1      -2.126  -6.109  -7.990  1.00  0.00    -0.014 A 
BRANCH  11  12
ATOM     12  C   UNL     1      -0.815  -6.768  -8.055  1.00  0.00     0.031 A 
ATOM     13  C   UNL     1      -0.744  -8.269  -8.113  1.00  0.00     0.074 A 
ATOM     14  C   UNL     1       0.260  -5.988  -8.286  1.00  0.00     0.049 A 
ATOM     15  N   UNL     1       0.286  -9.071  -8.199  1.00  0.00    -0.248 NA
ATOM     16  C   UNL     1      -2.049  -8.946  -8.148  1.00  0.00     0.031 C 
ATOM     17  C   UNL     1       0.311  -4.576  -8.513  1.00  0.00     0.029 A 
ATOM     18  N   UNL     1       1.554  -6.348  -8.349  1.00  0.00    -0.354 N 
ATOM     19  C   UNL     1      -0.241 -10.348  -8.351  1.00  0.00     0.074 A 
ATOM     20  C   UNL     1      -1.687 -10.210  -8.284  1.00  0.00     0.031 C 
ATOM     21  C   UNL     1       1.571  -4.174  -8.771  1.00  0.00     0.029 A 
ATOM     22  C   UNL     1       2.662  -5.396  -8.851  1.00  0.00     0.049 A 
ATOM     23  H   UNL     1       1.806  -7.256  -8.063  1.00  0.00     0.167 HD
ATOM     24  C   UNL     1       0.392 -11.532  -8.551  1.00  0.00     0.034 A 
ATOM     25  C   UNL     1       4.532  -5.674  -9.004  1.00  0.00     0.034 A 
ATOM     26  C   UNL     1       1.835 -11.730  -8.583  1.00  0.00     0.049 A 
ATOM     27  C   UNL     1       5.471  -7.270  -8.746  1.00  0.00     0.074 A 
ATOM     28  C   UNL     1       2.482 -12.945  -8.716  1.00  0.00     0.029 A 
ATOM     29  N   UNL     1       2.854 -10.763  -8.460  1.00  0.00    -0.354 N 
ATOM     30  N   UNL     1       4.899  -8.429  -8.396  1.00  0.00    -0.248 NA
ATOM     31  C   UNL     1       6.923  -7.451  -8.886  1.00  0.00     0.031 C 
ATOM     32  C   UNL     1       3.856 -12.736  -8.585  1.00  0.00     0.029 A 
ATOM     33  C   UNL     1       4.122 -11.374  -8.485  1.00  0.00     0.049 A 
ATOM     34  H   UNL     1       2.700  -9.795  -8.369  1.00  0.00     0.167 HD
ATOM     35  C   UNL     1       5.785  -9.439  -8.476  1.00  0.00     0.074 A 
ATOM     36  C   UNL     1       7.061  -8.770  -8.662  1.00  0.00     0.031 C 
ATOM     37  C   UNL     1       5.464 -10.757  -8.455  1.00  0.00     0.034 A 
BRANCH  24  38
ATOM     38  C   UNL     1      -0.533 -12.749  -8.628  1.00  0.00     0.023 A 
ATOM     39  C   UNL     1      -1.452 -12.948  -9.682  1.00  0.00     0.031 A 
ATOM     40  C   UNL     1      -0.587 -13.644  -7.543  1.00  0.00     0.131 A 
ATOM     41  C   UNL     1      -2.430 -13.958  -9.582  1.00  0.00     0.055 A 
ATOM     42  C   UNL     1      -1.504 -14.698  -7.493  1.00  0.00     0.041 A 
ATOM     43  F   UNL     1       0.224 -13.479  -6.487  1.00  0.00    -0.206 F 
ATOM     44  C   UNL     1      -2.443 -14.851  -8.508  1.00  0.00     0.022 A 
BRANCH  41  45
ATOM     45  S   UNL     1      -3.809 -13.976 -10.771  1.00  0.00     0.124 S 
ATOM     46  O   UNL     1      -4.438 -12.684 -10.510  1.00  0.00    -0.237 OA
ATOM     47  O   UNL     1      -3.124 -14.106 -12.051  1.00  0.00    -0.237 OA
ATOM     48  O   UNL     1      -4.599 -15.137 -10.366  1.00  0.00    -0.744 OA
ENDBRANCH  41  45
ENDBRANCH  24  38
BRANCH  25  49
ATOM     49  C   UNL     1       5.984  -4.665  -8.811  1.00  0.00     0.023 A 
ATOM     50  C   UNL     1       6.943  -4.419  -9.805  1.00  0.00     0.031 A 
ATOM     51  C   UNL     1       6.363  -4.144  -7.539  1.00  0.00     0.131 A 
ATOM     52  C   UNL     1       8.073  -3.595  -9.496  1.00  0.00     0.055 A 
ATOM     53  C   UNL     1       7.315  -3.159  -7.303  1.00  0.00     0.041 A 
ATOM     54  F   UNL     1       5.879  -4.669  -6.422  1.00  0.00    -0.206 F 
ATOM     55  C   UNL     1       8.193  -2.869  -8.307  1.00  0.00     0.022 A 
BRANCH  52  56
ATOM     56  S   UNL     1       9.580  -3.727 -10.502  1.00  0.00     0.124 S 
ATOM     57  O   UNL     1       9.906  -5.137 -10.319  1.00  0.00    -0.237 OA
ATOM     58  O   UNL     1       9.099  -3.337 -11.820  1.00  0.00    -0.237 OA
ATOM     59  O   UNL     1      10.503  -2.787  -9.868  1.00  0.00    -0.744 OA
ENDBRANCH  52  56
ENDBRANCH  25  49
BRANCH  37  60
ATOM     60  C   UNL     1       6.643 -11.671  -8.448  1.00  0.00     0.023 A 
ATOM     61  C   UNL     1       7.436 -11.759  -7.298  1.00  0.00     0.031 A 
ATOM     62  C   UNL     1       6.935 -12.498  -9.543  1.00  0.00     0.131 A 
ATOM     63  C   UNL     1       8.512 -12.649  -7.272  1.00  0.00     0.055 A 
ATOM     64  C   UNL     1       7.973 -13.425  -9.490  1.00  0.00     0.041 A 
ATOM     65  F   UNL     1       6.191 -12.445 -10.659  1.00  0.00    -0.206 F 
ATOM     66  C   UNL     1       8.774 -13.498  -8.351  1.00  0.00     0.022 A 
BRANCH  63  67
ATOM     67  S   UNL     1       9.603 -12.620  -5.830  1.00  0.00     0.124 S 
ATOM     68  O   UNL     1      10.014 -11.220  -5.788  1.00  0.00    -0.237 OA
ATOM     69  O   UNL     1       8.713 -13.055  -4.758  1.00  0.00    -0.237 OA
ATOM     70  O   UNL     1      10.658 -13.567  -6.185  1.00  0.00    -0.744 OA
ENDBRANCH  63  67
ENDBRANCH  37  60
ENDBRANCH  11  12
ENDBRANCH   4   6
ENDBRANCH   3   4
ENDBRANCH   2   3
ENDBRANCH   1   2
BRANCH   1  71
ATOM     71  O   UNL     1      -2.537  -1.909  -8.658  1.00  0.00    -0.458 OA
BRANCH  71  72
ATOM     72  C   UNL     1      -2.415  -1.209  -7.494  1.00  0.00     0.338 C 
ATOM     73  O   UNL     1      -2.977  -0.163  -7.218  1.00  0.00    -0.246 OA
BRANCH  72  74
ATOM     74  C   UNL     1      -1.529  -1.938  -6.552  1.00  0.00     0.060 A 
ATOM     75  C   UNL     1      -2.093  -2.717  -5.545  1.00  0.00     0.016 A 
ATOM     76  C   UNL     1      -0.142  -1.862  -6.640  1.00  0.00     0.016 A 
ATOM     77  C   UNL     1      -1.288  -3.545  -4.745  1.00  0.00     0.005 A 
ATOM     78  C   UNL     1       0.662  -2.672  -5.807  1.00  0.00     0.005 A 
ATOM     79  C   UNL     1       0.104  -3.601  -4.904  1.00  0.00    -0.039 A 
BRANCH  79  80
ATOM     80  C   UNL     1       0.948  -4.621  -4.098  1.00  0.00     0.074 C 
ATOM     81  C   UNL     1       0.238  -5.984  -3.895  1.00  0.00     0.020 C 
ATOM     82  C   UNL     1       2.317  -4.921  -4.737  1.00  0.00     0.270 C 
ATOM     83  C   UNL     1       1.129  -7.010  -3.189  1.00  0.00     0.062 C 
ATOM     84  N   UNL     1       3.101  -5.994  -4.113  1.00  0.00    -0.333 N 
ATOM     85  C   UNL     1       2.388  -7.253  -3.990  1.00  0.00     0.262 C 
ATOM     86  H   UNL     1       3.301  -5.684  -3.163  1.00  0.00     0.348 HD
BRANCH  84  87
ATOM     87  C   UNL     1       4.337  -6.205  -4.867  1.00  0.00     0.284 C 
BRANCH  87  88
ATOM     88  C   UNL     1       4.296  -6.895  -6.268  1.00  0.00     0.180 C 
BRANCH  88  89
ATOM     89  N   UNL     1       3.618  -6.306  -7.486  1.00  0.00    -0.337 N 
ATOM     90  C   UNL     1       3.276  -7.168  -9.316  1.00  0.00     0.120 C 
ATOM     91  C   UNL     1       3.784  -4.420  -7.649  1.00  0.00     0.222 C 
ATOM     92  C   UNL     1       3.354  -5.662 -10.685  1.00  0.00     0.031 C 
ATOM     93  C   UNL     1       3.759  -3.960  -9.672  1.00  0.00     0.102 C 
ATOM     94  O   UNL     1       3.797  -3.580  -6.757  1.00  0.00    -0.275 OA
ENDBRANCH  88  89
ENDBRANCH  87  88
ENDBRANCH  84  87
ENDBRANCH  79  80
ENDBRANCH  72  74
ENDBRANCH  71  72
ENDBRANCH   1  71
TORSDOF 18
