REMARK SMILES CCOC(=O)NC(=O)COc1csc(C(=O)OCCOC(=O)c2ccc(-c3c4nc(c(-c5cc(S(=O)(=O)[O-])ccc5F)c5ccc([nH]5)c(-c5cc(S(=O)(=O)[O-])ccc5F)c5nc(c(-c6cc(S(=O)(=O)[O-])ccc6F)c6ccc3[nH]6)C=C5)C=C4)cc2)c1
REMARK SMILES IDX 18 1 17 2 15 3 16 4 14 5 11 6 12 7 86 8 13 9 10 10 9 11 7 12
REMARK SMILES IDX 4 13 5 14 6 15 8 17 3 18 2 19 1 20 19 21 20 22 21 23 22 24
REMARK SMILES IDX 23 25 24 26 85 27 25 28 84 29 26 30 27 31 28 32 78 33 29 34
REMARK SMILES IDX 83 35 77 36 79 37 30 38 82 39 76 40 75 41 31 43 63 44 43 45
REMARK SMILES IDX 62 46 44 47 47 48 61 49 80 50 45 51 46 52 60 54 81 55 48 56
REMARK SMILES IDX 32 57 33 58 41 59 34 60 40 61 42 62 39 63 35 64 36 65 37 66
REMARK SMILES IDX 38 67 64 68 65 69 73 70 66 71 72 72 74 73 71 74 67 75 68 76
REMARK SMILES IDX 69 77 70 78 49 79 50 80 58 81 51 82 57 83 59 84 56 85 52 86
REMARK SMILES IDX 53 87 54 88 55 89
REMARK H PARENT 6 16 79 42 47 53
REMARK Flexibility Score: inf
ROOT
ATOM      1  C   UNL     1      -3.008  -0.344   7.450  1.00  0.00     0.275 C 
ENDROOT
BRANCH   1   2
ATOM      2  O   UNL     1      -2.319  -0.894   6.311  1.00  0.00    -0.458 OA
BRANCH   2   3
ATOM      3  C   UNL     1      -0.996  -0.559   6.203  1.00  0.00     0.348 C 
ATOM      4  O   UNL     1      -0.427   0.214   6.958  1.00  0.00    -0.245 OA
BRANCH   3   5
ATOM      5  C   UNL     1      -0.379  -1.283   5.104  1.00  0.00     0.116 A 
ATOM      6  C   UNL     1       0.045  -2.651   3.254  1.00  0.00     0.131 A 
ATOM      7  C   UNL     1       1.322  -2.368   3.676  1.00  0.00     0.112 A 
ATOM      8  C   UNL     1      -0.938  -2.030   4.083  1.00  0.00     0.074 A 
ATOM      9  S   UNL     1       1.333  -1.247   4.964  1.00  0.00    -0.133 S 
BRANCH   6  10
ATOM     10  O   UNL     1      -0.284  -3.309   2.118  1.00  0.00    -0.483 OA
BRANCH  10  11
ATOM     11  C   UNL     1       0.376  -4.534   1.879  1.00  0.00     0.329 C 
BRANCH  11  12
ATOM     12  C   UNL     1       1.892  -4.690   1.675  1.00  0.00     0.267 C 
ATOM     13  C   UNL     1       2.296  -2.803   0.016  1.00  0.00     0.413 C 
ATOM     14  O   UNL     1       3.170  -2.210  -0.606  1.00  0.00    -0.224 OA
ATOM     15  N   UNL     1       2.605  -3.859   0.841  1.00  0.00    -0.258 N 
ATOM     16  H   UNL     1       3.566  -4.072   0.833  1.00  0.00     0.176 HD
ATOM     17  O   UNL     1       2.505  -5.613   2.220  1.00  0.00    -0.271 OA
BRANCH  13  18
ATOM     18  O   UNL     1       0.981  -2.503  -0.036  1.00  0.00    -0.450 OA
BRANCH  18  19
ATOM     19  C   UNL     1       0.622  -1.348  -0.807  1.00  0.00     0.231 C 
ATOM     20  C   UNL     1       0.907  -0.067  -0.041  1.00  0.00     0.049 C 
ENDBRANCH  18  19
ENDBRANCH  13  18
ENDBRANCH  11  12
ENDBRANCH  10  11
ENDBRANCH   6  10
ENDBRANCH   3   5
ENDBRANCH   2   3
ENDBRANCH   1   2
BRANCH   1  21
ATOM     21  C   UNL     1      -3.172  -1.378   8.569  1.00  0.00     0.275 C 
BRANCH  21  22
ATOM     22  O   UNL     1      -1.913  -1.730   9.175  1.00  0.00    -0.458 OA
BRANCH  22  23
ATOM     23  C   UNL     1      -1.338  -2.854   8.684  1.00  0.00     0.338 C 
ATOM     24  O   UNL     1      -1.780  -3.575   7.805  1.00  0.00    -0.246 OA
BRANCH  23  25
ATOM     25  C   UNL     1       0.006  -3.028   9.262  1.00  0.00     0.060 A 
ATOM     26  C   UNL     1       1.093  -2.879   8.402  1.00  0.00     0.016 A 
ATOM     27  C   UNL     1       0.207  -3.425  10.584  1.00  0.00     0.016 A 
ATOM     28  C   UNL     1       2.388  -3.126   8.847  1.00  0.00     0.010 A 
ATOM     29  C   UNL     1       1.514  -3.667  11.037  1.00  0.00     0.010 A 
ATOM     30  C   UNL     1       2.615  -3.529  10.168  1.00  0.00    -0.014 A 
BRANCH  30  31
ATOM     31  C   UNL     1       3.999  -3.861  10.601  1.00  0.00     0.031 A 
ATOM     32  C   UNL     1       4.382  -5.291  10.868  1.00  0.00     0.074 A 
ATOM     33  C   UNL     1       4.929  -2.890  10.695  1.00  0.00     0.049 A 
ATOM     34  N   UNL     1       5.509  -5.780  11.318  1.00  0.00    -0.248 NA
ATOM     35  C   UNL     1       3.353  -6.305  10.594  1.00  0.00     0.031 C 
ATOM     36  C   UNL     1       4.701  -1.474  10.397  1.00  0.00     0.029 A 
ATOM     37  N   UNL     1       6.253  -2.944  11.055  1.00  0.00    -0.354 N 
ATOM     38  C   UNL     1       5.322  -7.156  11.403  1.00  0.00     0.074 A 
ATOM     39  C   UNL     1       3.961  -7.417  10.981  1.00  0.00     0.031 C 
ATOM     40  C   UNL     1       5.849  -0.800  10.569  1.00  0.00     0.029 A 
ATOM     41  C   UNL     1       6.878  -1.718  11.050  1.00  0.00     0.049 A 
ATOM     42  H   UNL     1       6.712  -3.781  11.294  1.00  0.00     0.167 HD
ATOM     43  C   UNL     1       6.205  -8.110  11.793  1.00  0.00     0.034 A 
ATOM     44  C   UNL     1       8.126  -1.366  11.422  1.00  0.00     0.034 A 
ATOM     45  C   UNL     1       7.564  -7.834  12.199  1.00  0.00     0.049 A 
ATOM     46  C   UNL     1       9.064  -2.434  11.927  1.00  0.00     0.074 A 
ATOM     47  C   UNL     1       8.539  -8.725  12.615  1.00  0.00     0.029 A 
ATOM     48  N   UNL     1       8.142  -6.571  12.242  1.00  0.00    -0.354 N 
ATOM     49  N   UNL     1       8.858  -3.725  12.047  1.00  0.00    -0.248 NA
ATOM     50  C   UNL     1      10.399  -1.995  12.351  1.00  0.00     0.031 C 
ATOM     51  C   UNL     1       9.681  -7.996  12.969  1.00  0.00     0.029 A 
ATOM     52  C   UNL     1       9.447  -6.657  12.704  1.00  0.00     0.049 A 
ATOM     53  H   UNL     1       7.690  -5.735  11.982  1.00  0.00     0.167 HD
ATOM     54  C   UNL     1      10.048  -4.254  12.541  1.00  0.00     0.074 A 
ATOM     55  C   UNL     1      10.970  -3.145  12.677  1.00  0.00     0.031 C 
ATOM     56  C   UNL     1      10.352  -5.540  12.852  1.00  0.00     0.034 A 
BRANCH  43  57
ATOM     57  C   UNL     1       5.703  -9.534  11.857  1.00  0.00     0.023 A 
ATOM     58  C   UNL     1       5.301 -10.237  10.708  1.00  0.00     0.031 A 
ATOM     59  C   UNL     1       5.598 -10.188  13.099  1.00  0.00     0.131 A 
ATOM     60  C   UNL     1       4.747 -11.522  10.832  1.00  0.00     0.055 A 
ATOM     61  C   UNL     1       5.119 -11.495  13.206  1.00  0.00     0.041 A 
ATOM     62  F   UNL     1       5.946  -9.560  14.233  1.00  0.00    -0.206 F 
ATOM     63  C   UNL     1       4.677 -12.165  12.070  1.00  0.00     0.022 A 
BRANCH  60  64
ATOM     64  S   UNL     1       3.991 -12.288   9.372  1.00  0.00     0.124 S 
ATOM     65  O   UNL     1       2.968 -11.306   9.020  1.00  0.00    -0.237 OA
ATOM     66  O   UNL     1       5.117 -12.396   8.452  1.00  0.00    -0.237 OA
ATOM     67  O   UNL     1       3.475 -13.558   9.879  1.00  0.00    -0.744 OA
ENDBRANCH  60  64
ENDBRANCH  43  57
BRANCH  44  68
ATOM     68  C   UNL     1       8.549   0.064  11.392  1.00  0.00     0.023 A 
ATOM     69  C   UNL     1       9.598   0.497  10.566  1.00  0.00     0.031 A 
ATOM     70  C   UNL     1       7.938   1.013  12.232  1.00  0.00     0.131 A 
ATOM     71  C   UNL     1      10.031   1.832  10.627  1.00  0.00     0.055 A 
ATOM     72  C   UNL     1       8.334   2.350  12.248  1.00  0.00     0.041 A 
ATOM     73  F   UNL     1       6.934   0.651  13.048  1.00  0.00    -0.206 F 
ATOM     74  C   UNL     1       9.396   2.764  11.451  1.00  0.00     0.022 A 
BRANCH  71  75
ATOM     75  S   UNL     1      11.497   2.317   9.674  1.00  0.00     0.124 S 
ATOM     76  O   UNL     1      12.510   1.414  10.206  1.00  0.00    -0.237 OA
ATOM     77  O   UNL     1      11.066   2.062   8.303  1.00  0.00    -0.237 OA
ATOM     78  O   UNL     1      11.674   3.727  10.017  1.00  0.00    -0.744 OA
ENDBRANCH  71  75
ENDBRANCH  44  68
BRANCH  56  79
ATOM     79  C   UNL     1      11.757  -5.812  13.332  1.00  0.00     0.023 A 
ATOM     80  C   UNL     1      12.223  -5.331  14.568  1.00  0.00     0.031 A 
ATOM     81  C   UNL     1      12.649  -6.545  12.528  1.00  0.00     0.131 A 
ATOM     82  C   UNL     1      13.561  -5.539  14.940  1.00  0.00     0.055 A 
ATOM     83  C   UNL     1      13.961  -6.798  12.929  1.00  0.00     0.041 A 
ATOM     84  F   UNL     1      12.258  -7.025  11.337  1.00  0.00    -0.206 F 
ATOM     85  C   UNL     1      14.428  -6.283  14.135  1.00  0.00     0.022 A 
BRANCH  82  86
ATOM     86  S   UNL     1      14.180  -4.748  16.450  1.00  0.00     0.124 S 
ATOM     87  O   UNL     1      13.936  -3.335  16.175  1.00  0.00    -0.237 OA
ATOM     88  O   UNL     1      13.345  -5.350  17.484  1.00  0.00    -0.237 OA
ATOM     89  O   UNL     1      15.589  -5.137  16.489  1.00  0.00    -0.744 OA
ENDBRANCH  82  86
ENDBRANCH  56  79
ENDBRANCH  30  31
ENDBRANCH  23  25
ENDBRANCH  22  23
ENDBRANCH  21  22
ENDBRANCH   1  21
TORSDOF 19
