REMARK SMILES O=C(OCCOC(=O)[C@]1(CCc2cccnc2)CCC[NH2+]C1)c1ccc(-c2c3nc(c(-c4cc(S(=O)(=O)[O-])ccc4F)c4ccc([nH]4)c(-c4cc(S(=O)(=O)[O-])ccc4F)c4nc(c(-c5cc(S(=O)(=O)[O-])ccc5F)c5ccc2[nH]5)C=C4)C=C3)cc1
REMARK SMILES IDX 4 1 3 2 2 3 1 4 23 5 24 6 85 7 25 8 84 9 26 10 27 11 28 12
REMARK SMILES IDX 78 13 29 14 83 15 77 16 79 17 30 18 82 19 76 20 75 21 31 23
REMARK SMILES IDX 63 24 43 25 62 26 44 27 47 28 61 29 80 30 45 31 46 32 60 34
REMARK SMILES IDX 81 35 48 36 32 37 33 38 41 39 34 40 40 41 42 42 39 43 35 44
REMARK SMILES IDX 36 45 37 46 38 47 64 48 65 49 73 50 66 51 72 52 74 53 71 54
REMARK SMILES IDX 67 55 68 56 69 57 70 58 49 59 50 60 58 61 51 62 57 63 59 64
REMARK SMILES IDX 56 65 52 66 53 67 54 68 55 69 5 70 6 71 7 72 8 73 9 74 18 75
REMARK SMILES IDX 22 76 19 77 21 78 20 79 10 82 11 83 12 84 13 85 17 86 14 87
REMARK SMILES IDX 16 88 15 89
REMARK H PARENT 79 22 47 33 21 80 21 81
REMARK Flexibility Score: inf
ROOT
ATOM      1  C   UNL     1       4.698  -0.796  -1.144  1.00  0.00     0.275 C 
ENDROOT
BRANCH   1   2
ATOM      2  O   UNL     1       3.482  -1.236  -0.509  1.00  0.00    -0.458 OA
BRANCH   2   3
ATOM      3  C   UNL     1       3.157  -1.288   0.807  1.00  0.00     0.338 C 
ATOM      4  O   UNL     1       2.168  -1.941   1.139  1.00  0.00    -0.246 OA
BRANCH   3   5
ATOM      5  C   UNL     1       3.821  -0.464   1.873  1.00  0.00     0.060 A 
ATOM      6  C   UNL     1       5.126   0.031   1.833  1.00  0.00     0.016 A 
ATOM      7  C   UNL     1       3.028  -0.126   2.995  1.00  0.00     0.016 A 
ATOM      8  C   UNL     1       5.586   0.924   2.806  1.00  0.00     0.010 A 
ATOM      9  C   UNL     1       3.489   0.753   3.989  1.00  0.00     0.010 A 
ATOM     10  C   UNL     1       4.772   1.302   3.884  1.00  0.00    -0.014 A 
BRANCH  10  11
ATOM     11  C   UNL     1       5.437   2.026   4.994  1.00  0.00     0.031 A 
ATOM     12  C   UNL     1       6.089   1.164   6.016  1.00  0.00     0.074 A 
ATOM     13  C   UNL     1       5.606   3.362   4.989  1.00  0.00     0.049 A 
ATOM     14  N   UNL     1       6.893   1.500   6.979  1.00  0.00    -0.248 NA
ATOM     15  C   UNL     1       5.744  -0.266   5.966  1.00  0.00     0.031 C 
ATOM     16  C   UNL     1       4.895   4.271   4.115  1.00  0.00     0.029 A 
ATOM     17  N   UNL     1       6.447   4.197   5.679  1.00  0.00    -0.354 N 
ATOM     18  C   UNL     1       7.129   0.326   7.675  1.00  0.00     0.074 A 
ATOM     19  C   UNL     1       6.358  -0.719   7.042  1.00  0.00     0.031 C 
ATOM     20  C   UNL     1       5.452   5.489   4.152  1.00  0.00     0.029 A 
ATOM     21  C   UNL     1       6.473   5.493   5.186  1.00  0.00     0.049 A 
ATOM     22  H   UNL     1       6.982   3.904   6.452  1.00  0.00     0.167 HD
ATOM     23  C   UNL     1       7.916   0.155   8.760  1.00  0.00     0.034 A 
ATOM     24  C   UNL     1       7.218   6.556   5.561  1.00  0.00     0.034 A 
ATOM     25  C   UNL     1       8.611   1.251   9.378  1.00  0.00     0.049 A 
ATOM     26  C   UNL     1       8.093   6.336   6.771  1.00  0.00     0.074 A 
ATOM     27  C   UNL     1       9.376   1.257  10.525  1.00  0.00     0.029 A 
ATOM     28  N   UNL     1       8.600   2.560   8.894  1.00  0.00    -0.354 N 
ATOM     29  N   UNL     1       8.298   5.222   7.442  1.00  0.00    -0.248 NA
ATOM     30  C   UNL     1       8.786   7.506   7.313  1.00  0.00     0.031 C 
ATOM     31  C   UNL     1       9.776   2.576  10.768  1.00  0.00     0.029 A 
ATOM     32  C   UNL     1       9.337   3.382   9.725  1.00  0.00     0.049 A 
ATOM     33  H   UNL     1       8.134   2.854   8.079  1.00  0.00     0.167 HD
ATOM     34  C   UNL     1       9.138   5.559   8.493  1.00  0.00     0.074 A 
ATOM     35  C   UNL     1       9.440   6.971   8.334  1.00  0.00     0.031 C 
ATOM     36  C   UNL     1       9.602   4.789   9.512  1.00  0.00     0.034 A 
BRANCH  23  37
ATOM     37  C   UNL     1       7.916  -1.229   9.352  1.00  0.00     0.023 A 
ATOM     38  C   UNL     1       8.348  -2.344   8.608  1.00  0.00     0.031 A 
ATOM     39  C   UNL     1       7.284  -1.462  10.585  1.00  0.00     0.131 A 
ATOM     40  C   UNL     1       8.018  -3.637   9.038  1.00  0.00     0.055 A 
ATOM     41  C   UNL     1       7.058  -2.755  11.059  1.00  0.00     0.041 A 
ATOM     42  F   UNL     1       6.811  -0.440  11.315  1.00  0.00    -0.206 F 
ATOM     43  C   UNL     1       7.401  -3.852  10.272  1.00  0.00     0.022 A 
BRANCH  40  44
ATOM     44  S   UNL     1       8.191  -5.008   7.860  1.00  0.00     0.124 S 
ATOM     45  O   UNL     1       7.237  -4.622   6.823  1.00  0.00    -0.237 OA
ATOM     46  O   UNL     1       9.599  -4.934   7.490  1.00  0.00    -0.237 OA
ATOM     47  O   UNL     1       7.811  -6.182   8.643  1.00  0.00    -0.744 OA
ENDBRANCH  40  44
ENDBRANCH  23  37
BRANCH  24  48
ATOM     48  C   UNL     1       7.128   7.901   4.893  1.00  0.00     0.023 A 
ATOM     49  C   UNL     1       8.274   8.557   4.400  1.00  0.00     0.031 A 
ATOM     50  C   UNL     1       5.908   8.598   4.800  1.00  0.00     0.131 A 
ATOM     51  C   UNL     1       8.181   9.865   3.882  1.00  0.00     0.055 A 
ATOM     52  C   UNL     1       5.808   9.866   4.218  1.00  0.00     0.041 A 
ATOM     53  F   UNL     1       4.776   8.060   5.281  1.00  0.00    -0.206 F 
ATOM     54  C   UNL     1       6.951  10.514   3.768  1.00  0.00     0.022 A 
BRANCH  51  55
ATOM     55  S   UNL     1       9.706  10.765   3.466  1.00  0.00     0.124 S 
ATOM     56  O   UNL     1      10.434  10.714   4.728  1.00  0.00    -0.237 OA
ATOM     57  O   UNL     1      10.246   9.960   2.377  1.00  0.00    -0.237 OA
ATOM     58  O   UNL     1       9.224  12.090   3.078  1.00  0.00    -0.744 OA
ENDBRANCH  51  55
ENDBRANCH  24  48
BRANCH  36  59
ATOM     59  C   UNL     1      10.530   5.468  10.480  1.00  0.00     0.023 A 
ATOM     60  C   UNL     1      10.091   6.496  11.329  1.00  0.00     0.031 A 
ATOM     61  C   UNL     1      11.882   5.087  10.529  1.00  0.00     0.131 A 
ATOM     62  C   UNL     1      11.016   7.161  12.142  1.00  0.00     0.055 A 
ATOM     63  C   UNL     1      12.780   5.698  11.399  1.00  0.00     0.041 A 
ATOM     64  F   UNL     1      12.347   4.114   9.729  1.00  0.00    -0.206 F 
ATOM     65  C   UNL     1      12.352   6.753  12.201  1.00  0.00     0.022 A 
BRANCH  62  66
ATOM     66  S   UNL     1      10.478   8.650  13.023  1.00  0.00     0.124 S 
ATOM     67  O   UNL     1      10.018   9.498  11.927  1.00  0.00    -0.237 OA
ATOM     68  O   UNL     1       9.439   8.132  13.907  1.00  0.00    -0.237 OA
ATOM     69  O   UNL     1      11.693   9.107  13.694  1.00  0.00    -0.744 OA
ENDBRANCH  62  66
ENDBRANCH  36  59
ENDBRANCH  10  11
ENDBRANCH   3   5
ENDBRANCH   2   3
ENDBRANCH   1   2
BRANCH   1  70
ATOM     70  C   UNL     1       4.740   0.700  -1.443  1.00  0.00     0.274 C 
BRANCH  70  71
ATOM     71  O   UNL     1       4.007   1.438  -0.459  1.00  0.00    -0.461 OA
BRANCH  71  72
ATOM     72  C   UNL     1       2.871   2.052  -0.876  1.00  0.00     0.317 C 
ATOM     73  O   UNL     1       2.478   1.987  -2.038  1.00  0.00    -0.251 OA
BRANCH  72  74
ATOM     74  C   UNL     1       2.167   2.891   0.211  1.00  0.00     0.117 C 
ATOM     75  C   UNL     1       1.829   4.287  -0.358  1.00  0.00     0.030 C 
ATOM     76  C   UNL     1       3.123   3.144   1.383  1.00  0.00     0.279 C 
ATOM     77  C   UNL     1       3.083   5.147  -0.611  1.00  0.00     0.063 C 
ATOM     78  N   UNL     1       4.339   3.845   0.985  1.00  0.00    -0.345 N 
ATOM     79  C   UNL     1       4.024   5.203   0.589  1.00  0.00     0.260 C 
ATOM     80  H   UNL     1       4.990   3.865   1.770  1.00  0.00     0.346 HD
ATOM     81  H   UNL     1       4.763   3.357   0.196  1.00  0.00     0.346 HD
BRANCH  74  82
ATOM     82  C   UNL     1       0.920   2.153   0.813  1.00  0.00     0.029 C 
BRANCH  82  83
ATOM     83  C   UNL     1      -0.406   2.135   0.033  1.00  0.00     0.038 C 
BRANCH  83  84
ATOM     84  C   UNL     1      -0.389   1.222  -1.156  1.00  0.00    -0.030 A 
ATOM     85  C   UNL     1      -0.221   1.734  -2.443  1.00  0.00     0.007 A 
ATOM     86  C   UNL     1      -0.403  -0.163  -1.013  1.00  0.00     0.114 A 
ATOM     87  C   UNL     1       0.081   0.868  -3.488  1.00  0.00     0.020 A 
ATOM     88  N   UNL     1      -0.185  -1.030  -2.027  1.00  0.00    -0.264 NA
ATOM     89  C   UNL     1       0.113  -0.489  -3.225  1.00  0.00     0.111 A 
ENDBRANCH  83  84
ENDBRANCH  82  83
ENDBRANCH  74  82
ENDBRANCH  72  74
ENDBRANCH  71  72
ENDBRANCH  70  71
ENDBRANCH   1  70
TORSDOF 17
