REMARK SMILES CO[C@@H]1C[C@H](C(=O)OCCOC(=O)c2ccc(-c3c4nc(c(-c5cc(S(=O)(=O)[O-])ccc5F)c5ccc([nH]5)c(-c5cc(S(=O)(=O)[O-])ccc5F)c5nc(c(-c6cc(S(=O)(=O)[O-])ccc6F)c6ccc3[nH]6)C=C5)C=C4)cc2)N(C(=O)c2ccn(C)c(=O)c2)C1
REMARK SMILES IDX 10 1 9 2 8 3 6 4 7 5 5 6 3 7 4 8 88 9 77 10 2 11 1 12 78 13
REMARK SMILES IDX 79 14 80 15 81 16 87 17 82 18 85 19 83 20 86 21 84 22 11 23
REMARK SMILES IDX 12 24 13 25 14 26 15 27 76 28 16 29 75 30 17 31 18 32 19 33
REMARK SMILES IDX 69 34 20 35 74 36 68 37 70 38 21 39 73 40 67 41 66 42 22 44
REMARK SMILES IDX 54 45 34 46 53 47 35 48 38 49 52 50 71 51 36 52 37 53 51 55
REMARK SMILES IDX 72 56 39 57 23 58 24 59 32 60 25 61 31 62 33 63 30 64 26 65
REMARK SMILES IDX 27 66 28 67 29 68 55 69 56 70 64 71 57 72 63 73 65 74 62 75
REMARK SMILES IDX 58 76 59 77 60 78 61 79 40 80 41 81 49 82 42 83 48 84 50 85
REMARK SMILES IDX 47 86 43 87 44 88 45 89 46 90
REMARK H PARENT 70 43 38 54
REMARK Flexibility Score: inf
ROOT
ATOM      1  C   UNL     1       0.514   4.557  -2.658  1.00  0.00     0.275 C 
ENDROOT
BRANCH   1   2
ATOM      2  C   UNL     1       1.597   3.570  -2.223  1.00  0.00     0.274 C 
BRANCH   2   3
ATOM      3  O   UNL     1       1.471   3.294  -0.818  1.00  0.00    -0.461 OA
BRANCH   3   4
ATOM      4  C   UNL     1       2.543   3.558  -0.034  1.00  0.00     0.329 C 
ATOM      5  O   UNL     1       3.608   4.002  -0.455  1.00  0.00    -0.250 OA
BRANCH   4   6
ATOM      6  C   UNL     1       2.291   3.264   1.459  1.00  0.00     0.198 C 
ATOM      7  C   UNL     1       1.382   1.048   1.641  1.00  0.00     0.140 C 
ATOM      8  C   UNL     1       1.006   2.519   1.812  1.00  0.00     0.071 C 
ATOM      9  C   UNL     1       2.870   1.004   2.019  1.00  0.00     0.152 C 
ATOM     10  N   UNL     1       3.342   2.378   1.962  1.00  0.00    -0.322 N 
BRANCH   7  11
ATOM     11  O   UNL     1       1.137   0.690   0.280  1.00  0.00    -0.380 OA
ATOM     12  C   UNL     1       1.205  -0.706   0.039  1.00  0.00     0.195 C 
ENDBRANCH   7  11
BRANCH  10  13
ATOM     13  C   UNL     1       4.632   2.694   2.319  1.00  0.00     0.254 C 
ATOM     14  O   UNL     1       5.467   1.829   2.581  1.00  0.00    -0.269 OA
BRANCH  13  15
ATOM     15  C   UNL     1       5.013   4.132   2.407  1.00  0.00     0.046 A 
ATOM     16  C   UNL     1       6.044   4.675   1.554  1.00  0.00     0.032 A 
ATOM     17  C   UNL     1       4.471   4.878   3.379  1.00  0.00     0.085 A 
ATOM     18  C   UNL     1       6.467   5.931   1.738  1.00  0.00     0.089 A 
ATOM     19  C   UNL     1       4.889   6.293   3.550  1.00  0.00     0.251 A 
ATOM     20  N   UNL     1       5.917   6.734   2.722  1.00  0.00    -0.319 N 
ATOM     21  O   UNL     1       4.309   6.968   4.395  1.00  0.00    -0.269 OA
ATOM     22  C   UNL     1       6.453   8.076   2.906  1.00  0.00     0.153 C 
ENDBRANCH  13  15
ENDBRANCH  10  13
ENDBRANCH   4   6
ENDBRANCH   3   4
ENDBRANCH   2   3
ENDBRANCH   1   2
BRANCH   1  23
ATOM     23  O   UNL     1       0.683   5.829  -2.004  1.00  0.00    -0.458 OA
BRANCH  23  24
ATOM     24  C   UNL     1       0.053   5.929  -0.809  1.00  0.00     0.338 C 
ATOM     25  O   UNL     1      -0.671   5.103  -0.281  1.00  0.00    -0.246 OA
BRANCH  24  26
ATOM     26  C   UNL     1       0.481   7.153  -0.122  1.00  0.00     0.060 A 
ATOM     27  C   UNL     1       1.238   7.010   1.042  1.00  0.00     0.016 A 
ATOM     28  C   UNL     1       0.039   8.409  -0.534  1.00  0.00     0.016 A 
ATOM     29  C   UNL     1       1.526   8.116   1.829  1.00  0.00     0.010 A 
ATOM     30  C   UNL     1       0.341   9.527   0.251  1.00  0.00     0.010 A 
ATOM     31  C   UNL     1       1.061   9.381   1.451  1.00  0.00    -0.014 A 
BRANCH  31  32
ATOM     32  C   UNL     1       1.264  10.521   2.376  1.00  0.00     0.031 A 
ATOM     33  C   UNL     1       0.102  11.055   3.162  1.00  0.00     0.074 A 
ATOM     34  C   UNL     1       2.501  11.021   2.552  1.00  0.00     0.049 A 
ATOM     35  N   UNL     1       0.057  12.062   3.995  1.00  0.00    -0.248 NA
ATOM     36  C   UNL     1      -1.186  10.372   2.972  1.00  0.00     0.031 C 
ATOM     37  C   UNL     1       3.702  10.548   1.865  1.00  0.00     0.029 A 
ATOM     38  N   UNL     1       2.956  12.017   3.376  1.00  0.00    -0.354 N 
ATOM     39  C   UNL     1      -1.270  12.161   4.401  1.00  0.00     0.074 A 
ATOM     40  C   UNL     1      -1.997  11.116   3.710  1.00  0.00     0.031 C 
ATOM     41  C   UNL     1       4.764  11.227   2.326  1.00  0.00     0.029 A 
ATOM     42  C   UNL     1       4.316  12.206   3.311  1.00  0.00     0.049 A 
ATOM     43  H   UNL     1       2.366  12.546   3.960  1.00  0.00     0.167 HD
ATOM     44  C   UNL     1      -1.825  13.049   5.263  1.00  0.00     0.034 A 
ATOM     45  C   UNL     1       5.109  13.076   3.967  1.00  0.00     0.034 A 
ATOM     46  C   UNL     1      -1.072  14.071   5.952  1.00  0.00     0.049 A 
ATOM     47  C   UNL     1       4.470  14.041   4.931  1.00  0.00     0.074 A 
ATOM     48  C   UNL     1      -1.528  15.040   6.828  1.00  0.00     0.029 A 
ATOM     49  N   UNL     1       0.303  14.251   5.845  1.00  0.00    -0.354 N 
ATOM     50  N   UNL     1       3.204  14.163   5.261  1.00  0.00    -0.248 NA
ATOM     51  C   UNL     1       5.364  14.993   5.599  1.00  0.00     0.031 C 
ATOM     52  C   UNL     1      -0.440  15.838   7.208  1.00  0.00     0.029 A 
ATOM     53  C   UNL     1       0.707  15.328   6.621  1.00  0.00     0.049 A 
ATOM     54  H   UNL     1       0.903  13.695   5.298  1.00  0.00     0.167 HD
ATOM     55  C   UNL     1       3.150  15.214   6.170  1.00  0.00     0.074 A 
ATOM     56  C   UNL     1       4.516  15.657   6.371  1.00  0.00     0.031 C 
ATOM     57  C   UNL     1       2.071  15.776   6.774  1.00  0.00     0.034 A 
BRANCH  44  58
ATOM     58  C   UNL     1      -3.324  12.995   5.434  1.00  0.00     0.023 A 
ATOM     59  C   UNL     1      -3.974  11.889   6.010  1.00  0.00     0.031 A 
ATOM     60  C   UNL     1      -4.122  14.049   4.953  1.00  0.00     0.131 A 
ATOM     61  C   UNL     1      -5.377  11.829   6.021  1.00  0.00     0.055 A 
ATOM     62  C   UNL     1      -5.515  14.018   5.037  1.00  0.00     0.041 A 
ATOM     63  F   UNL     1      -3.560  15.120   4.370  1.00  0.00    -0.206 F 
ATOM     64  C   UNL     1      -6.151  12.897   5.559  1.00  0.00     0.022 A 
BRANCH  61  65
ATOM     65  S   UNL     1      -6.179  10.277   6.510  1.00  0.00     0.124 S 
ATOM     66  O   UNL     1      -5.631   9.340   5.532  1.00  0.00    -0.237 OA
ATOM     67  O   UNL     1      -5.726  10.105   7.885  1.00  0.00    -0.237 OA
ATOM     68  O   UNL     1      -7.604  10.563   6.354  1.00  0.00    -0.744 OA
ENDBRANCH  61  65
ENDBRANCH  44  58
BRANCH  45  69
ATOM     69  C   UNL     1       6.578  13.100   3.716  1.00  0.00     0.023 A 
ATOM     70  C   UNL     1       7.493  12.793   4.737  1.00  0.00     0.031 A 
ATOM     71  C   UNL     1       7.092  13.462   2.458  1.00  0.00     0.131 A 
ATOM     72  C   UNL     1       8.872  12.890   4.492  1.00  0.00     0.055 A 
ATOM     73  C   UNL     1       8.464  13.505   2.205  1.00  0.00     0.041 A 
ATOM     74  F   UNL     1       6.263  13.761   1.446  1.00  0.00    -0.206 F 
ATOM     75  C   UNL     1       9.363  13.230   3.230  1.00  0.00     0.022 A 
BRANCH  72  76
ATOM     76  S   UNL     1      10.022  12.637   5.872  1.00  0.00     0.124 S 
ATOM     77  O   UNL     1       9.572  13.644   6.826  1.00  0.00    -0.237 OA
ATOM     78  O   UNL     1       9.759  11.248   6.231  1.00  0.00    -0.237 OA
ATOM     79  O   UNL     1      11.332  12.886   5.273  1.00  0.00    -0.744 OA
ENDBRANCH  72  76
ENDBRANCH  45  69
BRANCH  57  80
ATOM     80  C   UNL     1       2.350  16.939   7.693  1.00  0.00     0.023 A 
ATOM     81  C   UNL     1       2.828  18.164   7.194  1.00  0.00     0.031 A 
ATOM     82  C   UNL     1       2.176  16.809   9.081  1.00  0.00     0.131 A 
ATOM     83  C   UNL     1       3.179  19.190   8.082  1.00  0.00     0.055 A 
ATOM     84  C   UNL     1       2.474  17.855   9.956  1.00  0.00     0.041 A 
ATOM     85  F   UNL     1       1.723  15.662   9.609  1.00  0.00    -0.206 F 
ATOM     86  C   UNL     1       2.993  19.048   9.459  1.00  0.00     0.022 A 
BRANCH  83  87
ATOM     87  S   UNL     1       3.980  20.677   7.419  1.00  0.00     0.124 S 
ATOM     88  O   UNL     1       5.149  20.120   6.747  1.00  0.00    -0.237 OA
ATOM     89  O   UNL     1       2.946  21.227   6.549  1.00  0.00    -0.237 OA
ATOM     90  O   UNL     1       4.271  21.470   8.612  1.00  0.00    -0.744 OA
ENDBRANCH  83  87
ENDBRANCH  57  80
ENDBRANCH  31  32
ENDBRANCH  24  26
ENDBRANCH  23  24
ENDBRANCH   1  23
TORSDOF 17
