REMARK SMILES Cc1n[nH]c(CN(C)C(=O)N[C@](C)(C(=O)OCCOC(=O)c2ccc(-c3c4nc(c(-c5cc(S(=O)(=O)[O-])ccc5F)c5ccc([nH]5)c(-c5cc(S(=O)(=O)[O-])ccc5F)c5nc(c(-c6cc(S(=O)(=O)[O-])ccc6F)c6ccc3[nH]6)C=C5)C=C4)cc2)C(F)(F)F)n1
REMARK SMILES IDX 17 1 16 2 14 3 15 4 12 5 13 6 11 7 9 8 10 9 7 11 8 12 6 13
REMARK SMILES IDX 5 14 1 15 2 16 3 17 89 18 4 19 85 21 86 22 87 23 88 24 18 25
REMARK SMILES IDX 19 26 20 27 21 28 22 29 23 30 84 31 24 32 83 33 25 34 26 35
REMARK SMILES IDX 27 36 77 37 28 38 82 39 76 40 78 41 29 42 81 43 75 44 74 45
REMARK SMILES IDX 30 47 62 48 42 49 61 50 43 51 46 52 60 53 79 54 44 55 45 56
REMARK SMILES IDX 59 58 80 59 47 60 31 61 32 62 40 63 33 64 39 65 41 66 38 67
REMARK SMILES IDX 34 68 35 69 36 70 37 71 63 72 64 73 72 74 65 75 71 76 73 77
REMARK SMILES IDX 70 78 66 79 67 80 68 81 69 82 48 83 49 84 57 85 50 86 56 87
REMARK SMILES IDX 58 88 55 89 51 90 52 91 53 92 54 93
REMARK H PARENT 11 10 4 20 78 46 46 57
REMARK Flexibility Score: inf
ROOT
ATOM      1  C   UNL     1       3.749   3.485   7.062  1.00  0.00     0.274 C 
ENDROOT
BRANCH   1   2
ATOM      2  O   UNL     1       3.156   2.207   7.375  1.00  0.00    -0.460 OA
BRANCH   2   3
ATOM      3  C   UNL     1       1.816   2.001   7.233  1.00  0.00     0.341 C 
ATOM      4  O   UNL     1       1.028   2.924   7.055  1.00  0.00    -0.249 OA
BRANCH   3   5
ATOM      5  C   UNL     1       1.433   0.499   7.355  1.00  0.00     0.232 C 
ATOM      6  C   UNL     1       1.824  -0.585   6.324  1.00  0.00     0.058 C 
BRANCH   5   7
ATOM      7  N   UNL     1       1.955   0.094   8.691  1.00  0.00    -0.315 N 
ATOM      8  C   UNL     1       3.152  -0.171   9.228  1.00  0.00     0.318 C 
ATOM      9  O   UNL     1       3.105  -0.397  10.446  1.00  0.00    -0.249 OA
ATOM     10  H   UNL     1       1.231  -0.003   9.351  1.00  0.00     0.166 HD
BRANCH   8  11
ATOM     11  N   UNL     1       4.345  -0.202   8.557  1.00  0.00    -0.320 N 
ATOM     12  C   UNL     1       4.676  -0.168   7.134  1.00  0.00     0.149 C 
BRANCH  11  13
ATOM     13  C   UNL     1       5.515  -0.429   9.394  1.00  0.00     0.197 C 
BRANCH  13  14
ATOM     14  C   UNL     1       5.782   0.756  10.257  1.00  0.00     0.144 A 
ATOM     15  C   UNL     1       6.144   4.105  11.313  1.00  0.00     0.092 C 
ATOM     16  C   UNL     1       6.058   2.641  11.157  1.00  0.00     0.147 A 
ATOM     17  N   UNL     1       6.050   1.815  12.210  1.00  0.00    -0.159 NA
ATOM     18  N   UNL     1       5.947   2.026   9.936  1.00  0.00    -0.215 NA
ATOM     19  N   UNL     1       5.822   0.636  11.615  1.00  0.00    -0.262 N 
ATOM     20  H   UNL     1       5.698  -0.213  12.098  1.00  0.00     0.192 HD
ENDBRANCH  13  14
ENDBRANCH  11  13
ENDBRANCH   8  11
ENDBRANCH   5   7
BRANCH   5  21
ATOM     21  C   UNL     1      -0.118   0.521   7.295  1.00  0.00     0.422 C 
ATOM     22  F   UNL     1      -0.587   0.790   6.053  1.00  0.00    -0.168 F 
ATOM     23  F   UNL     1      -0.609  -0.706   7.631  1.00  0.00    -0.168 F 
ATOM     24  F   UNL     1      -0.691   1.387   8.159  1.00  0.00    -0.168 F 
ENDBRANCH   5  21
ENDBRANCH   3   5
ENDBRANCH   2   3
ENDBRANCH   1   2
BRANCH   1  25
ATOM     25  C   UNL     1       3.931   3.654   5.563  1.00  0.00     0.275 C 
BRANCH  25  26
ATOM     26  O   UNL     1       2.665   3.885   4.963  1.00  0.00    -0.458 OA
BRANCH  26  27
ATOM     27  C   UNL     1       2.078   2.764   4.479  1.00  0.00     0.338 C 
ATOM     28  O   UNL     1       2.386   1.616   4.678  1.00  0.00    -0.246 OA
BRANCH  27  29
ATOM     29  C   UNL     1       1.131   3.130   3.456  1.00  0.00     0.060 A 
ATOM     30  C   UNL     1       0.196   2.194   3.017  1.00  0.00     0.016 A 
ATOM     31  C   UNL     1       1.510   4.219   2.698  1.00  0.00     0.016 A 
ATOM     32  C   UNL     1      -0.035   2.158   1.654  1.00  0.00     0.010 A 
ATOM     33  C   UNL     1       0.962   4.316   1.470  1.00  0.00     0.010 A 
ATOM     34  C   UNL     1       0.536   3.157   0.849  1.00  0.00    -0.014 A 
BRANCH  34  35
ATOM     35  C   UNL     1       0.230   3.343  -0.563  1.00  0.00     0.031 A 
ATOM     36  C   UNL     1      -1.257   3.542  -0.646  1.00  0.00     0.074 A 
ATOM     37  C   UNL     1       1.185   3.455  -1.539  1.00  0.00     0.049 A 
ATOM     38  N   UNL     1      -2.094   2.583  -0.883  1.00  0.00    -0.248 NA
ATOM     39  C   UNL     1      -1.938   4.704  -0.014  1.00  0.00     0.031 C 
ATOM     40  C   UNL     1       2.655   3.289  -1.517  1.00  0.00     0.029 A 
ATOM     41  N   UNL     1       0.997   3.756  -2.871  1.00  0.00    -0.354 N 
ATOM     42  C   UNL     1      -3.351   3.167  -0.843  1.00  0.00     0.074 A 
ATOM     43  C   UNL     1      -3.218   4.319  -0.011  1.00  0.00     0.031 C 
ATOM     44  C   UNL     1       3.215   3.743  -2.679  1.00  0.00     0.029 A 
ATOM     45  C   UNL     1       2.162   4.134  -3.604  1.00  0.00     0.049 A 
ATOM     46  H   UNL     1       0.109   3.711  -3.293  1.00  0.00     0.167 HD
ATOM     47  C   UNL     1      -4.249   2.870  -1.818  1.00  0.00     0.034 A 
ATOM     48  C   UNL     1       2.216   4.573  -4.919  1.00  0.00     0.034 A 
ATOM     49  C   UNL     1      -3.799   1.702  -2.541  1.00  0.00     0.049 A 
ATOM     50  C   UNL     1       0.945   4.066  -5.524  1.00  0.00     0.074 A 
ATOM     51  C   UNL     1      -3.557   0.391  -2.189  1.00  0.00     0.029 A 
ATOM     52  N   UNL     1      -3.040   1.959  -3.661  1.00  0.00    -0.354 N 
ATOM     53  N   UNL     1       0.743   2.781  -5.686  1.00  0.00    -0.248 NA
ATOM     54  C   UNL     1      -0.255   4.867  -5.283  1.00  0.00     0.031 C 
ATOM     55  C   UNL     1      -2.324   0.065  -2.828  1.00  0.00     0.029 A 
ATOM     56  C   UNL     1      -1.962   1.108  -3.684  1.00  0.00     0.049 A 
ATOM     57  H   UNL     1      -3.238   2.646  -4.339  1.00  0.00     0.167 HD
ATOM     58  C   UNL     1      -0.495   2.543  -5.107  1.00  0.00     0.074 A 
ATOM     59  C   UNL     1      -1.075   3.880  -4.889  1.00  0.00     0.031 C 
ATOM     60  C   UNL     1      -0.781   1.350  -4.493  1.00  0.00     0.034 A 
BRANCH  47  61
ATOM     61  C   UNL     1      -5.214   3.848  -2.440  1.00  0.00     0.023 A 
ATOM     62  C   UNL     1      -6.101   3.320  -3.394  1.00  0.00     0.031 A 
ATOM     63  C   UNL     1      -5.110   5.257  -2.402  1.00  0.00     0.131 A 
ATOM     64  C   UNL     1      -6.762   4.157  -4.306  1.00  0.00     0.055 A 
ATOM     65  C   UNL     1      -5.824   6.091  -3.269  1.00  0.00     0.041 A 
ATOM     66  F   UNL     1      -4.246   5.897  -1.605  1.00  0.00    -0.206 F 
ATOM     67  C   UNL     1      -6.638   5.542  -4.245  1.00  0.00     0.022 A 
BRANCH  64  68
ATOM     68  S   UNL     1      -7.649   3.377  -5.678  1.00  0.00     0.124 S 
ATOM     69  O   UNL     1      -6.587   2.611  -6.319  1.00  0.00    -0.237 OA
ATOM     70  O   UNL     1      -8.667   2.602  -4.975  1.00  0.00    -0.237 OA
ATOM     71  O   UNL     1      -8.152   4.514  -6.445  1.00  0.00    -0.744 OA
ENDBRANCH  64  68
ENDBRANCH  47  61
BRANCH  48  72
ATOM     72  C   UNL     1       2.969   5.770  -5.512  1.00  0.00     0.023 A 
ATOM     73  C   UNL     1       3.170   6.097  -6.902  1.00  0.00     0.031 A 
ATOM     74  C   UNL     1       3.309   6.797  -4.608  1.00  0.00     0.131 A 
ATOM     75  C   UNL     1       3.687   7.383  -7.293  1.00  0.00     0.055 A 
ATOM     76  C   UNL     1       3.775   8.057  -5.001  1.00  0.00     0.041 A 
ATOM     77  F   UNL     1       3.124   6.638  -3.290  1.00  0.00    -0.206 F 
ATOM     78  C   UNL     1       3.957   8.360  -6.337  1.00  0.00     0.022 A 
BRANCH  75  79
ATOM     79  S   UNL     1       4.037   7.880  -9.046  1.00  0.00     0.124 S 
ATOM     80  O   UNL     1       5.094   6.955  -9.437  1.00  0.00    -0.237 OA
ATOM     81  O   UNL     1       2.747   7.710  -9.702  1.00  0.00    -0.237 OA
ATOM     82  O   UNL     1       4.474   9.275  -8.931  1.00  0.00    -0.744 OA
ENDBRANCH  75  79
ENDBRANCH  48  72
BRANCH  60  83
ATOM     83  C   UNL     1       0.221   0.209  -4.603  1.00  0.00     0.023 A 
ATOM     84  C   UNL     1       1.546   0.182  -4.092  1.00  0.00     0.031 A 
ATOM     85  C   UNL     1      -0.266  -0.971  -5.184  1.00  0.00     0.131 A 
ATOM     86  C   UNL     1       2.333  -0.987  -4.227  1.00  0.00     0.055 A 
ATOM     87  C   UNL     1       0.495  -2.133  -5.270  1.00  0.00     0.041 A 
ATOM     88  F   UNL     1      -1.523  -1.023  -5.654  1.00  0.00    -0.206 F 
ATOM     89  C   UNL     1       1.803  -2.143  -4.807  1.00  0.00     0.022 A 
BRANCH  86  90
ATOM     90  S   UNL     1       4.094  -1.008  -3.728  1.00  0.00     0.124 S 
ATOM     91  O   UNL     1       4.638   0.171  -4.391  1.00  0.00    -0.237 OA
ATOM     92  O   UNL     1       4.020  -0.940  -2.272  1.00  0.00    -0.237 OA
ATOM     93  O   UNL     1       4.584  -2.284  -4.253  1.00  0.00    -0.744 OA
ENDBRANCH  86  90
ENDBRANCH  60  83
ENDBRANCH  34  35
ENDBRANCH  27  29
ENDBRANCH  26  27
ENDBRANCH  25  26
ENDBRANCH   1  25
TORSDOF 19
