REMARK SMILES CC(=O)Nc1ccc(/C=N/c2ccccc2C(=O)OCCOC(=O)c2ccc(-c3c4nc(c(-c5cc(S(=O)(=O)[O-])ccc5F)c5ccc([nH]5)c(-c5cc(S(=O)(=O)[O-])ccc5F)c5nc(c(-c6cc(S(=O)(=O)[O-])ccc6F)c6ccc3[nH]6)C=C5)C=C4)cc2)cc1
REMARK SMILES IDX 20 1 19 2 17 3 18 4 16 5 11 6 12 7 13 8 15 9 14 10 10 11
REMARK SMILES IDX 9 12 8 13 5 14 6 15 89 16 7 17 88 18 4 19 1 20 2 21 3 22
REMARK SMILES IDX 21 24 22 25 23 26 24 27 25 28 26 29 87 30 27 31 86 32 28 33
REMARK SMILES IDX 29 34 30 35 80 36 31 37 85 38 79 39 81 40 32 41 84 42 78 43
REMARK SMILES IDX 77 44 33 46 65 47 45 48 64 49 46 50 49 51 63 52 82 53 47 54
REMARK SMILES IDX 48 55 62 57 83 58 50 59 34 60 35 61 43 62 36 63 42 64 44 65
REMARK SMILES IDX 41 66 37 67 38 68 39 69 40 70 66 71 67 72 75 73 68 74 74 75
REMARK SMILES IDX 76 76 73 77 69 78 70 79 71 80 72 81 51 82 52 83 60 84 53 85
REMARK SMILES IDX 59 86 61 87 58 88 54 89 55 90 56 91 57 92
REMARK H PARENT 4 23 81 45 49 56
REMARK Flexibility Score: inf
ROOT
ATOM      1  C   UNL     1       6.813   1.813   4.102  1.00  0.00     0.275 C 
ENDROOT
BRANCH   1   2
ATOM      2  O   UNL     1       6.268   1.735   5.434  1.00  0.00    -0.458 OA
BRANCH   2   3
ATOM      3  C   UNL     1       6.570   0.627   6.153  1.00  0.00     0.340 C 
ATOM      4  O   UNL     1       7.344  -0.258   5.821  1.00  0.00    -0.246 OA
BRANCH   3   5
ATOM      5  C   UNL     1       5.842   0.590   7.444  1.00  0.00     0.085 A 
ATOM      6  C   UNL     1       4.462   0.851   7.552  1.00  0.00     0.077 A 
ATOM      7  C   UNL     1       3.867   0.762   8.819  1.00  0.00     0.029 A 
ATOM      8  C   UNL     1       4.607   0.405   9.948  1.00  0.00     0.002 A 
ATOM      9  C   UNL     1       6.573   0.191   8.577  1.00  0.00     0.018 A 
ATOM     10  C   UNL     1       5.962   0.119   9.827  1.00  0.00     0.001 A 
BRANCH   6  11
ATOM     11  N   UNL     1       3.624   1.244   6.490  1.00  0.00    -0.255 NA
ATOM     12  C   UNL     1       3.619   0.518   5.420  1.00  0.00     0.119 C 
BRANCH  12  13
ATOM     13  C   UNL     1       2.885   0.945   4.220  1.00  0.00    -0.007 A 
ATOM     14  C   UNL     1       1.523   1.724   1.907  1.00  0.00     0.041 A 
ATOM     15  C   UNL     1       1.246   2.340   3.134  1.00  0.00     0.027 A 
ATOM     16  C   UNL     1       2.544   0.772   1.839  1.00  0.00     0.027 A 
ATOM     17  C   UNL     1       1.919   1.947   4.292  1.00  0.00     0.012 A 
ATOM     18  C   UNL     1       3.217   0.370   2.995  1.00  0.00     0.012 A 
BRANCH  14  19
ATOM     19  N   UNL     1       0.763   2.136   0.802  1.00  0.00    -0.326 N 
ATOM     20  C   UNL     1       0.794   0.057  -0.576  1.00  0.00     0.114 C 
ATOM     21  C   UNL     1       0.469   1.512  -0.376  1.00  0.00     0.221 C 
ATOM     22  O   UNL     1      -0.124   2.146  -1.253  1.00  0.00    -0.275 OA
ATOM     23  H   UNL     1       0.372   3.035   0.893  1.00  0.00     0.169 HD
ENDBRANCH  14  19
ENDBRANCH  12  13
ENDBRANCH   6  11
ENDBRANCH   3   5
ENDBRANCH   2   3
ENDBRANCH   1   2
BRANCH   1  24
ATOM     24  C   UNL     1       7.721   3.028   3.961  1.00  0.00     0.275 C 
BRANCH  24  25
ATOM     25  O   UNL     1       8.859   2.850   4.816  1.00  0.00    -0.458 OA
BRANCH  25  26
ATOM     26  C   UNL     1       8.908   3.670   5.888  1.00  0.00     0.338 C 
ATOM     27  O   UNL     1       8.196   4.632   6.131  1.00  0.00    -0.246 OA
BRANCH  26  28
ATOM     28  C   UNL     1       9.954   3.185   6.792  1.00  0.00     0.060 A 
ATOM     29  C   UNL     1       9.715   2.026   7.528  1.00  0.00     0.016 A 
ATOM     30  C   UNL     1      11.116   3.925   6.989  1.00  0.00     0.016 A 
ATOM     31  C   UNL     1      10.601   1.638   8.526  1.00  0.00     0.010 A 
ATOM     32  C   UNL     1      12.045   3.489   7.938  1.00  0.00     0.010 A 
ATOM     33  C   UNL     1      11.780   2.363   8.742  1.00  0.00    -0.014 A 
BRANCH  33  34
ATOM     34  C   UNL     1      12.695   2.005   9.860  1.00  0.00     0.031 A 
ATOM     35  C   UNL     1      12.964   3.013  10.946  1.00  0.00     0.074 A 
ATOM     36  C   UNL     1      13.278   0.792   9.915  1.00  0.00     0.049 A 
ATOM     37  N   UNL     1      13.885   3.012  11.875  1.00  0.00    -0.248 NA
ATOM     38  C   UNL     1      12.090   4.194  10.965  1.00  0.00     0.031 C 
ATOM     39  C   UNL     1      13.058  -0.298   8.963  1.00  0.00     0.029 A 
ATOM     40  N   UNL     1      14.181   0.273  10.810  1.00  0.00    -0.354 N 
ATOM     41  C   UNL     1      13.742   4.221  12.551  1.00  0.00     0.074 A 
ATOM     42  C   UNL     1      12.655   4.931  11.909  1.00  0.00     0.031 C 
ATOM     43  C   UNL     1      13.789  -1.360   9.335  1.00  0.00     0.029 A 
ATOM     44  C   UNL     1      14.598  -0.999  10.493  1.00  0.00     0.049 A 
ATOM     45  H   UNL     1      14.499   0.764  11.602  1.00  0.00     0.167 HD
ATOM     46  C   UNL     1      14.455   4.690  13.606  1.00  0.00     0.034 A 
ATOM     47  C   UNL     1      15.562  -1.768  11.036  1.00  0.00     0.034 A 
ATOM     48  C   UNL     1      15.508   3.942  14.253  1.00  0.00     0.049 A 
ATOM     49  C   UNL     1      16.367  -1.220  12.184  1.00  0.00     0.074 A 
ATOM     50  C   UNL     1      16.296   4.310  15.330  1.00  0.00     0.029 A 
ATOM     51  N   UNL     1      15.914   2.664  13.886  1.00  0.00    -0.354 N 
ATOM     52  N   UNL     1      16.283  -0.044  12.763  1.00  0.00    -0.248 NA
ATOM     53  C   UNL     1      17.404  -2.097  12.740  1.00  0.00     0.031 C 
ATOM     54  C   UNL     1      17.212   3.279  15.579  1.00  0.00     0.029 A 
ATOM     55  C   UNL     1      16.952   2.237  14.702  1.00  0.00     0.049 A 
ATOM     56  H   UNL     1      15.522   2.137  13.153  1.00  0.00     0.167 HD
ATOM     57  C   UNL     1      17.257  -0.042  13.756  1.00  0.00     0.074 A 
ATOM     58  C   UNL     1      17.897  -1.342  13.712  1.00  0.00     0.031 C 
ATOM     59  C   UNL     1      17.595   0.946  14.625  1.00  0.00     0.034 A 
BRANCH  46  60
ATOM     60  C   UNL     1      14.158   6.099  14.068  1.00  0.00     0.023 A 
ATOM     61  C   UNL     1      12.901   6.471  14.576  1.00  0.00     0.031 A 
ATOM     62  C   UNL     1      15.132   7.105  13.931  1.00  0.00     0.131 A 
ATOM     63  C   UNL     1      12.622   7.822  14.837  1.00  0.00     0.055 A 
ATOM     64  C   UNL     1      14.877   8.434  14.278  1.00  0.00     0.041 A 
ATOM     65  F   UNL     1      16.346   6.819  13.432  1.00  0.00    -0.206 F 
ATOM     66  C   UNL     1      13.609   8.803  14.714  1.00  0.00     0.022 A 
BRANCH  63  67
ATOM     67  S   UNL     1      10.904   8.303  15.169  1.00  0.00     0.124 S 
ATOM     68  O   UNL     1      10.222   7.805  13.977  1.00  0.00    -0.237 OA
ATOM     69  O   UNL     1      10.615   7.599  16.413  1.00  0.00    -0.237 OA
ATOM     70  O   UNL     1      10.970   9.759  15.277  1.00  0.00    -0.744 OA
ENDBRANCH  63  67
ENDBRANCH  46  60
BRANCH  47  71
ATOM     71  C   UNL     1      15.869  -3.100  10.444  1.00  0.00     0.023 A 
ATOM     72  C   UNL     1      15.626  -4.287  11.151  1.00  0.00     0.031 A 
ATOM     73  C   UNL     1      16.411  -3.201   9.149  1.00  0.00     0.131 A 
ATOM     74  C   UNL     1      15.940  -5.524  10.565  1.00  0.00     0.055 A 
ATOM     75  C   UNL     1      16.677  -4.433   8.553  1.00  0.00     0.041 A 
ATOM     76  F   UNL     1      16.660  -2.094   8.431  1.00  0.00    -0.206 F 
ATOM     77  C   UNL     1      16.448  -5.606   9.266  1.00  0.00     0.022 A 
BRANCH  74  78
ATOM     78  S   UNL     1      15.712  -7.035  11.543  1.00  0.00     0.124 S 
ATOM     79  O   UNL     1      16.621  -6.807  12.660  1.00  0.00    -0.237 OA
ATOM     80  O   UNL     1      14.287  -6.984  11.854  1.00  0.00    -0.237 OA
ATOM     81  O   UNL     1      16.107  -8.100  10.622  1.00  0.00    -0.744 OA
ENDBRANCH  74  78
ENDBRANCH  47  71
BRANCH  59  82
ATOM     82  C   UNL     1      18.691   0.632  15.612  1.00  0.00     0.023 A 
ATOM     83  C   UNL     1      20.026   0.467  15.202  1.00  0.00     0.031 A 
ATOM     84  C   UNL     1      18.390   0.473  16.975  1.00  0.00     0.131 A 
ATOM     85  C   UNL     1      21.002   0.098  16.140  1.00  0.00     0.055 A 
ATOM     86  C   UNL     1      19.375   0.159  17.912  1.00  0.00     0.041 A 
ATOM     87  F   UNL     1      17.131   0.617  17.418  1.00  0.00    -0.206 F 
ATOM     88  C   UNL     1      20.688  -0.043  17.494  1.00  0.00     0.022 A 
BRANCH  85  89
ATOM     89  S   UNL     1      22.675  -0.283  15.553  1.00  0.00     0.124 S 
ATOM     90  O   UNL     1      22.427  -1.377  14.619  1.00  0.00    -0.237 OA
ATOM     91  O   UNL     1      23.093   0.982  14.957  1.00  0.00    -0.237 OA
ATOM     92  O   UNL     1      23.390  -0.659  16.771  1.00  0.00    -0.744 OA
ENDBRANCH  85  89
ENDBRANCH  59  82
ENDBRANCH  33  34
ENDBRANCH  26  28
ENDBRANCH  25  26
ENDBRANCH  24  25
ENDBRANCH   1  24
TORSDOF 17
