REMARK SMILES CCCCc1ncc(C[N@H+]2C[C@@H]3c4ccccc4OC[C@]3(C(=O)OCCOC(=O)c3ccc(-c4c5nc(c(-c6cc(S(=O)(=O)[O-])ccc6F)c6ccc([nH]6)c(-c6cc(S(=O)(=O)[O-])ccc6F)c6nc(c(-c7cc(S(=O)(=O)[O-])ccc7F)c7ccc4[nH]7)C=C6)C=C5)cc3)C2)[nH]1
REMARK SMILES IDX 25 1 24 2 22 3 23 4 21 5 10 6 11 7 93 8 12 10 13 11 20 12
REMARK SMILES IDX 14 13 18 14 19 15 15 16 17 17 16 18 9 19 8 20 5 21 6 22
REMARK SMILES IDX 94 23 7 24 4 26 3 27 2 28 1 29 26 30 27 31 28 32 29 33 30 34
REMARK SMILES IDX 31 35 92 36 32 37 91 38 33 39 34 40 35 41 85 42 36 43 90 44
REMARK SMILES IDX 84 45 86 46 37 47 89 48 83 49 82 50 38 52 70 53 50 54 69 55
REMARK SMILES IDX 51 56 54 57 68 58 87 59 52 60 53 61 67 63 88 64 55 65 39 66
REMARK SMILES IDX 40 67 48 68 41 69 47 70 49 71 46 72 42 73 43 74 44 75 45 76
REMARK SMILES IDX 71 77 72 78 80 79 73 80 79 81 81 82 78 83 74 84 75 85 76 86
REMARK SMILES IDX 77 87 56 88 57 89 65 90 58 91 64 92 66 93 63 94 59 95 60 96
REMARK SMILES IDX 61 97 62 98
REMARK H PARENT 10 9 94 25 86 51 54 62
REMARK Flexibility Score: inf
ROOT
ATOM      1  C   UNL     1      -1.223  -3.551  -1.384  1.00  0.00     0.274 C 
ENDROOT
BRANCH   1   2
ATOM      2  O   UNL     1      -2.258  -2.547  -1.302  1.00  0.00    -0.461 OA
BRANCH   2   3
ATOM      3  C   UNL     1      -2.023  -1.310  -1.846  1.00  0.00     0.322 C 
ATOM      4  O   UNL     1      -0.921  -0.846  -2.077  1.00  0.00    -0.251 OA
BRANCH   3   5
ATOM      5  C   UNL     1      -3.361  -0.628  -2.106  1.00  0.00     0.162 C 
ATOM      6  N   UNL     1      -4.681   0.761  -0.605  1.00  0.00    -0.328 N 
ATOM      7  C   UNL     1      -4.540   1.449  -1.883  1.00  0.00     0.272 C 
ATOM      8  C   UNL     1      -4.007  -0.529  -0.705  1.00  0.00     0.286 C 
ATOM      9  H   UNL     1      -5.672   0.592  -0.434  1.00  0.00     0.348 HD
ATOM     10  C   UNL     1      -3.304   0.834  -2.553  1.00  0.00     0.105 C 
ATOM     11  C   UNL     1      -3.405   1.055  -4.030  1.00  0.00     0.004 A 
ATOM     12  C   UNL     1      -4.114  -1.537  -3.101  1.00  0.00     0.255 C 
ATOM     13  C   UNL     1      -3.022   2.280  -4.601  1.00  0.00     0.008 A 
ATOM     14  C   UNL     1      -4.032   0.107  -4.828  1.00  0.00     0.123 A 
ATOM     15  O   UNL     1      -4.634  -0.996  -4.312  1.00  0.00    -0.492 OA
ATOM     16  C   UNL     1      -3.231   2.524  -5.959  1.00  0.00     0.001 A 
ATOM     17  C   UNL     1      -4.203   0.332  -6.194  1.00  0.00     0.047 A 
ATOM     18  C   UNL     1      -3.799   1.539  -6.763  1.00  0.00     0.004 A 
BRANCH   6  19
ATOM     19  C   UNL     1      -4.377   1.555   0.583  1.00  0.00     0.319 C 
BRANCH  19  20
ATOM     20  C   UNL     1      -3.156   2.406   0.530  1.00  0.00     0.090 A 
ATOM     21  C   UNL     1      -1.019   3.032   0.472  1.00  0.00     0.106 A 
ATOM     22  N   UNL     1      -1.707   4.147   0.608  1.00  0.00    -0.241 NA
ATOM     23  N   UNL     1      -1.867   1.953   0.400  1.00  0.00    -0.341 N 
ATOM     24  C   UNL     1      -3.022   3.776   0.625  1.00  0.00     0.140 A 
ATOM     25  H   UNL     1      -1.596   1.014   0.276  1.00  0.00     0.168 HD
BRANCH  21  26
ATOM     26  C   UNL     1       0.466   2.929   0.347  1.00  0.00     0.075 C 
BRANCH  26  27
ATOM     27  C   UNL     1       1.141   2.141   1.476  1.00  0.00     0.008 C 
BRANCH  27  28
ATOM     28  C   UNL     1       0.943   0.621   1.462  1.00  0.00    -0.003 C 
ATOM     29  C   UNL     1       1.389  -0.045   0.171  1.00  0.00     0.004 C 
ENDBRANCH  27  28
ENDBRANCH  26  27
ENDBRANCH  21  26
ENDBRANCH  19  20
ENDBRANCH   6  19
ENDBRANCH   3   5
ENDBRANCH   2   3
ENDBRANCH   1   2
BRANCH   1  30
ATOM     30  C   UNL     1      -1.494  -4.396  -2.628  1.00  0.00     0.275 C 
BRANCH  30  31
ATOM     31  O   UNL     1      -1.096  -3.603  -3.754  1.00  0.00    -0.458 OA
BRANCH  31  32
ATOM     32  C   UNL     1      -1.723  -3.831  -4.928  1.00  0.00     0.338 C 
ATOM     33  O   UNL     1      -2.529  -4.720  -5.166  1.00  0.00    -0.246 OA
BRANCH  32  34
ATOM     34  C   UNL     1      -1.218  -2.837  -5.894  1.00  0.00     0.060 A 
ATOM     35  C   UNL     1      -0.963  -3.227  -7.206  1.00  0.00     0.016 A 
ATOM     36  C   UNL     1      -0.948  -1.524  -5.489  1.00  0.00     0.016 A 
ATOM     37  C   UNL     1      -0.329  -2.332  -8.069  1.00  0.00     0.010 A 
ATOM     38  C   UNL     1      -0.391  -0.609  -6.373  1.00  0.00     0.010 A 
ATOM     39  C   UNL     1      -0.011  -1.025  -7.650  1.00  0.00    -0.014 A 
BRANCH  39  40
ATOM     40  C   UNL     1       0.765  -0.121  -8.534  1.00  0.00     0.031 A 
ATOM     41  C   UNL     1       2.158   0.307  -8.150  1.00  0.00     0.074 A 
ATOM     42  C   UNL     1       0.219   0.286  -9.695  1.00  0.00     0.049 A 
ATOM     43  N   UNL     1       3.034   0.978  -8.852  1.00  0.00    -0.248 NA
ATOM     44  C   UNL     1       2.627  -0.045  -6.798  1.00  0.00     0.031 C 
ATOM     45  C   UNL     1      -1.148  -0.013 -10.119  1.00  0.00     0.029 A 
ATOM     46  N   UNL     1       0.744   1.010 -10.735  1.00  0.00    -0.354 N 
ATOM     47  C   UNL     1       4.149   1.124  -8.034  1.00  0.00     0.074 A 
ATOM     48  C   UNL     1       3.817   0.537  -6.758  1.00  0.00     0.031 C 
ATOM     49  C   UNL     1      -1.334   0.464 -11.358  1.00  0.00     0.029 A 
ATOM     50  C   UNL     1      -0.114   1.136 -11.803  1.00  0.00     0.049 A 
ATOM     51  H   UNL     1       1.647   1.401 -10.719  1.00  0.00     0.167 HD
ATOM     52  C   UNL     1       5.353   1.665  -8.336  1.00  0.00     0.034 A 
ATOM     53  C   UNL     1       0.069   1.706 -13.012  1.00  0.00     0.034 A 
ATOM     54  C   UNL     1       5.665   2.220  -9.627  1.00  0.00     0.049 A 
ATOM     55  C   UNL     1       1.427   2.274 -13.342  1.00  0.00     0.074 A 
ATOM     56  C   UNL     1       6.868   2.742 -10.064  1.00  0.00     0.029 A 
ATOM     57  N   UNL     1       4.773   2.321 -10.687  1.00  0.00    -0.354 N 
ATOM     58  N   UNL     1       2.508   2.304 -12.596  1.00  0.00    -0.248 NA
ATOM     59  C   UNL     1       1.605   2.868 -14.674  1.00  0.00     0.031 C 
ATOM     60  C   UNL     1       6.687   3.218 -11.362  1.00  0.00     0.029 A 
ATOM     61  C   UNL     1       5.395   2.918 -11.769  1.00  0.00     0.049 A 
ATOM     62  H   UNL     1       3.838   2.013 -10.671  1.00  0.00     0.167 HD
ATOM     63  C   UNL     1       3.498   2.895 -13.375  1.00  0.00     0.074 A 
ATOM     64  C   UNL     1       2.894   3.187 -14.659  1.00  0.00     0.031 C 
ATOM     65  C   UNL     1       4.787   3.174 -13.054  1.00  0.00     0.034 A 
BRANCH  52  66
ATOM     66  C   UNL     1       6.444   1.656  -7.290  1.00  0.00     0.023 A 
ATOM     67  C   UNL     1       7.013   2.865  -6.847  1.00  0.00     0.031 A 
ATOM     68  C   UNL     1       7.013   0.452  -6.836  1.00  0.00     0.131 A 
ATOM     69  C   UNL     1       8.134   2.843  -6.007  1.00  0.00     0.055 A 
ATOM     70  C   UNL     1       8.100   0.436  -5.960  1.00  0.00     0.041 A 
ATOM     71  F   UNL     1       6.516  -0.731  -7.232  1.00  0.00    -0.206 F 
ATOM     72  C   UNL     1       8.674   1.635  -5.553  1.00  0.00     0.022 A 
BRANCH  69  73
ATOM     73  S   UNL     1       8.981   4.373  -5.525  1.00  0.00     0.124 S 
ATOM     74  O   UNL     1       8.903   4.313  -4.067  1.00  0.00    -0.237 OA
ATOM     75  O   UNL     1      10.315   4.173  -6.085  1.00  0.00    -0.237 OA
ATOM     76  O   UNL     1       8.186   5.426  -6.146  1.00  0.00    -0.744 OA
ENDBRANCH  69  73
ENDBRANCH  52  66
BRANCH  53  77
ATOM     77  C   UNL     1      -1.045   1.665 -14.006  1.00  0.00     0.023 A 
ATOM     78  C   UNL     1      -2.283   2.274 -13.726  1.00  0.00     0.031 A 
ATOM     79  C   UNL     1      -0.936   0.904 -15.182  1.00  0.00     0.131 A 
ATOM     80  C   UNL     1      -3.379   2.046 -14.568  1.00  0.00     0.055 A 
ATOM     81  C   UNL     1      -2.012   0.743 -16.058  1.00  0.00     0.041 A 
ATOM     82  F   UNL     1       0.216   0.288 -15.485  1.00  0.00    -0.206 F 
ATOM     83  C   UNL     1      -3.248   1.299 -15.742  1.00  0.00     0.022 A 
BRANCH  80  84
ATOM     84  S   UNL     1      -5.045   2.581 -14.086  1.00  0.00     0.124 S 
ATOM     85  O   UNL     1      -5.395   3.498 -15.165  1.00  0.00    -0.237 OA
ATOM     86  O   UNL     1      -5.774   1.314 -14.073  1.00  0.00    -0.237 OA
ATOM     87  O   UNL     1      -4.845   3.192 -12.776  1.00  0.00    -0.744 OA
ENDBRANCH  80  84
ENDBRANCH  53  77
BRANCH  65  88
ATOM     88  C   UNL     1       5.675   3.823 -14.088  1.00  0.00     0.023 A 
ATOM     89  C   UNL     1       6.834   3.153 -14.527  1.00  0.00     0.031 A 
ATOM     90  C   UNL     1       5.497   5.165 -14.463  1.00  0.00     0.131 A 
ATOM     91  C   UNL     1       7.803   3.848 -15.259  1.00  0.00     0.055 A 
ATOM     92  C   UNL     1       6.441   5.837 -15.240  1.00  0.00     0.041 A 
ATOM     93  F   UNL     1       4.415   5.849 -14.056  1.00  0.00    -0.206 F 
ATOM     94  C   UNL     1       7.610   5.184 -15.623  1.00  0.00     0.022 A 
BRANCH  91  95
ATOM     95  S   UNL     1       9.399   3.081 -15.659  1.00  0.00     0.124 S 
ATOM     96  O   UNL     1       9.418   3.168 -17.117  1.00  0.00    -0.237 OA
ATOM     97  O   UNL     1      10.341   3.958 -14.970  1.00  0.00    -0.237 OA
ATOM     98  O   UNL     1       9.287   1.730 -15.120  1.00  0.00    -0.744 OA
ENDBRANCH  91  95
ENDBRANCH  65  88
ENDBRANCH  39  40
ENDBRANCH  32  34
ENDBRANCH  31  32
ENDBRANCH  30  31
ENDBRANCH   1  30
TORSDOF 19
