REMARK SMILES C=C(C)C(=O)OCC[C@@H](C(C)=O)C(=O)OCCOC(=O)c1ccc(-c2c3nc(c(-c4cc(S(=O)(=O)[O-])ccc4F)c4ccc([nH]4)c(-c4cc(S(=O)(=O)[O-])ccc4F)c4nc(c(-c5cc(S(=O)(=O)[O-])ccc5F)c5ccc2[nH]5)C=C4)C=C3)cc1
REMARK SMILES IDX 16 1 15 2 13 3 14 4 9 5 8 6 7 7 6 8 4 9 5 10 2 11 1 12 3 13
REMARK SMILES IDX 10 14 11 15 12 16 17 17 18 18 19 19 20 20 21 21 22 22 83 23
REMARK SMILES IDX 23 24 82 25 24 26 25 27 26 28 76 29 27 30 81 31 75 32 77 33
REMARK SMILES IDX 28 34 80 35 74 36 73 37 29 39 61 40 41 41 60 42 42 43 45 44
REMARK SMILES IDX 59 45 78 46 43 47 44 48 58 50 79 51 46 52 30 53 31 54 39 55
REMARK SMILES IDX 32 56 38 57 40 58 37 59 33 60 34 61 35 62 36 63 62 64 63 65
REMARK SMILES IDX 71 66 64 67 70 68 72 69 69 70 65 71 66 72 67 73 68 74 47 75
REMARK SMILES IDX 48 76 56 77 49 78 55 79 57 80 54 81 50 82 51 83 52 84 53 85
REMARK H PARENT 77 38 45 49
REMARK Flexibility Score: inf
ROOT
ATOM      1  C   UNL     1       5.142  -5.545   3.616  1.00  0.00     0.274 C 
ENDROOT
BRANCH   1   2
ATOM      2  O   UNL     1       4.348  -4.427   4.058  1.00  0.00    -0.462 OA
BRANCH   2   3
ATOM      3  C   UNL     1       4.261  -3.387   3.187  1.00  0.00     0.316 C 
ATOM      4  O   UNL     1       4.810  -3.349   2.092  1.00  0.00    -0.251 OA
BRANCH   3   5
ATOM      5  C   UNL     1       3.497  -2.212   3.748  1.00  0.00     0.169 C 
BRANCH   5   6
ATOM      6  C   UNL     1       2.172  -2.637   4.401  1.00  0.00     0.065 C 
BRANCH   6   7
ATOM      7  C   UNL     1       1.133  -1.515   4.468  1.00  0.00     0.234 C 
BRANCH   7   8
ATOM      8  O   UNL     1       0.508  -1.311   3.187  1.00  0.00    -0.462 OA
BRANCH   8   9
ATOM      9  C   UNL     1       0.934  -0.252   2.454  1.00  0.00     0.333 C 
ATOM     10  O   UNL     1       1.880   0.469   2.732  1.00  0.00    -0.247 OA
BRANCH   9  11
ATOM     11  C   UNL     1       0.114  -0.128   1.220  1.00  0.00     0.027 C 
ATOM     12  C   UNL     1       0.693   0.410   0.133  1.00  0.00     0.020 C 
ATOM     13  C   UNL     1      -1.316  -0.569   1.249  1.00  0.00     0.051 C 
ENDBRANCH   9  11
ENDBRANCH   8   9
ENDBRANCH   7   8
ENDBRANCH   6   7
ENDBRANCH   5   6
BRANCH   5  14
ATOM     14  C   UNL     1       4.381  -1.400   4.681  1.00  0.00     0.144 C 
ATOM     15  C   UNL     1       5.728  -0.967   4.152  1.00  0.00     0.088 C 
ATOM     16  O   UNL     1       4.027  -1.081   5.818  1.00  0.00    -0.299 OA
ENDBRANCH   5  14
ENDBRANCH   3   5
ENDBRANCH   2   3
ENDBRANCH   1   2
BRANCH   1  17
ATOM     17  C   UNL     1       4.287  -6.659   3.008  1.00  0.00     0.275 C 
BRANCH  17  18
ATOM     18  O   UNL     1       3.637  -6.231   1.799  1.00  0.00    -0.458 OA
BRANCH  18  19
ATOM     19  C   UNL     1       2.349  -5.839   1.949  1.00  0.00     0.338 C 
ATOM     20  O   UNL     1       1.692  -5.846   2.974  1.00  0.00    -0.246 OA
BRANCH  19  21
ATOM     21  C   UNL     1       1.859  -5.285   0.679  1.00  0.00     0.060 A 
ATOM     22  C   UNL     1       1.708  -3.901   0.566  1.00  0.00     0.016 A 
ATOM     23  C   UNL     1       1.473  -6.129  -0.363  1.00  0.00     0.016 A 
ATOM     24  C   UNL     1       1.165  -3.355  -0.594  1.00  0.00     0.010 A 
ATOM     25  C   UNL     1       0.933  -5.575  -1.529  1.00  0.00     0.010 A 
ATOM     26  C   UNL     1       0.766  -4.184  -1.648  1.00  0.00    -0.014 A 
BRANCH  26  27
ATOM     27  C   UNL     1       0.127  -3.598  -2.853  1.00  0.00     0.031 A 
ATOM     28  C   UNL     1      -1.343  -3.797  -3.089  1.00  0.00     0.074 A 
ATOM     29  C   UNL     1       0.860  -2.881  -3.726  1.00  0.00     0.049 A 
ATOM     30  N   UNL     1      -2.064  -3.493  -4.136  1.00  0.00    -0.248 NA
ATOM     31  C   UNL     1      -2.099  -4.426  -1.996  1.00  0.00     0.031 C 
ATOM     32  C   UNL     1       2.280  -2.561  -3.571  1.00  0.00     0.029 A 
ATOM     33  N   UNL     1       0.515  -2.303  -4.922  1.00  0.00    -0.354 N 
ATOM     34  C   UNL     1      -3.356  -3.916  -3.844  1.00  0.00     0.074 A 
ATOM     35  C   UNL     1      -3.312  -4.512  -2.524  1.00  0.00     0.031 C 
ATOM     36  C   UNL     1       2.687  -1.854  -4.637  1.00  0.00     0.029 A 
ATOM     37  C   UNL     1       1.578  -1.726  -5.579  1.00  0.00     0.049 A 
ATOM     38  H   UNL     1      -0.403  -2.300  -5.275  1.00  0.00     0.167 HD
ATOM     39  C   UNL     1      -4.472  -3.816  -4.609  1.00  0.00     0.034 A 
ATOM     40  C   UNL     1       1.661  -1.201  -6.817  1.00  0.00     0.034 A 
ATOM     41  C   UNL     1      -4.496  -3.216  -5.921  1.00  0.00     0.049 A 
ATOM     42  C   UNL     1       0.430  -1.188  -7.689  1.00  0.00     0.074 A 
ATOM     43  C   UNL     1      -5.573  -3.049  -6.775  1.00  0.00     0.029 A 
ATOM     44  N   UNL     1      -3.388  -2.693  -6.577  1.00  0.00    -0.354 N 
ATOM     45  N   UNL     1      -0.780  -1.619  -7.415  1.00  0.00    -0.248 NA
ATOM     46  C   UNL     1       0.580  -0.628  -9.038  1.00  0.00     0.031 C 
ATOM     47  C   UNL     1      -5.106  -2.487  -7.969  1.00  0.00     0.029 A 
ATOM     48  C   UNL     1      -3.750  -2.237  -7.836  1.00  0.00     0.049 A 
ATOM     49  H   UNL     1      -2.479  -2.653  -6.203  1.00  0.00     0.167 HD
ATOM     50  C   UNL     1      -1.539  -1.363  -8.554  1.00  0.00     0.074 A 
ATOM     51  C   UNL     1      -0.655  -0.729  -9.510  1.00  0.00     0.031 C 
ATOM     52  C   UNL     1      -2.851  -1.625  -8.787  1.00  0.00     0.034 A 
BRANCH  39  53
ATOM     53  C   UNL     1      -5.740  -4.429  -4.066  1.00  0.00     0.023 A 
ATOM     54  C   UNL     1      -6.373  -3.931  -2.915  1.00  0.00     0.031 A 
ATOM     55  C   UNL     1      -6.306  -5.551  -4.696  1.00  0.00     0.131 A 
ATOM     56  C   UNL     1      -7.494  -4.594  -2.391  1.00  0.00     0.055 A 
ATOM     57  C   UNL     1      -7.464  -6.162  -4.213  1.00  0.00     0.041 A 
ATOM     58  F   UNL     1      -5.732  -6.084  -5.787  1.00  0.00    -0.206 F 
ATOM     59  C   UNL     1      -8.057  -5.693  -3.044  1.00  0.00     0.022 A 
BRANCH  56  60
ATOM     60  S   UNL     1      -8.120  -4.087  -0.766  1.00  0.00     0.124 S 
ATOM     61  O   UNL     1      -6.938  -4.261   0.075  1.00  0.00    -0.237 OA
ATOM     62  O   UNL     1      -8.536  -2.710  -1.005  1.00  0.00    -0.237 OA
ATOM     63  O   UNL     1      -9.205  -5.031  -0.506  1.00  0.00    -0.744 OA
ENDBRANCH  56  60
ENDBRANCH  39  53
BRANCH  40  64
ATOM     64  C   UNL     1       2.968  -0.713  -7.340  1.00  0.00     0.023 A 
ATOM     65  C   UNL     1       3.166   0.639  -7.661  1.00  0.00     0.031 A 
ATOM     66  C   UNL     1       4.031  -1.607  -7.566  1.00  0.00     0.131 A 
ATOM     67  C   UNL     1       4.385   1.052  -8.221  1.00  0.00     0.055 A 
ATOM     68  C   UNL     1       5.258  -1.183  -8.075  1.00  0.00     0.041 A 
ATOM     69  F   UNL     1       3.893  -2.912  -7.280  1.00  0.00    -0.206 F 
ATOM     70  C   UNL     1       5.437   0.154  -8.417  1.00  0.00     0.022 A 
BRANCH  67  71
ATOM     71  S   UNL     1       4.553   2.775  -8.763  1.00  0.00     0.124 S 
ATOM     72  O   UNL     1       3.476   2.885  -9.741  1.00  0.00    -0.237 OA
ATOM     73  O   UNL     1       4.362   3.505  -7.514  1.00  0.00    -0.237 OA
ATOM     74  O   UNL     1       5.905   2.829  -9.313  1.00  0.00    -0.744 OA
ENDBRANCH  67  71
ENDBRANCH  40  64
BRANCH  52  75
ATOM     75  C   UNL     1      -3.409  -1.188 -10.118  1.00  0.00     0.023 A 
ATOM     76  C   UNL     1      -3.032  -1.815 -11.319  1.00  0.00     0.031 A 
ATOM     77  C   UNL     1      -4.323  -0.122 -10.185  1.00  0.00     0.131 A 
ATOM     78  C   UNL     1      -3.534  -1.341 -12.541  1.00  0.00     0.055 A 
ATOM     79  C   UNL     1      -4.859   0.311 -11.399  1.00  0.00     0.041 A 
ATOM     80  F   UNL     1      -4.714   0.514  -9.069  1.00  0.00    -0.206 F 
ATOM     81  C   UNL     1      -4.456  -0.292 -12.586  1.00  0.00     0.022 A 
BRANCH  78  82
ATOM     82  S   UNL     1      -2.910  -2.068 -14.081  1.00  0.00     0.124 S 
ATOM     83  O   UNL     1      -1.484  -1.766 -14.003  1.00  0.00    -0.237 OA
ATOM     84  O   UNL     1      -3.273  -3.474 -13.935  1.00  0.00    -0.237 OA
ATOM     85  O   UNL     1      -3.641  -1.346 -15.122  1.00  0.00    -0.744 OA
ENDBRANCH  78  82
ENDBRANCH  52  75
ENDBRANCH  26  27
ENDBRANCH  19  21
ENDBRANCH  18  19
ENDBRANCH  17  18
ENDBRANCH   1  17
TORSDOF 20
