REMARK SMILES CC1C[NH+]([C@H]2COC[C@@H]2C(=O)OCCOC(=O)c2ccc(-c3c4nc(c(-c5cc(S(=O)(=O)[O-])ccc5F)c5ccc([nH]5)c(-c5cc(S(=O)(=O)[O-])ccc5F)c5nc(c(-c6cc(S(=O)(=O)[O-])ccc6F)c6ccc3[nH]6)C=C5)C=C4)cc2)C1
REMARK SMILES IDX 14 1 13 2 12 3 10 4 11 5 9 6 5 7 6 8 7 9 8 10 4 11 1 12 2 13
REMARK SMILES IDX 3 14 81 15 15 17 16 18 17 19 18 20 19 21 80 22 20 23 79 24
REMARK SMILES IDX 21 25 22 26 23 27 73 28 24 29 78 30 72 31 74 32 25 33 77 34
REMARK SMILES IDX 71 35 70 36 26 38 58 39 38 40 57 41 39 42 42 43 56 44 75 45
REMARK SMILES IDX 40 46 41 47 55 49 76 50 43 51 27 52 28 53 36 54 29 55 35 56
REMARK SMILES IDX 37 57 34 58 30 59 31 60 32 61 33 62 59 63 60 64 68 65 61 66
REMARK SMILES IDX 67 67 69 68 66 69 62 70 63 71 64 72 65 73 44 74 45 75 53 76
REMARK SMILES IDX 46 77 52 78 54 79 51 80 47 81 48 82 49 83 50 84
REMARK H PARENT 4 16 74 37 42 48
REMARK Flexibility Score: inf
ROOT
ATOM      1  C   UNL     1       1.702  -1.182   3.737  1.00  0.00     0.275 C 
ENDROOT
BRANCH   1   2
ATOM      2  C   UNL     1       2.093  -2.655   3.777  1.00  0.00     0.274 C 
BRANCH   2   3
ATOM      3  O   UNL     1       1.310  -3.416   2.831  1.00  0.00    -0.462 OA
BRANCH   3   4
ATOM      4  C   UNL     1       0.284  -4.136   3.363  1.00  0.00     0.317 C 
ATOM      5  O   UNL     1       0.043  -4.190   4.564  1.00  0.00    -0.252 OA
BRANCH   4   6
ATOM      6  C   UNL     1      -0.452  -4.972   2.330  1.00  0.00     0.185 C 
ATOM      7  C   UNL     1      -0.570  -4.360   0.934  1.00  0.00     0.227 C 
ATOM      8  C   UNL     1      -1.818  -3.483   1.085  1.00  0.00     0.226 C 
ATOM      9  O   UNL     1      -2.651  -4.086   2.085  1.00  0.00    -0.374 OA
ATOM     10  C   UNL     1      -1.905  -5.111   2.758  1.00  0.00     0.182 C 
BRANCH   7  11
ATOM     11  N   UNL     1      -0.583  -5.431  -0.094  1.00  0.00    -0.329 N 
ATOM     12  C   UNL     1      -2.851  -5.721  -2.659  1.00  0.00     0.020 C 
ATOM     13  C   UNL     1      -1.642  -6.048  -1.807  1.00  0.00     0.096 C 
ATOM     14  C   UNL     1      -0.688  -4.878  -1.466  1.00  0.00     0.271 C 
ATOM     15  C   UNL     1      -1.885  -6.116  -0.283  1.00  0.00     0.271 C 
ATOM     16  H   UNL     1       0.224  -5.974   0.214  1.00  0.00     0.348 HD
ENDBRANCH   7  11
ENDBRANCH   4   6
ENDBRANCH   3   4
ENDBRANCH   2   3
ENDBRANCH   1   2
BRANCH   1  17
ATOM     17  O   UNL     1       0.301  -1.053   4.027  1.00  0.00    -0.458 OA
BRANCH  17  18
ATOM     18  C   UNL     1      -0.358  -0.128   3.289  1.00  0.00     0.338 C 
ATOM     19  O   UNL     1       0.140   0.643   2.486  1.00  0.00    -0.246 OA
BRANCH  18  20
ATOM     20  C   UNL     1      -1.811  -0.179   3.568  1.00  0.00     0.060 A 
ATOM     21  C   UNL     1      -2.459  -1.389   3.822  1.00  0.00     0.016 A 
ATOM     22  C   UNL     1      -2.561   0.991   3.437  1.00  0.00     0.016 A 
ATOM     23  C   UNL     1      -3.855  -1.452   3.815  1.00  0.00     0.010 A 
ATOM     24  C   UNL     1      -3.955   0.940   3.535  1.00  0.00     0.010 A 
ATOM     25  C   UNL     1      -4.624  -0.289   3.670  1.00  0.00    -0.014 A 
BRANCH  25  26
ATOM     26  C   UNL     1      -6.113  -0.346   3.567  1.00  0.00     0.031 A 
ATOM     27  C   UNL     1      -6.797   0.226   2.349  1.00  0.00     0.074 A 
ATOM     28  C   UNL     1      -6.863  -0.893   4.544  1.00  0.00     0.049 A 
ATOM     29  N   UNL     1      -8.058   0.524   2.162  1.00  0.00    -0.248 NA
ATOM     30  C   UNL     1      -5.935   0.527   1.196  1.00  0.00     0.031 C 
ATOM     31  C   UNL     1      -6.348  -1.543   5.750  1.00  0.00     0.029 A 
ATOM     32  N   UNL     1      -8.228  -0.988   4.676  1.00  0.00    -0.354 N 
ATOM     33  C   UNL     1      -8.129   1.113   0.902  1.00  0.00     0.074 A 
ATOM     34  C   UNL     1      -6.780   1.132   0.375  1.00  0.00     0.031 C 
ATOM     35  C   UNL     1      -7.379  -1.992   6.483  1.00  0.00     0.029 A 
ATOM     36  C   UNL     1      -8.628  -1.583   5.850  1.00  0.00     0.049 A 
ATOM     37  H   UNL     1      -8.859  -0.660   3.996  1.00  0.00     0.167 HD
ATOM     38  C   UNL     1      -9.217   1.599   0.251  1.00  0.00     0.034 A 
ATOM     39  C   UNL     1      -9.856  -1.740   6.384  1.00  0.00     0.034 A 
ATOM     40  C   UNL     1     -10.564   1.515   0.763  1.00  0.00     0.049 A 
ATOM     41  C   UNL     1     -11.051  -1.190   5.651  1.00  0.00     0.074 A 
ATOM     42  C   UNL     1     -11.738   1.979   0.193  1.00  0.00     0.029 A 
ATOM     43  N   UNL     1     -10.922   0.906   1.959  1.00  0.00    -0.354 N 
ATOM     44  N   UNL     1     -11.093  -0.536   4.513  1.00  0.00    -0.248 NA
ATOM     45  C   UNL     1     -12.362  -1.386   6.282  1.00  0.00     0.031 C 
ATOM     46  C   UNL     1     -12.797   1.686   1.061  1.00  0.00     0.029 A 
ATOM     47  C   UNL     1     -12.294   0.986   2.145  1.00  0.00     0.049 A 
ATOM     48  H   UNL     1     -10.292   0.479   2.584  1.00  0.00     0.167 HD
ATOM     49  C   UNL     1     -12.437  -0.255   4.289  1.00  0.00     0.074 A 
ATOM     50  C   UNL     1     -13.174  -0.827   5.397  1.00  0.00     0.031 C 
ATOM     51  C   UNL     1     -13.012   0.419   3.260  1.00  0.00     0.034 A 
BRANCH  38  52
ATOM     52  C   UNL     1      -8.979   2.321  -1.054  1.00  0.00     0.023 A 
ATOM     53  C   UNL     1      -8.489   1.666  -2.197  1.00  0.00     0.031 A 
ATOM     54  C   UNL     1      -9.216   3.706  -1.141  1.00  0.00     0.131 A 
ATOM     55  C   UNL     1      -8.181   2.406  -3.350  1.00  0.00     0.055 A 
ATOM     56  C   UNL     1      -8.982   4.423  -2.315  1.00  0.00     0.041 A 
ATOM     57  F   UNL     1      -9.665   4.390  -0.076  1.00  0.00    -0.206 F 
ATOM     58  C   UNL     1      -8.447   3.776  -3.425  1.00  0.00     0.022 A 
BRANCH  55  59
ATOM     59  S   UNL     1      -7.298   1.581  -4.702  1.00  0.00     0.124 S 
ATOM     60  O   UNL     1      -6.081   1.130  -4.030  1.00  0.00    -0.237 OA
ATOM     61  O   UNL     1      -8.233   0.536  -5.100  1.00  0.00    -0.237 OA
ATOM     62  O   UNL     1      -7.099   2.646  -5.683  1.00  0.00    -0.744 OA
ENDBRANCH  55  59
ENDBRANCH  38  52
BRANCH  39  63
ATOM     63  C   UNL     1     -10.017  -2.386   7.718  1.00  0.00     0.023 A 
ATOM     64  C   UNL     1     -10.694  -3.607   7.856  1.00  0.00     0.031 A 
ATOM     65  C   UNL     1      -9.523  -1.769   8.882  1.00  0.00     0.131 A 
ATOM     66  C   UNL     1     -10.889  -4.157   9.132  1.00  0.00     0.055 A 
ATOM     67  C   UNL     1      -9.673  -2.346  10.143  1.00  0.00     0.041 A 
ATOM     68  F   UNL     1      -8.868  -0.599   8.804  1.00  0.00    -0.206 F 
ATOM     69  C   UNL     1     -10.370  -3.542  10.274  1.00  0.00     0.022 A 
BRANCH  66  70
ATOM     70  S   UNL     1     -11.897  -5.657   9.289  1.00  0.00     0.124 S 
ATOM     71  O   UNL     1     -13.168  -5.223   8.719  1.00  0.00    -0.237 OA
ATOM     72  O   UNL     1     -11.135  -6.619   8.499  1.00  0.00    -0.237 OA
ATOM     73  O   UNL     1     -11.912  -5.909  10.728  1.00  0.00    -0.744 OA
ENDBRANCH  66  70
ENDBRANCH  39  63
BRANCH  51  74
ATOM     74  C   UNL     1     -14.515   0.523   3.273  1.00  0.00     0.023 A 
ATOM     75  C   UNL     1     -15.193   1.322   4.210  1.00  0.00     0.031 A 
ATOM     76  C   UNL     1     -15.279  -0.212   2.350  1.00  0.00     0.131 A 
ATOM     77  C   UNL     1     -16.595   1.328   4.237  1.00  0.00     0.055 A 
ATOM     78  C   UNL     1     -16.673  -0.167   2.351  1.00  0.00     0.041 A 
ATOM     79  F   UNL     1     -14.680  -0.992   1.436  1.00  0.00    -0.206 F 
ATOM     80  C   UNL     1     -17.340   0.597   3.306  1.00  0.00     0.022 A 
BRANCH  77  81
ATOM     81  S   UNL     1     -17.440   2.238   5.559  1.00  0.00     0.124 S 
ATOM     82  O   UNL     1     -16.891   1.614   6.759  1.00  0.00    -0.237 OA
ATOM     83  O   UNL     1     -17.022   3.613   5.308  1.00  0.00    -0.237 OA
ATOM     84  O   UNL     1     -18.855   1.968   5.313  1.00  0.00    -0.744 OA
ENDBRANCH  77  81
ENDBRANCH  51  74
ENDBRANCH  25  26
ENDBRANCH  18  20
ENDBRANCH  17  18
ENDBRANCH   1  17
TORSDOF 15
