REMARK SMILES CCOc1ccccc1N1CCN(c2ncc(N)cc2C(=O)OCCOC(=O)c2ccc(-c3c4nc(c(-c5cc(S(=O)(=O)[O-])ccc5F)c5ccc([nH]5)c(-c5cc(S(=O)(=O)[O-])ccc5F)c5nc(c(-c6cc(S(=O)(=O)[O-])ccc6F)c6ccc3[nH]6)C=C5)C=C4)cc2)CC1
REMARK SMILES IDX 24 1 23 2 21 3 22 4 20 5 14 6 15 7 16 8 19 9 17 10 13 11
REMARK SMILES IDX 10 12 11 13 93 14 12 15 92 16 9 17 4 18 5 19 6 20 8 21 7 22
REMARK SMILES IDX 3 23 2 24 1 25 18 26 25 29 26 30 27 31 28 32 29 33 30 34
REMARK SMILES IDX 91 35 31 36 90 37 32 38 33 39 34 40 84 41 35 42 89 43 83 44
REMARK SMILES IDX 85 45 36 46 88 47 82 48 81 49 37 51 69 52 49 53 68 54 50 55
REMARK SMILES IDX 53 56 67 57 86 58 51 59 52 60 66 62 87 63 54 64 38 65 39 66
REMARK SMILES IDX 47 67 40 68 46 69 48 70 45 71 41 72 42 73 43 74 44 75 70 76
REMARK SMILES IDX 71 77 79 78 72 79 78 80 80 81 77 82 73 83 74 84 75 85 76 86
REMARK SMILES IDX 55 87 56 88 64 89 57 90 63 91 65 92 62 93 58 94 59 95 60 96
REMARK SMILES IDX 61 97
REMARK H PARENT 18 27 18 28 85 50 53 61
REMARK Flexibility Score: inf
ROOT
ATOM      1  C   UNL     1       1.534   2.220   6.085  1.00  0.00     0.275 C 
ENDROOT
BRANCH   1   2
ATOM      2  O   UNL     1       0.878   3.041   5.092  1.00  0.00    -0.458 OA
BRANCH   2   3
ATOM      3  C   UNL     1       1.634   3.378   4.013  1.00  0.00     0.342 C 
ATOM      4  O   UNL     1       2.827   3.155   3.891  1.00  0.00    -0.246 OA
BRANCH   3   5
ATOM      5  C   UNL     1       0.827   4.165   3.059  1.00  0.00     0.104 A 
ATOM      6  C   UNL     1       0.657   3.846   1.701  1.00  0.00     0.143 A 
ATOM      7  N   UNL     1       0.027   4.714   0.877  1.00  0.00    -0.236 NA
ATOM      8  C   UNL     1      -0.423   5.886   1.389  1.00  0.00     0.139 A 
ATOM      9  C   UNL     1       0.297   5.362   3.567  1.00  0.00     0.046 A 
ATOM     10  C   UNL     1      -0.366   6.244   2.730  1.00  0.00     0.051 A 
BRANCH   6  11
ATOM     11  N   UNL     1       1.119   2.697   1.095  1.00  0.00    -0.352 N 
ATOM     12  N   UNL     1       2.801  -0.676   0.900  1.00  0.00    -0.365 N 
ATOM     13  C   UNL     1       3.640   0.868   0.999  1.00  0.00     0.138 C 
ATOM     14  C   UNL     1       0.939  -0.731   0.909  1.00  0.00     0.138 C 
ATOM     15  C   UNL     1       2.809   2.514   0.951  1.00  0.00     0.139 C 
ATOM     16  C   UNL     1      -0.058   1.256   0.892  1.00  0.00     0.139 C 
BRANCH  12  17
ATOM     17  C   UNL     1       3.559  -1.814   0.541  1.00  0.00     0.079 A 
ATOM     18  C   UNL     1       3.053  -3.075   0.117  1.00  0.00     0.142 A 
ATOM     19  C   UNL     1       3.926  -4.108  -0.296  1.00  0.00     0.048 A 
ATOM     20  C   UNL     1       5.302  -3.927  -0.330  1.00  0.00     0.004 A 
ATOM     21  C   UNL     1       4.972  -1.707   0.537  1.00  0.00     0.030 A 
ATOM     22  C   UNL     1       5.827  -2.723   0.094  1.00  0.00     0.002 A 
BRANCH  18  23
ATOM     23  O   UNL     1       1.704  -3.354   0.150  1.00  0.00    -0.492 OA
BRANCH  23  24
ATOM     24  C   UNL     1       1.211  -4.076  -0.993  1.00  0.00     0.226 C 
ATOM     25  C   UNL     1      -0.263  -3.765  -1.167  1.00  0.00     0.049 C 
ENDBRANCH  23  24
ENDBRANCH  18  23
ENDBRANCH  12  17
ENDBRANCH   6  11
BRANCH  10  26
ATOM     26  N   UNL     1      -0.786   7.479   3.199  1.00  0.00    -0.397 N 
ATOM     27  H   UNL     1      -1.257   8.100   2.598  1.00  0.00     0.156 HD
ATOM     28  H   UNL     1      -0.613   7.736   4.134  1.00  0.00     0.156 HD
ENDBRANCH  10  26
ENDBRANCH   3   5
ENDBRANCH   2   3
ENDBRANCH   1   2
BRANCH   1  29
ATOM     29  C   UNL     1       0.844   0.863   6.159  1.00  0.00     0.275 C 
BRANCH  29  30
ATOM     30  O   UNL     1       0.923   0.260   4.859  1.00  0.00    -0.458 OA
BRANCH  30  31
ATOM     31  C   UNL     1      -0.214   0.334   4.142  1.00  0.00     0.338 C 
ATOM     32  O   UNL     1      -1.331   0.624   4.536  1.00  0.00    -0.246 OA
BRANCH  31  33
ATOM     33  C   UNL     1       0.072   0.105   2.726  1.00  0.00     0.060 A 
ATOM     34  C   UNL     1       1.473   0.769   1.924  1.00  0.00     0.016 A 
ATOM     35  C   UNL     1      -1.168  -0.531   1.728  1.00  0.00     0.016 A 
ATOM     36  C   UNL     1       1.510   0.809  -0.048  1.00  0.00     0.010 A 
ATOM     37  C   UNL     1      -1.098  -0.551  -0.007  1.00  0.00     0.010 A 
ATOM     38  C   UNL     1       0.213   0.074  -0.988  1.00  0.00    -0.014 A 
BRANCH  38  39
ATOM     39  C   UNL     1       0.392  -0.367  -2.470  1.00  0.00     0.031 A 
ATOM     40  C   UNL     1      -0.800  -0.851  -3.307  1.00  0.00     0.074 A 
ATOM     41  C   UNL     1       1.611  -0.593  -3.041  1.00  0.00     0.049 A 
ATOM     42  N   UNL     1      -0.820  -1.639  -4.364  1.00  0.00    -0.248 NA
ATOM     43  C   UNL     1      -2.141  -0.480  -2.845  1.00  0.00     0.031 C 
ATOM     44  C   UNL     1       2.915  -0.302  -2.471  1.00  0.00     0.029 A 
ATOM     45  N   UNL     1       1.964  -1.202  -4.242  1.00  0.00    -0.354 N 
ATOM     46  C   UNL     1      -2.162  -1.910  -4.631  1.00  0.00     0.074 A 
ATOM     47  C   UNL     1      -2.909  -1.303  -3.547  1.00  0.00     0.031 C 
ATOM     48  C   UNL     1       3.904  -0.719  -3.259  1.00  0.00     0.029 A 
ATOM     49  C   UNL     1       3.329  -1.388  -4.396  1.00  0.00     0.049 A 
ATOM     50  H   UNL     1       1.305  -1.475  -4.920  1.00  0.00     0.167 HD
ATOM     51  C   UNL     1      -2.739  -2.535  -5.697  1.00  0.00     0.034 A 
ATOM     52  C   UNL     1       4.099  -2.042  -5.287  1.00  0.00     0.034 A 
ATOM     53  C   UNL     1      -2.018  -3.018  -6.855  1.00  0.00     0.049 A 
ATOM     54  C   UNL     1       3.470  -2.714  -6.454  1.00  0.00     0.074 A 
ATOM     55  C   UNL     1      -2.534  -3.471  -8.062  1.00  0.00     0.029 A 
ATOM     56  N   UNL     1      -0.639  -3.104  -6.970  1.00  0.00    -0.354 N 
ATOM     57  N   UNL     1       2.199  -2.884  -6.706  1.00  0.00    -0.248 NA
ATOM     58  C   UNL     1       4.379  -3.248  -7.475  1.00  0.00     0.031 C 
ATOM     59  C   UNL     1      -1.476  -3.887  -8.877  1.00  0.00     0.029 A 
ATOM     60  C   UNL     1      -0.293  -3.629  -8.210  1.00  0.00     0.049 A 
ATOM     61  H   UNL     1       0.003  -2.832  -6.274  1.00  0.00     0.167 HD
ATOM     62  C   UNL     1       2.153  -3.492  -7.951  1.00  0.00     0.074 A 
ATOM     63  C   UNL     1       3.521  -3.673  -8.389  1.00  0.00     0.031 C 
ATOM     64  C   UNL     1       1.058  -3.838  -8.667  1.00  0.00     0.034 A 
BRANCH  51  65
ATOM     65  C   UNL     1      -4.253  -2.683  -5.707  1.00  0.00     0.023 A 
ATOM     66  C   UNL     1      -5.101  -1.566  -5.620  1.00  0.00     0.031 A 
ATOM     67  C   UNL     1      -4.861  -3.948  -5.822  1.00  0.00     0.131 A 
ATOM     68  C   UNL     1      -6.490  -1.738  -5.525  1.00  0.00     0.055 A 
ATOM     69  C   UNL     1      -6.251  -4.104  -5.841  1.00  0.00     0.041 A 
ATOM     70  F   UNL     1      -4.116  -5.061  -5.918  1.00  0.00    -0.206 F 
ATOM     71  C   UNL     1      -7.075  -2.996  -5.667  1.00  0.00     0.022 A 
BRANCH  68  72
ATOM     72  S   UNL     1      -7.494  -0.309  -5.037  1.00  0.00     0.124 S 
ATOM     73  O   UNL     1      -6.907   0.028  -3.741  1.00  0.00    -0.237 OA
ATOM     74  O   UNL     1      -7.242   0.638  -6.116  1.00  0.00    -0.237 OA
ATOM     75  O   UNL     1      -8.851  -0.847  -4.977  1.00  0.00    -0.744 OA
ENDBRANCH  68  72
ENDBRANCH  51  65
BRANCH  52  76
ATOM     76  C   UNL     1       5.580  -2.087  -5.106  1.00  0.00     0.023 A 
ATOM     77  C   UNL     1       6.431  -1.324  -5.918  1.00  0.00     0.031 A 
ATOM     78  C   UNL     1       6.160  -2.902  -4.118  1.00  0.00     0.131 A 
ATOM     79  C   UNL     1       7.821  -1.417  -5.751  1.00  0.00     0.055 A 
ATOM     80  C   UNL     1       7.540  -2.940  -3.911  1.00  0.00     0.041 A 
ATOM     81  F   UNL     1       5.385  -3.670  -3.339  1.00  0.00    -0.206 F 
ATOM     82  C   UNL     1       8.380  -2.202  -4.739  1.00  0.00     0.022 A 
BRANCH  79  83
ATOM     83  S   UNL     1       8.894  -0.569  -6.942  1.00  0.00     0.124 S 
ATOM     84  O   UNL     1       8.458  -1.157  -8.204  1.00  0.00    -0.237 OA
ATOM     85  O   UNL     1       8.539   0.830  -6.729  1.00  0.00    -0.237 OA
ATOM     86  O   UNL     1      10.240  -0.942  -6.512  1.00  0.00    -0.744 OA
ENDBRANCH  79  83
ENDBRANCH  52  76
BRANCH  64  87
ATOM     87  C   UNL     1       1.301  -4.391 -10.044  1.00  0.00     0.023 A 
ATOM     88  C   UNL     1       1.931  -5.632 -10.240  1.00  0.00     0.031 A 
ATOM     89  C   UNL     1       0.949  -3.638 -11.177  1.00  0.00     0.131 A 
ATOM     90  C   UNL     1       2.243  -6.056 -11.539  1.00  0.00     0.055 A 
ATOM     91  C   UNL     1       1.203  -4.096 -12.469  1.00  0.00     0.041 A 
ATOM     92  F   UNL     1       0.363  -2.437 -11.044  1.00  0.00    -0.206 F 
ATOM     93  C   UNL     1       1.865  -5.306 -12.656  1.00  0.00     0.022 A 
BRANCH  90  94
ATOM     94  S   UNL     1       3.237  -7.558 -11.745  1.00  0.00     0.124 S 
ATOM     95  O   UNL     1       4.482  -7.189 -11.078  1.00  0.00    -0.237 OA
ATOM     96  O   UNL     1       2.427  -8.566 -11.069  1.00  0.00    -0.237 OA
ATOM     97  O   UNL     1       3.331  -7.710 -13.196  1.00  0.00    -0.744 OA
ENDBRANCH  90  94
ENDBRANCH  64  87
ENDBRANCH  38  39
ENDBRANCH  31  33
ENDBRANCH  30  31
ENDBRANCH  29  30
ENDBRANCH   1  29
TORSDOF 19
