REMARK SMILES CC(C)C[C@@H](Cn1nnnc1-c1ccc(F)cc1)C(=O)OCCOC(=O)c1ccc(-c2c3nc(c(-c4cc(S(=O)(=O)[O-])ccc4F)c4ccc([nH]4)c(-c4cc(S(=O)(=O)[O-])ccc4F)c4nc(c(-c5cc(S(=O)(=O)[O-])ccc5F)c5ccc2[nH]5)C=C4)C=C3)cc1
REMARK SMILES IDX 22 1 21 2 19 3 20 4 5 5 4 6 2 7 1 8 3 9 6 10 7 11 8 12 11 13
REMARK SMILES IDX 9 14 10 15 12 16 13 17 18 18 14 19 17 20 15 21 16 22 23 23
REMARK SMILES IDX 24 24 25 25 26 26 27 27 28 28 89 29 29 30 88 31 30 32 31 33
REMARK SMILES IDX 32 34 82 35 33 36 87 37 81 38 83 39 34 40 86 41 80 42 79 43
REMARK SMILES IDX 35 45 67 46 47 47 66 48 48 49 51 50 65 51 84 52 49 53 50 54
REMARK SMILES IDX 64 56 85 57 52 58 36 59 37 60 45 61 38 62 44 63 46 64 43 65
REMARK SMILES IDX 39 66 40 67 41 68 42 69 68 70 69 71 77 72 70 73 76 74 78 75
REMARK SMILES IDX 75 76 71 77 72 78 73 79 74 80 53 81 54 82 62 83 55 84 61 85
REMARK SMILES IDX 63 86 60 87 56 88 57 89 58 90 59 91
REMARK H PARENT 83 44 51 55
REMARK Flexibility Score: inf
ROOT
ATOM      1  C   UNL     1      -4.846  -0.605  -2.659  1.00  0.00     0.274 C 
ENDROOT
BRANCH   1   2
ATOM      2  O   UNL     1      -3.419  -0.681  -2.461  1.00  0.00    -0.462 OA
BRANCH   2   3
ATOM      3  C   UNL     1      -2.804   0.428  -1.976  1.00  0.00     0.310 C 
ATOM      4  O   UNL     1      -3.356   1.510  -1.801  1.00  0.00    -0.252 OA
BRANCH   3   5
ATOM      5  C   UNL     1      -1.300   0.261  -1.822  1.00  0.00     0.121 C 
BRANCH   5   6
ATOM      6  C   UNL     1      -0.838  -1.035  -1.130  1.00  0.00     0.020 C 
BRANCH   6   7
ATOM      7  C   UNL     1       0.690  -1.184  -0.955  1.00  0.00    -0.017 C 
ATOM      8  C   UNL     1       1.255  -0.146   0.019  1.00  0.00     0.007 C 
ATOM      9  C   UNL     1       1.031  -2.591  -0.456  1.00  0.00     0.007 C 
ENDBRANCH   6   7
ENDBRANCH   5   6
BRANCH   5  10
ATOM     10  C   UNL     1      -0.678   0.541  -3.191  1.00  0.00     0.164 C 
BRANCH  10  11
ATOM     11  N   UNL     1      -1.108  -0.340  -4.253  1.00  0.00    -0.225 N 
ATOM     12  N   UNL     1      -0.693  -1.617  -4.289  1.00  0.00    -0.045 NA
ATOM     13  C   UNL     1      -1.981  -0.106  -5.290  1.00  0.00     0.182 A 
ATOM     14  N   UNL     1      -1.393  -2.183  -5.259  1.00  0.00    -0.023 NA
ATOM     15  N   UNL     1      -2.200  -1.265  -5.884  1.00  0.00    -0.108 NA
BRANCH  13  16
ATOM     16  C   UNL     1      -2.580   1.174  -5.641  1.00  0.00     0.021 A 
ATOM     17  C   UNL     1      -1.776   2.301  -5.872  1.00  0.00     0.015 A 
ATOM     18  C   UNL     1      -3.971   1.289  -5.773  1.00  0.00     0.015 A 
ATOM     19  C   UNL     1      -2.355   3.531  -6.184  1.00  0.00     0.040 A 
ATOM     20  C   UNL     1      -4.550   2.521  -6.087  1.00  0.00     0.040 A 
ATOM     21  C   UNL     1      -3.736   3.631  -6.285  1.00  0.00     0.123 A 
ATOM     22  F   UNL     1      -4.290   4.811  -6.589  1.00  0.00    -0.207 F 
ENDBRANCH  13  16
ENDBRANCH  10  11
ENDBRANCH   5  10
ENDBRANCH   3   5
ENDBRANCH   2   3
ENDBRANCH   1   2
BRANCH   1  23
ATOM     23  C   UNL     1      -5.627  -1.094  -1.448  1.00  0.00     0.275 C 
BRANCH  23  24
ATOM     24  O   UNL     1      -5.410  -0.244  -0.324  1.00  0.00    -0.458 OA
BRANCH  24  25
ATOM     25  C   UNL     1      -4.351  -0.630   0.425  1.00  0.00     0.338 C 
ATOM     26  O   UNL     1      -3.510  -1.454   0.116  1.00  0.00    -0.246 OA
BRANCH  25  27
ATOM     27  C   UNL     1      -4.445  -0.086   1.776  1.00  0.00     0.060 A 
ATOM     28  C   UNL     1      -3.392  -0.407   2.640  1.00  0.00     0.016 A 
ATOM     29  C   UNL     1      -5.691   0.352   2.237  1.00  0.00     0.016 A 
ATOM     30  C   UNL     1      -3.665  -0.515   3.982  1.00  0.00     0.010 A 
ATOM     31  C   UNL     1      -5.967   0.221   3.575  1.00  0.00     0.010 A 
ATOM     32  C   UNL     1      -4.974  -0.289   4.412  1.00  0.00    -0.014 A 
BRANCH  32  33
ATOM     33  C   UNL     1      -5.275  -0.535   5.803  1.00  0.00     0.031 A 
ATOM     34  C   UNL     1      -4.791   0.529   6.705  1.00  0.00     0.074 A 
ATOM     35  C   UNL     1      -6.048  -1.562   6.198  1.00  0.00     0.049 A 
ATOM     36  N   UNL     1      -3.938   0.433   7.667  1.00  0.00    -0.248 NA
ATOM     37  C   UNL     1      -5.210   1.908   6.400  1.00  0.00     0.031 C 
ATOM     38  C   UNL     1      -6.806  -2.495   5.362  1.00  0.00     0.029 A 
ATOM     39  N   UNL     1      -6.420  -1.899   7.460  1.00  0.00    -0.354 N 
ATOM     40  C   UNL     1      -3.872   1.701   8.226  1.00  0.00     0.074 A 
ATOM     41  C   UNL     1      -4.520   2.597   7.305  1.00  0.00     0.031 C 
ATOM     42  C   UNL     1      -7.717  -3.131   6.132  1.00  0.00     0.029 A 
ATOM     43  C   UNL     1      -7.528  -2.735   7.518  1.00  0.00     0.049 A 
ATOM     44  H   UNL     1      -5.947  -1.580   8.262  1.00  0.00     0.167 HD
ATOM     45  C   UNL     1      -3.509   1.896   9.520  1.00  0.00     0.034 A 
ATOM     46  C   UNL     1      -8.281  -2.987   8.620  1.00  0.00     0.034 A 
ATOM     47  C   UNL     1      -2.786   0.773  10.054  1.00  0.00     0.049 A 
ATOM     48  C   UNL     1      -7.431  -2.671   9.799  1.00  0.00     0.074 A 
ATOM     49  C   UNL     1      -1.619   0.127   9.691  1.00  0.00     0.029 A 
ATOM     50  N   UNL     1      -3.457  -0.107  10.870  1.00  0.00    -0.354 N 
ATOM     51  N   UNL     1      -6.335  -3.316  10.099  1.00  0.00    -0.248 NA
ATOM     52  C   UNL     1      -7.550  -1.349  10.396  1.00  0.00     0.031 C 
ATOM     53  C   UNL     1      -1.884  -1.259   9.893  1.00  0.00     0.029 A 
ATOM     54  C   UNL     1      -3.171  -1.376  10.421  1.00  0.00     0.049 A 
ATOM     55  H   UNL     1      -4.034   0.127  11.632  1.00  0.00     0.167 HD
ATOM     56  C   UNL     1      -5.459  -2.345  10.561  1.00  0.00     0.074 A 
ATOM     57  C   UNL     1      -6.294  -1.175  10.817  1.00  0.00     0.031 C 
ATOM     58  C   UNL     1      -4.107  -2.486  10.434  1.00  0.00     0.034 A 
BRANCH  45  59
ATOM     59  C   UNL     1      -4.097   2.992  10.360  1.00  0.00     0.023 A 
ATOM     60  C   UNL     1      -3.480   3.327  11.573  1.00  0.00     0.031 A 
ATOM     61  C   UNL     1      -5.374   3.561  10.128  1.00  0.00     0.131 A 
ATOM     62  C   UNL     1      -4.125   4.179  12.487  1.00  0.00     0.055 A 
ATOM     63  C   UNL     1      -5.975   4.466  11.000  1.00  0.00     0.041 A 
ATOM     64  F   UNL     1      -6.141   3.196   9.091  1.00  0.00    -0.206 F 
ATOM     65  C   UNL     1      -5.357   4.769  12.199  1.00  0.00     0.022 A 
BRANCH  62  66
ATOM     66  S   UNL     1      -3.395   4.402  14.128  1.00  0.00     0.124 S 
ATOM     67  O   UNL     1      -3.350   3.030  14.623  1.00  0.00    -0.237 OA
ATOM     68  O   UNL     1      -2.110   5.013  13.807  1.00  0.00    -0.237 OA
ATOM     69  O   UNL     1      -4.347   5.278  14.807  1.00  0.00    -0.744 OA
ENDBRANCH  62  66
ENDBRANCH  45  59
BRANCH  46  70
ATOM     70  C   UNL     1      -9.762  -3.145   8.693  1.00  0.00     0.023 A 
ATOM     71  C   UNL     1     -10.398  -3.591   9.871  1.00  0.00     0.031 A 
ATOM     72  C   UNL     1     -10.605  -2.624   7.684  1.00  0.00     0.131 A 
ATOM     73  C   UNL     1     -11.802  -3.499  10.006  1.00  0.00     0.055 A 
ATOM     74  C   UNL     1     -11.994  -2.551   7.816  1.00  0.00     0.041 A 
ATOM     75  F   UNL     1     -10.107  -2.075   6.566  1.00  0.00    -0.206 F 
ATOM     76  C   UNL     1     -12.599  -2.978   8.986  1.00  0.00     0.022 A 
BRANCH  73  77
ATOM     77  S   UNL     1     -12.605  -3.929  11.582  1.00  0.00     0.124 S 
ATOM     78  O   UNL     1     -12.691  -5.382  11.493  1.00  0.00    -0.237 OA
ATOM     79  O   UNL     1     -11.676  -3.394  12.571  1.00  0.00    -0.237 OA
ATOM     80  O   UNL     1     -13.887  -3.227  11.508  1.00  0.00    -0.744 OA
ENDBRANCH  73  77
ENDBRANCH  46  70
BRANCH  58  81
ATOM     81  C   UNL     1      -3.552  -3.845  10.058  1.00  0.00     0.023 A 
ATOM     82  C   UNL     1      -3.813  -4.514   8.840  1.00  0.00     0.031 A 
ATOM     83  C   UNL     1      -2.594  -4.407  10.919  1.00  0.00     0.131 A 
ATOM     84  C   UNL     1      -3.123  -5.705   8.529  1.00  0.00     0.055 A 
ATOM     85  C   UNL     1      -1.900  -5.574  10.600  1.00  0.00     0.041 A 
ATOM     86  F   UNL     1      -2.280  -3.799  12.076  1.00  0.00    -0.206 F 
ATOM     87  C   UNL     1      -2.164  -6.228   9.402  1.00  0.00     0.022 A 
BRANCH  84  88
ATOM     88  S   UNL     1      -3.438  -6.577   6.959  1.00  0.00     0.124 S 
ATOM     89  O   UNL     1      -4.864  -6.876   7.025  1.00  0.00    -0.237 OA
ATOM     90  O   UNL     1      -3.032  -5.594   5.958  1.00  0.00    -0.237 OA
ATOM     91  O   UNL     1      -2.567  -7.752   7.039  1.00  0.00    -0.744 OA
ENDBRANCH  84  88
ENDBRANCH  58  81
ENDBRANCH  32  33
ENDBRANCH  25  27
ENDBRANCH  24  25
ENDBRANCH  23  24
ENDBRANCH   1  23
TORSDOF 19
