REMARK SMILES CCc1ccc2[nH]c(C(=O)c3cc(C)ccn3)c(CC(=O)OCCOC(=O)c3ccc(-c4c5nc(c(-c6cc(S(=O)(=O)[O-])ccc6F)c6ccc([nH]6)c(-c6cc(S(=O)(=O)[O-])ccc6F)c6nc(c(-c7cc(S(=O)(=O)[O-])ccc7F)c7ccc4[nH]7)C=C6)C=C5)cc3)c2c1
REMARK SMILES IDX 23 1 22 2 20 3 21 4 19 5 18 6 3 7 4 8 92 9 5 10 91 11 6 12
REMARK SMILES IDX 7 13 8 14 2 16 1 17 9 18 10 19 11 20 12 21 17 22 13 23 16 24
REMARK SMILES IDX 14 25 15 26 24 27 25 28 26 29 27 30 28 31 29 32 90 33 30 34
REMARK SMILES IDX 89 35 31 36 32 37 33 38 83 39 34 40 88 41 82 42 84 43 35 44
REMARK SMILES IDX 87 45 81 46 80 47 36 49 68 50 48 51 67 52 49 53 52 54 66 55
REMARK SMILES IDX 85 56 50 57 51 58 65 60 86 61 53 62 37 63 38 64 46 65 39 66
REMARK SMILES IDX 45 67 47 68 44 69 40 70 41 71 42 72 43 73 69 74 70 75 78 76
REMARK SMILES IDX 71 77 77 78 79 79 76 80 72 81 73 82 74 83 75 84 54 85 55 86
REMARK SMILES IDX 63 87 56 88 62 89 64 90 61 91 57 92 58 93 59 94 60 95
REMARK H PARENT 7 15 84 48 52 59
REMARK Flexibility Score: inf
ROOT
ATOM      1  C   UNL     1       0.244   7.229   5.237  1.00  0.00     0.274 C 
ENDROOT
BRANCH   1   2
ATOM      2  O   UNL     1       0.214   6.725   3.887  1.00  0.00    -0.462 OA
BRANCH   2   3
ATOM      3  C   UNL     1      -1.007   6.327   3.434  1.00  0.00     0.310 C 
ATOM      4  O   UNL     1      -2.015   6.278   4.135  1.00  0.00    -0.252 OA
BRANCH   3   5
ATOM      5  C   UNL     1      -1.056   5.988   1.959  1.00  0.00     0.161 C 
BRANCH   5   6
ATOM      6  C   UNL     1       0.264   5.804   1.272  1.00  0.00     0.000 A 
ATOM      7  C   UNL     1       1.329   2.144   0.917  1.00  0.00    -0.048 A 
ATOM      8  C   UNL     1       2.511   2.420   0.219  1.00  0.00     0.006 A 
ATOM      9  C   UNL     1       0.560   3.215   1.403  1.00  0.00     0.014 A 
ATOM     10  C   UNL     1       2.916   3.734  -0.056  1.00  0.00     0.027 A 
ATOM     11  C   UNL     1       0.913   4.543   1.087  1.00  0.00     0.004 A 
ATOM     12  C   UNL     1       2.079   4.770   0.368  1.00  0.00     0.046 A 
ATOM     13  N   UNL     1       2.172   6.128   0.177  1.00  0.00    -0.352 N 
ATOM     14  C   UNL     1       0.991   6.742   0.538  1.00  0.00     0.093 A 
ATOM     15  H   UNL     1       2.967   6.595  -0.168  1.00  0.00     0.167 HD
BRANCH   7  16
ATOM     16  C   UNL     1       0.845   0.737   1.180  1.00  0.00     0.032 C 
ATOM     17  C   UNL     1       1.075  -0.247   0.040  1.00  0.00     0.009 C 
ENDBRANCH   7  16
BRANCH  14  18
ATOM     18  C   UNL     1       0.596   8.076   0.112  1.00  0.00     0.227 C 
ATOM     19  O   UNL     1      -0.570   8.460   0.110  1.00  0.00    -0.285 OA
BRANCH  18  20
ATOM     20  C   UNL     1       1.615   8.980  -0.470  1.00  0.00     0.113 A 
ATOM     21  C   UNL     1       1.693   9.116  -1.851  1.00  0.00     0.036 A 
ATOM     22  N   UNL     1       2.415   9.630   0.409  1.00  0.00    -0.253 NA
ATOM     23  C   UNL     1       2.648   9.990  -2.373  1.00  0.00    -0.047 A 
ATOM     24  C   UNL     1       3.267  10.531  -0.119  1.00  0.00     0.112 A 
ATOM     25  C   UNL     1       2.821  10.160  -3.853  1.00  0.00     0.044 C 
ATOM     26  C   UNL     1       3.425  10.736  -1.482  1.00  0.00     0.023 A 
ENDBRANCH  18  20
ENDBRANCH  14  18
ENDBRANCH   5   6
ENDBRANCH   3   5
ENDBRANCH   2   3
ENDBRANCH   1   2
BRANCH   1  27
ATOM     27  C   UNL     1       0.341   8.752   5.229  1.00  0.00     0.275 C 
BRANCH  27  28
ATOM     28  O   UNL     1      -0.686   9.287   4.380  1.00  0.00    -0.458 OA
BRANCH  28  29
ATOM     29  C   UNL     1      -0.261  10.122   3.404  1.00  0.00     0.338 C 
ATOM     30  O   UNL     1       0.876  10.567   3.274  1.00  0.00    -0.246 OA
BRANCH  29  31
ATOM     31  C   UNL     1      -1.388  10.503   2.532  1.00  0.00     0.060 A 
ATOM     32  C   UNL     1      -2.386   9.590   2.183  1.00  0.00     0.016 A 
ATOM     33  C   UNL     1      -1.415  11.794   2.002  1.00  0.00     0.016 A 
ATOM     34  C   UNL     1      -3.365   9.944   1.254  1.00  0.00     0.010 A 
ATOM     35  C   UNL     1      -2.459  12.180   1.158  1.00  0.00     0.010 A 
ATOM     36  C   UNL     1      -3.441  11.256   0.763  1.00  0.00    -0.014 A 
BRANCH  36  37
ATOM     37  C   UNL     1      -4.564  11.688  -0.115  1.00  0.00     0.031 A 
ATOM     38  C   UNL     1      -4.293  12.280  -1.473  1.00  0.00     0.074 A 
ATOM     39  C   UNL     1      -5.831  11.604   0.339  1.00  0.00     0.049 A 
ATOM     40  N   UNL     1      -5.106  12.924  -2.273  1.00  0.00    -0.248 NA
ATOM     41  C   UNL     1      -2.922  12.148  -1.989  1.00  0.00     0.031 C 
ATOM     42  C   UNL     1      -6.234  11.028   1.625  1.00  0.00     0.029 A 
ATOM     43  N   UNL     1      -7.015  12.021  -0.218  1.00  0.00    -0.354 N 
ATOM     44  C   UNL     1      -4.339  13.313  -3.366  1.00  0.00     0.074 A 
ATOM     45  C   UNL     1      -2.991  12.841  -3.119  1.00  0.00     0.031 C 
ATOM     46  C   UNL     1      -7.565  11.111   1.750  1.00  0.00     0.029 A 
ATOM     47  C   UNL     1      -8.103  11.832   0.603  1.00  0.00     0.049 A 
ATOM     48  H   UNL     1      -7.079  12.416  -1.118  1.00  0.00     0.167 HD
ATOM     49  C   UNL     1      -4.728  14.003  -4.469  1.00  0.00     0.034 A 
ATOM     50  C   UNL     1      -9.380  12.244   0.487  1.00  0.00     0.034 A 
ATOM     51  C   UNL     1      -6.085  14.438  -4.710  1.00  0.00     0.049 A 
ATOM     52  C   UNL     1      -9.774  13.055  -0.715  1.00  0.00     0.074 A 
ATOM     53  C   UNL     1      -6.596  15.102  -5.813  1.00  0.00     0.029 A 
ATOM     54  N   UNL     1      -7.149  14.255  -3.835  1.00  0.00    -0.354 N 
ATOM     55  N   UNL     1      -9.031  13.451  -1.722  1.00  0.00    -0.248 NA
ATOM     56  C   UNL     1     -11.174  13.489  -0.787  1.00  0.00     0.031 C 
ATOM     57  C   UNL     1      -7.950  15.374  -5.579  1.00  0.00     0.029 A 
ATOM     58  C   UNL     1      -8.303  14.822  -4.358  1.00  0.00     0.049 A 
ATOM     59  H   UNL     1      -7.093  13.791  -2.968  1.00  0.00     0.167 HD
ATOM     60  C   UNL     1      -9.879  14.175  -2.553  1.00  0.00     0.074 A 
ATOM     61  C   UNL     1     -11.191  14.142  -1.940  1.00  0.00     0.031 C 
ATOM     62  C   UNL     1      -9.598  14.809  -3.719  1.00  0.00     0.034 A 
BRANCH  49  63
ATOM     63  C   UNL     1      -3.663  14.382  -5.472  1.00  0.00     0.023 A 
ATOM     64  C   UNL     1      -2.974  13.423  -6.235  1.00  0.00     0.031 A 
ATOM     65  C   UNL     1      -3.334  15.736  -5.664  1.00  0.00     0.131 A 
ATOM     66  C   UNL     1      -1.955  13.828  -7.113  1.00  0.00     0.055 A 
ATOM     67  C   UNL     1      -2.369  16.137  -6.590  1.00  0.00     0.041 A 
ATOM     68  F   UNL     1      -3.943  16.695  -4.949  1.00  0.00    -0.206 F 
ATOM     69  C   UNL     1      -1.665  15.180  -7.313  1.00  0.00     0.022 A 
BRANCH  66  70
ATOM     70  S   UNL     1      -0.934  12.558  -7.913  1.00  0.00     0.124 S 
ATOM     71  O   UNL     1      -0.348  11.874  -6.762  1.00  0.00    -0.237 OA
ATOM     72  O   UNL     1      -1.916  11.796  -8.677  1.00  0.00    -0.237 OA
ATOM     73  O   UNL     1       0.013  13.332  -8.713  1.00  0.00    -0.744 OA
ENDBRANCH  66  70
ENDBRANCH  49  63
BRANCH  50  74
ATOM     74  C   UNL     1     -10.355  11.967   1.578  1.00  0.00     0.023 A 
ATOM     75  C   UNL     1     -11.458  11.126   1.368  1.00  0.00     0.031 A 
ATOM     76  C   UNL     1     -10.204  12.558   2.846  1.00  0.00     0.131 A 
ATOM     77  C   UNL     1     -12.384  10.921   2.402  1.00  0.00     0.055 A 
ATOM     78  C   UNL     1     -11.099  12.310   3.886  1.00  0.00     0.041 A 
ATOM     79  F   UNL     1      -9.165  13.370   3.097  1.00  0.00    -0.206 F 
ATOM     80  C   UNL     1     -12.204  11.495   3.664  1.00  0.00     0.022 A 
BRANCH  77  81
ATOM     81  S   UNL     1     -13.875   9.949   2.053  1.00  0.00     0.124 S 
ATOM     82  O   UNL     1     -14.462  10.691   0.943  1.00  0.00    -0.237 OA
ATOM     83  O   UNL     1     -13.315   8.642   1.726  1.00  0.00    -0.237 OA
ATOM     84  O   UNL     1     -14.621  10.008   3.308  1.00  0.00    -0.744 OA
ENDBRANCH  77  81
ENDBRANCH  50  74
BRANCH  62  85
ATOM     85  C   UNL     1     -10.752  15.492  -4.406  1.00  0.00     0.023 A 
ATOM     86  C   UNL     1     -11.345  16.649  -3.870  1.00  0.00     0.031 A 
ATOM     87  C   UNL     1     -11.290  14.955  -5.588  1.00  0.00     0.131 A 
ATOM     88  C   UNL     1     -12.478  17.201  -4.486  1.00  0.00     0.055 A 
ATOM     89  C   UNL     1     -12.386  15.539  -6.225  1.00  0.00     0.041 A 
ATOM     90  F   UNL     1     -10.763  13.850  -6.138  1.00  0.00    -0.206 F 
ATOM     91  C   UNL     1     -12.994  16.660  -5.668  1.00  0.00     0.022 A 
BRANCH  88  92
ATOM     92  S   UNL     1     -13.322  18.588  -3.679  1.00  0.00     0.124 S 
ATOM     93  O   UNL     1     -13.712  18.004  -2.400  1.00  0.00    -0.237 OA
ATOM     94  O   UNL     1     -12.275  19.603  -3.623  1.00  0.00    -0.237 OA
ATOM     95  O   UNL     1     -14.428  18.892  -4.585  1.00  0.00    -0.744 OA
ENDBRANCH  88  92
ENDBRANCH  62  85
ENDBRANCH  36  37
ENDBRANCH  29  31
ENDBRANCH  28  29
ENDBRANCH  27  28
ENDBRANCH   1  27
TORSDOF 18
