REMARK SMILES COCCS(=O)(=O)CCn1cc(C(=O)OCCOC(=O)c2ccc(-c3c4nc(c(-c5cc(S(=O)(=O)[O-])ccc5F)c5ccc([nH]5)c(-c5cc(S(=O)(=O)[O-])ccc5F)c5nc(c(-c6cc(S(=O)(=O)[O-])ccc6F)c6ccc3[nH]6)C=C5)C=C4)cc2)nn1
REMARK SMILES IDX 15 1 13 2 14 3 12 4 10 5 11 6 85 7 84 8 9 9 8 10 5 11 6 12
REMARK SMILES IDX 7 13 4 14 3 15 2 16 1 17 16 18 17 19 18 20 19 21 20 22 21 23
REMARK SMILES IDX 22 24 83 25 23 26 82 27 24 28 25 29 26 30 76 31 27 32 81 33
REMARK SMILES IDX 75 34 77 35 28 36 80 37 74 38 73 39 29 41 61 42 41 43 60 44
REMARK SMILES IDX 42 45 45 46 59 47 78 48 43 49 44 50 58 52 79 53 46 54 30 55
REMARK SMILES IDX 31 56 39 57 32 58 38 59 40 60 37 61 33 62 34 63 35 64 36 65
REMARK SMILES IDX 62 66 63 67 71 68 64 69 70 70 72 71 69 72 65 73 66 74 67 75
REMARK SMILES IDX 68 76 47 77 48 78 56 79 49 80 55 81 57 82 54 83 50 84 51 85
REMARK SMILES IDX 52 86 53 87
REMARK H PARENT 77 40 45 51
REMARK Flexibility Score: inf
ROOT
ATOM      1  O   UNL     1      -2.748  -1.022  -3.215  1.00  0.00    -0.457 OA
ENDROOT
BRANCH   1   2
ATOM      2  C   UNL     1      -2.185   0.220  -3.075  1.00  0.00     0.360 C 
ATOM      3  O   UNL     1      -1.805   0.905  -4.022  1.00  0.00    -0.244 OA
BRANCH   2   4
ATOM      4  C   UNL     1      -2.177   0.690  -1.702  1.00  0.00     0.190 A 
ATOM      5  N   UNL     1      -1.926   0.982   0.414  1.00  0.00    -0.251 N 
ATOM      6  C   UNL     1      -1.972  -0.006  -0.522  1.00  0.00     0.147 A 
ATOM      7  N   UNL     1      -2.321   2.156  -0.086  1.00  0.00    -0.067 NA
ATOM      8  N   UNL     1      -2.385   2.016  -1.399  1.00  0.00    -0.123 NA
BRANCH   5   9
ATOM      9  C   UNL     1      -1.439   0.939   1.768  1.00  0.00     0.162 C 
BRANCH   9  10
ATOM     10  C   UNL     1       0.068   0.909   1.908  1.00  0.00     0.160 C 
BRANCH  10  11
ATOM     11  S   UNL     1       1.028   2.327   1.415  1.00  0.00     0.154 S 
ATOM     12  O   UNL     1       2.418   1.917   1.559  1.00  0.00    -0.229 OA
ATOM     13  O   UNL     1       0.548   3.438   2.217  1.00  0.00    -0.229 OA
BRANCH  11  14
ATOM     14  C   UNL     1       0.821   2.780  -0.296  1.00  0.00     0.165 C 
BRANCH  14  15
ATOM     15  C   UNL     1       1.498   1.871  -1.301  1.00  0.00     0.176 C 
BRANCH  15  16
ATOM     16  O   UNL     1       0.814   0.636  -1.473  1.00  0.00    -0.384 OA
ATOM     17  C   UNL     1       1.546  -0.519  -1.103  1.00  0.00     0.194 C 
ENDBRANCH  15  16
ENDBRANCH  14  15
ENDBRANCH  11  14
ENDBRANCH  10  11
ENDBRANCH   9  10
ENDBRANCH   5   9
ENDBRANCH   2   4
ENDBRANCH   1   2
BRANCH   1  18
ATOM     18  C   UNL     1      -3.223  -1.310  -4.542  1.00  0.00     0.275 C 
BRANCH  18  19
ATOM     19  C   UNL     1      -4.631  -0.765  -4.769  1.00  0.00     0.275 C 
BRANCH  19  20
ATOM     20  O   UNL     1      -4.662   0.663  -4.824  1.00  0.00    -0.458 OA
BRANCH  20  21
ATOM     21  C   UNL     1      -5.023   1.254  -3.659  1.00  0.00     0.338 C 
ATOM     22  O   UNL     1      -4.977   0.744  -2.551  1.00  0.00    -0.246 OA
BRANCH  21  23
ATOM     23  C   UNL     1      -5.712   2.519  -3.932  1.00  0.00     0.060 A 
ATOM     24  C   UNL     1      -5.925   3.398  -2.866  1.00  0.00     0.016 A 
ATOM     25  C   UNL     1      -6.386   2.664  -5.153  1.00  0.00     0.016 A 
ATOM     26  C   UNL     1      -6.928   4.344  -2.981  1.00  0.00     0.010 A 
ATOM     27  C   UNL     1      -7.402   3.588  -5.253  1.00  0.00     0.010 A 
ATOM     28  C   UNL     1      -7.704   4.380  -4.147  1.00  0.00    -0.014 A 
BRANCH  28  29
ATOM     29  C   UNL     1      -8.753   5.376  -4.260  1.00  0.00     0.031 A 
ATOM     30  C   UNL     1      -8.227   6.740  -4.494  1.00  0.00     0.074 A 
ATOM     31  C   UNL     1     -10.068   5.083  -4.297  1.00  0.00     0.049 A 
ATOM     32  N   UNL     1      -8.264   7.739  -3.680  1.00  0.00    -0.248 NA
ATOM     33  C   UNL     1      -7.408   6.974  -5.693  1.00  0.00     0.031 C 
ATOM     34  C   UNL     1     -10.697   3.763  -4.350  1.00  0.00     0.029 A 
ATOM     35  N   UNL     1     -11.129   5.931  -4.404  1.00  0.00    -0.354 N 
ATOM     36  C   UNL     1      -7.676   8.800  -4.358  1.00  0.00     0.074 A 
ATOM     37  C   UNL     1      -6.988   8.222  -5.480  1.00  0.00     0.031 C 
ATOM     38  C   UNL     1     -11.996   3.904  -4.704  1.00  0.00     0.029 A 
ATOM     39  C   UNL     1     -12.319   5.321  -4.790  1.00  0.00     0.049 A 
ATOM     40  H   UNL     1     -11.059   6.897  -4.224  1.00  0.00     0.167 HD
ATOM     41  C   UNL     1      -8.014  10.085  -4.072  1.00  0.00     0.034 A 
ATOM     42  C   UNL     1     -13.457   5.938  -5.216  1.00  0.00     0.034 A 
ATOM     43  C   UNL     1      -8.701  10.168  -2.802  1.00  0.00     0.049 A 
ATOM     44  C   UNL     1     -13.409   7.334  -4.707  1.00  0.00     0.074 A 
ATOM     45  C   UNL     1      -8.377   9.813  -1.506  1.00  0.00     0.029 A 
ATOM     46  N   UNL     1     -10.072  10.314  -2.816  1.00  0.00    -0.354 N 
ATOM     47  N   UNL     1     -13.482   7.636  -3.440  1.00  0.00    -0.248 NA
ATOM     48  C   UNL     1     -12.783   8.349  -5.545  1.00  0.00     0.031 C 
ATOM     49  C   UNL     1      -9.580   9.278  -0.961  1.00  0.00     0.029 A 
ATOM     50  C   UNL     1     -10.590   9.416  -1.915  1.00  0.00     0.049 A 
ATOM     51  H   UNL     1     -10.585  10.945  -3.369  1.00  0.00     0.167 HD
ATOM     52  C   UNL     1     -12.531   8.627  -3.252  1.00  0.00     0.074 A 
ATOM     53  C   UNL     1     -12.205   9.097  -4.599  1.00  0.00     0.031 C 
ATOM     54  C   UNL     1     -11.885   8.775  -2.057  1.00  0.00     0.034 A 
BRANCH  41  55
ATOM     55  C   UNL     1      -8.066  11.206  -5.083  1.00  0.00     0.023 A 
ATOM     56  C   UNL     1      -8.439  12.476  -4.605  1.00  0.00     0.031 A 
ATOM     57  C   UNL     1      -8.069  11.053  -6.489  1.00  0.00     0.131 A 
ATOM     58  C   UNL     1      -8.904  13.469  -5.481  1.00  0.00     0.055 A 
ATOM     59  C   UNL     1      -8.460  12.072  -7.362  1.00  0.00     0.041 A 
ATOM     60  F   UNL     1      -7.795   9.894  -7.097  1.00  0.00    -0.206 F 
ATOM     61  C   UNL     1      -8.916  13.277  -6.859  1.00  0.00     0.022 A 
BRANCH  58  62
ATOM     62  S   UNL     1      -9.673  14.943  -4.767  1.00  0.00     0.124 S 
ATOM     63  O   UNL     1     -10.726  14.353  -3.948  1.00  0.00    -0.237 OA
ATOM     64  O   UNL     1      -8.557  15.547  -4.048  1.00  0.00    -0.237 OA
ATOM     65  O   UNL     1     -10.133  15.684  -5.939  1.00  0.00    -0.744 OA
ENDBRANCH  58  62
ENDBRANCH  41  55
BRANCH  42  66
ATOM     66  C   UNL     1     -14.406   5.482  -6.276  1.00  0.00     0.023 A 
ATOM     67  C   UNL     1     -15.705   6.019  -6.435  1.00  0.00     0.031 A 
ATOM     68  C   UNL     1     -13.938   4.655  -7.323  1.00  0.00     0.131 A 
ATOM     69  C   UNL     1     -16.466   5.722  -7.595  1.00  0.00     0.055 A 
ATOM     70  C   UNL     1     -14.694   4.362  -8.460  1.00  0.00     0.041 A 
ATOM     71  F   UNL     1     -12.686   4.171  -7.322  1.00  0.00    -0.206 F 
ATOM     72  C   UNL     1     -15.960   4.903  -8.606  1.00  0.00     0.022 A 
BRANCH  69  73
ATOM     73  S   UNL     1     -18.105   6.480  -7.861  1.00  0.00     0.124 S 
ATOM     74  O   UNL     1     -18.927   5.807  -6.862  1.00  0.00    -0.237 OA
ATOM     75  O   UNL     1     -17.839   7.896  -7.637  1.00  0.00    -0.237 OA
ATOM     76  O   UNL     1     -18.421   6.133  -9.248  1.00  0.00    -0.744 OA
ENDBRANCH  69  73
ENDBRANCH  42  66
BRANCH  54  77
ATOM     77  C   UNL     1     -12.430   8.054  -0.839  1.00  0.00     0.023 A 
ATOM     78  C   UNL     1     -12.659   6.661  -0.751  1.00  0.00     0.031 A 
ATOM     79  C   UNL     1     -12.612   8.817   0.329  1.00  0.00     0.131 A 
ATOM     80  C   UNL     1     -13.068   6.090   0.471  1.00  0.00     0.055 A 
ATOM     81  C   UNL     1     -12.989   8.245   1.542  1.00  0.00     0.041 A 
ATOM     82  F   UNL     1     -12.390  10.142   0.319  1.00  0.00    -0.206 F 
ATOM     83  C   UNL     1     -13.226   6.878   1.616  1.00  0.00     0.022 A 
BRANCH  80  84
ATOM     84  S   UNL     1     -13.433   4.308   0.595  1.00  0.00     0.124 S 
ATOM     85  O   UNL     1     -14.238   4.039  -0.590  1.00  0.00    -0.237 OA
ATOM     86  O   UNL     1     -12.100   3.713   0.612  1.00  0.00    -0.237 OA
ATOM     87  O   UNL     1     -14.161   4.199   1.861  1.00  0.00    -0.744 OA
ENDBRANCH  80  84
ENDBRANCH  54  77
ENDBRANCH  28  29
ENDBRANCH  21  23
ENDBRANCH  20  21
ENDBRANCH  19  20
ENDBRANCH  18  19
ENDBRANCH   1  18
TORSDOF 20
