REMARK SMILES NS(=O)(=O)c1ccc(-c2coc(=O)n2-c2ccc(C(=O)OCCOC(=O)c3ccc(-c4c5nc(c(-c6cc(S(=O)(=O)[O-])ccc6F)c6ccc([nH]6)c(-c6cc(S(=O)(=O)[O-])ccc6F)c6nc(c(-c7cc(S(=O)(=O)[O-])ccc7F)c7ccc4[nH]7)C=C6)C=C5)cc3)cc2)cc1
REMARK SMILES IDX 22 1 21 2 19 3 20 4 18 5 15 6 16 7 91 8 17 9 90 10 14 11
REMARK SMILES IDX 9 12 10 13 11 14 12 15 13 16 8 17 5 18 6 19 93 20 7 21 92 22
REMARK SMILES IDX 2 23 3 24 4 25 1 26 23 29 24 30 25 31 26 32 27 33 28 34
REMARK SMILES IDX 89 35 29 36 88 37 30 38 31 39 32 40 82 41 33 42 87 43 81 44
REMARK SMILES IDX 83 45 34 46 86 47 80 48 79 49 35 51 67 52 47 53 66 54 48 55
REMARK SMILES IDX 51 56 65 57 84 58 49 59 50 60 64 62 85 63 52 64 36 65 37 66
REMARK SMILES IDX 45 67 38 68 44 69 46 70 43 71 39 72 40 73 41 74 42 75 68 76
REMARK SMILES IDX 69 77 77 78 70 79 76 80 78 81 75 82 71 83 72 84 73 85 74 86
REMARK SMILES IDX 53 87 54 88 62 89 55 90 61 91 63 92 60 93 56 94 57 95 58 96
REMARK SMILES IDX 59 97
REMARK H PARENT 1 27 1 28 83 50 51 61
REMARK Flexibility Score: inf
ROOT
ATOM      1  C   UNL     1       8.842   1.211   2.842  1.00  0.00     0.275 C 
ENDROOT
BRANCH   1   2
ATOM      2  O   UNL     1       7.655   2.006   3.001  1.00  0.00    -0.458 OA
BRANCH   2   3
ATOM      3  C   UNL     1       6.787   1.587   3.959  1.00  0.00     0.338 C 
ATOM      4  O   UNL     1       6.812   0.514   4.543  1.00  0.00    -0.246 OA
BRANCH   3   5
ATOM      5  C   UNL     1       5.811   2.657   4.278  1.00  0.00     0.060 A 
ATOM      6  C   UNL     1       3.794   4.501   4.869  1.00  0.00     0.053 A 
ATOM      7  C   UNL     1       4.256   3.642   5.868  1.00  0.00     0.028 A 
ATOM      8  C   UNL     1       4.420   4.505   3.612  1.00  0.00     0.028 A 
ATOM      9  C   UNL     1       5.241   2.697   5.561  1.00  0.00     0.018 A 
ATOM     10  C   UNL     1       5.441   3.604   3.323  1.00  0.00     0.018 A 
BRANCH   6  11
ATOM     11  N   UNL     1       2.626   5.265   5.060  1.00  0.00    -0.242 N 
ATOM     12  C   UNL     1       1.537   5.331   4.236  1.00  0.00     0.095 A 
ATOM     13  C   UNL     1       0.705   6.201   4.794  1.00  0.00     0.228 A 
ATOM     14  O   UNL     1       1.161   6.743   5.993  1.00  0.00    -0.415 OA
ATOM     15  C   UNL     1       2.384   6.086   6.160  1.00  0.00     0.424 A 
ATOM     16  O   UNL     1       3.092   6.264   7.139  1.00  0.00    -0.223 OA
BRANCH  12  17
ATOM     17  C   UNL     1       1.259   4.439   3.110  1.00  0.00     0.002 A 
ATOM     18  C   UNL     1       0.729   2.683   0.989  1.00  0.00     0.082 A 
ATOM     19  C   UNL     1       1.046   2.165   2.244  1.00  0.00     0.022 A 
ATOM     20  C   UNL     1       0.679   4.066   0.783  1.00  0.00     0.022 A 
ATOM     21  C   UNL     1       1.304   3.044   3.298  1.00  0.00     0.012 A 
ATOM     22  C   UNL     1       0.937   4.941   1.844  1.00  0.00     0.012 A 
BRANCH  18  23
ATOM     23  S   UNL     1       0.415   1.611  -0.381  1.00  0.00     0.238 S 
ATOM     24  O   UNL     1       1.155   2.105  -1.528  1.00  0.00    -0.207 OA
ATOM     25  O   UNL     1      -0.994   1.333  -0.429  1.00  0.00    -0.207 OA
BRANCH  23  26
ATOM     26  N   UNL     1       1.165   0.165   0.029  1.00  0.00    -0.225 NA
ATOM     27  H   UNL     1       1.028  -0.514  -0.720  1.00  0.00     0.137 HD
ATOM     28  H   UNL     1       0.759  -0.195   0.893  1.00  0.00     0.137 HD
ENDBRANCH  23  26
ENDBRANCH  18  23
ENDBRANCH  12  17
ENDBRANCH   6  11
ENDBRANCH   3   5
ENDBRANCH   2   3
ENDBRANCH   1   2
BRANCH   1  29
ATOM     29  C   UNL     1       9.945   1.664   3.788  1.00  0.00     0.275 C 
BRANCH  29  30
ATOM     30  O   UNL     1       9.605   1.377   5.141  1.00  0.00    -0.458 OA
BRANCH  30  31
ATOM     31  C   UNL     1       9.031   2.406   5.807  1.00  0.00     0.338 C 
ATOM     32  O   UNL     1       8.504   3.394   5.324  1.00  0.00    -0.246 OA
BRANCH  31  33
ATOM     33  C   UNL     1       9.356   2.292   7.227  1.00  0.00     0.060 A 
ATOM     34  C   UNL     1       8.783   3.228   8.093  1.00  0.00     0.016 A 
ATOM     35  C   UNL     1      10.477   1.530   7.581  1.00  0.00     0.016 A 
ATOM     36  C   UNL     1       9.475   3.560   9.237  1.00  0.00     0.010 A 
ATOM     37  C   UNL     1      11.178   1.884   8.702  1.00  0.00     0.010 A 
ATOM     38  C   UNL     1      10.714   2.952   9.466  1.00  0.00    -0.014 A 
BRANCH  38  39
ATOM     39  C   UNL     1      11.482   3.317  10.637  1.00  0.00     0.031 A 
ATOM     40  C   UNL     1      10.860   2.773  11.868  1.00  0.00     0.074 A 
ATOM     41  C   UNL     1      12.692   3.904  10.541  1.00  0.00     0.049 A 
ATOM     42  N   UNL     1      10.269   3.435  12.804  1.00  0.00    -0.248 NA
ATOM     43  C   UNL     1      10.628   1.316  11.938  1.00  0.00     0.031 C 
ATOM     44  C   UNL     1      13.453   4.239   9.334  1.00  0.00     0.029 A 
ATOM     45  N   UNL     1      13.558   4.239  11.531  1.00  0.00    -0.354 N 
ATOM     46  C   UNL     1       9.845   2.477  13.719  1.00  0.00     0.074 A 
ATOM     47  C   UNL     1       9.839   1.233  13.008  1.00  0.00     0.031 C 
ATOM     48  C   UNL     1      14.740   4.499   9.668  1.00  0.00     0.029 A 
ATOM     49  C   UNL     1      14.870   4.471  11.116  1.00  0.00     0.049 A 
ATOM     50  H   UNL     1      13.281   4.312  12.473  1.00  0.00     0.167 HD
ATOM     51  C   UNL     1       9.852   2.746  15.052  1.00  0.00     0.034 A 
ATOM     52  C   UNL     1      15.971   4.555  11.920  1.00  0.00     0.034 A 
ATOM     53  C   UNL     1       9.915   4.178  15.273  1.00  0.00     0.049 A 
ATOM     54  C   UNL     1      15.459   4.859  13.287  1.00  0.00     0.074 A 
ATOM     55  C   UNL     1       9.104   5.241  14.925  1.00  0.00     0.029 A 
ATOM     56  N   UNL     1      11.144   4.731  15.572  1.00  0.00    -0.354 N 
ATOM     57  N   UNL     1      14.850   5.978  13.578  1.00  0.00    -0.248 NA
ATOM     58  C   UNL     1      15.121   3.733  14.149  1.00  0.00     0.031 C 
ATOM     59  C   UNL     1      10.004   6.281  14.549  1.00  0.00     0.029 A 
ATOM     60  C   UNL     1      11.310   5.847  14.787  1.00  0.00     0.049 A 
ATOM     61  H   UNL     1      11.788   4.386  16.231  1.00  0.00     0.167 HD
ATOM     62  C   UNL     1      13.756   5.608  14.348  1.00  0.00     0.074 A 
ATOM     63  C   UNL     1      14.015   4.216  14.726  1.00  0.00     0.031 C 
ATOM     64  C   UNL     1      12.603   6.344  14.346  1.00  0.00     0.034 A 
BRANCH  51  65
ATOM     65  C   UNL     1      10.255   1.745  16.118  1.00  0.00     0.023 A 
ATOM     66  C   UNL     1      10.376   2.253  17.424  1.00  0.00     0.031 A 
ATOM     67  C   UNL     1      10.806   0.458  15.915  1.00  0.00     0.131 A 
ATOM     68  C   UNL     1      11.152   1.592  18.388  1.00  0.00     0.055 A 
ATOM     69  C   UNL     1      11.525  -0.227  16.899  1.00  0.00     0.041 A 
ATOM     70  F   UNL     1      10.756  -0.192  14.748  1.00  0.00    -0.206 F 
ATOM     71  C   UNL     1      11.739   0.359  18.132  1.00  0.00     0.022 A 
BRANCH  68  72
ATOM     72  S   UNL     1      11.543   2.486  19.910  1.00  0.00     0.124 S 
ATOM     73  O   UNL     1      12.116   3.719  19.380  1.00  0.00    -0.237 OA
ATOM     74  O   UNL     1      10.228   2.600  20.533  1.00  0.00    -0.237 OA
ATOM     75  O   UNL     1      12.482   1.599  20.590  1.00  0.00    -0.744 OA
ENDBRANCH  68  72
ENDBRANCH  51  65
BRANCH  52  76
ATOM     76  C   UNL     1      17.333   3.982  11.655  1.00  0.00     0.023 A 
ATOM     77  C   UNL     1      18.507   4.365  12.352  1.00  0.00     0.031 A 
ATOM     78  C   UNL     1      17.445   2.836  10.833  1.00  0.00     0.131 A 
ATOM     79  C   UNL     1      19.709   3.620  12.202  1.00  0.00     0.055 A 
ATOM     80  C   UNL     1      18.628   2.105  10.695  1.00  0.00     0.041 A 
ATOM     81  F   UNL     1      16.379   2.331  10.195  1.00  0.00    -0.206 F 
ATOM     82  C   UNL     1      19.764   2.489  11.386  1.00  0.00     0.022 A 
BRANCH  79  83
ATOM     83  S   UNL     1      21.229   4.064  13.120  1.00  0.00     0.124 S 
ATOM     84  O   UNL     1      21.583   5.351  12.535  1.00  0.00    -0.237 OA
ATOM     85  O   UNL     1      20.770   4.082  14.504  1.00  0.00    -0.237 OA
ATOM     86  O   UNL     1      22.154   2.974  12.800  1.00  0.00    -0.744 OA
ENDBRANCH  79  83
ENDBRANCH  52  76
BRANCH  64  87
ATOM     87  C   UNL     1      12.617   7.710  13.680  1.00  0.00     0.023 A 
ATOM     88  C   UNL     1      12.920   7.959  12.318  1.00  0.00     0.031 A 
ATOM     89  C   UNL     1      12.170   8.796  14.452  1.00  0.00     0.131 A 
ATOM     90  C   UNL     1      12.778   9.260  11.790  1.00  0.00     0.055 A 
ATOM     91  C   UNL     1      12.005  10.072  13.919  1.00  0.00     0.041 A 
ATOM     92  F   UNL     1      11.843   8.621  15.743  1.00  0.00    -0.206 F 
ATOM     93  C   UNL     1      12.313  10.311  12.586  1.00  0.00     0.022 A 
BRANCH  90  94
ATOM     94  S   UNL     1      13.220   9.626  10.056  1.00  0.00     0.124 S 
ATOM     95  O   UNL     1      14.536   9.017   9.905  1.00  0.00    -0.237 OA
ATOM     96  O   UNL     1      12.134   8.996   9.311  1.00  0.00    -0.237 OA
ATOM     97  O   UNL     1      13.219  11.090  10.007  1.00  0.00    -0.744 OA
ENDBRANCH  90  94
ENDBRANCH  64  87
ENDBRANCH  38  39
ENDBRANCH  31  33
ENDBRANCH  30  31
ENDBRANCH  29  30
ENDBRANCH   1  29
TORSDOF 18
