REMARK SMILES CCOC(=O)[C@H](C)NC(=O)N1CC[C@H](C(=O)OCCOC(=O)c2ccc(-c3c4nc(c(-c5cc(S(=O)(=O)[O-])ccc5F)c5ccc([nH]5)c(-c5cc(S(=O)(=O)[O-])ccc5F)c5nc(c(-c6cc(S(=O)(=O)[O-])ccc6F)c6ccc3[nH]6)C=C5)C=C4)cc2)[C@@H]1C
REMARK SMILES IDX 18 1 17 2 15 3 16 4 14 5 11 6 12 7 86 8 13 9 87 10 9 11 8 12
REMARK SMILES IDX 10 14 6 15 7 16 4 17 5 18 3 19 2 20 1 21 19 22 20 23 21 24
REMARK SMILES IDX 22 25 23 26 24 27 85 28 25 29 84 30 26 31 27 32 28 33 78 34
REMARK SMILES IDX 29 35 83 36 77 37 79 38 30 39 82 40 76 41 75 42 31 44 63 45
REMARK SMILES IDX 43 46 62 47 44 48 47 49 61 50 80 51 45 52 46 53 60 55 81 56
REMARK SMILES IDX 48 57 32 58 33 59 41 60 34 61 40 62 42 63 39 64 35 65 36 66
REMARK SMILES IDX 37 67 38 68 64 69 65 70 73 71 66 72 72 73 74 74 71 75 67 76
REMARK SMILES IDX 68 77 69 78 70 79 49 80 50 81 58 82 51 83 57 84 59 85 56 86
REMARK SMILES IDX 52 87 53 88 54 89 55 90
REMARK H PARENT 8 13 79 43 47 54
REMARK Flexibility Score: inf
ROOT
ATOM      1  C   UNL     1      10.132   1.224   6.785  1.00  0.00     0.274 C 
ENDROOT
BRANCH   1   2
ATOM      2  O   UNL     1       9.283   0.857   5.676  1.00  0.00    -0.462 OA
BRANCH   2   3
ATOM      3  C   UNL     1       8.108   0.252   6.009  1.00  0.00     0.311 C 
ATOM      4  O   UNL     1       7.716   0.100   7.157  1.00  0.00    -0.252 OA
BRANCH   3   5
ATOM      5  C   UNL     1       7.402  -0.290   4.766  1.00  0.00     0.123 C 
ATOM      6  N   UNL     1       5.113  -0.739   5.284  1.00  0.00    -0.321 N 
ATOM      7  C   UNL     1       5.912  -1.864   5.753  1.00  0.00     0.122 C 
ATOM      8  C   UNL     1       5.952   0.207   4.537  1.00  0.00     0.098 C 
ATOM      9  C   UNL     1       7.208  -1.792   4.960  1.00  0.00     0.039 C 
ATOM     10  C   UNL     1       5.794   1.687   4.859  1.00  0.00     0.032 C 
BRANCH   6  11
ATOM     11  C   UNL     1       3.792  -0.757   5.602  1.00  0.00     0.318 C 
ATOM     12  N   UNL     1       2.887   0.034   5.016  1.00  0.00    -0.325 N 
ATOM     13  H   UNL     1       2.080   0.147   5.569  1.00  0.00     0.166 HD
ATOM     14  O   UNL     1       3.362  -1.536   6.459  1.00  0.00    -0.249 OA
BRANCH  12  15
ATOM     15  C   UNL     1       2.799   0.773   3.756  1.00  0.00     0.190 C 
ATOM     16  C   UNL     1       2.245  -0.113   2.648  1.00  0.00     0.043 C 
BRANCH  15  17
ATOM     17  C   UNL     1       1.847   1.949   3.987  1.00  0.00     0.328 C 
ATOM     18  O   UNL     1       0.989   1.968   4.861  1.00  0.00    -0.250 OA
BRANCH  17  19
ATOM     19  O   UNL     1       2.048   2.920   3.054  1.00  0.00    -0.464 OA
BRANCH  19  20
ATOM     20  C   UNL     1       1.147   4.040   3.128  1.00  0.00     0.229 C 
ATOM     21  C   UNL     1      -0.163   3.705   2.439  1.00  0.00     0.049 C 
ENDBRANCH  19  20
ENDBRANCH  17  19
ENDBRANCH  15  17
ENDBRANCH  12  15
ENDBRANCH   6  11
ENDBRANCH   3   5
ENDBRANCH   2   3
ENDBRANCH   1   2
BRANCH   1  22
ATOM     22  C   UNL     1      10.035   2.713   7.101  1.00  0.00     0.275 C 
BRANCH  22  23
ATOM     23  O   UNL     1       8.738   3.018   7.641  1.00  0.00    -0.458 OA
BRANCH  23  24
ATOM     24  C   UNL     1       8.090   4.045   7.044  1.00  0.00     0.338 C 
ATOM     25  O   UNL     1       8.514   4.737   6.133  1.00  0.00    -0.246 OA
BRANCH  24  26
ATOM     26  C   UNL     1       6.740   4.235   7.618  1.00  0.00     0.060 A 
ATOM     27  C   UNL     1       5.900   3.148   7.848  1.00  0.00     0.016 A 
ATOM     28  C   UNL     1       6.238   5.532   7.731  1.00  0.00     0.016 A 
ATOM     29  C   UNL     1       4.526   3.358   7.985  1.00  0.00     0.010 A 
ATOM     30  C   UNL     1       4.886   5.735   8.031  1.00  0.00     0.010 A 
ATOM     31  C   UNL     1       3.990   4.653   8.089  1.00  0.00    -0.014 A 
BRANCH  31  32
ATOM     32  C   UNL     1       2.512   4.886   8.191  1.00  0.00     0.031 A 
ATOM     33  C   UNL     1       1.827   5.879   7.274  1.00  0.00     0.074 A 
ATOM     34  C   UNL     1       1.757   4.215   9.087  1.00  0.00     0.049 A 
ATOM     35  N   UNL     1       0.639   6.424   7.371  1.00  0.00    -0.248 NA
ATOM     36  C   UNL     1       2.598   6.348   6.112  1.00  0.00     0.031 C 
ATOM     37  C   UNL     1       2.242   3.186  10.008  1.00  0.00     0.029 A 
ATOM     38  N   UNL     1       0.411   4.286   9.361  1.00  0.00    -0.354 N 
ATOM     39  C   UNL     1       0.554   7.358   6.341  1.00  0.00     0.074 A 
ATOM     40  C   UNL     1       1.817   7.305   5.632  1.00  0.00     0.031 C 
ATOM     41  C   UNL     1       1.205   2.670  10.682  1.00  0.00     0.029 A 
ATOM     42  C   UNL     1       0.002   3.420  10.350  1.00  0.00     0.049 A 
ATOM     43  H   UNL     1      -0.202   4.899   8.894  1.00  0.00     0.167 HD
ATOM     44  C   UNL     1      -0.476   8.184   6.024  1.00  0.00     0.034 A 
ATOM     45  C   UNL     1      -1.186   3.276  10.970  1.00  0.00     0.034 A 
ATOM     46  C   UNL     1      -1.759   8.166   6.690  1.00  0.00     0.049 A 
ATOM     47  C   UNL     1      -2.316   4.200  10.604  1.00  0.00     0.074 A 
ATOM     48  C   UNL     1      -2.869   8.960   6.452  1.00  0.00     0.029 A 
ATOM     49  N   UNL     1      -2.118   7.287   7.705  1.00  0.00    -0.354 N 
ATOM     50  N   UNL     1      -2.336   5.172   9.721  1.00  0.00    -0.248 NA
ATOM     51  C   UNL     1      -3.575   4.022  11.336  1.00  0.00     0.031 C 
ATOM     52  C   UNL     1      -3.879   8.595   7.351  1.00  0.00     0.029 A 
ATOM     53  C   UNL     1      -3.425   7.526   8.106  1.00  0.00     0.049 A 
ATOM     54  H   UNL     1      -1.530   6.596   8.086  1.00  0.00     0.167 HD
ATOM     55  C   UNL     1      -3.614   5.717   9.791  1.00  0.00     0.074 A 
ATOM     56  C   UNL     1      -4.342   4.946  10.778  1.00  0.00     0.031 C 
ATOM     57  C   UNL     1      -4.136   6.766   9.106  1.00  0.00     0.034 A 
BRANCH  44  58
ATOM     58  C   UNL     1      -0.237   9.222   4.950  1.00  0.00     0.023 A 
ATOM     59  C   UNL     1       0.018   8.877   3.613  1.00  0.00     0.031 A 
ATOM     60  C   UNL     1      -0.242  10.591   5.283  1.00  0.00     0.131 A 
ATOM     61  C   UNL     1       0.331   9.877   2.678  1.00  0.00     0.055 A 
ATOM     62  C   UNL     1      -0.013  11.586   4.330  1.00  0.00     0.041 A 
ATOM     63  F   UNL     1      -0.461  10.986   6.548  1.00  0.00    -0.206 F 
ATOM     64  C   UNL     1       0.292  11.231   3.021  1.00  0.00     0.022 A 
BRANCH  61  65
ATOM     65  S   UNL     1       0.936   9.372   1.044  1.00  0.00     0.124 S 
ATOM     66  O   UNL     1       2.095   8.555   1.399  1.00  0.00    -0.237 OA
ATOM     67  O   UNL     1      -0.205   8.650   0.495  1.00  0.00    -0.237 OA
ATOM     68  O   UNL     1       1.252  10.639   0.387  1.00  0.00    -0.744 OA
ENDBRANCH  61  65
ENDBRANCH  44  58
BRANCH  45  69
ATOM     69  C   UNL     1      -1.343   2.275  12.066  1.00  0.00     0.023 A 
ATOM     70  C   UNL     1      -2.241   1.202  11.949  1.00  0.00     0.031 A 
ATOM     71  C   UNL     1      -0.610   2.393  13.261  1.00  0.00     0.131 A 
ATOM     72  C   UNL     1      -2.404   0.308  13.019  1.00  0.00     0.055 A 
ATOM     73  C   UNL     1      -0.727   1.464  14.295  1.00  0.00     0.041 A 
ATOM     74  F   UNL     1       0.255   3.406  13.431  1.00  0.00    -0.206 F 
ATOM     75  C   UNL     1      -1.637   0.419  14.181  1.00  0.00     0.022 A 
BRANCH  72  76
ATOM     76  S   UNL     1      -3.699  -0.958  12.910  1.00  0.00     0.124 S 
ATOM     77  O   UNL     1      -4.896  -0.143  12.729  1.00  0.00    -0.237 OA
ATOM     78  O   UNL     1      -3.272  -1.736  11.753  1.00  0.00    -0.237 OA
ATOM     79  O   UNL     1      -3.607  -1.651  14.194  1.00  0.00    -0.744 OA
ENDBRANCH  72  76
ENDBRANCH  45  69
BRANCH  57  80
ATOM     80  C   UNL     1      -5.580   7.101   9.384  1.00  0.00     0.023 A 
ATOM     81  C   UNL     1      -5.994   7.609  10.629  1.00  0.00     0.031 A 
ATOM     82  C   UNL     1      -6.562   6.860   8.407  1.00  0.00     0.131 A 
ATOM     83  C   UNL     1      -7.360   7.795  10.888  1.00  0.00     0.055 A 
ATOM     84  C   UNL     1      -7.915   7.100   8.652  1.00  0.00     0.041 A 
ATOM     85  F   UNL     1      -6.223   6.375   7.202  1.00  0.00    -0.206 F 
ATOM     86  C   UNL     1      -8.322   7.554   9.903  1.00  0.00     0.022 A 
BRANCH  83  87
ATOM     87  S   UNL     1      -7.875   8.250  12.567  1.00  0.00     0.124 S 
ATOM     88  O   UNL     1      -7.300   7.173  13.366  1.00  0.00    -0.237 OA
ATOM     89  O   UNL     1      -7.264   9.564  12.735  1.00  0.00    -0.237 OA
ATOM     90  O   UNL     1      -9.335   8.252  12.490  1.00  0.00    -0.744 OA
ENDBRANCH  83  87
ENDBRANCH  57  80
ENDBRANCH  31  32
ENDBRANCH  24  26
ENDBRANCH  23  24
ENDBRANCH  22  23
ENDBRANCH   1  22
TORSDOF 19
